MODEL 1
REMARK VINA RESULT:     -12.4      0.000      0.000
REMARK SMILES CC1(C)C[C@@H](Nc2ccc(Cl)c(C(=O)NCCCCNC(=O)c3ccc(-c4c5nc(c(-c6c(F)cccc6F)c6ccc([nH]6)c(-c6c(F)cccc6F)c6nc(c(-c7c(F)cccc7F)c7ccc4[nH]7)C=C6)C=C5)cc3)c2)C(C)(C)O1
REMARK SMILES IDX 17 1 16 2 15 3 13 4 14 5 12 7 7 8 8 9 77 10 9 11 10 12 11 13
REMARK SMILES IDX 6 14 5 16 1 17 2 18 3 19 4 20 81 21 78 22 79 23 80 24 18 25
REMARK SMILES IDX 19 26 20 27 21 28 22 30 23 31 24 32 76 33 25 34 75 35 26 36
REMARK SMILES IDX 27 37 28 38 69 39 29 40 74 41 68 42 70 43 30 44 73 45 67 46
REMARK SMILES IDX 66 47 31 49 57 50 40 51 56 52 41 53 44 54 55 55 71 56 42 57
REMARK SMILES IDX 43 58 54 60 72 61 45 62 32 63 33 64 38 65 34 66 35 67 37 68
REMARK SMILES IDX 39 69 36 70 58 71 59 72 64 73 60 74 61 75 63 76 65 77 62 78
REMARK SMILES IDX 46 79 47 80 52 81 48 82 49 83 51 84 53 85 50 86
REMARK H PARENT 15 6 6 15 20 29 70 48 44 59
REMARK Flexibility Score: inf
ROOT
ATOM      1  C   UNL A   1      31.563  30.699  26.147  1.00  0.00     0.023 C 
ENDROOT
BRANCH   1   2
ATOM      2  C   UNL A   1      32.914  30.067  26.450  1.00  0.00     0.116 C 
BRANCH   2   3
ATOM      3  N   UNL A   1      33.611  29.519  25.302  1.00  0.00    -0.352 N 
ATOM      4  C   UNL A   1      33.398  28.347  24.612  1.00  0.00     0.252 C 
ATOM      5  O   UNL A   1      34.086  28.127  23.615  1.00  0.00    -0.269 OA
ATOM      6  H   UNL A   1      34.352  30.072  24.965  1.00  0.00     0.163 HD
BRANCH   4   7
ATOM      7  C   UNL A   1      32.457  27.295  25.078  1.00  0.00     0.060 A 
ATOM      8  C   UNL A   1      32.271  25.101  26.143  1.00  0.00     0.035 A 
ATOM      9  C   UNL A   1      30.880  25.226  26.112  1.00  0.00     0.027 A 
ATOM     10  C   UNL A   1      33.049  26.171  25.694  1.00  0.00     0.041 A 
ATOM     11  C   UNL A   1      30.283  26.298  25.461  1.00  0.00     0.023 A 
ATOM     12  C   UNL A   1      31.075  27.278  24.858  1.00  0.00     0.053 A 
ATOM     13  Cl  UNL A   1      30.271  28.280  23.700  1.00  0.00    -0.083 Cl
BRANCH   8  14
ATOM     14  N   UNL A   1      32.852  23.854  26.383  1.00  0.00    -0.379 N 
ATOM     15  H   UNL A   1      33.170  23.580  27.273  1.00  0.00     0.160 HD
BRANCH  14  16
ATOM     16  C   UNL A   1      32.954  22.982  25.204  1.00  0.00     0.113 C 
ATOM     17  C   UNL A   1      32.528  19.349  24.605  1.00  0.00     0.042 C 
ATOM     18  C   UNL A   1      32.717  20.826  24.273  1.00  0.00     0.065 C 
ATOM     19  C   UNL A   1      32.153  21.114  22.875  1.00  0.00     0.042 C 
ATOM     20  C   UNL A   1      32.119  21.729  25.349  1.00  0.00     0.062 C 
ATOM     21  O   UNL A   1      34.127  21.124  24.251  1.00  0.00    -0.367 OA
ATOM     22  C   UNL A   1      34.355  22.415  24.881  1.00  0.00     0.083 C 
ATOM     23  C   UNL A   1      35.247  22.149  26.095  1.00  0.00     0.044 C 
ATOM     24  C   UNL A   1      35.099  23.299  23.878  1.00  0.00     0.044 C 
ENDBRANCH  14  16
ENDBRANCH   8  14
ENDBRANCH   4   7
ENDBRANCH   2   3
ENDBRANCH   1   2
BRANCH   1  25
ATOM     25  C   UNL A   1      31.404  32.175  26.501  1.00  0.00     0.023 C 
BRANCH  25  26
ATOM     26  C   UNL A   1      32.567  32.838  27.235  1.00  0.00     0.116 C 
BRANCH  26  27
ATOM     27  N   UNL A   1      32.303  34.203  27.667  1.00  0.00    -0.352 N 
ATOM     28  C   UNL A   1      32.960  34.987  28.586  1.00  0.00     0.251 C 
ATOM     29  H   UNL A   1      31.531  34.632  27.231  1.00  0.00     0.163 HD
ATOM     30  O   UNL A   1      32.530  36.107  28.851  1.00  0.00    -0.269 OA
BRANCH  28  31
ATOM     31  C   UNL A   1      34.153  34.476  29.296  1.00  0.00     0.039 A 
ATOM     32  C   UNL A   1      33.980  33.847  30.532  1.00  0.00     0.014 A 
ATOM     33  C   UNL A   1      35.431  34.593  28.748  1.00  0.00     0.014 A 
ATOM     34  C   UNL A   1      35.074  33.253  31.169  1.00  0.00     0.010 A 
ATOM     35  C   UNL A   1      36.502  33.927  29.338  1.00  0.00     0.010 A 
ATOM     36  C   UNL A   1      36.335  33.244  30.552  1.00  0.00    -0.014 A 
BRANCH  36  37
ATOM     37  C   UNL A   1      37.484  32.518  31.154  1.00  0.00     0.031 A 
ATOM     38  C   UNL A   1      38.088  32.992  32.448  1.00  0.00     0.074 A 
ATOM     39  C   UNL A   1      38.030  31.471  30.504  1.00  0.00     0.049 A 
ATOM     40  N   UNL A   1      39.130  32.531  33.093  1.00  0.00    -0.248 NA
ATOM     41  C   UNL A   1      37.457  34.159  33.085  1.00  0.00     0.031 C 
ATOM     42  C   UNL A   1      37.579  30.946  29.213  1.00  0.00     0.029 A 
ATOM     43  N   UNL A   1      39.092  30.666  30.834  1.00  0.00    -0.354 N 
ATOM     44  C   UNL A   1      39.289  33.360  34.196  1.00  0.00     0.074 A 
ATOM     45  C   UNL A   1      38.272  34.386  34.104  1.00  0.00     0.031 C 
ATOM     46  C   UNL A   1      38.339  29.892  28.876  1.00  0.00     0.029 A 
ATOM     47  C   UNL A   1      39.352  29.687  29.905  1.00  0.00     0.049 A 
ATOM     48  H   UNL A   1      39.617  30.780  31.658  1.00  0.00     0.167 HD
ATOM     49  C   UNL A   1      40.181  33.262  35.211  1.00  0.00     0.037 A 
ATOM     50  C   UNL A   1      40.302  28.732  29.885  1.00  0.00     0.037 A 
ATOM     51  C   UNL A   1      41.171  32.223  35.320  1.00  0.00     0.049 A 
ATOM     52  C   UNL A   1      41.275  28.637  31.028  1.00  0.00     0.074 A 
ATOM     53  C   UNL A   1      42.078  32.001  36.342  1.00  0.00     0.029 A 
ATOM     54  N   UNL A   1      41.385  31.233  34.373  1.00  0.00    -0.354 N 
ATOM     55  N   UNL A   1      41.365  29.383  32.102  1.00  0.00    -0.248 NA
ATOM     56  C   UNL A   1      42.272  27.559  30.960  1.00  0.00     0.031 C 
ATOM     57  C   UNL A   1      42.867  30.899  35.993  1.00  0.00     0.029 A 
ATOM     58  C   UNL A   1      42.421  30.407  34.778  1.00  0.00     0.049 A 
ATOM     59  H   UNL A   1      40.876  31.132  33.537  1.00  0.00     0.167 HD
ATOM     60  C   UNL A   1      42.406  28.850  32.849  1.00  0.00     0.074 A 
ATOM     61  C   UNL A   1      42.907  27.707  32.114  1.00  0.00     0.031 C 
ATOM     62  C   UNL A   1      42.902  29.268  34.039  1.00  0.00     0.037 A 
BRANCH  49  63
ATOM     63  C   UNL A   1      40.116  34.303  36.291  1.00  0.00     0.057 A 
ATOM     64  C   UNL A   1      39.339  34.124  37.444  1.00  0.00     0.134 A 
ATOM     65  C   UNL A   1      40.857  35.487  36.191  1.00  0.00     0.134 A 
ATOM     66  F   UNL A   1      38.595  33.017  37.596  1.00  0.00    -0.206 F 
ATOM     67  C   UNL A   1      39.279  35.095  38.442  1.00  0.00     0.040 A 
ATOM     68  C   UNL A   1      40.828  36.453  37.197  1.00  0.00     0.040 A 
ATOM     69  F   UNL A   1      41.628  35.720  35.117  1.00  0.00    -0.206 F 
ATOM     70  C   UNL A   1      40.030  36.263  38.323  1.00  0.00     0.006 A 
ENDBRANCH  49  63
BRANCH  50  71
ATOM     71  C   UNL A   1      40.364  27.766  28.759  1.00  0.00     0.057 A 
ATOM     72  C   UNL A   1      41.128  28.037  27.618  1.00  0.00     0.134 A 
ATOM     73  C   UNL A   1      39.653  26.561  28.787  1.00  0.00     0.134 A 
ATOM     74  F   UNL A   1      41.816  29.185  27.524  1.00  0.00    -0.206 F 
ATOM     75  C   UNL A   1      41.170  27.154  26.538  1.00  0.00     0.040 A 
ATOM     76  C   UNL A   1      39.705  25.656  27.724  1.00  0.00     0.040 A 
ATOM     77  F   UNL A   1      38.907  26.238  29.854  1.00  0.00    -0.206 F 
ATOM     78  C   UNL A   1      40.460  25.957  26.592  1.00  0.00     0.006 A 
ENDBRANCH  50  71
BRANCH  62  79
ATOM     79  C   UNL A   1      44.019  28.464  34.638  1.00  0.00     0.057 A 
ATOM     80  C   UNL A   1      45.364  28.782  34.412  1.00  0.00     0.134 A 
ATOM     81  C   UNL A   1      43.742  27.378  35.478  1.00  0.00     0.134 A 
ATOM     82  F   UNL A   1      45.696  29.802  33.606  1.00  0.00    -0.206 F 
ATOM     83  C   UNL A   1      46.395  28.033  34.982  1.00  0.00     0.040 A 
ATOM     84  C   UNL A   1      44.765  26.638  36.075  1.00  0.00     0.040 A 
ATOM     85  F   UNL A   1      42.475  27.026  35.743  1.00  0.00    -0.206 F 
ATOM     86  C   UNL A   1      46.095  26.962  35.822  1.00  0.00     0.006 A 
ENDBRANCH  62  79
ENDBRANCH  36  37
ENDBRANCH  28  31
ENDBRANCH  26  27
ENDBRANCH  25  26
ENDBRANCH   1  25
TORSDOF 13
ENDMDL
MODEL 2
REMARK VINA RESULT:     -12.3      4.958     10.230
REMARK SMILES CC1(C)C[C@@H](Nc2ccc(Cl)c(C(=O)NCCCCNC(=O)c3ccc(-c4c5nc(c(-c6c(F)cccc6F)c6ccc([nH]6)c(-c6c(F)cccc6F)c6nc(c(-c7c(F)cccc7F)c7ccc4[nH]7)C=C6)C=C5)cc3)c2)C(C)(C)O1
REMARK SMILES IDX 17 1 16 2 15 3 13 4 14 5 12 7 7 8 8 9 77 10 9 11 10 12 11 13
REMARK SMILES IDX 6 14 5 16 1 17 2 18 3 19 4 20 81 21 78 22 79 23 80 24 18 25
REMARK SMILES IDX 19 26 20 27 21 28 22 30 23 31 24 32 76 33 25 34 75 35 26 36
REMARK SMILES IDX 27 37 28 38 69 39 29 40 74 41 68 42 70 43 30 44 73 45 67 46
REMARK SMILES IDX 66 47 31 49 57 50 40 51 56 52 41 53 44 54 55 55 71 56 42 57
REMARK SMILES IDX 43 58 54 60 72 61 45 62 32 63 33 64 38 65 34 66 35 67 37 68
REMARK SMILES IDX 39 69 36 70 58 71 59 72 64 73 60 74 61 75 63 76 65 77 62 78
REMARK SMILES IDX 46 79 47 80 52 81 48 82 49 83 51 84 53 85 50 86
REMARK H PARENT 15 6 6 15 20 29 70 48 44 59
REMARK Flexibility Score: inf
ROOT
ATOM      1  C   UNL A   1      36.853  20.972  24.634  1.00  0.00     0.023 C 
ENDROOT
BRANCH   1   2
ATOM      2  C   UNL A   1      37.079  22.252  25.424  1.00  0.00     0.116 C 
BRANCH   2   3
ATOM      3  N   UNL A   1      36.049  22.569  26.396  1.00  0.00    -0.352 N 
ATOM      4  C   UNL A   1      34.734  22.930  26.208  1.00  0.00     0.252 C 
ATOM      5  O   UNL A   1      34.026  23.085  27.203  1.00  0.00    -0.269 OA
ATOM      6  H   UNL A   1      36.336  22.516  27.336  1.00  0.00     0.163 HD
BRANCH   4   7
ATOM      7  C   UNL A   1      34.166  23.245  24.871  1.00  0.00     0.060 A 
ATOM      8  C   UNL A   1      33.680  25.029  23.269  1.00  0.00     0.035 A 
ATOM      9  C   UNL A   1      33.235  24.065  22.362  1.00  0.00     0.027 A 
ATOM     10  C   UNL A   1      34.213  24.603  24.489  1.00  0.00     0.041 A 
ATOM     11  C   UNL A   1      33.130  22.733  22.743  1.00  0.00     0.023 A 
ATOM     12  C   UNL A   1      33.502  22.344  24.032  1.00  0.00     0.053 A 
ATOM     13  Cl  UNL A   1      32.904  20.806  24.548  1.00  0.00    -0.083 Cl
BRANCH   8  14
ATOM     14  N   UNL A   1      33.373  26.375  23.062  1.00  0.00    -0.379 N 
ATOM     15  H   UNL A   1      34.006  27.005  22.648  1.00  0.00     0.160 HD
BRANCH  14  16
ATOM     16  C   UNL A   1      32.032  26.779  23.508  1.00  0.00     0.113 C 
ATOM     17  C   UNL A   1      29.548  29.281  22.364  1.00  0.00     0.042 C 
ATOM     18  C   UNL A   1      30.110  28.103  23.153  1.00  0.00     0.065 C 
ATOM     19  C   UNL A   1      28.965  27.166  23.563  1.00  0.00     0.042 C 
ATOM     20  C   UNL A   1      31.216  27.384  22.386  1.00  0.00     0.062 C 
ATOM     21  O   UNL A   1      30.728  28.599  24.358  1.00  0.00    -0.367 OA
ATOM     22  C   UNL A   1      31.965  27.873  24.597  1.00  0.00     0.083 C 
ATOM     23  C   UNL A   1      33.088  28.910  24.550  1.00  0.00     0.044 C 
ATOM     24  C   UNL A   1      31.884  27.263  25.999  1.00  0.00     0.044 C 
ENDBRANCH  14  16
ENDBRANCH   8  14
ENDBRANCH   4   7
ENDBRANCH   2   3
ENDBRANCH   1   2
BRANCH   1  25
ATOM     25  C   UNL A   1      37.864  19.849  24.848  1.00  0.00     0.023 C 
BRANCH  25  26
ATOM     26  C   UNL A   1      39.008  20.127  25.820  1.00  0.00     0.116 C 
BRANCH  26  27
ATOM     27  N   UNL A   1      40.054  19.114  25.820  1.00  0.00    -0.352 N 
ATOM     28  C   UNL A   1      41.403  19.229  26.061  1.00  0.00     0.251 C 
ATOM     29  H   UNL A   1      39.745  18.201  25.615  1.00  0.00     0.163 HD
ATOM     30  O   UNL A   1      42.130  18.244  25.948  1.00  0.00    -0.269 OA
BRANCH  28  31
ATOM     31  C   UNL A   1      41.997  20.539  26.407  1.00  0.00     0.039 A 
ATOM     32  C   UNL A   1      42.312  21.427  25.374  1.00  0.00     0.014 A 
ATOM     33  C   UNL A   1      42.227  20.905  27.734  1.00  0.00     0.014 A 
ATOM     34  C   UNL A   1      42.765  22.714  25.678  1.00  0.00     0.010 A 
ATOM     35  C   UNL A   1      42.593  22.214  28.038  1.00  0.00     0.010 A 
ATOM     36  C   UNL A   1      42.861  23.136  27.014  1.00  0.00    -0.014 A 
BRANCH  36  37
ATOM     37  C   UNL A   1      43.228  24.534  27.358  1.00  0.00     0.031 A 
ATOM     38  C   UNL A   1      44.665  24.976  27.313  1.00  0.00     0.074 A 
ATOM     39  C   UNL A   1      42.276  25.392  27.777  1.00  0.00     0.049 A 
ATOM     40  N   UNL A   1      45.187  26.132  27.638  1.00  0.00    -0.248 NA
ATOM     41  C   UNL A   1      45.652  23.976  26.874  1.00  0.00     0.031 C 
ATOM     42  C   UNL A   1      40.853  25.075  27.924  1.00  0.00     0.029 A 
ATOM     43  N   UNL A   1      42.363  26.705  28.169  1.00  0.00    -0.354 N 
ATOM     44  C   UNL A   1      46.557  25.992  27.462  1.00  0.00     0.074 A 
ATOM     45  C   UNL A   1      46.793  24.623  27.056  1.00  0.00     0.031 C 
ATOM     46  C   UNL A   1      40.199  26.169  28.345  1.00  0.00     0.029 A 
ATOM     47  C   UNL A   1      41.156  27.254  28.532  1.00  0.00     0.049 A 
ATOM     48  H   UNL A   1      43.210  27.206  28.187  1.00  0.00     0.167 HD
ATOM     49  C   UNL A   1      47.531  26.923  27.598  1.00  0.00     0.037 A 
ATOM     50  C   UNL A   1      40.856  28.491  28.970  1.00  0.00     0.037 A 
ATOM     51  C   UNL A   1      47.294  28.294  27.971  1.00  0.00     0.049 A 
ATOM     52  C   UNL A   1      41.952  29.512  29.103  1.00  0.00     0.074 A 
ATOM     53  C   UNL A   1      48.206  29.329  28.074  1.00  0.00     0.029 A 
ATOM     54  N   UNL A   1      46.054  28.817  28.305  1.00  0.00    -0.354 N 
ATOM     55  N   UNL A   1      43.235  29.385  28.860  1.00  0.00    -0.248 NA
ATOM     56  C   UNL A   1      41.558  30.852  29.560  1.00  0.00     0.031 C 
ATOM     57  C   UNL A   1      47.523  30.471  28.507  1.00  0.00     0.029 A 
ATOM     58  C   UNL A   1      46.179  30.159  28.629  1.00  0.00     0.049 A 
ATOM     59  H   UNL A   1      45.209  28.312  28.309  1.00  0.00     0.167 HD
ATOM     60  C   UNL A   1      43.794  30.631  29.107  1.00  0.00     0.074 A 
ATOM     61  C   UNL A   1      42.710  31.506  29.504  1.00  0.00     0.031 C 
ATOM     62  C   UNL A   1      45.089  31.018  29.013  1.00  0.00     0.037 A 
BRANCH  49  63
ATOM     63  C   UNL A   1      48.944  26.491  27.329  1.00  0.00     0.057 A 
ATOM     64  C   UNL A   1      49.770  25.997  28.347  1.00  0.00     0.134 A 
ATOM     65  C   UNL A   1      49.476  26.547  26.035  1.00  0.00     0.134 A 
ATOM     66  F   UNL A   1      49.326  25.929  29.611  1.00  0.00    -0.206 F 
ATOM     67  C   UNL A   1      51.084  25.601  28.094  1.00  0.00     0.040 A 
ATOM     68  C   UNL A   1      50.779  26.126  25.764  1.00  0.00     0.040 A 
ATOM     69  F   UNL A   1      48.738  27.003  25.012  1.00  0.00    -0.206 F 
ATOM     70  C   UNL A   1      51.590  25.659  26.797  1.00  0.00     0.006 A 
ENDBRANCH  49  63
BRANCH  50  71
ATOM     71  C   UNL A   1      39.449  28.849  29.285  1.00  0.00     0.057 A 
ATOM     72  C   UNL A   1      38.927  28.655  30.569  1.00  0.00     0.134 A 
ATOM     73  C   UNL A   1      38.592  29.380  28.314  1.00  0.00     0.134 A 
ATOM     74  F   UNL A   1      39.694  28.133  31.537  1.00  0.00    -0.206 F 
ATOM     75  C   UNL A   1      37.598  28.956  30.872  1.00  0.00     0.040 A 
ATOM     76  C   UNL A   1      37.268  29.708  28.609  1.00  0.00     0.040 A 
ATOM     77  F   UNL A   1      39.033  29.597  27.065  1.00  0.00    -0.206 F 
ATOM     78  C   UNL A   1      36.765  29.489  29.891  1.00  0.00     0.006 A 
ENDBRANCH  50  71
BRANCH  62  79
ATOM     79  C   UNL A   1      45.400  32.457  29.308  1.00  0.00     0.057 A 
ATOM     80  C   UNL A   1      45.778  32.886  30.586  1.00  0.00     0.134 A 
ATOM     81  C   UNL A   1      45.351  33.417  28.290  1.00  0.00     0.134 A 
ATOM     82  F   UNL A   1      45.831  32.017  31.608  1.00  0.00    -0.206 F 
ATOM     83  C   UNL A   1      46.074  34.225  30.847  1.00  0.00     0.040 A 
ATOM     84  C   UNL A   1      45.671  34.754  28.532  1.00  0.00     0.040 A 
ATOM     85  F   UNL A   1      45.005  33.071  27.041  1.00  0.00    -0.206 F 
ATOM     86  C   UNL A   1      46.027  35.161  29.816  1.00  0.00     0.006 A 
ENDBRANCH  62  79
ENDBRANCH  36  37
ENDBRANCH  28  31
ENDBRANCH  26  27
ENDBRANCH  25  26
ENDBRANCH   1  25
TORSDOF 13
ENDMDL
MODEL 3
REMARK VINA RESULT:     -12.3      0.461      6.302
REMARK SMILES CC1(C)C[C@@H](Nc2ccc(Cl)c(C(=O)NCCCCNC(=O)c3ccc(-c4c5nc(c(-c6c(F)cccc6F)c6ccc([nH]6)c(-c6c(F)cccc6F)c6nc(c(-c7c(F)cccc7F)c7ccc4[nH]7)C=C6)C=C5)cc3)c2)C(C)(C)O1
REMARK SMILES IDX 17 1 16 2 15 3 13 4 14 5 12 7 7 8 8 9 77 10 9 11 10 12 11 13
REMARK SMILES IDX 6 14 5 16 1 17 2 18 3 19 4 20 81 21 78 22 79 23 80 24 18 25
REMARK SMILES IDX 19 26 20 27 21 28 22 30 23 31 24 32 76 33 25 34 75 35 26 36
REMARK SMILES IDX 27 37 28 38 69 39 29 40 74 41 68 42 70 43 30 44 73 45 67 46
REMARK SMILES IDX 66 47 31 49 57 50 40 51 56 52 41 53 44 54 55 55 71 56 42 57
REMARK SMILES IDX 43 58 54 60 72 61 45 62 32 63 33 64 38 65 34 66 35 67 37 68
REMARK SMILES IDX 39 69 36 70 58 71 59 72 64 73 60 74 61 75 63 76 65 77 62 78
REMARK SMILES IDX 46 79 47 80 52 81 48 82 49 83 51 84 53 85 50 86
REMARK H PARENT 15 6 6 15 20 29 70 48 44 59
REMARK Flexibility Score: inf
ROOT
ATOM      1  C   UNL A   1      31.704  30.679  26.067  1.00  0.00     0.023 C 
ENDROOT
BRANCH   1   2
ATOM      2  C   UNL A   1      33.024  29.967  26.323  1.00  0.00     0.116 C 
BRANCH   2   3
ATOM      3  N   UNL A   1      33.655  29.393  25.149  1.00  0.00    -0.352 N 
ATOM      4  C   UNL A   1      33.374  28.228  24.472  1.00  0.00     0.252 C 
ATOM      5  O   UNL A   1      34.011  27.983  23.448  1.00  0.00    -0.269 OA
ATOM      6  H   UNL A   1      34.399  29.921  24.780  1.00  0.00     0.163 HD
BRANCH   4   7
ATOM      7  C   UNL A   1      32.418  27.209  24.980  1.00  0.00     0.060 A 
ATOM      8  C   UNL A   1      32.202  25.046  26.102  1.00  0.00     0.035 A 
ATOM      9  C   UNL A   1      30.815  25.202  26.092  1.00  0.00     0.027 A 
ATOM     10  C   UNL A   1      32.996  26.087  25.613  1.00  0.00     0.041 A 
ATOM     11  C   UNL A   1      30.230  26.272  25.426  1.00  0.00     0.023 A 
ATOM     12  C   UNL A   1      31.033  27.219  24.785  1.00  0.00     0.053 A 
ATOM     13  Cl  UNL A   1      30.230  28.210  23.618  1.00  0.00    -0.083 Cl
BRANCH   8  14
ATOM     14  N   UNL A   1      32.760  23.793  26.361  1.00  0.00    -0.379 N 
ATOM     15  H   UNL A   1      33.037  23.512  27.264  1.00  0.00     0.160 HD
BRANCH  14  16
ATOM     16  C   UNL A   1      32.903  22.923  25.185  1.00  0.00     0.113 C 
ATOM     17  C   UNL A   1      32.534  19.287  24.571  1.00  0.00     0.042 C 
ATOM     18  C   UNL A   1      32.716  20.766  24.246  1.00  0.00     0.065 C 
ATOM     19  C   UNL A   1      32.186  21.050  22.833  1.00  0.00     0.042 C 
ATOM     20  C   UNL A   1      32.079  21.660  25.306  1.00  0.00     0.062 C 
ATOM     21  O   UNL A   1      34.122  21.079  24.262  1.00  0.00    -0.367 OA
ATOM     22  C   UNL A   1      34.319  22.372  24.899  1.00  0.00     0.083 C 
ATOM     23  C   UNL A   1      35.180  22.115  26.137  1.00  0.00     0.044 C 
ATOM     24  C   UNL A   1      35.080  23.266  23.918  1.00  0.00     0.044 C 
ENDBRANCH  14  16
ENDBRANCH   8  14
ENDBRANCH   4   7
ENDBRANCH   2   3
ENDBRANCH   1   2
BRANCH   1  25
ATOM     25  C   UNL A   1      31.449  31.954  26.867  1.00  0.00     0.023 C 
BRANCH  25  26
ATOM     26  C   UNL A   1      32.672  32.778  27.261  1.00  0.00     0.116 C 
BRANCH  26  27
ATOM     27  N   UNL A   1      32.374  34.153  27.633  1.00  0.00    -0.352 N 
ATOM     28  C   UNL A   1      32.989  34.981  28.543  1.00  0.00     0.251 C 
ATOM     29  H   UNL A   1      31.610  34.553  27.158  1.00  0.00     0.163 HD
ATOM     30  O   UNL A   1      32.533  36.103  28.753  1.00  0.00    -0.269 OA
BRANCH  28  31
ATOM     31  C   UNL A   1      34.166  34.516  29.309  1.00  0.00     0.039 A 
ATOM     32  C   UNL A   1      33.969  33.983  30.585  1.00  0.00     0.014 A 
ATOM     33  C   UNL A   1      35.454  34.584  28.774  1.00  0.00     0.014 A 
ATOM     34  C   UNL A   1      35.048  33.431  31.282  1.00  0.00     0.010 A 
ATOM     35  C   UNL A   1      36.509  33.955  29.429  1.00  0.00     0.010 A 
ATOM     36  C   UNL A   1      36.318  33.366  30.689  1.00  0.00    -0.014 A 
BRANCH  36  37
ATOM     37  C   UNL A   1      37.451  32.680  31.362  1.00  0.00     0.031 A 
ATOM     38  C   UNL A   1      38.148  31.528  30.691  1.00  0.00     0.074 A 
ATOM     39  C   UNL A   1      37.810  33.047  32.608  1.00  0.00     0.049 A 
ATOM     40  N   UNL A   1      39.112  30.766  31.145  1.00  0.00    -0.248 NA
ATOM     41  C   UNL A   1      37.681  31.165  29.344  1.00  0.00     0.031 C 
ATOM     42  C   UNL A   1      37.178  34.108  33.396  1.00  0.00     0.029 A 
ATOM     43  N   UNL A   1      38.791  32.560  33.438  1.00  0.00    -0.354 N 
ATOM     44  C   UNL A   1      39.349  29.826  30.150  1.00  0.00     0.074 A 
ATOM     45  C   UNL A   1      38.394  30.078  29.093  1.00  0.00     0.031 C 
ATOM     46  C   UNL A   1      37.804  34.210  34.580  1.00  0.00     0.029 A 
ATOM     47  C   UNL A   1      38.856  33.202  34.652  1.00  0.00     0.049 A 
ATOM     48  H   UNL A   1      39.391  31.822  33.187  1.00  0.00     0.167 HD
ATOM     49  C   UNL A   1      40.296  28.858  30.105  1.00  0.00     0.037 A 
ATOM     50  C   UNL A   1      39.670  33.000  35.705  1.00  0.00     0.037 A 
ATOM     51  C   UNL A   1      41.268  28.627  31.142  1.00  0.00     0.049 A 
ATOM     52  C   UNL A   1      40.721  31.926  35.628  1.00  0.00     0.074 A 
ATOM     53  C   UNL A   1      42.307  27.713  31.162  1.00  0.00     0.029 A 
ATOM     54  N   UNL A   1      41.318  29.316  32.344  1.00  0.00    -0.354 N 
ATOM     55  N   UNL A   1      40.982  31.094  34.649  1.00  0.00    -0.248 NA
ATOM     56  C   UNL A   1      41.595  31.770  36.798  1.00  0.00     0.031 C 
ATOM     57  C   UNL A   1      42.962  27.823  32.394  1.00  0.00     0.029 A 
ATOM     58  C   UNL A   1      42.361  28.838  33.121  1.00  0.00     0.049 A 
ATOM     59  H   UNL A   1      40.704  30.040  32.607  1.00  0.00     0.167 HD
ATOM     60  C   UNL A   1      42.066  30.337  35.072  1.00  0.00     0.074 A 
ATOM     61  C   UNL A   1      42.424  30.819  36.390  1.00  0.00     0.031 C 
ATOM     62  C   UNL A   1      42.710  29.333  34.427  1.00  0.00     0.037 A 
BRANCH  49  63
ATOM     63  C   UNL A   1      40.331  27.981  28.886  1.00  0.00     0.057 A 
ATOM     64  C   UNL A   1      41.079  28.325  27.752  1.00  0.00     0.134 A 
ATOM     65  C   UNL A   1      39.631  26.769  28.854  1.00  0.00     0.134 A 
ATOM     66  F   UNL A   1      41.763  29.479  27.712  1.00  0.00    -0.206 F 
ATOM     67  C   UNL A   1      41.105  27.510  26.620  1.00  0.00     0.040 A 
ATOM     68  C   UNL A   1      39.674  25.932  27.739  1.00  0.00     0.040 A 
ATOM     69  F   UNL A   1      38.901  26.375  29.909  1.00  0.00    -0.206 F 
ATOM     70  C   UNL A   1      40.406  26.305  26.614  1.00  0.00     0.006 A 
ENDBRANCH  49  63
BRANCH  50  71
ATOM     71  C   UNL A   1      39.551  33.852  36.914  1.00  0.00     0.057 A 
ATOM     72  C   UNL A   1      38.779  33.447  38.009  1.00  0.00     0.134 A 
ATOM     73  C   UNL A   1      40.191  35.094  37.003  1.00  0.00     0.134 A 
ATOM     74  F   UNL A   1      38.127  32.275  37.976  1.00  0.00    -0.206 F 
ATOM     75  C   UNL A   1      38.630  34.252  39.139  1.00  0.00     0.040 A 
ATOM     76  C   UNL A   1      40.071  35.899  38.137  1.00  0.00     0.040 A 
ATOM     77  F   UNL A   1      40.952  35.539  35.991  1.00  0.00    -0.206 F 
ATOM     78  C   UNL A   1      39.281  35.481  39.207  1.00  0.00     0.006 A 
ENDBRANCH  50  71
BRANCH  62  79
ATOM     79  C   UNL A   1      43.888  28.716  35.121  1.00  0.00     0.057 A 
ATOM     80  C   UNL A   1      43.756  27.592  35.947  1.00  0.00     0.134 A 
ATOM     81  C   UNL A   1      45.176  29.233  34.932  1.00  0.00     0.134 A 
ATOM     82  F   UNL A   1      42.548  27.057  36.180  1.00  0.00    -0.206 F 
ATOM     83  C   UNL A   1      44.861  27.020  36.580  1.00  0.00     0.040 A 
ATOM     84  C   UNL A   1      46.292  28.653  35.538  1.00  0.00     0.040 A 
ATOM     85  F   UNL A   1      45.373  30.302  34.146  1.00  0.00    -0.206 F 
ATOM     86  C   UNL A   1      46.134  27.546  36.369  1.00  0.00     0.006 A 
ENDBRANCH  62  79
ENDBRANCH  36  37
ENDBRANCH  28  31
ENDBRANCH  26  27
ENDBRANCH  25  26
ENDBRANCH   1  25
TORSDOF 13
ENDMDL
