MODEL 1
REMARK VINA RESULT:     -14.0      0.000      0.000
REMARK SMILES Cc1ccc(-c2c(C)sc(NC(=O)[C@H]3CC=CC[C@H]3C(=O)NCCCCNC(=O)c3ccc(-c4c5nc(c(-c6c(F)cccc6F)c6ccc([nH]6)c(-c6c(F)cccc6F)c6nc(c(-c7c(F)cccc7F)c7ccc4[nH]7)C=C6)C=C5)cc3)c2C(N)=O)cc1
REMARK SMILES IDX 24 1 23 2 22 3 20 4 21 5 19 7 14 8 15 9 16 10 18 11 17 12
REMARK SMILES IDX 12 13 11 14 13 16 10 17 6 18 7 19 84 20 8 21 9 22 5 23 1 24
REMARK SMILES IDX 2 25 3 26 89 27 4 28 88 29 85 30 86 31 87 32 25 35 26 36
REMARK SMILES IDX 27 37 28 38 29 40 30 41 31 42 83 43 32 44 82 45 33 46 34 47
REMARK SMILES IDX 35 48 76 49 36 50 81 51 75 52 77 53 37 54 80 55 74 56 73 57
REMARK SMILES IDX 38 59 64 60 47 61 63 62 48 63 51 64 62 65 78 66 49 67 50 68
REMARK SMILES IDX 61 70 79 71 52 72 39 73 40 74 45 75 41 76 42 77 44 78 46 79
REMARK SMILES IDX 43 80 65 81 66 82 71 83 67 84 68 85 70 86 72 87 69 88 53 89
REMARK SMILES IDX 54 90 59 91 55 92 56 93 58 94 60 95 57 96
REMARK H PARENT 22 6 11 15 86 33 86 34 27 39 77 58 51 69
REMARK Flexibility Score: inf
ROOT
ATOM      1  C   UNL A   1      32.078  30.567  26.777  1.00  0.00     0.023 C 
ENDROOT
BRANCH   1   2
ATOM      2  C   UNL A   1      32.363  29.833  25.461  1.00  0.00     0.116 C 
BRANCH   2   3
ATOM      3  N   UNL A   1      31.242  29.931  24.569  1.00  0.00    -0.356 N 
ATOM      4  C   UNL A   1      30.587  28.980  23.870  1.00  0.00     0.224 C 
ATOM      5  O   UNL A   1      29.824  29.398  22.991  1.00  0.00    -0.275 OA
ATOM      6  H   UNL A   1      30.892  30.842  24.448  1.00  0.00     0.163 HD
BRANCH   4   7
ATOM      7  C   UNL A   1      30.668  27.487  24.157  1.00  0.00     0.095 C 
ATOM      8  C   UNL A   1      31.423  26.504  23.240  1.00  0.00     0.095 C 
ATOM      9  C   UNL A   1      30.754  25.118  23.374  1.00  0.00     0.041 C 
ATOM     10  C   UNL A   1      30.237  24.811  24.767  1.00  0.00    -0.030 C 
ATOM     11  C   UNL A   1      30.730  27.113  25.632  1.00  0.00     0.041 C 
ATOM     12  C   UNL A   1      30.278  25.683  25.791  1.00  0.00    -0.030 C 
BRANCH   8  13
ATOM     13  C   UNL A   1      32.973  26.464  23.119  1.00  0.00     0.229 C 
ATOM     14  N   UNL A   1      33.891  25.799  23.877  1.00  0.00    -0.317 N 
ATOM     15  H   UNL A   1      34.718  26.309  24.042  1.00  0.00     0.170 HD
ATOM     16  O   UNL A   1      33.489  27.209  22.264  1.00  0.00    -0.274 OA
BRANCH  14  17
ATOM     17  C   UNL A   1      33.882  24.546  24.460  1.00  0.00     0.109 A 
ATOM     18  C   UNL A   1      33.801  22.266  24.965  1.00  0.00     0.010 A 
ATOM     19  C   UNL A   1      34.003  22.847  26.207  1.00  0.00     0.012 A 
ATOM     20  C   UNL A   1      33.686  23.277  23.912  1.00  0.00     0.082 A 
ATOM     21  C   UNL A   1      34.392  22.276  27.528  1.00  0.00     0.057 C 
ATOM     22  S   UNL A   1      33.572  24.484  26.124  1.00  0.00    -0.122 S 
BRANCH  18  23
ATOM     23  C   UNL A   1      33.657  20.817  24.864  1.00  0.00    -0.016 A 
ATOM     24  C   UNL A   1      33.430  16.527  24.488  1.00  0.00     0.044 C 
ATOM     25  C   UNL A   1      33.508  18.020  24.601  1.00  0.00    -0.051 A 
ATOM     26  C   UNL A   1      32.341  18.791  24.723  1.00  0.00     0.004 A 
ATOM     27  C   UNL A   1      34.750  18.658  24.623  1.00  0.00     0.004 A 
ATOM     28  C   UNL A   1      32.413  20.184  24.850  1.00  0.00     0.009 A 
ATOM     29  C   UNL A   1      34.822  20.041  24.763  1.00  0.00     0.009 A 
ENDBRANCH  18  23
BRANCH  20  30
ATOM     30  C   UNL A   1      33.381  22.962  22.512  1.00  0.00     0.252 C 
ATOM     31  N   UNL A   1      32.271  22.198  22.271  1.00  0.00    -0.365 N 
ATOM     32  O   UNL A   1      34.060  23.326  21.570  1.00  0.00    -0.269 OA
ATOM     33  H   UNL A   1      31.711  21.893  23.020  1.00  0.00     0.159 HD
ATOM     34  H   UNL A   1      32.034  21.952  21.347  1.00  0.00     0.159 HD
ENDBRANCH  20  30
ENDBRANCH  14  17
ENDBRANCH   8  13
ENDBRANCH   4   7
ENDBRANCH   2   3
ENDBRANCH   1   2
BRANCH   1  35
ATOM     35  C   UNL A   1      33.166  31.520  27.271  1.00  0.00     0.023 C 
BRANCH  35  36
ATOM     36  C   UNL A   1      34.475  30.839  27.607  1.00  0.00     0.116 C 
BRANCH  36  37
ATOM     37  N   UNL A   1      35.484  31.696  28.205  1.00  0.00    -0.352 N 
ATOM     38  C   UNL A   1      36.697  31.362  28.783  1.00  0.00     0.251 C 
ATOM     39  H   UNL A   1      35.274  32.658  28.196  1.00  0.00     0.163 HD
ATOM     40  O   UNL A   1      37.341  32.238  29.358  1.00  0.00    -0.269 OA
BRANCH  38  41
ATOM     41  C   UNL A   1      37.311  30.022  28.566  1.00  0.00     0.039 A 
ATOM     42  C   UNL A   1      37.349  29.146  29.660  1.00  0.00     0.014 A 
ATOM     43  C   UNL A   1      38.075  29.734  27.442  1.00  0.00     0.014 A 
ATOM     44  C   UNL A   1      38.371  28.206  29.751  1.00  0.00     0.010 A 
ATOM     45  C   UNL A   1      39.172  28.920  27.586  1.00  0.00     0.010 A 
ATOM     46  C   UNL A   1      39.359  28.220  28.777  1.00  0.00    -0.014 A 
BRANCH  46  47
ATOM     47  C   UNL A   1      40.652  27.575  28.904  1.00  0.00     0.031 A 
ATOM     48  C   UNL A   1      40.768  26.139  28.627  1.00  0.00     0.074 A 
ATOM     49  C   UNL A   1      41.744  28.348  29.082  1.00  0.00     0.049 A 
ATOM     50  N   UNL A   1      41.785  25.418  28.936  1.00  0.00    -0.248 NA
ATOM     51  C   UNL A   1      39.694  25.389  27.993  1.00  0.00     0.031 C 
ATOM     52  C   UNL A   1      43.147  27.989  28.903  1.00  0.00     0.029 A 
ATOM     53  N   UNL A   1      41.787  29.607  29.694  1.00  0.00    -0.354 N 
ATOM     54  C   UNL A   1      41.642  24.202  28.309  1.00  0.00     0.074 A 
ATOM     55  C   UNL A   1      40.284  24.205  27.815  1.00  0.00     0.031 C 
ATOM     56  C   UNL A   1      43.900  28.821  29.644  1.00  0.00     0.029 A 
ATOM     57  C   UNL A   1      42.982  29.605  30.452  1.00  0.00     0.049 A 
ATOM     58  H   UNL A   1      41.129  30.335  29.614  1.00  0.00     0.167 HD
ATOM     59  C   UNL A   1      42.742  23.406  28.181  1.00  0.00     0.037 A 
ATOM     60  C   UNL A   1      42.919  29.575  31.817  1.00  0.00     0.037 A 
ATOM     61  C   UNL A   1      43.876  23.967  28.927  1.00  0.00     0.049 A 
ATOM     62  C   UNL A   1      43.556  28.352  32.455  1.00  0.00     0.074 A 
ATOM     63  C   UNL A   1      45.010  24.689  28.590  1.00  0.00     0.029 A 
ATOM     64  N   UNL A   1      43.762  24.076  30.301  1.00  0.00    -0.354 N 
ATOM     65  N   UNL A   1      44.012  27.319  31.799  1.00  0.00    -0.248 NA
ATOM     66  C   UNL A   1      43.619  28.161  33.903  1.00  0.00     0.031 C 
ATOM     67  C   UNL A   1      45.562  25.239  29.787  1.00  0.00     0.029 A 
ATOM     68  C   UNL A   1      44.774  24.837  30.851  1.00  0.00     0.049 A 
ATOM     69  H   UNL A   1      43.042  23.659  30.828  1.00  0.00     0.167 HD
ATOM     70  C   UNL A   1      44.343  26.325  32.684  1.00  0.00     0.074 A 
ATOM     71  C   UNL A   1      44.078  26.902  33.991  1.00  0.00     0.031 C 
ATOM     72  C   UNL A   1      44.753  25.082  32.286  1.00  0.00     0.037 A 
BRANCH  59  73
ATOM     73  C   UNL A   1      42.872  22.249  27.207  1.00  0.00     0.057 A 
ATOM     74  C   UNL A   1      42.093  21.086  27.377  1.00  0.00     0.134 A 
ATOM     75  C   UNL A   1      43.771  22.170  26.126  1.00  0.00     0.134 A 
ATOM     76  F   UNL A   1      41.114  21.022  28.288  1.00  0.00    -0.206 F 
ATOM     77  C   UNL A   1      42.274  19.921  26.618  1.00  0.00     0.040 A 
ATOM     78  C   UNL A   1      43.995  20.999  25.388  1.00  0.00     0.040 A 
ATOM     79  F   UNL A   1      44.437  23.232  25.671  1.00  0.00    -0.206 F 
ATOM     80  C   UNL A   1      43.254  19.860  25.641  1.00  0.00     0.006 A 
ENDBRANCH  59  73
BRANCH  60  81
ATOM     81  C   UNL A   1      41.699  30.258  32.349  1.00  0.00     0.057 A 
ATOM     82  C   UNL A   1      41.652  31.665  32.355  1.00  0.00     0.134 A 
ATOM     83  C   UNL A   1      40.483  29.585  32.481  1.00  0.00     0.134 A 
ATOM     84  F   UNL A   1      42.780  32.378  32.211  1.00  0.00    -0.206 F 
ATOM     85  C   UNL A   1      40.442  32.365  32.360  1.00  0.00     0.040 A 
ATOM     86  C   UNL A   1      39.267  30.277  32.510  1.00  0.00     0.040 A 
ATOM     87  F   UNL A   1      40.433  28.246  32.462  1.00  0.00    -0.206 F 
ATOM     88  C   UNL A   1      39.241  31.666  32.400  1.00  0.00     0.006 A 
ENDBRANCH  60  81
BRANCH  72  89
ATOM     89  C   UNL A   1      45.101  23.970  33.246  1.00  0.00     0.057 A 
ATOM     90  C   UNL A   1      46.361  23.855  33.852  1.00  0.00     0.134 A 
ATOM     91  C   UNL A   1      44.206  22.916  33.527  1.00  0.00     0.134 A 
ATOM     92  F   UNL A   1      47.344  24.725  33.579  1.00  0.00    -0.206 F 
ATOM     93  C   UNL A   1      46.671  22.823  34.748  1.00  0.00     0.040 A 
ATOM     94  C   UNL A   1      44.523  21.852  34.374  1.00  0.00     0.040 A 
ATOM     95  F   UNL A   1      42.968  22.875  33.014  1.00  0.00    -0.206 F 
ATOM     96  C   UNL A   1      45.752  21.814  35.010  1.00  0.00     0.006 A 
ENDBRANCH  72  89
ENDBRANCH  46  47
ENDBRANCH  38  41
ENDBRANCH  36  37
ENDBRANCH  35  36
ENDBRANCH   1  35
TORSDOF 15
ENDMDL
MODEL 2
REMARK VINA RESULT:     -13.9      3.462      9.520
REMARK SMILES Cc1ccc(-c2c(C)sc(NC(=O)[C@H]3CC=CC[C@H]3C(=O)NCCCCNC(=O)c3ccc(-c4c5nc(c(-c6c(F)cccc6F)c6ccc([nH]6)c(-c6c(F)cccc6F)c6nc(c(-c7c(F)cccc7F)c7ccc4[nH]7)C=C6)C=C5)cc3)c2C(N)=O)cc1
REMARK SMILES IDX 24 1 23 2 22 3 20 4 21 5 19 7 14 8 15 9 16 10 18 11 17 12
REMARK SMILES IDX 12 13 11 14 13 16 10 17 6 18 7 19 84 20 8 21 9 22 5 23 1 24
REMARK SMILES IDX 2 25 3 26 89 27 4 28 88 29 85 30 86 31 87 32 25 35 26 36
REMARK SMILES IDX 27 37 28 38 29 40 30 41 31 42 83 43 32 44 82 45 33 46 34 47
REMARK SMILES IDX 35 48 76 49 36 50 81 51 75 52 77 53 37 54 80 55 74 56 73 57
REMARK SMILES IDX 38 59 64 60 47 61 63 62 48 63 51 64 62 65 78 66 49 67 50 68
REMARK SMILES IDX 61 70 79 71 52 72 39 73 40 74 45 75 41 76 42 77 44 78 46 79
REMARK SMILES IDX 43 80 65 81 66 82 71 83 67 84 68 85 70 86 72 87 69 88 53 89
REMARK SMILES IDX 54 90 59 91 55 92 56 93 58 94 60 95 57 96
REMARK H PARENT 22 6 11 15 86 33 86 34 27 39 77 58 51 69
REMARK Flexibility Score: inf
ROOT
ATOM      1  C   UNL A   1      37.170  20.854  25.287  1.00  0.00     0.023 C 
ENDROOT
BRANCH   1   2
ATOM      2  C   UNL A   1      36.825  19.405  24.921  1.00  0.00     0.116 C 
BRANCH   2   3
ATOM      3  N   UNL A   1      35.404  19.233  24.804  1.00  0.00    -0.356 N 
ATOM      4  C   UNL A   1      34.394  20.114  24.960  1.00  0.00     0.224 C 
ATOM      5  O   UNL A   1      33.264  19.618  25.046  1.00  0.00    -0.275 OA
ATOM      6  H   UNL A   1      35.118  18.321  24.570  1.00  0.00     0.163 HD
BRANCH   4   7
ATOM      7  C   UNL A   1      34.559  21.628  24.945  1.00  0.00     0.095 C 
ATOM      8  C   UNL A   1      34.333  22.476  23.678  1.00  0.00     0.095 C 
ATOM      9  C   UNL A   1      35.218  23.738  23.784  1.00  0.00     0.041 C 
ATOM     10  C   UNL A   1      35.364  24.275  25.196  1.00  0.00    -0.030 C 
ATOM     11  C   UNL A   1      34.157  22.337  26.232  1.00  0.00     0.041 C 
ATOM     12  C   UNL A   1      34.841  23.679  26.283  1.00  0.00    -0.030 C 
BRANCH   8  13
ATOM     13  C   UNL A   1      32.931  22.722  23.051  1.00  0.00     0.229 C 
ATOM     14  N   UNL A   1      32.062  23.758  23.233  1.00  0.00    -0.317 N 
ATOM     15  H   UNL A   1      31.116  23.486  23.263  1.00  0.00     0.170 HD
ATOM     16  O   UNL A   1      32.468  21.813  22.337  1.00  0.00    -0.274 OA
BRANCH  14  17
ATOM     17  C   UNL A   1      32.257  25.117  23.386  1.00  0.00     0.109 A 
ATOM     18  C   UNL A   1      32.338  27.346  24.085  1.00  0.00     0.010 A 
ATOM     19  C   UNL A   1      33.015  27.380  22.876  1.00  0.00     0.012 A 
ATOM     20  C   UNL A   1      31.843  26.001  24.385  1.00  0.00     0.082 A 
ATOM     21  C   UNL A   1      33.874  28.418  22.239  1.00  0.00     0.057 C 
ATOM     22  S   UNL A   1      32.614  25.996  21.983  1.00  0.00    -0.122 S 
BRANCH  18  23
ATOM     23  C   UNL A   1      32.142  28.583  24.834  1.00  0.00    -0.016 A 
ATOM     24  C   UNL A   1      31.442  32.311  26.887  1.00  0.00     0.044 C 
ATOM     25  C   UNL A   1      31.696  31.023  26.162  1.00  0.00    -0.051 A 
ATOM     26  C   UNL A   1      32.771  30.197  26.524  1.00  0.00     0.004 A 
ATOM     27  C   UNL A   1      30.839  30.614  25.138  1.00  0.00     0.004 A 
ATOM     28  C   UNL A   1      32.998  28.984  25.861  1.00  0.00     0.009 A 
ATOM     29  C   UNL A   1      31.056  29.401  24.489  1.00  0.00     0.009 A 
ENDBRANCH  18  23
BRANCH  20  30
ATOM     30  C   UNL A   1      31.016  25.681  25.553  1.00  0.00     0.252 C 
ATOM     31  N   UNL A   1      29.657  25.750  25.395  1.00  0.00    -0.365 N 
ATOM     32  O   UNL A   1      31.466  25.375  26.642  1.00  0.00    -0.269 OA
ATOM     33  H   UNL A   1      29.275  25.997  24.522  1.00  0.00     0.159 HD
ATOM     34  H   UNL A   1      29.063  25.555  26.155  1.00  0.00     0.159 HD
ENDBRANCH  20  30
ENDBRANCH  14  17
ENDBRANCH   8  13
ENDBRANCH   4   7
ENDBRANCH   2   3
ENDBRANCH   1   2
BRANCH   1  35
ATOM     35  C   UNL A   1      38.649  21.158  25.529  1.00  0.00     0.023 C 
BRANCH  35  36
ATOM     36  C   UNL A   1      38.904  22.509  26.162  1.00  0.00     0.116 C 
BRANCH  36  37
ATOM     37  N   UNL A   1      40.234  22.693  26.714  1.00  0.00    -0.352 N 
ATOM     38  C   UNL A   1      40.887  23.859  27.074  1.00  0.00     0.251 C 
ATOM     39  H   UNL A   1      40.748  21.865  26.853  1.00  0.00     0.163 HD
ATOM     40  O   UNL A   1      42.073  23.800  27.395  1.00  0.00    -0.269 OA
BRANCH  38  41
ATOM     41  C   UNL A   1      40.141  25.136  27.254  1.00  0.00     0.039 A 
ATOM     42  C   UNL A   1      40.520  26.223  26.452  1.00  0.00     0.014 A 
ATOM     43  C   UNL A   1      39.313  25.360  28.346  1.00  0.00     0.014 A 
ATOM     44  C   UNL A   1      40.351  27.519  26.928  1.00  0.00     0.010 A 
ATOM     45  C   UNL A   1      39.276  26.618  28.895  1.00  0.00     0.010 A 
ATOM     46  C   UNL A   1      39.870  27.683  28.219  1.00  0.00    -0.014 A 
BRANCH  46  47
ATOM     47  C   UNL A   1      39.968  28.909  28.987  1.00  0.00     0.031 A 
ATOM     48  C   UNL A   1      38.947  29.947  28.814  1.00  0.00     0.074 A 
ATOM     49  C   UNL A   1      40.883  28.979  29.977  1.00  0.00     0.049 A 
ATOM     50  N   UNL A   1      39.055  31.153  29.244  1.00  0.00    -0.248 NA
ATOM     51  C   UNL A   1      37.709  29.697  28.091  1.00  0.00     0.031 C 
ATOM     52  C   UNL A   1      40.953  29.932  31.080  1.00  0.00     0.029 A 
ATOM     53  N   UNL A   1      42.099  28.286  30.043  1.00  0.00    -0.354 N 
ATOM     54  C   UNL A   1      37.823  31.754  29.119  1.00  0.00     0.074 A 
ATOM     55  C   UNL A   1      37.051  30.836  28.313  1.00  0.00     0.031 C 
ATOM     56  C   UNL A   1      42.224  29.990  31.515  1.00  0.00     0.029 A 
ATOM     57  C   UNL A   1      43.021  29.216  30.578  1.00  0.00     0.049 A 
ATOM     58  H   UNL A   1      42.273  27.355  29.776  1.00  0.00     0.167 HD
ATOM     59  C   UNL A   1      37.584  32.894  29.828  1.00  0.00     0.037 A 
ATOM     60  C   UNL A   1      44.009  29.726  29.782  1.00  0.00     0.037 A 
ATOM     61  C   UNL A   1      38.812  33.363  30.484  1.00  0.00     0.049 A 
ATOM     62  C   UNL A   1      43.954  31.232  29.590  1.00  0.00     0.074 A 
ATOM     63  C   UNL A   1      39.323  33.297  31.771  1.00  0.00     0.029 A 
ATOM     64  N   UNL A   1      39.874  33.743  29.683  1.00  0.00    -0.354 N 
ATOM     65  N   UNL A   1      42.987  32.004  30.006  1.00  0.00    -0.248 NA
ATOM     66  C   UNL A   1      44.946  31.963  28.802  1.00  0.00     0.031 C 
ATOM     67  C   UNL A   1      40.710  33.634  31.719  1.00  0.00     0.029 A 
ATOM     68  C   UNL A   1      41.036  33.921  30.406  1.00  0.00     0.049 A 
ATOM     69  H   UNL A   1      39.808  33.873  28.709  1.00  0.00     0.167 HD
ATOM     70  C   UNL A   1      43.162  33.269  29.503  1.00  0.00     0.074 A 
ATOM     71  C   UNL A   1      44.404  33.191  28.755  1.00  0.00     0.031 C 
ATOM     72  C   UNL A   1      42.251  34.273  29.684  1.00  0.00     0.037 A 
BRANCH  59  73
ATOM     73  C   UNL A   1      36.208  33.464  30.124  1.00  0.00     0.057 A 
ATOM     74  C   UNL A   1      35.410  33.972  29.078  1.00  0.00     0.134 A 
ATOM     75  C   UNL A   1      35.624  33.608  31.397  1.00  0.00     0.134 A 
ATOM     76  F   UNL A   1      35.758  33.827  27.793  1.00  0.00    -0.206 F 
ATOM     77  C   UNL A   1      34.206  34.657  29.293  1.00  0.00     0.040 A 
ATOM     78  C   UNL A   1      34.445  34.328  31.632  1.00  0.00     0.040 A 
ATOM     79  F   UNL A   1      36.116  33.006  32.481  1.00  0.00    -0.206 F 
ATOM     80  C   UNL A   1      33.734  34.870  30.578  1.00  0.00     0.006 A 
ENDBRANCH  59  73
BRANCH  60  81
ATOM     81  C   UNL A   1      44.449  28.762  28.728  1.00  0.00     0.057 A 
ATOM     82  C   UNL A   1      45.250  27.664  29.097  1.00  0.00     0.134 A 
ATOM     83  C   UNL A   1      43.804  28.685  27.491  1.00  0.00     0.134 A 
ATOM     84  F   UNL A   1      45.883  27.660  30.280  1.00  0.00    -0.206 F 
ATOM     85  C   UNL A   1      45.301  26.495  28.333  1.00  0.00     0.040 A 
ATOM     86  C   UNL A   1      43.867  27.527  26.708  1.00  0.00     0.040 A 
ATOM     87  F   UNL A   1      43.003  29.675  27.072  1.00  0.00    -0.206 F 
ATOM     88  C   UNL A   1      44.575  26.412  27.150  1.00  0.00     0.006 A 
ENDBRANCH  60  81
BRANCH  72  89
ATOM     89  C   UNL A   1      42.418  35.664  29.121  1.00  0.00     0.057 A 
ATOM     90  C   UNL A   1      41.814  36.077  27.925  1.00  0.00     0.134 A 
ATOM     91  C   UNL A   1      43.270  36.616  29.719  1.00  0.00     0.134 A 
ATOM     92  F   UNL A   1      41.073  35.233  27.193  1.00  0.00    -0.206 F 
ATOM     93  C   UNL A   1      41.970  37.374  27.414  1.00  0.00     0.040 A 
ATOM     94  C   UNL A   1      43.478  37.892  29.191  1.00  0.00     0.040 A 
ATOM     95  F   UNL A   1      43.929  36.368  30.860  1.00  0.00    -0.206 F 
ATOM     96  C   UNL A   1      42.807  38.286  28.046  1.00  0.00     0.006 A 
ENDBRANCH  72  89
ENDBRANCH  46  47
ENDBRANCH  38  41
ENDBRANCH  36  37
ENDBRANCH  35  36
ENDBRANCH   1  35
TORSDOF 15
ENDMDL
MODEL 3
REMARK VINA RESULT:     -13.8      1.555      2.480
REMARK SMILES Cc1ccc(-c2c(C)sc(NC(=O)[C@H]3CC=CC[C@H]3C(=O)NCCCCNC(=O)c3ccc(-c4c5nc(c(-c6c(F)cccc6F)c6ccc([nH]6)c(-c6c(F)cccc6F)c6nc(c(-c7c(F)cccc7F)c7ccc4[nH]7)C=C6)C=C5)cc3)c2C(N)=O)cc1
REMARK SMILES IDX 24 1 23 2 22 3 20 4 21 5 19 7 14 8 15 9 16 10 18 11 17 12
REMARK SMILES IDX 12 13 11 14 13 16 10 17 6 18 7 19 84 20 8 21 9 22 5 23 1 24
REMARK SMILES IDX 2 25 3 26 89 27 4 28 88 29 85 30 86 31 87 32 25 35 26 36
REMARK SMILES IDX 27 37 28 38 29 40 30 41 31 42 83 43 32 44 82 45 33 46 34 47
REMARK SMILES IDX 35 48 76 49 36 50 81 51 75 52 77 53 37 54 80 55 74 56 73 57
REMARK SMILES IDX 38 59 64 60 47 61 63 62 48 63 51 64 62 65 78 66 49 67 50 68
REMARK SMILES IDX 61 70 79 71 52 72 39 73 40 74 45 75 41 76 42 77 44 78 46 79
REMARK SMILES IDX 43 80 65 81 66 82 71 83 67 84 68 85 70 86 72 87 69 88 53 89
REMARK SMILES IDX 54 90 59 91 55 92 56 93 58 94 60 95 57 96
REMARK H PARENT 22 6 11 15 86 33 86 34 27 39 77 58 51 69
REMARK Flexibility Score: inf
ROOT
ATOM      1  C   UNL A   1      34.346  29.362  27.442  1.00  0.00     0.023 C 
ENDROOT
BRANCH   1   2
ATOM      2  C   UNL A   1      33.288  28.294  27.134  1.00  0.00     0.116 C 
BRANCH   2   3
ATOM      3  N   UNL A   1      33.769  27.370  26.145  1.00  0.00    -0.356 N 
ATOM      4  C   UNL A   1      33.202  26.929  25.002  1.00  0.00     0.224 C 
ATOM      5  O   UNL A   1      33.745  25.945  24.486  1.00  0.00    -0.275 OA
ATOM      6  H   UNL A   1      34.661  26.998  26.330  1.00  0.00     0.163 HD
BRANCH   4   7
ATOM      7  C   UNL A   1      32.035  27.608  24.299  1.00  0.00     0.095 C 
ATOM      8  C   UNL A   1      31.045  26.839  23.401  1.00  0.00     0.095 C 
ATOM      9  C   UNL A   1      30.493  27.825  22.347  1.00  0.00     0.041 C 
ATOM     10  C   UNL A   1      30.310  29.241  22.858  1.00  0.00    -0.030 C 
ATOM     11  C   UNL A   1      31.395  28.757  25.067  1.00  0.00     0.041 C 
ATOM     12  C   UNL A   1      30.661  29.644  24.094  1.00  0.00    -0.030 C 
BRANCH   8  13
ATOM     13  C   UNL A   1      29.997  25.829  23.951  1.00  0.00     0.229 C 
ATOM     14  N   UNL A   1      30.135  24.506  24.254  1.00  0.00    -0.317 N 
ATOM     15  H   UNL A   1      29.353  23.957  24.014  1.00  0.00     0.170 HD
ATOM     16  O   UNL A   1      28.827  26.239  24.062  1.00  0.00    -0.274 OA
BRANCH  14  17
ATOM     17  C   UNL A   1      31.165  23.788  24.831  1.00  0.00     0.109 A 
ATOM     18  C   UNL A   1      33.076  22.538  25.329  1.00  0.00     0.010 A 
ATOM     19  C   UNL A   1      32.506  22.735  26.577  1.00  0.00     0.012 A 
ATOM     20  C   UNL A   1      32.260  23.131  24.267  1.00  0.00     0.082 A 
ATOM     21  C   UNL A   1      33.027  22.530  27.959  1.00  0.00     0.057 C 
ATOM     22  S   UNL A   1      30.876  23.156  26.376  1.00  0.00    -0.122 S 
BRANCH  18  23
ATOM     23  C   UNL A   1      34.299  21.750  25.213  1.00  0.00    -0.016 A 
ATOM     24  C   UNL A   1      38.018  19.602  24.822  1.00  0.00     0.044 C 
ATOM     25  C   UNL A   1      36.724  20.351  24.940  1.00  0.00    -0.051 A 
ATOM     26  C   UNL A   1      35.497  19.672  24.894  1.00  0.00     0.004 A 
ATOM     27  C   UNL A   1      36.730  21.734  25.136  1.00  0.00     0.004 A 
ATOM     28  C   UNL A   1      34.288  20.367  25.025  1.00  0.00     0.009 A 
ATOM     29  C   UNL A   1      35.529  22.423  25.281  1.00  0.00     0.009 A 
ENDBRANCH  18  23
BRANCH  20  30
ATOM     30  C   UNL A   1      32.568  23.004  22.839  1.00  0.00     0.252 C 
ATOM     31  N   UNL A   1      32.977  24.136  22.185  1.00  0.00    -0.365 N 
ATOM     32  O   UNL A   1      32.467  21.967  22.211  1.00  0.00    -0.269 OA
ATOM     33  H   UNL A   1      33.063  24.985  22.675  1.00  0.00     0.159 HD
ATOM     34  H   UNL A   1      33.184  24.100  21.223  1.00  0.00     0.159 HD
ENDBRANCH  20  30
ENDBRANCH  14  17
ENDBRANCH   8  13
ENDBRANCH   4   7
ENDBRANCH   2   3
ENDBRANCH   1   2
BRANCH   1  35
ATOM     35  C   UNL A   1      33.832  30.788  27.635  1.00  0.00     0.023 C 
BRANCH  35  36
ATOM     36  C   UNL A   1      34.927  31.830  27.718  1.00  0.00     0.116 C 
BRANCH  36  37
ATOM     37  N   UNL A   1      35.366  32.162  29.062  1.00  0.00    -0.352 N 
ATOM     38  C   UNL A   1      36.169  31.443  29.930  1.00  0.00     0.251 C 
ATOM     39  H   UNL A   1      35.045  33.027  29.405  1.00  0.00     0.163 HD
ATOM     40  O   UNL A   1      36.305  31.847  31.084  1.00  0.00    -0.269 OA
BRANCH  38  41
ATOM     41  C   UNL A   1      37.005  30.308  29.448  1.00  0.00     0.039 A 
ATOM     42  C   UNL A   1      37.040  29.151  30.239  1.00  0.00     0.014 A 
ATOM     43  C   UNL A   1      37.940  30.460  28.432  1.00  0.00     0.014 A 
ATOM     44  C   UNL A   1      38.174  28.346  30.228  1.00  0.00     0.010 A 
ATOM     45  C   UNL A   1      39.122  29.766  28.519  1.00  0.00     0.010 A 
ATOM     46  C   UNL A   1      39.263  28.763  29.476  1.00  0.00    -0.014 A 
BRANCH  46  47
ATOM     47  C   UNL A   1      40.613  28.256  29.628  1.00  0.00     0.031 A 
ATOM     48  C   UNL A   1      40.964  26.961  29.034  1.00  0.00     0.074 A 
ATOM     49  C   UNL A   1      41.556  29.074  30.139  1.00  0.00     0.049 A 
ATOM     50  N   UNL A   1      42.034  26.303  29.304  1.00  0.00    -0.248 NA
ATOM     51  C   UNL A   1      40.085  26.282  28.093  1.00  0.00     0.031 C 
ATOM     52  C   UNL A   1      43.008  28.932  30.081  1.00  0.00     0.029 A 
ATOM     53  N   UNL A   1      41.350  30.131  31.035  1.00  0.00    -0.354 N 
ATOM     54  C   UNL A   1      42.137  25.279  28.389  1.00  0.00     0.074 A 
ATOM     55  C   UNL A   1      40.856  25.257  27.722  1.00  0.00     0.031 C 
ATOM     56  C   UNL A   1      43.547  29.625  31.099  1.00  0.00     0.029 A 
ATOM     57  C   UNL A   1      42.442  30.069  31.932  1.00  0.00     0.049 A 
ATOM     58  H   UNL A   1      40.607  30.777  31.038  1.00  0.00     0.167 HD
ATOM     59  C   UNL A   1      43.347  24.671  28.232  1.00  0.00     0.037 A 
ATOM     60  C   UNL A   1      42.235  29.684  33.228  1.00  0.00     0.037 A 
ATOM     61  C   UNL A   1      44.300  25.145  29.245  1.00  0.00     0.049 A 
ATOM     62  C   UNL A   1      42.967  28.417  33.637  1.00  0.00     0.074 A 
ATOM     63  C   UNL A   1      45.349  26.051  29.256  1.00  0.00     0.029 A 
ATOM     64  N   UNL A   1      44.021  24.886  30.575  1.00  0.00    -0.354 N 
ATOM     65  N   UNL A   1      43.636  27.644  32.825  1.00  0.00    -0.248 NA
ATOM     66  C   UNL A   1      42.897  27.870  34.992  1.00  0.00     0.031 C 
ATOM     67  C   UNL A   1      45.681  26.335  30.616  1.00  0.00     0.029 A 
ATOM     68  C   UNL A   1      44.846  25.589  31.429  1.00  0.00     0.049 A 
ATOM     69  H   UNL A   1      43.315  24.270  30.878  1.00  0.00     0.167 HD
ATOM     70  C   UNL A   1      44.007  26.500  33.484  1.00  0.00     0.074 A 
ATOM     71  C   UNL A   1      43.520  26.690  34.840  1.00  0.00     0.031 C 
ATOM     72  C   UNL A   1      44.632  25.454  32.863  1.00  0.00     0.037 A 
BRANCH  59  73
ATOM     73  C   UNL A   1      43.748  23.823  27.039  1.00  0.00     0.057 A 
ATOM     74  C   UNL A   1      44.485  24.392  25.979  1.00  0.00     0.134 A 
ATOM     75  C   UNL A   1      43.403  22.475  26.823  1.00  0.00     0.134 A 
ATOM     76  F   UNL A   1      44.988  25.630  26.057  1.00  0.00    -0.206 F 
ATOM     77  C   UNL A   1      44.750  23.718  24.778  1.00  0.00     0.040 A 
ATOM     78  C   UNL A   1      43.621  21.803  25.612  1.00  0.00     0.040 A 
ATOM     79  F   UNL A   1      42.898  21.704  27.787  1.00  0.00    -0.206 F 
ATOM     80  C   UNL A   1      44.287  22.429  24.575  1.00  0.00     0.006 A 
ENDBRANCH  59  73
BRANCH  60  81
ATOM     81  C   UNL A   1      40.879  30.067  33.728  1.00  0.00     0.057 A 
ATOM     82  C   UNL A   1      40.653  31.394  34.143  1.00  0.00     0.134 A 
ATOM     83  C   UNL A   1      39.750  29.292  33.451  1.00  0.00     0.134 A 
ATOM     84  F   UNL A   1      41.691  32.202  34.407  1.00  0.00    -0.206 F 
ATOM     85  C   UNL A   1      39.375  31.958  34.155  1.00  0.00     0.040 A 
ATOM     86  C   UNL A   1      38.463  29.842  33.481  1.00  0.00     0.040 A 
ATOM     87  F   UNL A   1      39.873  28.026  33.027  1.00  0.00    -0.206 F 
ATOM     88  C   UNL A   1      38.278  31.189  33.786  1.00  0.00     0.006 A 
ENDBRANCH  60  81
BRANCH  72  89
ATOM     89  C   UNL A   1      45.029  24.180  33.568  1.00  0.00     0.057 A 
ATOM     90  C   UNL A   1      44.097  23.219  33.986  1.00  0.00     0.134 A 
ATOM     91  C   UNL A   1      46.365  23.913  33.936  1.00  0.00     0.134 A 
ATOM     92  F   UNL A   1      42.781  23.404  33.805  1.00  0.00    -0.206 F 
ATOM     93  C   UNL A   1      44.477  22.035  34.633  1.00  0.00     0.040 A 
ATOM     94  C   UNL A   1      46.750  22.764  34.630  1.00  0.00     0.040 A 
ATOM     95  F   UNL A   1      47.371  24.741  33.621  1.00  0.00    -0.206 F 
ATOM     96  C   UNL A   1      45.808  21.805  34.961  1.00  0.00     0.006 A 
ENDBRANCH  72  89
ENDBRANCH  46  47
ENDBRANCH  38  41
ENDBRANCH  36  37
ENDBRANCH  35  36
ENDBRANCH   1  35
TORSDOF 15
ENDMDL
