MODEL 1
REMARK VINA RESULT:     -11.3      0.000      0.000
REMARK SMILES CCCCCCNC(=O)Oc1cccc(-c2ccc([C@H](C)C(=O)NCCCCNC(=O)c3ccc(-c4c5nc(c(-c6c(F)cccc6F)c6ccc([nH]6)c(-c6c(F)cccc6F)c6nc(c(-c7c(F)cccc7F)c7ccc4[nH]7)C=C6)C=C5)cc3)cc2F)c1
REMARK SMILES IDX 20 1 21 2 19 3 16 4 17 5 87 6 18 7 86 8 88 9 15 10 11 11
REMARK SMILES IDX 12 12 89 13 13 14 14 15 10 16 8 17 7 18 9 20 6 21 5 22 4 23
REMARK SMILES IDX 3 24 2 25 1 26 22 27 23 28 24 29 25 31 26 32 27 33 28 34
REMARK SMILES IDX 29 35 30 36 31 38 32 39 33 40 85 41 34 42 84 43 35 44 36 45
REMARK SMILES IDX 37 46 78 47 38 48 83 49 77 50 79 51 39 52 82 53 76 54 75 55
REMARK SMILES IDX 40 57 66 58 49 59 65 60 50 61 53 62 64 63 80 64 51 65 52 66
REMARK SMILES IDX 63 68 81 69 54 70 41 71 42 72 47 73 43 74 44 75 46 76 48 77
REMARK SMILES IDX 45 78 67 79 68 80 73 81 69 82 70 83 72 84 74 85 71 86 55 87
REMARK SMILES IDX 56 88 61 89 57 90 58 91 60 92 62 93 59 94
REMARK H PARENT 7 19 24 30 29 37 79 56 53 67
REMARK Flexibility Score: inf
ROOT
ATOM      1  C   UNL A   1      29.460  27.837  23.944  1.00  0.00     0.105 C 
ATOM      2  C   UNL A   1      28.109  27.321  23.443  1.00  0.00     0.023 C 
ENDROOT
BRANCH   1   3
ATOM      3  C   UNL A   1      30.577  26.813  24.099  1.00  0.00    -0.033 A 
ATOM      4  C   UNL A   1      32.708  24.985  24.546  1.00  0.00     0.018 A 
ATOM      5  C   UNL A   1      32.616  25.707  23.349  1.00  0.00     0.012 A 
ATOM      6  C   UNL A   1      31.695  25.166  25.495  1.00  0.00     0.131 A 
ATOM      7  C   UNL A   1      31.556  26.591  23.119  1.00  0.00     0.005 A 
ATOM      8  C   UNL A   1      30.650  26.066  25.285  1.00  0.00     0.044 A 
ATOM      9  F   UNL A   1      31.720  24.482  26.649  1.00  0.00    -0.206 F 
BRANCH   4  10
ATOM     10  C   UNL A   1      33.816  24.051  24.765  1.00  0.00    -0.012 A 
ATOM     11  C   UNL A   1      34.670  21.787  24.838  1.00  0.00     0.133 A 
ATOM     12  C   UNL A   1      35.952  22.249  25.121  1.00  0.00     0.047 A 
ATOM     13  C   UNL A   1      33.602  22.670  24.686  1.00  0.00     0.056 A 
ATOM     14  C   UNL A   1      36.175  23.620  25.217  1.00  0.00     0.004 A 
ATOM     15  C   UNL A   1      35.116  24.515  25.035  1.00  0.00     0.009 A 
BRANCH  11  16
ATOM     16  O   UNL A   1      34.473  20.399  24.815  1.00  0.00    -0.410 OA
BRANCH  16  17
ATOM     17  C   UNL A   1      33.363  19.901  25.479  1.00  0.00     0.412 C 
ATOM     18  N   UNL A   1      32.461  19.305  24.647  1.00  0.00    -0.321 N 
ATOM     19  H   UNL A   1      31.647  18.940  25.065  1.00  0.00     0.167 HD
ATOM     20  O   UNL A   1      33.151  19.966  26.688  1.00  0.00    -0.224 OA
BRANCH  18  21
ATOM     21  C   UNL A   1      32.575  19.154  23.210  1.00  0.00     0.119 C 
BRANCH  21  22
ATOM     22  C   UNL A   1      32.628  17.685  22.793  1.00  0.00     0.021 C 
BRANCH  22  23
ATOM     23  C   UNL A   1      33.989  17.006  22.995  1.00  0.00     0.002 C 
BRANCH  23  24
ATOM     24  C   UNL A   1      34.188  16.315  24.349  1.00  0.00    -0.000 C 
BRANCH  24  25
ATOM     25  C   UNL A   1      32.905  16.003  25.123  1.00  0.00    -0.003 C 
ATOM     26  C   UNL A   1      32.800  14.547  25.549  1.00  0.00     0.004 C 
ENDBRANCH  24  25
ENDBRANCH  23  24
ENDBRANCH  22  23
ENDBRANCH  21  22
ENDBRANCH  18  21
ENDBRANCH  16  17
ENDBRANCH  11  16
ENDBRANCH   4  10
ENDBRANCH   1   3
BRANCH   1  27
ATOM     27  C   UNL A   1      29.888  29.071  23.137  1.00  0.00     0.227 C 
ATOM     28  O   UNL A   1      29.538  29.203  21.960  1.00  0.00    -0.274 OA
ATOM     29  N   UNL A   1      30.681  30.047  23.666  1.00  0.00    -0.356 N 
ATOM     30  H   UNL A   1      30.955  30.747  23.031  1.00  0.00     0.163 HD
BRANCH  29  31
ATOM     31  C   UNL A   1      31.181  30.218  25.016  1.00  0.00     0.116 C 
BRANCH  31  32
ATOM     32  C   UNL A   1      32.587  29.656  25.193  1.00  0.00     0.023 C 
BRANCH  32  33
ATOM     33  C   UNL A   1      32.729  28.621  26.307  1.00  0.00     0.023 C 
BRANCH  33  34
ATOM     34  C   UNL A   1      33.881  28.859  27.278  1.00  0.00     0.116 C 
BRANCH  34  35
ATOM     35  N   UNL A   1      33.869  30.185  27.879  1.00  0.00    -0.352 N 
ATOM     36  C   UNL A   1      34.871  30.835  28.559  1.00  0.00     0.251 C 
ATOM     37  H   UNL A   1      33.026  30.686  27.784  1.00  0.00     0.163 HD
ATOM     38  O   UNL A   1      34.658  31.919  29.090  1.00  0.00    -0.269 OA
BRANCH  36  39
ATOM     39  C   UNL A   1      36.199  30.198  28.683  1.00  0.00     0.039 A 
ATOM     40  C   UNL A   1      37.070  30.238  27.591  1.00  0.00     0.014 A 
ATOM     41  C   UNL A   1      36.595  29.598  29.881  1.00  0.00     0.014 A 
ATOM     42  C   UNL A   1      38.370  29.747  27.728  1.00  0.00     0.010 A 
ATOM     43  C   UNL A   1      37.912  29.179  30.039  1.00  0.00     0.010 A 
ATOM     44  C   UNL A   1      38.814  29.254  28.965  1.00  0.00    -0.014 A 
BRANCH  44  45
ATOM     45  C   UNL A   1      40.222  28.829  29.165  1.00  0.00     0.031 A 
ATOM     46  C   UNL A   1      41.228  29.788  29.735  1.00  0.00     0.074 A 
ATOM     47  C   UNL A   1      40.612  27.608  28.752  1.00  0.00     0.049 A 
ATOM     48  N   UNL A   1      42.516  29.628  29.909  1.00  0.00    -0.248 NA
ATOM     49  C   UNL A   1      40.727  31.113  30.133  1.00  0.00     0.031 C 
ATOM     50  C   UNL A   1      39.746  26.608  28.123  1.00  0.00     0.029 A 
ATOM     51  N   UNL A   1      41.845  27.005  28.783  1.00  0.00    -0.354 N 
ATOM     52  C   UNL A   1      42.980  30.835  30.413  1.00  0.00     0.074 A 
ATOM     53  C   UNL A   1      41.847  31.733  30.473  1.00  0.00     0.031 C 
ATOM     54  C   UNL A   1      40.471  25.514  27.841  1.00  0.00     0.029 A 
ATOM     55  C   UNL A   1      41.857  25.744  28.238  1.00  0.00     0.049 A 
ATOM     56  H   UNL A   1      42.646  27.436  29.160  1.00  0.00     0.167 HD
ATOM     57  C   UNL A   1      44.234  31.161  30.810  1.00  0.00     0.037 A 
ATOM     58  C   UNL A   1      42.870  24.874  28.069  1.00  0.00     0.037 A 
ATOM     59  C   UNL A   1      45.352  30.256  30.780  1.00  0.00     0.049 A 
ATOM     60  C   UNL A   1      44.246  25.248  28.540  1.00  0.00     0.074 A 
ATOM     61  C   UNL A   1      46.640  30.463  31.241  1.00  0.00     0.029 A 
ATOM     62  N   UNL A   1      45.315  28.972  30.258  1.00  0.00    -0.354 N 
ATOM     63  N   UNL A   1      44.654  26.363  29.095  1.00  0.00    -0.248 NA
ATOM     64  C   UNL A   1      45.302  24.240  28.370  1.00  0.00     0.031 C 
ATOM     65  C   UNL A   1      47.395  29.318  30.959  1.00  0.00     0.029 A 
ATOM     66  C   UNL A   1      46.564  28.383  30.363  1.00  0.00     0.049 A 
ATOM     67  H   UNL A   1      44.518  28.543  29.870  1.00  0.00     0.167 HD
ATOM     68  C   UNL A   1      46.006  26.184  29.361  1.00  0.00     0.074 A 
ATOM     69  C   UNL A   1      46.345  24.848  28.919  1.00  0.00     0.031 C 
ATOM     70  C   UNL A   1      46.885  27.050  29.919  1.00  0.00     0.037 A 
BRANCH  57  71
ATOM     71  C   UNL A   1      44.459  32.557  31.311  1.00  0.00     0.057 A 
ATOM     72  C   UNL A   1      44.843  33.598  30.454  1.00  0.00     0.134 A 
ATOM     73  C   UNL A   1      44.265  32.871  32.661  1.00  0.00     0.134 A 
ATOM     74  F   UNL A   1      45.058  33.362  29.151  1.00  0.00    -0.206 F 
ATOM     75  C   UNL A   1      45.055  34.894  30.929  1.00  0.00     0.040 A 
ATOM     76  C   UNL A   1      44.447  34.169  33.143  1.00  0.00     0.040 A 
ATOM     77  F   UNL A   1      43.890  31.924  33.534  1.00  0.00    -0.206 F 
ATOM     78  C   UNL A   1      44.851  35.183  32.276  1.00  0.00     0.006 A 
ENDBRANCH  57  71
BRANCH  58  79
ATOM     79  C   UNL A   1      42.612  23.554  27.442  1.00  0.00     0.057 A 
ATOM     80  C   UNL A   1      42.722  23.378  26.059  1.00  0.00     0.134 A 
ATOM     81  C   UNL A   1      42.258  22.437  28.209  1.00  0.00     0.134 A 
ATOM     82  F   UNL A   1      43.040  24.416  25.271  1.00  0.00    -0.206 F 
ATOM     83  C   UNL A   1      42.475  22.143  25.457  1.00  0.00     0.040 A 
ATOM     84  C   UNL A   1      42.031  21.191  27.624  1.00  0.00     0.040 A 
ATOM     85  F   UNL A   1      42.146  22.540  29.542  1.00  0.00    -0.206 F 
ATOM     86  C   UNL A   1      42.134  21.044  26.241  1.00  0.00     0.006 A 
ENDBRANCH  58  79
BRANCH  70  87
ATOM     87  C   UNL A   1      48.295  26.571  30.109  1.00  0.00     0.057 A 
ATOM     88  C   UNL A   1      49.290  26.810  29.153  1.00  0.00     0.134 A 
ATOM     89  C   UNL A   1      48.667  25.897  31.278  1.00  0.00     0.134 A 
ATOM     90  F   UNL A   1      48.994  27.438  28.005  1.00  0.00    -0.206 F 
ATOM     91  C   UNL A   1      50.603  26.380  29.347  1.00  0.00     0.040 A 
ATOM     92  C   UNL A   1      49.983  25.484  31.495  1.00  0.00     0.040 A 
ATOM     93  F   UNL A   1      47.764  25.643  32.237  1.00  0.00    -0.206 F 
ATOM     94  C   UNL A   1      50.954  25.721  30.523  1.00  0.00     0.006 A 
ENDBRANCH  70  87
ENDBRANCH  44  45
ENDBRANCH  36  39
ENDBRANCH  34  35
ENDBRANCH  33  34
ENDBRANCH  32  33
ENDBRANCH  31  32
ENDBRANCH  29  31
ENDBRANCH   1  27
TORSDOF 20
ENDMDL
MODEL 2
REMARK VINA RESULT:     -11.0      3.269      7.322
REMARK SMILES CCCCCCNC(=O)Oc1cccc(-c2ccc([C@H](C)C(=O)NCCCCNC(=O)c3ccc(-c4c5nc(c(-c6c(F)cccc6F)c6ccc([nH]6)c(-c6c(F)cccc6F)c6nc(c(-c7c(F)cccc7F)c7ccc4[nH]7)C=C6)C=C5)cc3)cc2F)c1
REMARK SMILES IDX 20 1 21 2 19 3 16 4 17 5 87 6 18 7 86 8 88 9 15 10 11 11
REMARK SMILES IDX 12 12 89 13 13 14 14 15 10 16 8 17 7 18 9 20 6 21 5 22 4 23
REMARK SMILES IDX 3 24 2 25 1 26 22 27 23 28 24 29 25 31 26 32 27 33 28 34
REMARK SMILES IDX 29 35 30 36 31 38 32 39 33 40 85 41 34 42 84 43 35 44 36 45
REMARK SMILES IDX 37 46 78 47 38 48 83 49 77 50 79 51 39 52 82 53 76 54 75 55
REMARK SMILES IDX 40 57 66 58 49 59 65 60 50 61 53 62 64 63 80 64 51 65 52 66
REMARK SMILES IDX 63 68 81 69 54 70 41 71 42 72 47 73 43 74 44 75 46 76 48 77
REMARK SMILES IDX 45 78 67 79 68 80 73 81 69 82 70 83 72 84 74 85 71 86 55 87
REMARK SMILES IDX 56 88 61 89 57 90 58 91 60 92 62 93 59 94
REMARK H PARENT 7 19 24 30 29 37 79 56 53 67
REMARK Flexibility Score: inf
ROOT
ATOM      1  C   UNL A   1      28.431  29.080  23.291  1.00  0.00     0.105 C 
ATOM      2  C   UNL A   1      26.956  28.849  22.950  1.00  0.00     0.023 C 
ENDROOT
BRANCH   1   3
ATOM      3  C   UNL A   1      29.323  27.847  23.370  1.00  0.00    -0.033 A 
ATOM      4  C   UNL A   1      30.997  25.550  23.333  1.00  0.00     0.018 A 
ATOM      5  C   UNL A   1      29.760  25.530  23.989  1.00  0.00     0.012 A 
ATOM      6  C   UNL A   1      31.396  26.749  22.731  1.00  0.00     0.131 A 
ATOM      7  C   UNL A   1      28.945  26.667  24.026  1.00  0.00     0.005 A 
ATOM      8  C   UNL A   1      30.577  27.878  22.740  1.00  0.00     0.044 A 
ATOM      9  F   UNL A   1      32.583  26.832  22.109  1.00  0.00    -0.206 F 
BRANCH   4  10
ATOM     10  C   UNL A   1      31.846  24.356  23.316  1.00  0.00    -0.012 A 
ATOM     11  C   UNL A   1      32.365  22.137  24.135  1.00  0.00     0.133 A 
ATOM     12  C   UNL A   1      33.432  22.028  23.248  1.00  0.00     0.047 A 
ATOM     13  C   UNL A   1      31.591  23.295  24.193  1.00  0.00     0.056 A 
ATOM     14  C   UNL A   1      33.706  23.083  22.380  1.00  0.00     0.004 A 
ATOM     15  C   UNL A   1      32.916  24.236  22.409  1.00  0.00     0.009 A 
BRANCH  11  16
ATOM     16  O   UNL A   1      32.163  21.083  25.035  1.00  0.00    -0.410 OA
BRANCH  16  17
ATOM     17  C   UNL A   1      33.268  20.323  25.386  1.00  0.00     0.412 C 
ATOM     18  N   UNL A   1      33.830  20.706  26.570  1.00  0.00    -0.321 N 
ATOM     19  H   UNL A   1      34.626  20.205  26.864  1.00  0.00     0.167 HD
ATOM     20  O   UNL A   1      33.747  19.395  24.738  1.00  0.00    -0.224 OA
BRANCH  18  21
ATOM     21  C   UNL A   1      33.378  21.774  27.438  1.00  0.00     0.119 C 
BRANCH  21  22
ATOM     22  C   UNL A   1      34.368  22.937  27.476  1.00  0.00     0.021 C 
BRANCH  22  23
ATOM     23  C   UNL A   1      34.918  23.361  26.108  1.00  0.00     0.002 C 
BRANCH  23  24
ATOM     24  C   UNL A   1      36.433  23.583  26.044  1.00  0.00    -0.000 C 
BRANCH  24  25
ATOM     25  C   UNL A   1      37.087  23.271  24.695  1.00  0.00    -0.003 C 
ATOM     26  C   UNL A   1      36.914  21.824  24.263  1.00  0.00     0.004 C 
ENDBRANCH  24  25
ENDBRANCH  23  24
ENDBRANCH  22  23
ENDBRANCH  21  22
ENDBRANCH  18  21
ENDBRANCH  16  17
ENDBRANCH  11  16
ENDBRANCH   4  10
ENDBRANCH   1   3
BRANCH   1  27
ATOM     27  C   UNL A   1      29.015  30.185  22.400  1.00  0.00     0.227 C 
ATOM     28  O   UNL A   1      29.065  30.039  21.174  1.00  0.00    -0.274 OA
ATOM     29  N   UNL A   1      29.518  31.344  22.913  1.00  0.00    -0.356 N 
ATOM     30  H   UNL A   1      29.938  31.941  22.252  1.00  0.00     0.163 HD
BRANCH  29  31
ATOM     31  C   UNL A   1      29.531  31.837  24.276  1.00  0.00     0.116 C 
BRANCH  31  32
ATOM     32  C   UNL A   1      30.654  31.226  25.107  1.00  0.00     0.023 C 
BRANCH  32  33
ATOM     33  C   UNL A   1      30.831  31.837  26.495  1.00  0.00     0.023 C 
BRANCH  33  34
ATOM     34  C   UNL A   1      32.186  32.486  26.757  1.00  0.00     0.116 C 
BRANCH  34  35
ATOM     35  N   UNL A   1      32.090  33.809  27.358  1.00  0.00    -0.352 N 
ATOM     36  C   UNL A   1      32.931  34.411  28.262  1.00  0.00     0.251 C 
ATOM     37  H   UNL A   1      31.314  34.346  27.077  1.00  0.00     0.163 HD
ATOM     38  O   UNL A   1      32.645  35.501  28.745  1.00  0.00    -0.269 OA
BRANCH  36  39
ATOM     39  C   UNL A   1      34.166  33.716  28.683  1.00  0.00     0.039 A 
ATOM     40  C   UNL A   1      35.385  34.114  28.130  1.00  0.00     0.014 A 
ATOM     41  C   UNL A   1      34.123  32.703  29.644  1.00  0.00     0.014 A 
ATOM     42  C   UNL A   1      36.573  33.552  28.602  1.00  0.00     0.010 A 
ATOM     43  C   UNL A   1      35.311  32.198  30.165  1.00  0.00     0.010 A 
ATOM     44  C   UNL A   1      36.547  32.622  29.653  1.00  0.00    -0.014 A 
BRANCH  44  45
ATOM     45  C   UNL A   1      37.801  32.092  30.245  1.00  0.00     0.031 A 
ATOM     46  C   UNL A   1      38.424  30.838  29.699  1.00  0.00     0.074 A 
ATOM     47  C   UNL A   1      38.331  32.692  31.327  1.00  0.00     0.049 A 
ATOM     48  N   UNL A   1      39.469  30.179  30.131  1.00  0.00    -0.248 NA
ATOM     49  C   UNL A   1      37.766  30.226  28.533  1.00  0.00     0.031 C 
ATOM     50  C   UNL A   1      37.785  33.878  31.992  1.00  0.00     0.029 A 
ATOM     51  N   UNL A   1      39.440  32.377  32.072  1.00  0.00    -0.354 N 
ATOM     52  C   UNL A   1      39.580  29.067  29.307  1.00  0.00     0.074 A 
ATOM     53  C   UNL A   1      38.470  29.115  28.381  1.00  0.00     0.031 C 
ATOM     54  C   UNL A   1      38.567  34.196  33.036  1.00  0.00     0.029 A 
ATOM     55  C   UNL A   1      39.649  33.221  33.135  1.00  0.00     0.049 A 
ATOM     56  H   UNL A   1      40.029  31.615  31.865  1.00  0.00     0.167 HD
ATOM     57  C   UNL A   1      40.532  28.103  29.310  1.00  0.00     0.037 A 
ATOM     58  C   UNL A   1      40.601  33.209  34.088  1.00  0.00     0.037 A 
ATOM     59  C   UNL A   1      41.654  28.077  30.210  1.00  0.00     0.049 A 
ATOM     60  C   UNL A   1      41.661  32.145  34.053  1.00  0.00     0.074 A 
ATOM     61  C   UNL A   1      42.718  27.193  30.236  1.00  0.00     0.029 A 
ATOM     62  N   UNL A   1      41.854  28.975  31.249  1.00  0.00    -0.354 N 
ATOM     63  N   UNL A   1      41.803  31.148  33.215  1.00  0.00    -0.248 NA
ATOM     64  C   UNL A   1      42.699  32.210  35.093  1.00  0.00     0.031 C 
ATOM     65  C   UNL A   1      43.541  27.530  31.316  1.00  0.00     0.029 A 
ATOM     66  C   UNL A   1      43.012  28.651  31.935  1.00  0.00     0.049 A 
ATOM     67  H   UNL A   1      41.260  29.730  31.465  1.00  0.00     0.167 HD
ATOM     68  C   UNL A   1      42.955  30.480  33.610  1.00  0.00     0.074 A 
ATOM     69  C   UNL A   1      43.481  31.194  34.754  1.00  0.00     0.031 C 
ATOM     70  C   UNL A   1      43.524  29.373  33.073  1.00  0.00     0.037 A 
BRANCH  57  71
ATOM     71  C   UNL A   1      40.399  26.999  28.303  1.00  0.00     0.057 A 
ATOM     72  C   UNL A   1      41.090  27.023  27.082  1.00  0.00     0.134 A 
ATOM     73  C   UNL A   1      39.590  25.887  28.565  1.00  0.00     0.134 A 
ATOM     74  F   UNL A   1      41.871  28.066  26.764  1.00  0.00    -0.206 F 
ATOM     75  C   UNL A   1      40.957  25.994  26.149  1.00  0.00     0.040 A 
ATOM     76  C   UNL A   1      39.472  24.838  27.650  1.00  0.00     0.040 A 
ATOM     77  F   UNL A   1      38.908  25.797  29.716  1.00  0.00    -0.206 F 
ATOM     78  C   UNL A   1      40.151  24.895  26.435  1.00  0.00     0.006 A 
ENDBRANCH  57  71
BRANCH  58  79
ATOM     79  C   UNL A   1      40.604  34.254  35.141  1.00  0.00     0.057 A 
ATOM     80  C   UNL A   1      41.272  35.468  34.951  1.00  0.00     0.134 A 
ATOM     81  C   UNL A   1      39.936  34.068  36.357  1.00  0.00     0.134 A 
ATOM     82  F   UNL A   1      41.944  35.697  33.813  1.00  0.00    -0.206 F 
ATOM     83  C   UNL A   1      41.289  36.456  35.937  1.00  0.00     0.040 A 
ATOM     84  C   UNL A   1      39.925  35.055  37.343  1.00  0.00     0.040 A 
ATOM     85  F   UNL A   1      39.270  32.928  36.596  1.00  0.00    -0.206 F 
ATOM     86  C   UNL A   1      40.608  36.252  37.136  1.00  0.00     0.006 A 
ENDBRANCH  58  79
BRANCH  70  87
ATOM     87  C   UNL A   1      44.796  28.882  33.700  1.00  0.00     0.057 A 
ATOM     88  C   UNL A   1      44.793  27.914  34.711  1.00  0.00     0.134 A 
ATOM     89  C   UNL A   1      46.037  29.355  33.258  1.00  0.00     0.134 A 
ATOM     90  F   UNL A   1      43.635  27.431  35.188  1.00  0.00    -0.206 F 
ATOM     91  C   UNL A   1      45.981  27.446  35.274  1.00  0.00     0.040 A 
ATOM     92  C   UNL A   1      47.233  28.877  33.795  1.00  0.00     0.040 A 
ATOM     93  F   UNL A   1      46.110  30.278  32.286  1.00  0.00    -0.206 F 
ATOM     94  C   UNL A   1      47.206  27.923  34.811  1.00  0.00     0.006 A 
ENDBRANCH  70  87
ENDBRANCH  44  45
ENDBRANCH  36  39
ENDBRANCH  34  35
ENDBRANCH  33  34
ENDBRANCH  32  33
ENDBRANCH  31  32
ENDBRANCH  29  31
ENDBRANCH   1  27
TORSDOF 20
ENDMDL
MODEL 3
REMARK VINA RESULT:     -11.0      3.665      7.676
REMARK SMILES CCCCCCNC(=O)Oc1cccc(-c2ccc([C@H](C)C(=O)NCCCCNC(=O)c3ccc(-c4c5nc(c(-c6c(F)cccc6F)c6ccc([nH]6)c(-c6c(F)cccc6F)c6nc(c(-c7c(F)cccc7F)c7ccc4[nH]7)C=C6)C=C5)cc3)cc2F)c1
REMARK SMILES IDX 20 1 21 2 19 3 16 4 17 5 87 6 18 7 86 8 88 9 15 10 11 11
REMARK SMILES IDX 12 12 89 13 13 14 14 15 10 16 8 17 7 18 9 20 6 21 5 22 4 23
REMARK SMILES IDX 3 24 2 25 1 26 22 27 23 28 24 29 25 31 26 32 27 33 28 34
REMARK SMILES IDX 29 35 30 36 31 38 32 39 33 40 85 41 34 42 84 43 35 44 36 45
REMARK SMILES IDX 37 46 78 47 38 48 83 49 77 50 79 51 39 52 82 53 76 54 75 55
REMARK SMILES IDX 40 57 66 58 49 59 65 60 50 61 53 62 64 63 80 64 51 65 52 66
REMARK SMILES IDX 63 68 81 69 54 70 41 71 42 72 47 73 43 74 44 75 46 76 48 77
REMARK SMILES IDX 45 78 67 79 68 80 73 81 69 82 70 83 72 84 74 85 71 86 55 87
REMARK SMILES IDX 56 88 61 89 57 90 58 91 60 92 62 93 59 94
REMARK H PARENT 7 19 24 30 29 37 79 56 53 67
REMARK Flexibility Score: inf
ROOT
ATOM      1  C   UNL A   1      32.475  28.290  22.520  1.00  0.00     0.105 C 
ATOM      2  C   UNL A   1      33.432  29.003  23.478  1.00  0.00     0.023 C 
ENDROOT
BRANCH   1   3
ATOM      3  C   UNL A   1      32.503  26.766  22.522  1.00  0.00    -0.033 A 
ATOM      4  C   UNL A   1      32.486  23.929  22.697  1.00  0.00     0.018 A 
ATOM      5  C   UNL A   1      33.659  24.624  22.378  1.00  0.00     0.012 A 
ATOM      6  C   UNL A   1      31.317  24.675  22.889  1.00  0.00     0.131 A 
ATOM      7  C   UNL A   1      33.663  26.020  22.270  1.00  0.00     0.005 A 
ATOM      8  C   UNL A   1      31.320  26.067  22.811  1.00  0.00     0.044 A 
ATOM      9  F   UNL A   1      30.160  24.058  23.173  1.00  0.00    -0.206 F 
BRANCH   4  10
ATOM     10  C   UNL A   1      32.494  22.466  22.791  1.00  0.00    -0.012 A 
ATOM     11  C   UNL A   1      33.147  20.440  23.945  1.00  0.00     0.133 A 
ATOM     12  C   UNL A   1      32.463  19.658  23.018  1.00  0.00     0.047 A 
ATOM     13  C   UNL A   1      33.189  21.828  23.826  1.00  0.00     0.056 A 
ATOM     14  C   UNL A   1      31.780  20.279  21.975  1.00  0.00     0.004 A 
ATOM     15  C   UNL A   1      31.790  21.673  21.865  1.00  0.00     0.009 A 
BRANCH  11  16
ATOM     16  O   UNL A   1      33.875  19.775  24.940  1.00  0.00    -0.410 OA
BRANCH  16  17
ATOM     17  C   UNL A   1      33.176  19.327  26.050  1.00  0.00     0.412 C 
ATOM     18  N   UNL A   1      33.276  20.166  27.123  1.00  0.00    -0.321 N 
ATOM     19  H   UNL A   1      32.805  19.892  27.943  1.00  0.00     0.167 HD
ATOM     20  O   UNL A   1      32.522  18.289  26.127  1.00  0.00    -0.224 OA
BRANCH  18  21
ATOM     21  C   UNL A   1      34.005  21.416  27.180  1.00  0.00     0.119 C 
BRANCH  21  22
ATOM     22  C   UNL A   1      33.159  22.545  27.766  1.00  0.00     0.021 C 
BRANCH  22  23
ATOM     23  C   UNL A   1      32.613  23.543  26.735  1.00  0.00     0.002 C 
BRANCH  23  24
ATOM     24  C   UNL A   1      33.654  24.472  26.100  1.00  0.00    -0.000 C 
BRANCH  24  25
ATOM     25  C   UNL A   1      33.265  25.951  26.040  1.00  0.00    -0.003 C 
ATOM     26  C   UNL A   1      31.819  26.209  26.434  1.00  0.00     0.004 C 
ENDBRANCH  24  25
ENDBRANCH  23  24
ENDBRANCH  22  23
ENDBRANCH  21  22
ENDBRANCH  18  21
ENDBRANCH  16  17
ENDBRANCH  11  16
ENDBRANCH   4  10
ENDBRANCH   1   3
BRANCH   1  27
ATOM     27  C   UNL A   1      31.057  28.861  22.663  1.00  0.00     0.227 C 
ATOM     28  O   UNL A   1      30.259  28.799  21.722  1.00  0.00    -0.274 OA
ATOM     29  N   UNL A   1      30.631  29.473  23.805  1.00  0.00    -0.356 N 
ATOM     30  H   UNL A   1      29.732  29.870  23.751  1.00  0.00     0.163 HD
BRANCH  29  31
ATOM     31  C   UNL A   1      31.291  29.629  25.086  1.00  0.00     0.116 C 
BRANCH  31  32
ATOM     32  C   UNL A   1      31.143  31.038  25.651  1.00  0.00     0.023 C 
BRANCH  32  33
ATOM     33  C   UNL A   1      31.785  31.251  27.020  1.00  0.00     0.023 C 
BRANCH  33  34
ATOM     34  C   UNL A   1      32.945  32.242  27.051  1.00  0.00     0.116 C 
BRANCH  34  35
ATOM     35  N   UNL A   1      32.542  33.595  27.411  1.00  0.00    -0.352 N 
ATOM     36  C   UNL A   1      33.057  34.421  28.380  1.00  0.00     0.251 C 
ATOM     37  H   UNL A   1      31.798  33.969  26.885  1.00  0.00     0.163 HD
ATOM     38  O   UNL A   1      32.530  35.502  28.618  1.00  0.00    -0.269 OA
BRANCH  36  39
ATOM     39  C   UNL A   1      34.228  33.979  29.167  1.00  0.00     0.039 A 
ATOM     40  C   UNL A   1      34.020  33.173  30.288  1.00  0.00     0.014 A 
ATOM     41  C   UNL A   1      35.524  34.328  28.777  1.00  0.00     0.014 A 
ATOM     42  C   UNL A   1      35.118  32.648  30.973  1.00  0.00     0.010 A 
ATOM     43  C   UNL A   1      36.614  33.744  29.414  1.00  0.00     0.010 A 
ATOM     44  C   UNL A   1      36.422  32.895  30.515  1.00  0.00    -0.014 A 
BRANCH  44  45
ATOM     45  C   UNL A   1      37.599  32.260  31.160  1.00  0.00     0.031 A 
ATOM     46  C   UNL A   1      38.302  31.113  30.490  1.00  0.00     0.074 A 
ATOM     47  C   UNL A   1      37.980  32.660  32.388  1.00  0.00     0.049 A 
ATOM     48  N   UNL A   1      39.293  30.381  30.931  1.00  0.00    -0.248 NA
ATOM     49  C   UNL A   1      37.805  30.718  29.162  1.00  0.00     0.031 C 
ATOM     50  C   UNL A   1      37.338  33.717  33.173  1.00  0.00     0.029 A 
ATOM     51  N   UNL A   1      38.989  32.210  33.202  1.00  0.00    -0.354 N 
ATOM     52  C   UNL A   1      39.522  29.427  29.949  1.00  0.00     0.074 A 
ATOM     53  C   UNL A   1      38.537  29.643  28.911  1.00  0.00     0.031 C 
ATOM     54  C   UNL A   1      37.978  33.844  34.346  1.00  0.00     0.029 A 
ATOM     55  C   UNL A   1      39.052  32.857  34.413  1.00  0.00     0.049 A 
ATOM     56  H   UNL A   1      39.610  31.491  32.944  1.00  0.00     0.167 HD
ATOM     57  C   UNL A   1      40.479  28.469  29.905  1.00  0.00     0.037 A 
ATOM     58  C   UNL A   1      39.876  32.672  35.462  1.00  0.00     0.037 A 
ATOM     59  C   UNL A   1      41.478  28.277  30.923  1.00  0.00     0.049 A 
ATOM     60  C   UNL A   1      40.946  31.621  35.379  1.00  0.00     0.074 A 
ATOM     61  C   UNL A   1      42.542  27.393  30.930  1.00  0.00     0.029 A 
ATOM     62  N   UNL A   1      41.534  28.981  32.117  1.00  0.00    -0.354 N 
ATOM     63  N   UNL A   1      41.206  30.782  34.406  1.00  0.00    -0.248 NA
ATOM     64  C   UNL A   1      41.843  31.496  36.536  1.00  0.00     0.031 C 
ATOM     65  C   UNL A   1      43.218  27.532  32.147  1.00  0.00     0.029 A 
ATOM     66  C   UNL A   1      42.600  28.533  32.879  1.00  0.00     0.049 A 
ATOM     67  H   UNL A   1      40.908  29.692  32.383  1.00  0.00     0.167 HD
ATOM     68  C   UNL A   1      42.307  30.046  34.822  1.00  0.00     0.074 A 
ATOM     69  C   UNL A   1      42.676  30.547  36.130  1.00  0.00     0.031 C 
ATOM     70  C   UNL A   1      42.954  29.044  34.179  1.00  0.00     0.037 A 
BRANCH  57  71
ATOM     71  C   UNL A   1      40.489  27.557  28.714  1.00  0.00     0.057 A 
ATOM     72  C   UNL A   1      41.299  27.806  27.597  1.00  0.00     0.134 A 
ATOM     73  C   UNL A   1      39.698  26.401  28.693  1.00  0.00     0.134 A 
ATOM     74  F   UNL A   1      42.070  28.902  27.548  1.00  0.00    -0.206 F 
ATOM     75  C   UNL A   1      41.299  26.955  26.491  1.00  0.00     0.040 A 
ATOM     76  C   UNL A   1      39.711  25.527  27.604  1.00  0.00     0.040 A 
ATOM     77  F   UNL A   1      38.905  26.099  29.732  1.00  0.00    -0.206 F 
ATOM     78  C   UNL A   1      40.507  25.809  26.495  1.00  0.00     0.006 A 
ENDBRANCH  57  71
BRANCH  58  79
ATOM     79  C   UNL A   1      39.732  33.519  36.671  1.00  0.00     0.057 A 
ATOM     80  C   UNL A   1      40.407  34.740  36.781  1.00  0.00     0.134 A 
ATOM     81  C   UNL A   1      38.914  33.134  37.740  1.00  0.00     0.134 A 
ATOM     82  F   UNL A   1      41.219  35.153  35.797  1.00  0.00    -0.206 F 
ATOM     83  C   UNL A   1      40.286  35.542  37.918  1.00  0.00     0.040 A 
ATOM     84  C   UNL A   1      38.765  33.937  38.872  1.00  0.00     0.040 A 
ATOM     85  F   UNL A   1      38.234  31.979  37.690  1.00  0.00    -0.206 F 
ATOM     86  C   UNL A   1      39.458  35.143  38.965  1.00  0.00     0.006 A 
ENDBRANCH  58  79
BRANCH  70  87
ATOM     87  C   UNL A   1      44.143  28.441  34.868  1.00  0.00     0.057 A 
ATOM     88  C   UNL A   1      44.021  27.334  35.717  1.00  0.00     0.134 A 
ATOM     89  C   UNL A   1      45.429  28.949  34.646  1.00  0.00     0.134 A 
ATOM     90  F   UNL A   1      42.814  26.809  35.981  1.00  0.00    -0.206 F 
ATOM     91  C   UNL A   1      45.134  26.765  36.337  1.00  0.00     0.040 A 
ATOM     92  C   UNL A   1      46.553  28.373  35.241  1.00  0.00     0.040 A 
ATOM     93  F   UNL A   1      45.616  30.003  33.838  1.00  0.00    -0.206 F 
ATOM     94  C   UNL A   1      46.406  27.281  36.094  1.00  0.00     0.006 A 
ENDBRANCH  70  87
ENDBRANCH  44  45
ENDBRANCH  36  39
ENDBRANCH  34  35
ENDBRANCH  33  34
ENDBRANCH  32  33
ENDBRANCH  31  32
ENDBRANCH  29  31
ENDBRANCH   1  27
TORSDOF 20
ENDMDL
