MODEL 1
REMARK VINA RESULT:     -11.6      0.000      0.000
REMARK SMILES Cc1nc(-c2ccco2)nc(S)c1C(=O)NCCCCNC(=O)c1ccc(-c2c3nc(c(-c4c(F)cccc4F)c4ccc([nH]4)c(-c4c(F)cccc4F)c4nc(c(-c5c(F)cccc5F)c5ccc2[nH]5)C=C4)C=C3)cc1
REMARK SMILES IDX 19 1 18 2 17 3 16 4 14 5 15 6 13 8 1 9 2 10 3 11 4 12 11 13
REMARK SMILES IDX 10 14 5 15 6 16 9 17 7 18 8 19 12 20 20 22 21 23 22 24 23 26
REMARK SMILES IDX 24 27 25 28 77 29 26 30 76 31 27 32 28 33 29 34 70 35 30 36
REMARK SMILES IDX 75 37 69 38 71 39 31 40 74 41 68 42 67 43 32 45 58 46 41 47
REMARK SMILES IDX 57 48 42 49 45 50 56 51 72 52 43 53 44 54 55 56 73 57 46 58
REMARK SMILES IDX 33 59 34 60 39 61 35 62 36 63 38 64 40 65 37 66 59 67 60 68
REMARK SMILES IDX 65 69 61 70 62 71 64 72 66 73 63 74 47 75 48 76 53 77 49 78
REMARK SMILES IDX 50 79 52 80 54 81 51 82
REMARK H PARENT 16 7 12 21 21 25 71 44 45 55
REMARK Flexibility Score: inf
ROOT
ATOM      1  C   UNL A   1      31.703  29.322  27.044  1.00  0.00     0.023 C 
ENDROOT
BRANCH   1   2
ATOM      2  C   UNL A   1      32.394  27.984  27.309  1.00  0.00     0.023 C 
BRANCH   2   3
ATOM      3  C   UNL A   1      33.668  27.712  26.514  1.00  0.00     0.116 C 
BRANCH   3   4
ATOM      4  N   UNL A   1      33.634  26.500  25.715  1.00  0.00    -0.352 N 
ATOM      5  C   UNL A   1      33.013  26.275  24.509  1.00  0.00     0.255 C 
ATOM      6  O   UNL A   1      33.189  25.212  23.920  1.00  0.00    -0.269 OA
ATOM      7  H   UNL A   1      34.123  25.732  26.090  1.00  0.00     0.163 HD
BRANCH   5   8
ATOM      8  C   UNL A   1      32.098  27.268  23.934  1.00  0.00     0.093 A 
ATOM      9  C   UNL A   1      33.925  28.480  22.636  1.00  0.00     0.068 C 
ATOM     10  C   UNL A   1      32.510  28.283  23.085  1.00  0.00     0.055 A 
ATOM     11  N   UNL A   1      31.645  29.203  22.602  1.00  0.00    -0.230 NA
ATOM     12  C   UNL A   1      30.350  29.073  22.940  1.00  0.00     0.196 A 
ATOM     13  C   UNL A   1      30.730  27.184  24.170  1.00  0.00     0.110 A 
ATOM     14  N   UNL A   1      29.847  28.098  23.708  1.00  0.00    -0.218 NA
BRANCH  12  15
ATOM     15  C   UNL A   1      29.426  30.096  22.485  1.00  0.00     0.171 A 
ATOM     16  C   UNL A   1      28.911  31.245  23.058  1.00  0.00     0.054 A 
ATOM     17  O   UNL A   1      28.915  29.953  21.222  1.00  0.00    -0.461 OA
ATOM     18  C   UNL A   1      28.058  31.836  22.094  1.00  0.00     0.043 A 
ATOM     19  C   UNL A   1      28.086  31.005  20.999  1.00  0.00     0.196 A 
ENDBRANCH  12  15
BRANCH  13  20
ATOM     20  S   UNL A   1      29.968  25.888  25.136  1.00  0.00    -0.123 SA
ATOM     21  H   UNL A   1      28.695  26.249  25.456  1.00  0.00     0.110 HD
ENDBRANCH  13  20
ENDBRANCH   5   8
ENDBRANCH   3   4
ENDBRANCH   2   3
ENDBRANCH   1   2
BRANCH   1  22
ATOM     22  C   UNL A   1      32.507  30.365  26.271  1.00  0.00     0.116 C 
BRANCH  22  23
ATOM     23  N   UNL A   1      32.385  31.717  26.796  1.00  0.00    -0.352 N 
ATOM     24  C   UNL A   1      33.261  32.472  27.540  1.00  0.00     0.251 C 
ATOM     25  H   UNL A   1      31.535  32.166  26.582  1.00  0.00     0.163 HD
ATOM     26  O   UNL A   1      32.919  33.581  27.944  1.00  0.00    -0.269 OA
BRANCH  24  27
ATOM     27  C   UNL A   1      34.592  31.938  27.911  1.00  0.00     0.039 A 
ATOM     28  C   UNL A   1      34.765  30.597  28.245  1.00  0.00     0.014 A 
ATOM     29  C   UNL A   1      35.683  32.812  27.959  1.00  0.00     0.014 A 
ATOM     30  C   UNL A   1      35.950  30.186  28.847  1.00  0.00     0.010 A 
ATOM     31  C   UNL A   1      36.909  32.370  28.467  1.00  0.00     0.010 A 
ATOM     32  C   UNL A   1      37.031  31.073  28.987  1.00  0.00    -0.014 A 
BRANCH  32  33
ATOM     33  C   UNL A   1      38.250  30.629  29.716  1.00  0.00     0.031 A 
ATOM     34  C   UNL A   1      38.466  31.014  31.158  1.00  0.00     0.074 A 
ATOM     35  C   UNL A   1      39.123  29.803  29.109  1.00  0.00     0.049 A 
ATOM     36  N   UNL A   1      39.443  30.675  31.965  1.00  0.00    -0.248 NA
ATOM     37  C   UNL A   1      37.462  31.893  31.780  1.00  0.00     0.031 C 
ATOM     38  C   UNL A   1      39.021  29.341  27.723  1.00  0.00     0.029 A 
ATOM     39  N   UNL A   1      40.244  29.172  29.587  1.00  0.00    -0.354 N 
ATOM     40  C   UNL A   1      39.181  31.313  33.172  1.00  0.00     0.074 A 
ATOM     41  C   UNL A   1      37.970  32.081  32.989  1.00  0.00     0.031 C 
ATOM     42  C   UNL A   1      39.991  28.446  27.487  1.00  0.00     0.029 A 
ATOM     43  C   UNL A   1      40.822  28.318  28.679  1.00  0.00     0.049 A 
ATOM     44  H   UNL A   1      40.600  29.316  30.494  1.00  0.00     0.167 HD
ATOM     45  C   UNL A   1      39.876  31.250  34.333  1.00  0.00     0.037 A 
ATOM     46  C   UNL A   1      41.901  27.520  28.789  1.00  0.00     0.037 A 
ATOM     47  C   UNL A   1      41.063  30.460  34.531  1.00  0.00     0.049 A 
ATOM     48  C   UNL A   1      42.673  27.496  30.076  1.00  0.00     0.074 A 
ATOM     49  C   UNL A   1      41.826  30.326  35.678  1.00  0.00     0.029 A 
ATOM     50  N   UNL A   1      41.653  29.663  33.563  1.00  0.00    -0.354 N 
ATOM     51  N   UNL A   1      42.417  28.115  31.202  1.00  0.00    -0.248 NA
ATOM     52  C   UNL A   1      43.891  26.674  30.102  1.00  0.00     0.031 C 
ATOM     53  C   UNL A   1      42.898  29.473  35.394  1.00  0.00     0.029 A 
ATOM     54  C   UNL A   1      42.779  29.046  34.082  1.00  0.00     0.049 A 
ATOM     55  H   UNL A   1      41.321  29.552  32.643  1.00  0.00     0.167 HD
ATOM     56  C   UNL A   1      43.435  27.753  32.073  1.00  0.00     0.074 A 
ATOM     57  C   UNL A   1      44.303  26.846  31.351  1.00  0.00     0.031 C 
ATOM     58  C   UNL A   1      43.634  28.145  33.354  1.00  0.00     0.037 A 
BRANCH  45  59
ATOM     59  C   UNL A   1      39.377  32.063  35.493  1.00  0.00     0.057 A 
ATOM     60  C   UNL A   1      39.762  33.397  35.677  1.00  0.00     0.134 A 
ATOM     61  C   UNL A   1      38.446  31.527  36.392  1.00  0.00     0.134 A 
ATOM     62  F   UNL A   1      40.658  33.965  34.857  1.00  0.00    -0.206 F 
ATOM     63  C   UNL A   1      39.246  34.166  36.722  1.00  0.00     0.040 A 
ATOM     64  C   UNL A   1      37.908  32.293  37.428  1.00  0.00     0.040 A 
ATOM     65  F   UNL A   1      38.030  30.258  36.266  1.00  0.00    -0.206 F 
ATOM     66  C   UNL A   1      38.310  33.616  37.596  1.00  0.00     0.006 A 
ENDBRANCH  45  59
BRANCH  46  67
ATOM     67  C   UNL A   1      42.303  26.673  27.640  1.00  0.00     0.057 A 
ATOM     68  C   UNL A   1      41.846  25.356  27.522  1.00  0.00     0.134 A 
ATOM     69  C   UNL A   1      43.120  27.169  26.616  1.00  0.00     0.134 A 
ATOM     70  F   UNL A   1      41.075  24.821  28.481  1.00  0.00    -0.206 F 
ATOM     71  C   UNL A   1      42.187  24.561  26.427  1.00  0.00     0.040 A 
ATOM     72  C   UNL A   1      43.449  26.394  25.505  1.00  0.00     0.040 A 
ATOM     73  F   UNL A   1      43.584  28.426  26.671  1.00  0.00    -0.206 F 
ATOM     74  C   UNL A   1      42.983  25.083  25.409  1.00  0.00     0.006 A 
ENDBRANCH  46  67
BRANCH  58  75
ATOM     75  C   UNL A   1      44.827  27.590  34.068  1.00  0.00     0.057 A 
ATOM     76  C   UNL A   1      46.047  28.275  34.096  1.00  0.00     0.134 A 
ATOM     77  C   UNL A   1      44.736  26.394  34.791  1.00  0.00     0.134 A 
ATOM     78  F   UNL A   1      46.199  29.420  33.414  1.00  0.00    -0.206 F 
ATOM     79  C   UNL A   1      47.141  27.784  34.812  1.00  0.00     0.040 A 
ATOM     80  C   UNL A   1      45.815  25.904  35.527  1.00  0.00     0.040 A 
ATOM     81  F   UNL A   1      43.590  25.695  34.812  1.00  0.00    -0.206 F 
ATOM     82  C   UNL A   1      47.023  26.600  35.537  1.00  0.00     0.006 A 
ENDBRANCH  58  75
ENDBRANCH  32  33
ENDBRANCH  24  27
ENDBRANCH  22  23
ENDBRANCH   1  22
TORSDOF 13
ENDMDL
MODEL 2
REMARK VINA RESULT:     -11.5      0.196      1.346
REMARK SMILES Cc1nc(-c2ccco2)nc(S)c1C(=O)NCCCCNC(=O)c1ccc(-c2c3nc(c(-c4c(F)cccc4F)c4ccc([nH]4)c(-c4c(F)cccc4F)c4nc(c(-c5c(F)cccc5F)c5ccc2[nH]5)C=C4)C=C3)cc1
REMARK SMILES IDX 19 1 18 2 17 3 16 4 14 5 15 6 13 8 1 9 2 10 3 11 4 12 11 13
REMARK SMILES IDX 10 14 5 15 6 16 9 17 7 18 8 19 12 20 20 22 21 23 22 24 23 26
REMARK SMILES IDX 24 27 25 28 77 29 26 30 76 31 27 32 28 33 29 34 70 35 30 36
REMARK SMILES IDX 75 37 69 38 71 39 31 40 74 41 68 42 67 43 32 45 58 46 41 47
REMARK SMILES IDX 57 48 42 49 45 50 56 51 72 52 43 53 44 54 55 56 73 57 46 58
REMARK SMILES IDX 33 59 34 60 39 61 35 62 36 63 38 64 40 65 37 66 59 67 60 68
REMARK SMILES IDX 65 69 61 70 62 71 64 72 66 73 63 74 47 75 48 76 53 77 49 78
REMARK SMILES IDX 50 79 52 80 54 81 51 82
REMARK H PARENT 16 7 12 21 21 25 71 44 45 55
REMARK Flexibility Score: inf
ROOT
ATOM      1  C   UNL A   1      31.750  29.164  27.252  1.00  0.00     0.023 C 
ENDROOT
BRANCH   1   2
ATOM      2  C   UNL A   1      32.362  27.763  27.238  1.00  0.00     0.023 C 
BRANCH   2   3
ATOM      3  C   UNL A   1      33.627  27.586  26.404  1.00  0.00     0.116 C 
BRANCH   3   4
ATOM      4  N   UNL A   1      33.615  26.427  25.528  1.00  0.00    -0.352 N 
ATOM      5  C   UNL A   1      33.010  26.273  24.304  1.00  0.00     0.255 C 
ATOM      6  O   UNL A   1      33.204  25.253  23.649  1.00  0.00    -0.269 OA
ATOM      7  H   UNL A   1      34.109  25.642  25.859  1.00  0.00     0.163 HD
BRANCH   5   8
ATOM      8  C   UNL A   1      32.089  27.292  23.784  1.00  0.00     0.093 A 
ATOM      9  C   UNL A   1      33.909  28.578  22.548  1.00  0.00     0.068 C 
ATOM     10  C   UNL A   1      32.495  28.352  22.989  1.00  0.00     0.055 A 
ATOM     11  N   UNL A   1      31.625  29.292  22.557  1.00  0.00    -0.230 NA
ATOM     12  C   UNL A   1      30.332  29.139  22.890  1.00  0.00     0.196 A 
ATOM     13  C   UNL A   1      30.722  27.190  24.018  1.00  0.00     0.110 A 
ATOM     14  N   UNL A   1      29.835  28.123  23.606  1.00  0.00    -0.218 NA
BRANCH  12  15
ATOM     15  C   UNL A   1      29.402  30.181  22.492  1.00  0.00     0.171 A 
ATOM     16  C   UNL A   1      28.911  31.315  23.112  1.00  0.00     0.054 A 
ATOM     17  O   UNL A   1      28.856  30.078  21.239  1.00  0.00    -0.461 OA
ATOM     18  C   UNL A   1      28.035  31.939  22.190  1.00  0.00     0.043 A 
ATOM     19  C   UNL A   1      28.028  31.141  21.071  1.00  0.00     0.196 A 
ENDBRANCH  12  15
BRANCH  13  20
ATOM     20  S   UNL A   1      29.967  25.841  24.916  1.00  0.00    -0.123 SA
ATOM     21  H   UNL A   1      29.541  26.286  26.129  1.00  0.00     0.110 HD
ENDBRANCH  13  20
ENDBRANCH   5   8
ENDBRANCH   3   4
ENDBRANCH   2   3
ENDBRANCH   1   2
BRANCH   1  22
ATOM     22  C   UNL A   1      32.369  30.189  26.304  1.00  0.00     0.116 C 
BRANCH  22  23
ATOM     23  N   UNL A   1      32.239  31.567  26.754  1.00  0.00    -0.352 N 
ATOM     24  C   UNL A   1      33.120  32.375  27.436  1.00  0.00     0.251 C 
ATOM     25  H   UNL A   1      31.379  31.992  26.532  1.00  0.00     0.163 HD
ATOM     26  O   UNL A   1      32.771  33.501  27.783  1.00  0.00    -0.269 OA
BRANCH  24  27
ATOM     27  C   UNL A   1      34.464  31.879  27.809  1.00  0.00     0.039 A 
ATOM     28  C   UNL A   1      34.705  30.521  28.007  1.00  0.00     0.014 A 
ATOM     29  C   UNL A   1      35.497  32.802  28.001  1.00  0.00     0.014 A 
ATOM     30  C   UNL A   1      35.888  30.115  28.616  1.00  0.00     0.010 A 
ATOM     31  C   UNL A   1      36.727  32.378  28.515  1.00  0.00     0.010 A 
ATOM     32  C   UNL A   1      36.906  31.041  28.900  1.00  0.00    -0.014 A 
BRANCH  32  33
ATOM     33  C   UNL A   1      38.119  30.589  29.634  1.00  0.00     0.031 A 
ATOM     34  C   UNL A   1      38.323  30.956  31.083  1.00  0.00     0.074 A 
ATOM     35  C   UNL A   1      38.999  29.772  29.024  1.00  0.00     0.049 A 
ATOM     36  N   UNL A   1      39.293  30.608  31.894  1.00  0.00    -0.248 NA
ATOM     37  C   UNL A   1      37.312  31.825  31.707  1.00  0.00     0.031 C 
ATOM     38  C   UNL A   1      38.910  29.328  27.632  1.00  0.00     0.029 A 
ATOM     39  N   UNL A   1      40.117  29.137  29.504  1.00  0.00    -0.354 N 
ATOM     40  C   UNL A   1      39.020  31.230  33.107  1.00  0.00     0.074 A 
ATOM     41  C   UNL A   1      37.810  31.999  32.923  1.00  0.00     0.031 C 
ATOM     42  C   UNL A   1      39.883  28.438  27.392  1.00  0.00     0.029 A 
ATOM     43  C   UNL A   1      40.704  28.295  28.590  1.00  0.00     0.049 A 
ATOM     44  H   UNL A   1      40.465  29.270  30.416  1.00  0.00     0.167 HD
ATOM     45  C   UNL A   1      39.705  31.154  34.273  1.00  0.00     0.037 A 
ATOM     46  C   UNL A   1      41.784  27.498  28.699  1.00  0.00     0.037 A 
ATOM     47  C   UNL A   1      40.892  30.363  34.471  1.00  0.00     0.049 A 
ATOM     48  C   UNL A   1      42.544  27.459  29.992  1.00  0.00     0.074 A 
ATOM     49  C   UNL A   1      41.645  30.216  35.623  1.00  0.00     0.029 A 
ATOM     50  N   UNL A   1      41.490  29.580  33.497  1.00  0.00    -0.354 N 
ATOM     51  N   UNL A   1      42.278  28.063  31.124  1.00  0.00    -0.248 NA
ATOM     52  C   UNL A   1      43.764  26.638  30.018  1.00  0.00     0.031 C 
ATOM     53  C   UNL A   1      42.720  29.368  35.336  1.00  0.00     0.029 A 
ATOM     54  C   UNL A   1      42.613  28.958  34.018  1.00  0.00     0.049 A 
ATOM     55  H   UNL A   1      41.167  29.479  32.573  1.00  0.00     0.167 HD
ATOM     56  C   UNL A   1      43.289  27.691  31.999  1.00  0.00     0.074 A 
ATOM     57  C   UNL A   1      44.164  26.795  31.273  1.00  0.00     0.031 C 
ATOM     58  C   UNL A   1      43.476  28.067  33.286  1.00  0.00     0.037 A 
BRANCH  45  59
ATOM     59  C   UNL A   1      39.194  31.951  35.438  1.00  0.00     0.057 A 
ATOM     60  C   UNL A   1      39.502  33.308  35.593  1.00  0.00     0.134 A 
ATOM     61  C   UNL A   1      38.328  31.372  36.374  1.00  0.00     0.134 A 
ATOM     62  F   UNL A   1      40.335  33.919  34.736  1.00  0.00    -0.206 F 
ATOM     63  C   UNL A   1      38.974  34.060  36.645  1.00  0.00     0.040 A 
ATOM     64  C   UNL A   1      37.778  32.118  37.418  1.00  0.00     0.040 A 
ATOM     65  F   UNL A   1      37.987  30.078  36.277  1.00  0.00    -0.206 F 
ATOM     66  C   UNL A   1      38.103  33.466  37.556  1.00  0.00     0.006 A 
ENDBRANCH  45  59
BRANCH  46  67
ATOM     67  C   UNL A   1      42.197  26.666  27.542  1.00  0.00     0.057 A 
ATOM     68  C   UNL A   1      43.019  27.189  26.538  1.00  0.00     0.134 A 
ATOM     69  C   UNL A   1      41.811  25.325  27.432  1.00  0.00     0.134 A 
ATOM     70  F   UNL A   1      43.406  28.472  26.582  1.00  0.00    -0.206 F 
ATOM     71  C   UNL A   1      43.444  26.406  25.464  1.00  0.00     0.040 A 
ATOM     72  C   UNL A   1      42.248  24.525  26.376  1.00  0.00     0.040 A 
ATOM     73  F   UNL A   1      41.028  24.767  28.366  1.00  0.00    -0.206 F 
ATOM     74  C   UNL A   1      43.067  25.066  25.386  1.00  0.00     0.006 A 
ENDBRANCH  46  67
BRANCH  58  75
ATOM     75  C   UNL A   1      44.664  27.505  34.004  1.00  0.00     0.057 A 
ATOM     76  C   UNL A   1      44.605  26.271  34.662  1.00  0.00     0.134 A 
ATOM     77  C   UNL A   1      45.896  28.171  33.979  1.00  0.00     0.134 A 
ATOM     78  F   UNL A   1      43.451  25.592  34.729  1.00  0.00    -0.206 F 
ATOM     79  C   UNL A   1      45.731  25.722  35.280  1.00  0.00     0.040 A 
ATOM     80  C   UNL A   1      47.032  27.623  34.574  1.00  0.00     0.040 A 
ATOM     81  F   UNL A   1      46.019  29.353  33.355  1.00  0.00    -0.206 F 
ATOM     82  C   UNL A   1      46.950  26.396  35.229  1.00  0.00     0.006 A 
ENDBRANCH  58  75
ENDBRANCH  32  33
ENDBRANCH  24  27
ENDBRANCH  22  23
ENDBRANCH   1  22
TORSDOF 13
ENDMDL
MODEL 3
REMARK VINA RESULT:     -11.4      4.829      9.646
REMARK SMILES Cc1nc(-c2ccco2)nc(S)c1C(=O)NCCCCNC(=O)c1ccc(-c2c3nc(c(-c4c(F)cccc4F)c4ccc([nH]4)c(-c4c(F)cccc4F)c4nc(c(-c5c(F)cccc5F)c5ccc2[nH]5)C=C4)C=C3)cc1
REMARK SMILES IDX 19 1 18 2 17 3 16 4 14 5 15 6 13 8 1 9 2 10 3 11 4 12 11 13
REMARK SMILES IDX 10 14 5 15 6 16 9 17 7 18 8 19 12 20 20 22 21 23 22 24 23 26
REMARK SMILES IDX 24 27 25 28 77 29 26 30 76 31 27 32 28 33 29 34 70 35 30 36
REMARK SMILES IDX 75 37 69 38 71 39 31 40 74 41 68 42 67 43 32 45 58 46 41 47
REMARK SMILES IDX 57 48 42 49 45 50 56 51 72 52 43 53 44 54 55 56 73 57 46 58
REMARK SMILES IDX 33 59 34 60 39 61 35 62 36 63 38 64 40 65 37 66 59 67 60 68
REMARK SMILES IDX 65 69 61 70 62 71 64 72 66 73 63 74 47 75 48 76 53 77 49 78
REMARK SMILES IDX 50 79 52 80 54 81 51 82
REMARK H PARENT 16 7 12 21 21 25 71 44 45 55
REMARK Flexibility Score: inf
ROOT
ATOM      1  C   UNL A   1      36.680  22.185  23.910  1.00  0.00     0.023 C 
ENDROOT
BRANCH   1   2
ATOM      2  C   UNL A   1      36.161  23.622  23.857  1.00  0.00     0.023 C 
BRANCH   2   3
ATOM      3  C   UNL A   1      35.700  24.223  25.182  1.00  0.00     0.116 C 
BRANCH   3   4
ATOM      4  N   UNL A   1      34.334  24.717  25.178  1.00  0.00    -0.352 N 
ATOM      5  C   UNL A   1      33.159  24.013  25.288  1.00  0.00     0.255 C 
ATOM      6  O   UNL A   1      32.092  24.613  25.381  1.00  0.00    -0.269 OA
ATOM      7  H   UNL A   1      34.237  25.692  25.082  1.00  0.00     0.163 HD
BRANCH   5   8
ATOM      8  C   UNL A   1      33.151  22.545  25.246  1.00  0.00     0.093 A 
ATOM      9  C   UNL A   1      33.366  22.283  27.772  1.00  0.00     0.068 C 
ATOM     10  C   UNL A   1      33.254  21.750  26.377  1.00  0.00     0.055 A 
ATOM     11  N   UNL A   1      33.280  20.401  26.297  1.00  0.00    -0.230 NA
ATOM     12  C   UNL A   1      33.156  19.849  25.078  1.00  0.00     0.196 A 
ATOM     13  C   UNL A   1      32.964  21.877  24.041  1.00  0.00     0.110 A 
ATOM     14  N   UNL A   1      32.997  20.529  23.936  1.00  0.00    -0.218 NA
BRANCH  12  15
ATOM     15  C   UNL A   1      33.254  18.404  24.975  1.00  0.00     0.171 A 
ATOM     16  C   UNL A   1      34.128  17.547  24.332  1.00  0.00     0.054 A 
ATOM     17  O   UNL A   1      32.305  17.669  25.637  1.00  0.00    -0.461 OA
ATOM     18  C   UNL A   1      33.700  16.229  24.626  1.00  0.00     0.043 A 
ATOM     19  C   UNL A   1      32.580  16.358  25.414  1.00  0.00     0.196 A 
ENDBRANCH  12  15
BRANCH  13  20
ATOM     20  S   UNL A   1      32.690  22.704  22.480  1.00  0.00    -0.123 SA
ATOM     21  H   UNL A   1      32.326  21.789  21.541  1.00  0.00     0.110 HD
ENDBRANCH  13  20
ENDBRANCH   5   8
ENDBRANCH   3   4
ENDBRANCH   2   3
ENDBRANCH   1   2
BRANCH   1  22
ATOM     22  C   UNL A   1      36.853  21.572  25.297  1.00  0.00     0.116 C 
BRANCH  22  23
ATOM     23  N   UNL A   1      37.954  20.625  25.394  1.00  0.00    -0.352 N 
ATOM     24  C   UNL A   1      39.212  20.764  25.935  1.00  0.00     0.251 C 
ATOM     25  H   UNL A   1      37.768  19.738  25.010  1.00  0.00     0.163 HD
ATOM     26  O   UNL A   1      40.021  19.843  25.842  1.00  0.00    -0.269 OA
BRANCH  24  27
ATOM     27  C   UNL A   1      39.621  22.034  26.576  1.00  0.00     0.039 A 
ATOM     28  C   UNL A   1      39.073  23.253  26.183  1.00  0.00     0.014 A 
ATOM     29  C   UNL A   1      40.605  22.005  27.570  1.00  0.00     0.014 A 
ATOM     30  C   UNL A   1      39.665  24.440  26.601  1.00  0.00     0.010 A 
ATOM     31  C   UNL A   1      41.128  23.202  28.070  1.00  0.00     0.010 A 
ATOM     32  C   UNL A   1      40.715  24.430  27.533  1.00  0.00    -0.014 A 
BRANCH  32  33
ATOM     33  C   UNL A   1      41.387  25.710  27.890  1.00  0.00     0.031 A 
ATOM     34  C   UNL A   1      42.766  26.027  27.368  1.00  0.00     0.074 A 
ATOM     35  C   UNL A   1      40.720  26.631  28.613  1.00  0.00     0.049 A 
ATOM     36  N   UNL A   1      43.481  27.114  27.534  1.00  0.00    -0.248 NA
ATOM     37  C   UNL A   1      43.433  24.996  26.556  1.00  0.00     0.031 C 
ATOM     38  C   UNL A   1      39.375  26.456  29.163  1.00  0.00     0.029 A 
ATOM     39  N   UNL A   1      41.063  27.909  28.974  1.00  0.00    -0.354 N 
ATOM     40  C   UNL A   1      44.681  26.887  26.869  1.00  0.00     0.074 A 
ATOM     41  C   UNL A   1      44.613  25.552  26.320  1.00  0.00     0.031 C 
ATOM     42  C   UNL A   1      38.978  27.606  29.725  1.00  0.00     0.029 A 
ATOM     43  C   UNL A   1      40.062  28.579  29.635  1.00  0.00     0.049 A 
ATOM     44  H   UNL A   1      41.942  28.309  28.779  1.00  0.00     0.167 HD
ATOM     45  C   UNL A   1      45.737  27.721  26.716  1.00  0.00     0.037 A 
ATOM     46  C   UNL A   1      40.017  29.836  30.117  1.00  0.00     0.037 A 
ATOM     47  C   UNL A   1      45.796  29.064  27.233  1.00  0.00     0.049 A 
ATOM     48  C   UNL A   1      41.214  30.727  29.964  1.00  0.00     0.074 A 
ATOM     49  C   UNL A   1      46.822  29.987  27.115  1.00  0.00     0.029 A 
ATOM     50  N   UNL A   1      44.786  29.678  27.955  1.00  0.00    -0.354 N 
ATOM     51  N   UNL A   1      42.343  30.492  29.344  1.00  0.00    -0.248 NA
ATOM     52  C   UNL A   1      41.135  32.055  30.590  1.00  0.00     0.031 C 
ATOM     53  C   UNL A   1      46.445  31.149  27.795  1.00  0.00     0.029 A 
ATOM     54  C   UNL A   1      45.170  30.963  28.303  1.00  0.00     0.049 A 
ATOM     55  H   UNL A   1      43.924  29.264  28.187  1.00  0.00     0.167 HD
ATOM     56  C   UNL A   1      43.107  31.641  29.497  1.00  0.00     0.074 A 
ATOM     57  C   UNL A   1      42.305  32.580  30.252  1.00  0.00     0.031 C 
ATOM     58  C   UNL A   1      44.362  31.889  29.055  1.00  0.00     0.037 A 
BRANCH  45  59
ATOM     59  C   UNL A   1      46.929  27.211  25.960  1.00  0.00     0.057 A 
ATOM     60  C   UNL A   1      47.077  27.432  24.585  1.00  0.00     0.134 A 
ATOM     61  C   UNL A   1      47.971  26.556  26.627  1.00  0.00     0.134 A 
ATOM     62  F   UNL A   1      46.110  28.043  23.885  1.00  0.00    -0.206 F 
ATOM     63  C   UNL A   1      48.217  27.009  23.898  1.00  0.00     0.040 A 
ATOM     64  C   UNL A   1      49.124  26.147  25.955  1.00  0.00     0.040 A 
ATOM     65  F   UNL A   1      47.894  26.321  27.946  1.00  0.00    -0.206 F 
ATOM     66  C   UNL A   1      49.249  26.372  24.586  1.00  0.00     0.006 A 
ENDBRANCH  45  59
BRANCH  46  67
ATOM     67  C   UNL A   1      38.783  30.318  30.784  1.00  0.00     0.057 A 
ATOM     68  C   UNL A   1      37.793  30.993  30.062  1.00  0.00     0.134 A 
ATOM     69  C   UNL A   1      38.548  30.086  32.144  1.00  0.00     0.134 A 
ATOM     70  F   UNL A   1      37.970  31.259  28.760  1.00  0.00    -0.206 F 
ATOM     71  C   UNL A   1      36.611  31.420  30.670  1.00  0.00     0.040 A 
ATOM     72  C   UNL A   1      37.362  30.485  32.759  1.00  0.00     0.040 A 
ATOM     73  F   UNL A   1      39.458  29.440  32.887  1.00  0.00    -0.206 F 
ATOM     74  C   UNL A   1      36.389  31.157  32.020  1.00  0.00     0.006 A 
ENDBRANCH  46  67
BRANCH  58  75
ATOM     75  C   UNL A   1      44.950  33.231  29.363  1.00  0.00     0.057 A 
ATOM     76  C   UNL A   1      44.736  34.334  28.528  1.00  0.00     0.134 A 
ATOM     77  C   UNL A   1      45.681  33.439  30.540  1.00  0.00     0.134 A 
ATOM     78  F   UNL A   1      44.053  34.195  27.382  1.00  0.00    -0.206 F 
ATOM     79  C   UNL A   1      45.235  35.598  28.850  1.00  0.00     0.040 A 
ATOM     80  C   UNL A   1      46.168  34.701  30.882  1.00  0.00     0.040 A 
ATOM     81  F   UNL A   1      45.912  32.424  31.387  1.00  0.00    -0.206 F 
ATOM     82  C   UNL A   1      45.947  35.784  30.033  1.00  0.00     0.006 A 
ENDBRANCH  58  75
ENDBRANCH  32  33
ENDBRANCH  24  27
ENDBRANCH  22  23
ENDBRANCH   1  22
TORSDOF 13
ENDMDL
