MODEL 1
REMARK VINA RESULT:     -11.1      0.000      0.000
REMARK SMILES C[C@](NC(=O)c1c(F)cccc1F)(C(=O)NCCCCNC(=O)c1ccc(-c2c3nc(c(-c4c(F)cccc4F)c4ccc([nH]4)c(-c4c(F)cccc4F)c4nc(c(-c5c(F)cccc5F)c5ccc2[nH]5)C=C4)C=C3)cc1)C(F)(F)F
REMARK SMILES IDX 18 1 17 2 16 3 14 4 15 5 2 7 1 8 78 9 79 10 80 11 81 12 3 13
REMARK SMILES IDX 4 14 5 16 6 17 7 18 12 19 8 20 9 21 11 22 13 23 10 24 19 25
REMARK SMILES IDX 20 26 21 27 22 28 23 30 24 31 25 32 77 33 26 34 76 35 27 36
REMARK SMILES IDX 28 37 29 38 70 39 30 40 75 41 69 42 71 43 31 44 74 45 68 46
REMARK SMILES IDX 67 47 32 49 58 50 41 51 57 52 42 53 45 54 56 55 72 56 43 57
REMARK SMILES IDX 44 58 55 60 73 61 46 62 33 63 34 64 39 65 35 66 36 67 38 68
REMARK SMILES IDX 40 69 37 70 59 71 60 72 65 73 61 74 62 75 64 76 66 77 63 78
REMARK SMILES IDX 47 79 48 80 53 81 49 82 50 83 52 84 54 85 51 86
REMARK H PARENT 16 6 3 15 21 29 71 48 45 59
REMARK Flexibility Score: inf
ROOT
ATOM      1  C   UNL A   1      31.787  27.268  26.013  1.00  0.00     0.023 C 
ENDROOT
BRANCH   1   2
ATOM      2  C   UNL A   1      31.361  25.811  26.178  1.00  0.00     0.116 C 
BRANCH   2   3
ATOM      3  N   UNL A   1      30.859  25.269  24.928  1.00  0.00    -0.354 N 
ATOM      4  C   UNL A   1      31.409  24.429  24.006  1.00  0.00     0.254 C 
ATOM      5  O   UNL A   1      30.642  24.083  23.104  1.00  0.00    -0.272 OA
ATOM      6  H   UNL A   1      29.947  25.565  24.704  1.00  0.00     0.163 HD
BRANCH   4   7
ATOM      7  C   UNL A   1      32.809  23.798  24.203  1.00  0.00     0.212 C 
ATOM      8  C   UNL A   1      32.859  22.573  23.279  1.00  0.00     0.056 C 
BRANCH   7   9
ATOM      9  C   UNL A   1      33.801  24.883  23.714  1.00  0.00     0.420 C 
ATOM     10  F   UNL A   1      34.858  24.340  23.063  1.00  0.00    -0.168 F 
ATOM     11  F   UNL A   1      33.212  25.726  22.836  1.00  0.00    -0.168 F 
ATOM     12  F   UNL A   1      34.268  25.659  24.718  1.00  0.00    -0.168 F 
ENDBRANCH   7   9
BRANCH   7  13
ATOM     13  N   UNL A   1      32.997  23.488  25.665  1.00  0.00    -0.330 N 
ATOM     14  C   UNL A   1      34.011  22.987  26.439  1.00  0.00     0.258 C 
ATOM     15  H   UNL A   1      32.194  23.697  26.194  1.00  0.00     0.165 HD
ATOM     16  O   UNL A   1      33.859  22.959  27.658  1.00  0.00    -0.269 OA
BRANCH  14  17
ATOM     17  C   UNL A   1      35.219  22.383  25.877  1.00  0.00     0.111 A 
ATOM     18  C   UNL A   1      36.404  23.093  25.737  1.00  0.00     0.138 A 
ATOM     19  C   UNL A   1      35.204  21.031  25.536  1.00  0.00     0.138 A 
ATOM     20  F   UNL A   1      36.492  24.364  26.139  1.00  0.00    -0.206 F 
ATOM     21  C   UNL A   1      37.528  22.506  25.158  1.00  0.00     0.040 A 
ATOM     22  C   UNL A   1      36.335  20.418  24.992  1.00  0.00     0.040 A 
ATOM     23  F   UNL A   1      34.096  20.294  25.695  1.00  0.00    -0.206 F 
ATOM     24  C   UNL A   1      37.494  21.165  24.778  1.00  0.00     0.006 A 
ENDBRANCH  14  17
ENDBRANCH   7  13
ENDBRANCH   4   7
ENDBRANCH   2   3
ENDBRANCH   1   2
BRANCH   1  25
ATOM     25  C   UNL A   1      32.243  27.949  27.307  1.00  0.00     0.023 C 
BRANCH  25  26
ATOM     26  C   UNL A   1      33.617  28.610  27.245  1.00  0.00     0.116 C 
BRANCH  26  27
ATOM     27  N   UNL A   1      33.594  29.995  27.682  1.00  0.00    -0.352 N 
ATOM     28  C   UNL A   1      34.573  30.728  28.311  1.00  0.00     0.251 C 
ATOM     29  H   UNL A   1      32.756  30.480  27.502  1.00  0.00     0.163 HD
ATOM     30  O   UNL A   1      34.326  31.844  28.745  1.00  0.00    -0.269 OA
BRANCH  28  31
ATOM     31  C   UNL A   1      35.923  30.148  28.487  1.00  0.00     0.039 A 
ATOM     32  C   UNL A   1      36.822  30.202  27.419  1.00  0.00     0.014 A 
ATOM     33  C   UNL A   1      36.303  29.564  29.698  1.00  0.00     0.014 A 
ATOM     34  C   UNL A   1      38.125  29.730  27.588  1.00  0.00     0.010 A 
ATOM     35  C   UNL A   1      37.624  29.165  29.889  1.00  0.00     0.010 A 
ATOM     36  C   UNL A   1      38.548  29.245  28.836  1.00  0.00    -0.014 A 
BRANCH  36  37
ATOM     37  C   UNL A   1      39.956  28.829  29.062  1.00  0.00     0.031 A 
ATOM     38  C   UNL A   1      40.933  29.772  29.705  1.00  0.00     0.074 A 
ATOM     39  C   UNL A   1      40.368  27.619  28.635  1.00  0.00     0.049 A 
ATOM     40  N   UNL A   1      42.213  29.611  29.926  1.00  0.00    -0.248 NA
ATOM     41  C   UNL A   1      40.410  31.078  30.135  1.00  0.00     0.031 C 
ATOM     42  C   UNL A   1      39.528  26.629  27.960  1.00  0.00     0.029 A 
ATOM     43  N   UNL A   1      41.602  27.018  28.699  1.00  0.00    -0.354 N 
ATOM     44  C   UNL A   1      42.648  30.794  30.512  1.00  0.00     0.074 A 
ATOM     45  C   UNL A   1      41.509  31.685  30.558  1.00  0.00     0.031 C 
ATOM     46  C   UNL A   1      40.259  25.534  27.701  1.00  0.00     0.029 A 
ATOM     47  C   UNL A   1      41.630  25.758  28.149  1.00  0.00     0.049 A 
ATOM     48  H   UNL A   1      42.390  27.448  29.100  1.00  0.00     0.167 HD
ATOM     49  C   UNL A   1      43.875  31.097  30.993  1.00  0.00     0.037 A 
ATOM     50  C   UNL A   1      42.646  24.885  28.014  1.00  0.00     0.037 A 
ATOM     51  C   UNL A   1      45.001  30.199  30.963  1.00  0.00     0.049 A 
ATOM     52  C   UNL A   1      44.006  25.254  28.534  1.00  0.00     0.074 A 
ATOM     53  C   UNL A   1      46.274  30.399  31.468  1.00  0.00     0.029 A 
ATOM     54  N   UNL A   1      44.989  28.934  30.395  1.00  0.00    -0.354 N 
ATOM     55  N   UNL A   1      44.389  26.354  29.136  1.00  0.00    -0.248 NA
ATOM     56  C   UNL A   1      45.078  24.263  28.359  1.00  0.00     0.031 C 
ATOM     57  C   UNL A   1      47.045  29.275  31.162  1.00  0.00     0.029 A 
ATOM     58  C   UNL A   1      46.240  28.352  30.516  1.00  0.00     0.049 A 
ATOM     59  H   UNL A   1      44.208  28.512  29.970  1.00  0.00     0.167 HD
ATOM     60  C   UNL A   1      45.735  26.179  29.432  1.00  0.00     0.074 A 
ATOM     61  C   UNL A   1      46.100  24.860  28.957  1.00  0.00     0.031 C 
ATOM     62  C   UNL A   1      46.590  27.036  30.042  1.00  0.00     0.037 A 
BRANCH  49  63
ATOM     63  C   UNL A   1      44.068  32.455  31.607  1.00  0.00     0.057 A 
ATOM     64  C   UNL A   1      44.506  33.537  30.831  1.00  0.00     0.134 A 
ATOM     65  C   UNL A   1      43.877  32.678  32.976  1.00  0.00     0.134 A 
ATOM     66  F   UNL A   1      44.716  33.392  29.515  1.00  0.00    -0.206 F 
ATOM     67  C   UNL A   1      44.754  34.788  31.400  1.00  0.00     0.040 A 
ATOM     68  C   UNL A   1      44.094  33.932  33.550  1.00  0.00     0.040 A 
ATOM     69  F   UNL A   1      43.448  31.688  33.774  1.00  0.00    -0.206 F 
ATOM     70  C   UNL A   1      44.544  34.989  32.761  1.00  0.00     0.006 A 
ENDBRANCH  49  63
BRANCH  50  71
ATOM     71  C   UNL A   1      42.399  23.562  27.386  1.00  0.00     0.057 A 
ATOM     72  C   UNL A   1      42.045  22.442  28.149  1.00  0.00     0.134 A 
ATOM     73  C   UNL A   1      42.541  23.382  26.005  1.00  0.00     0.134 A 
ATOM     74  F   UNL A   1      41.901  22.545  29.478  1.00  0.00    -0.206 F 
ATOM     75  C   UNL A   1      41.860  21.187  27.563  1.00  0.00     0.040 A 
ATOM     76  C   UNL A   1      42.335  22.140  25.404  1.00  0.00     0.040 A 
ATOM     77  F   UNL A   1      42.862  24.420  25.219  1.00  0.00    -0.206 F 
ATOM     78  C   UNL A   1      42.001  21.035  26.186  1.00  0.00     0.006 A 
ENDBRANCH  50  71
BRANCH  62  79
ATOM     79  C   UNL A   1      48.003  26.576  30.256  1.00  0.00     0.057 A 
ATOM     80  C   UNL A   1      48.975  26.773  29.267  1.00  0.00     0.134 A 
ATOM     81  C   UNL A   1      48.382  25.868  31.404  1.00  0.00     0.134 A 
ATOM     82  F   UNL A   1      48.675  27.434  28.138  1.00  0.00    -0.206 F 
ATOM     83  C   UNL A   1      50.269  26.270  29.403  1.00  0.00     0.040 A 
ATOM     84  C   UNL A   1      49.682  25.384  31.564  1.00  0.00     0.040 A 
ATOM     85  F   UNL A   1      47.502  25.653  32.393  1.00  0.00    -0.206 F 
ATOM     86  C   UNL A   1      50.626  25.574  30.557  1.00  0.00     0.006 A 
ENDBRANCH  62  79
ENDBRANCH  36  37
ENDBRANCH  28  31
ENDBRANCH  26  27
ENDBRANCH  25  26
ENDBRANCH   1  25
TORSDOF 14
ENDMDL
MODEL 2
REMARK VINA RESULT:     -11.1      2.182      7.503
REMARK SMILES C[C@](NC(=O)c1c(F)cccc1F)(C(=O)NCCCCNC(=O)c1ccc(-c2c3nc(c(-c4c(F)cccc4F)c4ccc([nH]4)c(-c4c(F)cccc4F)c4nc(c(-c5c(F)cccc5F)c5ccc2[nH]5)C=C4)C=C3)cc1)C(F)(F)F
REMARK SMILES IDX 18 1 17 2 16 3 14 4 15 5 2 7 1 8 78 9 79 10 80 11 81 12 3 13
REMARK SMILES IDX 4 14 5 16 6 17 7 18 12 19 8 20 9 21 11 22 13 23 10 24 19 25
REMARK SMILES IDX 20 26 21 27 22 28 23 30 24 31 25 32 77 33 26 34 76 35 27 36
REMARK SMILES IDX 28 37 29 38 70 39 30 40 75 41 69 42 71 43 31 44 74 45 68 46
REMARK SMILES IDX 67 47 32 49 58 50 41 51 57 52 42 53 45 54 56 55 72 56 43 57
REMARK SMILES IDX 44 58 55 60 73 61 46 62 33 63 34 64 39 65 35 66 36 67 38 68
REMARK SMILES IDX 40 69 37 70 59 71 60 72 65 73 61 74 62 75 64 76 66 77 63 78
REMARK SMILES IDX 47 79 48 80 53 81 49 82 50 83 52 84 54 85 51 86
REMARK H PARENT 16 6 3 15 21 29 71 48 45 59
REMARK Flexibility Score: inf
ROOT
ATOM      1  C   UNL A   1      37.011  21.065  24.479  1.00  0.00     0.023 C 
ENDROOT
BRANCH   1   2
ATOM      2  C   UNL A   1      36.069  21.493  25.602  1.00  0.00     0.116 C 
BRANCH   2   3
ATOM      3  N   UNL A   1      34.960  20.566  25.735  1.00  0.00    -0.354 N 
ATOM      4  C   UNL A   1      33.611  20.753  25.796  1.00  0.00     0.254 C 
ATOM      5  O   UNL A   1      32.947  19.713  25.796  1.00  0.00    -0.272 OA
ATOM      6  H   UNL A   1      35.234  19.623  25.791  1.00  0.00     0.163 HD
BRANCH   4   7
ATOM      7  C   UNL A   1      32.970  22.155  25.659  1.00  0.00     0.212 C 
ATOM      8  C   UNL A   1      31.464  21.920  25.470  1.00  0.00     0.056 C 
BRANCH   7   9
ATOM      9  C   UNL A   1      33.241  22.846  27.018  1.00  0.00     0.420 C 
ATOM     10  F   UNL A   1      32.214  23.649  27.387  1.00  0.00    -0.168 F 
ATOM     11  F   UNL A   1      33.382  21.938  28.010  1.00  0.00    -0.168 F 
ATOM     12  F   UNL A   1      34.378  23.577  27.019  1.00  0.00    -0.168 F 
ENDBRANCH   7   9
BRANCH   7  13
ATOM     13  N   UNL A   1      33.638  22.881  24.521  1.00  0.00    -0.330 N 
ATOM     14  C   UNL A   1      33.610  24.157  24.020  1.00  0.00     0.258 C 
ATOM     15  H   UNL A   1      34.243  22.296  24.012  1.00  0.00     0.165 HD
ATOM     16  O   UNL A   1      34.385  24.447  23.111  1.00  0.00    -0.269 OA
BRANCH  14  17
ATOM     17  C   UNL A   1      32.628  25.157  24.439  1.00  0.00     0.111 A 
ATOM     18  C   UNL A   1      32.936  26.159  25.350  1.00  0.00     0.138 A 
ATOM     19  C   UNL A   1      31.363  25.151  23.854  1.00  0.00     0.138 A 
ATOM     20  F   UNL A   1      34.165  26.262  25.865  1.00  0.00    -0.206 F 
ATOM     21  C   UNL A   1      31.969  27.073  25.766  1.00  0.00     0.040 A 
ATOM     22  C   UNL A   1      30.396  26.085  24.231  1.00  0.00     0.040 A 
ATOM     23  F   UNL A   1      31.034  24.230  22.937  1.00  0.00    -0.206 F 
ATOM     24  C   UNL A   1      30.692  27.034  25.211  1.00  0.00     0.006 A 
ENDBRANCH  14  17
ENDBRANCH   7  13
ENDBRANCH   4   7
ENDBRANCH   2   3
ENDBRANCH   1   2
BRANCH   1  25
ATOM     25  C   UNL A   1      37.944  19.903  24.838  1.00  0.00     0.023 C 
BRANCH  25  26
ATOM     26  C   UNL A   1      39.039  20.235  25.847  1.00  0.00     0.116 C 
BRANCH  26  27
ATOM     27  N   UNL A   1      40.132  19.278  25.823  1.00  0.00    -0.352 N 
ATOM     28  C   UNL A   1      41.469  19.476  26.074  1.00  0.00     0.251 C 
ATOM     29  H   UNL A   1      39.878  18.354  25.596  1.00  0.00     0.163 HD
ATOM     30  O   UNL A   1      42.276  18.582  25.859  1.00  0.00    -0.269 OA
BRANCH  28  31
ATOM     31  C   UNL A   1      41.934  20.787  26.578  1.00  0.00     0.039 A 
ATOM     32  C   UNL A   1      42.321  21.762  25.655  1.00  0.00     0.014 A 
ATOM     33  C   UNL A   1      41.978  21.057  27.948  1.00  0.00     0.014 A 
ATOM     34  C   UNL A   1      42.690  23.032  26.105  1.00  0.00     0.010 A 
ATOM     35  C   UNL A   1      42.272  22.345  28.390  1.00  0.00     0.010 A 
ATOM     36  C   UNL A   1      42.630  23.345  27.473  1.00  0.00    -0.014 A 
BRANCH  36  37
ATOM     37  C   UNL A   1      42.925  24.716  27.961  1.00  0.00     0.031 A 
ATOM     38  C   UNL A   1      44.337  25.123  28.274  1.00  0.00     0.074 A 
ATOM     39  C   UNL A   1      41.912  25.578  28.176  1.00  0.00     0.049 A 
ATOM     40  N   UNL A   1      44.782  26.251  28.767  1.00  0.00    -0.248 NA
ATOM     41  C   UNL A   1      45.387  24.124  28.023  1.00  0.00     0.031 C 
ATOM     42  C   UNL A   1      40.494  25.290  27.951  1.00  0.00     0.029 A 
ATOM     43  N   UNL A   1      41.917  26.871  28.640  1.00  0.00    -0.354 N 
ATOM     44  C   UNL A   1      46.157  26.095  28.891  1.00  0.00     0.074 A 
ATOM     45  C   UNL A   1      46.467  24.743  28.478  1.00  0.00     0.031 C 
ATOM     46  C   UNL A   1      39.772  26.382  28.245  1.00  0.00     0.029 A 
ATOM     47  C   UNL A   1      40.665  27.432  28.723  1.00  0.00     0.049 A 
ATOM     48  H   UNL A   1      42.740  27.350  28.889  1.00  0.00     0.167 HD
ATOM     49  C   UNL A   1      47.078  27.003  29.287  1.00  0.00     0.037 A 
ATOM     50  C   UNL A   1      40.278  28.652  29.142  1.00  0.00     0.037 A 
ATOM     51  C   UNL A   1      46.768  28.353  29.678  1.00  0.00     0.049 A 
ATOM     52  C   UNL A   1      41.319  29.636  29.599  1.00  0.00     0.074 A 
ATOM     53  C   UNL A   1      47.639  29.363  30.050  1.00  0.00     0.029 A 
ATOM     54  N   UNL A   1      45.488  28.881  29.751  1.00  0.00    -0.354 N 
ATOM     55  N   UNL A   1      42.621  29.492  29.659  1.00  0.00    -0.248 NA
ATOM     56  C   UNL A   1      40.840  30.951  30.047  1.00  0.00     0.031 C 
ATOM     57  C   UNL A   1      46.883  30.485  30.395  1.00  0.00     0.029 A 
ATOM     58  C   UNL A   1      45.544  30.196  30.185  1.00  0.00     0.049 A 
ATOM     59  H   UNL A   1      44.662  28.395  29.527  1.00  0.00     0.167 HD
ATOM     60  C   UNL A   1      43.117  30.702  30.126  1.00  0.00     0.074 A 
ATOM     61  C   UNL A   1      41.978  31.575  30.321  1.00  0.00     0.031 C 
ATOM     62  C   UNL A   1      44.403  31.056  30.372  1.00  0.00     0.037 A 
BRANCH  49  63
ATOM     63  C   UNL A   1      48.518  26.573  29.305  1.00  0.00     0.057 A 
ATOM     64  C   UNL A   1      49.067  25.951  30.434  1.00  0.00     0.134 A 
ATOM     65  C   UNL A   1      49.376  26.827  28.227  1.00  0.00     0.134 A 
ATOM     66  F   UNL A   1      48.304  25.686  31.505  1.00  0.00    -0.206 F 
ATOM     67  C   UNL A   1      50.419  25.607  30.492  1.00  0.00     0.040 A 
ATOM     68  C   UNL A   1      50.723  26.460  28.263  1.00  0.00     0.040 A 
ATOM     69  F   UNL A   1      48.913  27.409  27.110  1.00  0.00    -0.206 F 
ATOM     70  C   UNL A   1      51.249  25.857  29.403  1.00  0.00     0.006 A 
ENDBRANCH  49  63
BRANCH  50  71
ATOM     71  C   UNL A   1      38.839  29.017  29.116  1.00  0.00     0.057 A 
ATOM     72  C   UNL A   1      38.233  29.528  27.961  1.00  0.00     0.134 A 
ATOM     73  C   UNL A   1      38.041  28.887  30.258  1.00  0.00     0.134 A 
ATOM     74  F   UNL A   1      38.945  29.684  26.835  1.00  0.00    -0.206 F 
ATOM     75  C   UNL A   1      36.892  29.915  27.950  1.00  0.00     0.040 A 
ATOM     76  C   UNL A   1      36.693  29.247  30.254  1.00  0.00     0.040 A 
ATOM     77  F   UNL A   1      38.560  28.387  31.390  1.00  0.00    -0.206 F 
ATOM     78  C   UNL A   1      36.117  29.771  29.098  1.00  0.00     0.006 A 
ENDBRANCH  50  71
BRANCH  62  79
ATOM     79  C   UNL A   1      44.660  32.452  30.859  1.00  0.00     0.057 A 
ATOM     80  C   UNL A   1      44.883  33.495  29.950  1.00  0.00     0.134 A 
ATOM     81  C   UNL A   1      44.765  32.751  32.223  1.00  0.00     0.134 A 
ATOM     82  F   UNL A   1      44.809  33.275  28.628  1.00  0.00    -0.206 F 
ATOM     83  C   UNL A   1      45.218  34.780  30.379  1.00  0.00     0.040 A 
ATOM     84  C   UNL A   1      45.071  34.039  32.665  1.00  0.00     0.040 A 
ATOM     85  F   UNL A   1      44.553  31.800  33.145  1.00  0.00    -0.206 F 
ATOM     86  C   UNL A   1      45.310  35.055  31.742  1.00  0.00     0.006 A 
ENDBRANCH  62  79
ENDBRANCH  36  37
ENDBRANCH  28  31
ENDBRANCH  26  27
ENDBRANCH  25  26
ENDBRANCH   1  25
TORSDOF 14
ENDMDL
MODEL 3
REMARK VINA RESULT:     -11.1      2.505      7.322
REMARK SMILES C[C@](NC(=O)c1c(F)cccc1F)(C(=O)NCCCCNC(=O)c1ccc(-c2c3nc(c(-c4c(F)cccc4F)c4ccc([nH]4)c(-c4c(F)cccc4F)c4nc(c(-c5c(F)cccc5F)c5ccc2[nH]5)C=C4)C=C3)cc1)C(F)(F)F
REMARK SMILES IDX 18 1 17 2 16 3 14 4 15 5 2 7 1 8 78 9 79 10 80 11 81 12 3 13
REMARK SMILES IDX 4 14 5 16 6 17 7 18 12 19 8 20 9 21 11 22 13 23 10 24 19 25
REMARK SMILES IDX 20 26 21 27 22 28 23 30 24 31 25 32 77 33 26 34 76 35 27 36
REMARK SMILES IDX 28 37 29 38 70 39 30 40 75 41 69 42 71 43 31 44 74 45 68 46
REMARK SMILES IDX 67 47 32 49 58 50 41 51 57 52 42 53 45 54 56 55 72 56 43 57
REMARK SMILES IDX 44 58 55 60 73 61 46 62 33 63 34 64 39 65 35 66 36 67 38 68
REMARK SMILES IDX 40 69 37 70 59 71 60 72 65 73 61 74 62 75 64 76 66 77 63 78
REMARK SMILES IDX 47 79 48 80 53 81 49 82 50 83 52 84 54 85 51 86
REMARK H PARENT 16 6 3 15 21 29 71 48 45 59
REMARK Flexibility Score: inf
ROOT
ATOM      1  C   UNL A   1      36.930  21.124  24.547  1.00  0.00     0.023 C 
ENDROOT
BRANCH   1   2
ATOM      2  C   UNL A   1      36.008  21.484  25.710  1.00  0.00     0.116 C 
BRANCH   2   3
ATOM      3  N   UNL A   1      34.874  20.580  25.777  1.00  0.00    -0.354 N 
ATOM      4  C   UNL A   1      33.528  20.796  25.771  1.00  0.00     0.254 C 
ATOM      5  O   UNL A   1      32.843  19.770  25.726  1.00  0.00    -0.272 OA
ATOM      6  H   UNL A   1      35.126  19.630  25.836  1.00  0.00     0.163 HD
BRANCH   4   7
ATOM      7  C   UNL A   1      32.925  22.212  25.617  1.00  0.00     0.212 C 
ATOM      8  C   UNL A   1      31.417  22.014  25.405  1.00  0.00     0.056 C 
BRANCH   7   9
ATOM      9  C   UNL A   1      33.191  22.904  26.977  1.00  0.00     0.420 C 
ATOM     10  F   UNL A   1      32.180  23.734  27.325  1.00  0.00    -0.168 F 
ATOM     11  F   UNL A   1      33.294  21.998  27.976  1.00  0.00    -0.168 F 
ATOM     12  F   UNL A   1      34.347  23.605  26.993  1.00  0.00    -0.168 F 
ENDBRANCH   7   9
BRANCH   7  13
ATOM     13  N   UNL A   1      33.629  22.915  24.486  1.00  0.00    -0.330 N 
ATOM     14  C   UNL A   1      33.634  24.187  23.973  1.00  0.00     0.258 C 
ATOM     15  H   UNL A   1      34.233  22.315  23.996  1.00  0.00     0.165 HD
ATOM     16  O   UNL A   1      34.432  24.454  23.078  1.00  0.00    -0.269 OA
BRANCH  14  17
ATOM     17  C   UNL A   1      32.662  25.208  24.362  1.00  0.00     0.111 A 
ATOM     18  C   UNL A   1      32.967  26.208  25.276  1.00  0.00     0.138 A 
ATOM     19  C   UNL A   1      31.412  25.223  23.746  1.00  0.00     0.138 A 
ATOM     20  F   UNL A   1      34.184  26.290  25.820  1.00  0.00    -0.206 F 
ATOM     21  C   UNL A   1      32.008  27.144  25.663  1.00  0.00     0.040 A 
ATOM     22  C   UNL A   1      30.454  26.178  24.094  1.00  0.00     0.040 A 
ATOM     23  F   UNL A   1      31.088  24.304  22.826  1.00  0.00    -0.206 F 
ATOM     24  C   UNL A   1      30.744  27.126  25.075  1.00  0.00     0.006 A 
ENDBRANCH  14  17
ENDBRANCH   7  13
ENDBRANCH   4   7
ENDBRANCH   2   3
ENDBRANCH   1   2
BRANCH   1  25
ATOM     25  C   UNL A   1      37.890  19.963  24.830  1.00  0.00     0.023 C 
BRANCH  25  26
ATOM     26  C   UNL A   1      39.032  20.283  25.789  1.00  0.00     0.116 C 
BRANCH  26  27
ATOM     27  N   UNL A   1      40.026  19.224  25.850  1.00  0.00    -0.352 N 
ATOM     28  C   UNL A   1      41.376  19.308  26.099  1.00  0.00     0.251 C 
ATOM     29  H   UNL A   1      39.683  18.314  25.692  1.00  0.00     0.163 HD
ATOM     30  O   UNL A   1      42.090  18.326  25.961  1.00  0.00    -0.269 OA
BRANCH  28  31
ATOM     31  C   UNL A   1      41.967  20.603  26.505  1.00  0.00     0.039 A 
ATOM     32  C   UNL A   1      42.426  21.472  25.513  1.00  0.00     0.014 A 
ATOM     33  C   UNL A   1      42.058  20.960  27.853  1.00  0.00     0.014 A 
ATOM     34  C   UNL A   1      42.916  22.730  25.870  1.00  0.00     0.010 A 
ATOM     35  C   UNL A   1      42.475  22.243  28.201  1.00  0.00     0.010 A 
ATOM     36  C   UNL A   1      42.907  23.141  27.214  1.00  0.00    -0.014 A 
BRANCH  36  37
ATOM     37  C   UNL A   1      43.334  24.509  27.601  1.00  0.00     0.031 A 
ATOM     38  C   UNL A   1      42.314  25.543  27.985  1.00  0.00     0.074 A 
ATOM     39  C   UNL A   1      44.640  24.837  27.553  1.00  0.00     0.049 A 
ATOM     40  N   UNL A   1      42.489  26.803  28.292  1.00  0.00    -0.248 NA
ATOM     41  C   UNL A   1      40.907  25.112  28.005  1.00  0.00     0.031 C 
ATOM     42  C   UNL A   1      45.724  23.936  27.157  1.00  0.00     0.029 A 
ATOM     43  N   UNL A   1      45.279  26.020  27.832  1.00  0.00    -0.354 N 
ATOM     44  C   UNL A   1      41.220  27.315  28.532  1.00  0.00     0.074 A 
ATOM     45  C   UNL A   1      40.279  26.246  28.279  1.00  0.00     0.031 C 
ATOM     46  C   UNL A   1      46.893  24.588  27.248  1.00  0.00     0.029 A 
ATOM     47  C   UNL A   1      46.642  25.964  27.665  1.00  0.00     0.049 A 
ATOM     48  H   UNL A   1      44.805  26.832  28.124  1.00  0.00     0.167 HD
ATOM     49  C   UNL A   1      40.875  28.554  28.953  1.00  0.00     0.037 A 
ATOM     50  C   UNL A   1      47.584  26.913  27.824  1.00  0.00     0.037 A 
ATOM     51  C   UNL A   1      41.817  29.609  29.223  1.00  0.00     0.049 A 
ATOM     52  C   UNL A   1      47.173  28.289  28.269  1.00  0.00     0.074 A 
ATOM     53  C   UNL A   1      41.566  30.885  29.698  1.00  0.00     0.029 A 
ATOM     54  N   UNL A   1      43.187  29.512  29.039  1.00  0.00    -0.354 N 
ATOM     55  N   UNL A   1      45.974  28.743  28.546  1.00  0.00    -0.248 NA
ATOM     56  C   UNL A   1      48.242  29.285  28.424  1.00  0.00     0.031 C 
ATOM     57  C   UNL A   1      42.779  31.575  29.754  1.00  0.00     0.029 A 
ATOM     58  C   UNL A   1      43.793  30.714  29.369  1.00  0.00     0.049 A 
ATOM     59  H   UNL A   1      43.660  28.709  28.723  1.00  0.00     0.167 HD
ATOM     60  C   UNL A   1      46.146  30.066  28.930  1.00  0.00     0.074 A 
ATOM     61  C   UNL A   1      47.568  30.339  28.865  1.00  0.00     0.031 C 
ATOM     62  C   UNL A   1      45.209  30.972  29.303  1.00  0.00     0.037 A 
BRANCH  49  63
ATOM     63  C   UNL A   1      39.414  28.837  29.161  1.00  0.00     0.057 A 
ATOM     64  C   UNL A   1      38.629  29.359  28.124  1.00  0.00     0.134 A 
ATOM     65  C   UNL A   1      38.797  28.649  30.404  1.00  0.00     0.134 A 
ATOM     66  F   UNL A   1      39.158  29.572  26.910  1.00  0.00    -0.206 F 
ATOM     67  C   UNL A   1      37.287  29.691  28.321  1.00  0.00     0.040 A 
ATOM     68  C   UNL A   1      37.448  28.949  30.604  1.00  0.00     0.040 A 
ATOM     69  F   UNL A   1      39.487  28.142  31.437  1.00  0.00    -0.206 F 
ATOM     70  C   UNL A   1      36.692  29.481  29.563  1.00  0.00     0.006 A 
ENDBRANCH  49  63
BRANCH  50  71
ATOM     71  C   UNL A   1      49.012  26.579  27.590  1.00  0.00     0.057 A 
ATOM     72  C   UNL A   1      49.591  26.687  26.319  1.00  0.00     0.134 A 
ATOM     73  C   UNL A   1      49.824  26.117  28.632  1.00  0.00     0.134 A 
ATOM     74  F   UNL A   1      48.865  27.115  25.277  1.00  0.00    -0.206 F 
ATOM     75  C   UNL A   1      50.921  26.327  26.089  1.00  0.00     0.040 A 
ATOM     76  C   UNL A   1      51.162  25.778  28.421  1.00  0.00     0.040 A 
ATOM     77  F   UNL A   1      49.332  26.009  29.874  1.00  0.00    -0.206 F 
ATOM     78  C   UNL A   1      51.711  25.875  27.144  1.00  0.00     0.006 A 
ENDBRANCH  50  71
BRANCH  62  79
ATOM     79  C   UNL A   1      45.683  32.342  29.693  1.00  0.00     0.057 A 
ATOM     80  C   UNL A   1      45.998  32.636  31.026  1.00  0.00     0.134 A 
ATOM     81  C   UNL A   1      45.750  33.391  28.766  1.00  0.00     0.134 A 
ATOM     82  F   UNL A   1      45.943  31.680  31.966  1.00  0.00    -0.206 F 
ATOM     83  C   UNL A   1      46.348  33.926  31.428  1.00  0.00     0.040 A 
ATOM     84  C   UNL A   1      46.126  34.679  29.151  1.00  0.00     0.040 A 
ATOM     85  F   UNL A   1      45.471  33.175  27.473  1.00  0.00    -0.206 F 
ATOM     86  C   UNL A   1      46.415  34.952  30.487  1.00  0.00     0.006 A 
ENDBRANCH  62  79
ENDBRANCH  36  37
ENDBRANCH  28  31
ENDBRANCH  26  27
ENDBRANCH  25  26
ENDBRANCH   1  25
TORSDOF 14
ENDMDL
