MODEL 1
REMARK VINA RESULT:     -11.8      0.000      0.000
REMARK SMILES Cc1cc(NC(=O)CC2(CC(=O)NCCCCNC(=O)c3ccc(-c4c5nc(c(-c6c(F)cccc6F)c6ccc([nH]6)c(-c6c(F)cccc6F)c6nc(c(-c7c(F)cccc7F)c7ccc4[nH]7)C=C6)C=C5)cc3)CCCC2)ccn1
REMARK SMILES IDX 14 1 13 2 11 3 12 4 10 6 9 7 75 8 78 9 76 10 77 11 8 12 6 13
REMARK SMILES IDX 5 14 7 16 4 17 1 18 2 19 3 20 81 21 80 22 79 23 15 24 16 25
REMARK SMILES IDX 17 26 18 27 19 28 20 30 21 31 22 32 74 33 23 34 73 35 24 36
REMARK SMILES IDX 25 37 26 38 67 39 27 40 72 41 66 42 68 43 28 44 71 45 65 46
REMARK SMILES IDX 64 47 29 49 55 50 38 51 54 52 39 53 42 54 53 55 69 56 40 57
REMARK SMILES IDX 41 58 52 60 70 61 43 62 30 63 31 64 36 65 32 66 33 67 35 68
REMARK SMILES IDX 37 69 34 70 56 71 57 72 62 73 58 74 59 75 61 76 63 77 60 78
REMARK SMILES IDX 44 79 45 80 50 81 46 82 47 83 49 84 51 85 48 86
REMARK H PARENT 13 5 5 15 18 29 68 48 42 59
REMARK Flexibility Score: inf
ROOT
ATOM      1  C   UNL A   1      36.704  22.868  25.440  1.00  0.00     0.116 C 
ENDROOT
BRANCH   1   2
ATOM      2  N   UNL A   1      35.938  22.261  26.503  1.00  0.00    -0.356 N 
ATOM      3  C   UNL A   1      34.634  21.884  26.527  1.00  0.00     0.220 C 
ATOM      4  O   UNL A   1      34.193  21.430  27.584  1.00  0.00    -0.275 OA
ATOM      5  H   UNL A   1      36.437  22.095  27.335  1.00  0.00     0.163 HD
BRANCH   3   6
ATOM      6  C   UNL A   1      33.762  21.972  25.281  1.00  0.00     0.107 C 
BRANCH   6   7
ATOM      7  C   UNL A   1      33.077  23.329  24.913  1.00  0.00    -0.012 C 
ATOM      8  C   UNL A   1      31.762  22.978  24.168  1.00  0.00     0.008 C 
ATOM      9  C   UNL A   1      33.774  24.100  23.774  1.00  0.00     0.008 C 
ATOM     10  C   UNL A   1      32.180  22.594  22.748  1.00  0.00     0.001 C 
ATOM     11  C   UNL A   1      33.461  23.370  22.475  1.00  0.00     0.001 C 
BRANCH   7  12
ATOM     12  C   UNL A   1      32.938  24.262  26.154  1.00  0.00     0.108 C 
BRANCH  12  13
ATOM     13  C   UNL A   1      31.558  24.434  26.756  1.00  0.00     0.224 C 
ATOM     14  N   UNL A   1      30.813  25.566  26.595  1.00  0.00    -0.326 N 
ATOM     15  H   UNL A   1      29.936  25.527  27.038  1.00  0.00     0.169 HD
ATOM     16  O   UNL A   1      31.031  23.499  27.366  1.00  0.00    -0.275 OA
BRANCH  14  17
ATOM     17  C   UNL A   1      31.053  26.776  25.923  1.00  0.00     0.044 A 
ATOM     18  C   UNL A   1      32.264  30.196  26.977  1.00  0.00     0.067 C 
ATOM     19  C   UNL A   1      31.772  29.059  26.135  1.00  0.00     0.039 A 
ATOM     20  C   UNL A   1      31.672  27.780  26.670  1.00  0.00     0.049 A 
ATOM     21  N   UNL A   1      31.335  29.361  24.892  1.00  0.00    -0.261 NA
ATOM     22  C   UNL A   1      30.816  28.355  24.159  1.00  0.00     0.113 A 
ATOM     23  C   UNL A   1      30.664  27.059  24.622  1.00  0.00     0.046 A 
ENDBRANCH  14  17
ENDBRANCH  12  13
ENDBRANCH   7  12
ENDBRANCH   6   7
ENDBRANCH   3   6
ENDBRANCH   1   2
BRANCH   1  24
ATOM     24  C   UNL A   1      37.102  21.818  24.403  1.00  0.00     0.023 C 
BRANCH  24  25
ATOM     25  C   UNL A   1      37.720  20.552  24.975  1.00  0.00     0.023 C 
BRANCH  25  26
ATOM     26  C   UNL A   1      39.021  20.770  25.726  1.00  0.00     0.116 C 
BRANCH  26  27
ATOM     27  N   UNL A   1      39.929  19.633  25.690  1.00  0.00    -0.352 N 
ATOM     28  C   UNL A   1      41.255  19.606  26.066  1.00  0.00     0.251 C 
ATOM     29  H   UNL A   1      39.553  18.785  25.359  1.00  0.00     0.163 HD
ATOM     30  O   UNL A   1      41.938  18.602  25.928  1.00  0.00    -0.269 OA
BRANCH  28  31
ATOM     31  C   UNL A   1      41.838  20.853  26.595  1.00  0.00     0.039 A 
ATOM     32  C   UNL A   1      42.316  21.809  25.698  1.00  0.00     0.014 A 
ATOM     33  C   UNL A   1      41.760  21.124  27.962  1.00  0.00     0.014 A 
ATOM     34  C   UNL A   1      42.639  23.080  26.169  1.00  0.00     0.010 A 
ATOM     35  C   UNL A   1      41.986  22.416  28.410  1.00  0.00     0.010 A 
ATOM     36  C   UNL A   1      42.430  23.405  27.520  1.00  0.00    -0.014 A 
BRANCH  36  37
ATOM     37  C   UNL A   1      42.682  24.771  28.036  1.00  0.00     0.031 A 
ATOM     38  C   UNL A   1      44.072  25.155  28.457  1.00  0.00     0.074 A 
ATOM     39  C   UNL A   1      41.657  25.627  28.211  1.00  0.00     0.049 A 
ATOM     40  N   UNL A   1      44.490  26.252  29.032  1.00  0.00    -0.248 NA
ATOM     41  C   UNL A   1      45.127  24.150  28.244  1.00  0.00     0.031 C 
ATOM     42  C   UNL A   1      40.252  25.348  27.906  1.00  0.00     0.029 A 
ATOM     43  N   UNL A   1      41.640  26.909  28.699  1.00  0.00    -0.354 N 
ATOM     44  C   UNL A   1      45.842  26.054  29.279  1.00  0.00     0.074 A 
ATOM     45  C   UNL A   1      46.162  24.711  28.847  1.00  0.00     0.031 C 
ATOM     46  C   UNL A   1      39.517  26.436  28.183  1.00  0.00     0.029 A 
ATOM     47  C   UNL A   1      40.391  27.478  28.714  1.00  0.00     0.049 A 
ATOM     48  H   UNL A   1      42.449  27.377  29.009  1.00  0.00     0.167 HD
ATOM     49  C   UNL A   1      46.745  26.922  29.791  1.00  0.00     0.037 A 
ATOM     50  C   UNL A   1      39.999  28.703  29.109  1.00  0.00     0.037 A 
ATOM     51  C   UNL A   1      46.435  28.275  30.164  1.00  0.00     0.049 A 
ATOM     52  C   UNL A   1      41.027  29.669  29.627  1.00  0.00     0.074 A 
ATOM     53  C   UNL A   1      47.291  29.264  30.613  1.00  0.00     0.029 A 
ATOM     54  N   UNL A   1      45.165  28.830  30.117  1.00  0.00    -0.354 N 
ATOM     55  N   UNL A   1      42.316  29.493  29.791  1.00  0.00    -0.248 NA
ATOM     56  C   UNL A   1      40.548  31.005  30.008  1.00  0.00     0.031 C 
ATOM     57  C   UNL A   1      46.534  30.414  30.862  1.00  0.00     0.029 A 
ATOM     58  C   UNL A   1      45.212  30.148  30.538  1.00  0.00     0.049 A 
ATOM     59  H   UNL A   1      44.351  28.358  29.828  1.00  0.00     0.167 HD
ATOM     60  C   UNL A   1      42.806  30.700  30.272  1.00  0.00     0.074 A 
ATOM     61  C   UNL A   1      41.678  31.603  30.362  1.00  0.00     0.031 C 
ATOM     62  C   UNL A   1      44.077  31.031  30.608  1.00  0.00     0.037 A 
BRANCH  49  63
ATOM     63  C   UNL A   1      48.150  26.427  29.958  1.00  0.00     0.057 A 
ATOM     64  C   UNL A   1      49.098  26.539  28.931  1.00  0.00     0.134 A 
ATOM     65  C   UNL A   1      48.560  25.827  31.154  1.00  0.00     0.134 A 
ATOM     66  F   UNL A   1      48.762  27.086  27.753  1.00  0.00    -0.206 F 
ATOM     67  C   UNL A   1      50.392  26.040  29.077  1.00  0.00     0.040 A 
ATOM     68  C   UNL A   1      49.861  25.350  31.321  1.00  0.00     0.040 A 
ATOM     69  F   UNL A   1      47.703  25.691  32.177  1.00  0.00    -0.206 F 
ATOM     70  C   UNL A   1      50.779  25.446  30.276  1.00  0.00     0.006 A 
ENDBRANCH  49  63
BRANCH  50  71
ATOM     71  C   UNL A   1      38.576  29.104  28.984  1.00  0.00     0.057 A 
ATOM     72  C   UNL A   1      38.071  29.582  27.768  1.00  0.00     0.134 A 
ATOM     73  C   UNL A   1      37.690  29.018  30.063  1.00  0.00     0.134 A 
ATOM     74  F   UNL A   1      38.878  29.702  26.704  1.00  0.00    -0.206 F 
ATOM     75  C   UNL A   1      36.739  29.974  27.634  1.00  0.00     0.040 A 
ATOM     76  C   UNL A   1      36.349  29.388  29.937  1.00  0.00     0.040 A 
ATOM     77  F   UNL A   1      38.111  28.559  31.250  1.00  0.00    -0.206 F 
ATOM     78  C   UNL A   1      35.872  29.873  28.720  1.00  0.00     0.006 A 
ENDBRANCH  50  71
BRANCH  62  79
ATOM     79  C   UNL A   1      44.315  32.434  31.074  1.00  0.00     0.057 A 
ATOM     80  C   UNL A   1      44.588  33.471  30.175  1.00  0.00     0.134 A 
ATOM     81  C   UNL A   1      44.223  32.757  32.433  1.00  0.00     0.134 A 
ATOM     82  F   UNL A   1      44.702  33.220  28.862  1.00  0.00    -0.206 F 
ATOM     83  C   UNL A   1      44.777  34.782  30.614  1.00  0.00     0.040 A 
ATOM     84  C   UNL A   1      44.389  34.067  32.882  1.00  0.00     0.040 A 
ATOM     85  F   UNL A   1      43.956  31.808  33.343  1.00  0.00    -0.206 F 
ATOM     86  C   UNL A   1      44.671  35.083  31.971  1.00  0.00     0.006 A 
ENDBRANCH  62  79
ENDBRANCH  36  37
ENDBRANCH  28  31
ENDBRANCH  26  27
ENDBRANCH  25  26
ENDBRANCH  24  25
ENDBRANCH   1  24
TORSDOF 15
ENDMDL
MODEL 2
REMARK VINA RESULT:     -11.5      1.030      6.334
REMARK SMILES Cc1cc(NC(=O)CC2(CC(=O)NCCCCNC(=O)c3ccc(-c4c5nc(c(-c6c(F)cccc6F)c6ccc([nH]6)c(-c6c(F)cccc6F)c6nc(c(-c7c(F)cccc7F)c7ccc4[nH]7)C=C6)C=C5)cc3)CCCC2)ccn1
REMARK SMILES IDX 14 1 13 2 11 3 12 4 10 6 9 7 75 8 78 9 76 10 77 11 8 12 6 13
REMARK SMILES IDX 5 14 7 16 4 17 1 18 2 19 3 20 81 21 80 22 79 23 15 24 16 25
REMARK SMILES IDX 17 26 18 27 19 28 20 30 21 31 22 32 74 33 23 34 73 35 24 36
REMARK SMILES IDX 25 37 26 38 67 39 27 40 72 41 66 42 68 43 28 44 71 45 65 46
REMARK SMILES IDX 64 47 29 49 55 50 38 51 54 52 39 53 42 54 53 55 69 56 40 57
REMARK SMILES IDX 41 58 52 60 70 61 43 62 30 63 31 64 36 65 32 66 33 67 35 68
REMARK SMILES IDX 37 69 34 70 56 71 57 72 62 73 58 74 59 75 61 76 63 77 60 78
REMARK SMILES IDX 44 79 45 80 50 81 46 82 47 83 49 84 51 85 48 86
REMARK H PARENT 13 5 5 15 18 29 68 48 42 59
REMARK Flexibility Score: inf
ROOT
ATOM      1  C   UNL A   1      36.168  23.557  24.853  1.00  0.00     0.116 C 
ENDROOT
BRANCH   1   2
ATOM      2  N   UNL A   1      35.078  23.983  24.008  1.00  0.00    -0.356 N 
ATOM      3  C   UNL A   1      33.763  24.151  24.304  1.00  0.00     0.220 C 
ATOM      4  O   UNL A   1      33.010  24.477  23.386  1.00  0.00    -0.275 OA
ATOM      5  H   UNL A   1      35.325  24.182  23.076  1.00  0.00     0.163 HD
BRANCH   3   6
ATOM      6  C   UNL A   1      33.248  23.993  25.729  1.00  0.00     0.107 C 
BRANCH   6   7
ATOM      7  C   UNL A   1      32.400  22.734  26.107  1.00  0.00    -0.012 C 
ATOM      8  C   UNL A   1      32.704  22.420  27.595  1.00  0.00     0.008 C 
ATOM      9  C   UNL A   1      32.920  21.416  25.496  1.00  0.00     0.008 C 
ATOM     10  C   UNL A   1      34.069  21.730  27.604  1.00  0.00     0.001 C 
ATOM     11  C   UNL A   1      34.182  21.031  26.256  1.00  0.00     0.001 C 
BRANCH   7  12
ATOM     12  C   UNL A   1      30.898  22.914  25.733  1.00  0.00     0.108 C 
BRANCH  12  13
ATOM     13  C   UNL A   1      30.012  23.660  26.711  1.00  0.00     0.224 C 
ATOM     14  N   UNL A   1      29.718  24.986  26.583  1.00  0.00    -0.326 N 
ATOM     15  H   UNL A   1      29.125  25.329  27.290  1.00  0.00     0.169 HD
ATOM     16  O   UNL A   1      29.464  23.051  27.634  1.00  0.00    -0.275 OA
BRANCH  14  17
ATOM     17  C   UNL A   1      30.095  25.960  25.642  1.00  0.00     0.044 A 
ATOM     18  C   UNL A   1      32.240  29.068  25.763  1.00  0.00     0.067 C 
ATOM     19  C   UNL A   1      31.347  27.975  25.260  1.00  0.00     0.039 A 
ATOM     20  C   UNL A   1      31.061  26.876  26.062  1.00  0.00     0.049 A 
ATOM     21  N   UNL A   1      30.759  28.167  24.058  1.00  0.00    -0.261 NA
ATOM     22  C   UNL A   1      29.891  27.225  23.637  1.00  0.00     0.113 A 
ATOM     23  C   UNL A   1      29.538  26.111  24.382  1.00  0.00     0.046 A 
ENDBRANCH  14  17
ENDBRANCH  12  13
ENDBRANCH   7  12
ENDBRANCH   6   7
ENDBRANCH   3   6
ENDBRANCH   1   2
BRANCH   1  24
ATOM     24  C   UNL A   1      37.045  22.540  24.121  1.00  0.00     0.023 C 
BRANCH  24  25
ATOM     25  C   UNL A   1      37.346  21.272  24.903  1.00  0.00     0.023 C 
BRANCH  25  26
ATOM     26  C   UNL A   1      38.649  21.306  25.682  1.00  0.00     0.116 C 
BRANCH  26  27
ATOM     27  N   UNL A   1      39.425  20.077  25.601  1.00  0.00    -0.352 N 
ATOM     28  C   UNL A   1      40.735  19.887  25.985  1.00  0.00     0.251 C 
ATOM     29  H   UNL A   1      38.961  19.292  25.229  1.00  0.00     0.163 HD
ATOM     30  O   UNL A   1      41.304  18.820  25.807  1.00  0.00    -0.269 OA
BRANCH  28  31
ATOM     31  C   UNL A   1      41.447  21.036  26.574  1.00  0.00     0.039 A 
ATOM     32  C   UNL A   1      42.011  21.988  25.724  1.00  0.00     0.014 A 
ATOM     33  C   UNL A   1      41.409  21.235  27.955  1.00  0.00     0.014 A 
ATOM     34  C   UNL A   1      42.466  23.192  26.261  1.00  0.00     0.010 A 
ATOM     35  C   UNL A   1      41.769  22.470  28.471  1.00  0.00     0.010 A 
ATOM     36  C   UNL A   1      42.303  23.459  27.630  1.00  0.00    -0.014 A 
BRANCH  36  37
ATOM     37  C   UNL A   1      42.697  24.761  28.218  1.00  0.00     0.031 A 
ATOM     38  C   UNL A   1      41.651  25.815  28.443  1.00  0.00     0.074 A 
ATOM     39  C   UNL A   1      43.995  25.026  28.464  1.00  0.00     0.049 A 
ATOM     40  N   UNL A   1      41.794  27.051  28.843  1.00  0.00    -0.248 NA
ATOM     41  C   UNL A   1      40.261  25.441  28.132  1.00  0.00     0.031 C 
ATOM     42  C   UNL A   1      45.112  24.110  28.223  1.00  0.00     0.029 A 
ATOM     43  N   UNL A   1      44.594  26.153  28.964  1.00  0.00    -0.354 N 
ATOM     44  C   UNL A   1      40.523  27.609  28.797  1.00  0.00     0.074 A 
ATOM     45  C   UNL A   1      39.632  26.596  28.275  1.00  0.00     0.031 C 
ATOM     46  C   UNL A   1      46.256  24.701  28.605  1.00  0.00     0.029 A 
ATOM     47  C   UNL A   1      45.957  26.045  29.088  1.00  0.00     0.049 A 
ATOM     48  H   UNL A   1      44.093  26.964  29.211  1.00  0.00     0.167 HD
ATOM     49  C   UNL A   1      40.126  28.844  29.183  1.00  0.00     0.037 A 
ATOM     50  C   UNL A   1      46.861  26.932  29.545  1.00  0.00     0.037 A 
ATOM     51  C   UNL A   1      41.004  29.826  29.756  1.00  0.00     0.049 A 
ATOM     52  C   UNL A   1      46.391  28.279  30.017  1.00  0.00     0.074 A 
ATOM     53  C   UNL A   1      40.691  31.075  30.260  1.00  0.00     0.029 A 
ATOM     54  N   UNL A   1      42.372  29.659  29.913  1.00  0.00    -0.354 N 
ATOM     55  N   UNL A   1      45.175  28.770  30.033  1.00  0.00    -0.248 NA
ATOM     56  C   UNL A   1      47.417  29.193  30.540  1.00  0.00     0.031 C 
ATOM     57  C   UNL A   1      41.875  31.677  30.699  1.00  0.00     0.029 A 
ATOM     58  C   UNL A   1      42.920  30.788  30.497  1.00  0.00     0.049 A 
ATOM     59  H   UNL A   1      42.879  28.858  29.646  1.00  0.00     0.167 HD
ATOM     60  C   UNL A   1      45.285  30.038  30.587  1.00  0.00     0.074 A 
ATOM     61  C   UNL A   1      46.684  30.236  30.905  1.00  0.00     0.031 C 
ATOM     62  C   UNL A   1      44.314  30.957  30.814  1.00  0.00     0.037 A 
BRANCH  49  63
ATOM     63  C   UNL A   1      38.676  29.181  29.007  1.00  0.00     0.057 A 
ATOM     64  C   UNL A   1      38.161  29.599  27.772  1.00  0.00     0.134 A 
ATOM     65  C   UNL A   1      37.786  29.095  30.083  1.00  0.00     0.134 A 
ATOM     66  F   UNL A   1      38.966  29.722  26.706  1.00  0.00    -0.206 F 
ATOM     67  C   UNL A   1      36.819  29.952  27.624  1.00  0.00     0.040 A 
ATOM     68  C   UNL A   1      36.436  29.419  29.940  1.00  0.00     0.040 A 
ATOM     69  F   UNL A   1      38.213  28.701  31.292  1.00  0.00    -0.206 F 
ATOM     70  C   UNL A   1      35.951  29.859  28.709  1.00  0.00     0.006 A 
ENDBRANCH  49  63
BRANCH  50  71
ATOM     71  C   UNL A   1      48.295  26.557  29.624  1.00  0.00     0.057 A 
ATOM     72  C   UNL A   1      49.178  26.887  28.590  1.00  0.00     0.134 A 
ATOM     73  C   UNL A   1      48.815  25.869  30.725  1.00  0.00     0.134 A 
ATOM     74  F   UNL A   1      48.732  27.531  27.502  1.00  0.00    -0.206 F 
ATOM     75  C   UNL A   1      50.527  26.533  28.641  1.00  0.00     0.040 A 
ATOM     76  C   UNL A   1      50.167  25.525  30.798  1.00  0.00     0.040 A 
ATOM     77  F   UNL A   1      48.021  25.533  31.752  1.00  0.00    -0.206 F 
ATOM     78  C   UNL A   1      51.025  25.853  29.750  1.00  0.00     0.006 A 
ENDBRANCH  50  71
BRANCH  62  79
ATOM     79  C   UNL A   1      44.729  32.242  31.461  1.00  0.00     0.057 A 
ATOM     80  C   UNL A   1      44.720  32.402  32.851  1.00  0.00     0.134 A 
ATOM     81  C   UNL A   1      45.187  33.313  30.684  1.00  0.00     0.134 A 
ATOM     82  F   UNL A   1      44.280  31.416  33.646  1.00  0.00    -0.206 F 
ATOM     83  C   UNL A   1      45.139  33.592  33.448  1.00  0.00     0.040 A 
ATOM     84  C   UNL A   1      45.628  34.500  31.270  1.00  0.00     0.040 A 
ATOM     85  F   UNL A   1      45.227  33.218  29.346  1.00  0.00    -0.206 F 
ATOM     86  C   UNL A   1      45.601  34.642  32.656  1.00  0.00     0.006 A 
ENDBRANCH  62  79
ENDBRANCH  36  37
ENDBRANCH  28  31
ENDBRANCH  26  27
ENDBRANCH  25  26
ENDBRANCH  24  25
ENDBRANCH   1  24
TORSDOF 15
ENDMDL
MODEL 3
REMARK VINA RESULT:     -11.4      4.238      9.396
REMARK SMILES Cc1cc(NC(=O)CC2(CC(=O)NCCCCNC(=O)c3ccc(-c4c5nc(c(-c6c(F)cccc6F)c6ccc([nH]6)c(-c6c(F)cccc6F)c6nc(c(-c7c(F)cccc7F)c7ccc4[nH]7)C=C6)C=C5)cc3)CCCC2)ccn1
REMARK SMILES IDX 14 1 13 2 11 3 12 4 10 6 9 7 75 8 78 9 76 10 77 11 8 12 6 13
REMARK SMILES IDX 5 14 7 16 4 17 1 18 2 19 3 20 81 21 80 22 79 23 15 24 16 25
REMARK SMILES IDX 17 26 18 27 19 28 20 30 21 31 22 32 74 33 23 34 73 35 24 36
REMARK SMILES IDX 25 37 26 38 67 39 27 40 72 41 66 42 68 43 28 44 71 45 65 46
REMARK SMILES IDX 64 47 29 49 55 50 38 51 54 52 39 53 42 54 53 55 69 56 40 57
REMARK SMILES IDX 41 58 52 60 70 61 43 62 30 63 31 64 36 65 32 66 33 67 35 68
REMARK SMILES IDX 37 69 34 70 56 71 57 72 62 73 58 74 59 75 61 76 63 77 60 78
REMARK SMILES IDX 44 79 45 80 50 81 46 82 47 83 49 84 51 85 48 86
REMARK H PARENT 13 5 5 15 18 29 68 48 42 59
REMARK Flexibility Score: inf
ROOT
ATOM      1  C   UNL A   1      32.881  29.628  25.625  1.00  0.00     0.116 C 
ENDROOT
BRANCH   1   2
ATOM      2  N   UNL A   1      32.116  29.641  24.400  1.00  0.00    -0.356 N 
ATOM      3  C   UNL A   1      31.387  28.653  23.821  1.00  0.00     0.220 C 
ATOM      4  O   UNL A   1      30.860  28.896  22.734  1.00  0.00    -0.275 OA
ATOM      5  H   UNL A   1      32.123  30.496  23.911  1.00  0.00     0.163 HD
BRANCH   3   6
ATOM      6  C   UNL A   1      31.185  27.310  24.513  1.00  0.00     0.107 C 
BRANCH   6   7
ATOM      7  C   UNL A   1      32.046  26.080  24.074  1.00  0.00    -0.012 C 
ATOM      8  C   UNL A   1      31.928  25.026  25.205  1.00  0.00     0.008 C 
ATOM      9  C   UNL A   1      33.569  26.315  24.154  1.00  0.00     0.008 C 
ATOM     10  C   UNL A   1      32.855  25.508  26.322  1.00  0.00     0.001 C 
ATOM     11  C   UNL A   1      33.953  26.301  25.627  1.00  0.00     0.001 C 
BRANCH   7  12
ATOM     12  C   UNL A   1      31.677  25.597  22.640  1.00  0.00     0.108 C 
BRANCH  12  13
ATOM     13  C   UNL A   1      32.807  25.166  21.727  1.00  0.00     0.224 C 
ATOM     14  N   UNL A   1      33.441  23.964  21.847  1.00  0.00    -0.326 N 
ATOM     15  H   UNL A   1      34.149  23.822  21.178  1.00  0.00     0.169 HD
ATOM     16  O   UNL A   1      33.145  25.885  20.782  1.00  0.00    -0.275 OA
BRANCH  14  17
ATOM     17  C   UNL A   1      33.282  22.888  22.736  1.00  0.00     0.044 A 
ATOM     18  C   UNL A   1      35.499  21.231  25.309  1.00  0.00     0.067 C 
ATOM     19  C   UNL A   1      34.318  21.551  24.444  1.00  0.00     0.039 A 
ATOM     20  C   UNL A   1      34.313  22.699  23.659  1.00  0.00     0.049 A 
ATOM     21  N   UNL A   1      33.333  20.627  24.383  1.00  0.00    -0.261 NA
ATOM     22  C   UNL A   1      32.307  20.873  23.544  1.00  0.00     0.113 A 
ATOM     23  C   UNL A   1      32.233  21.981  22.716  1.00  0.00     0.046 A 
ENDBRANCH  14  17
ENDBRANCH  12  13
ENDBRANCH   7  12
ENDBRANCH   6   7
ENDBRANCH   3   6
ENDBRANCH   1   2
BRANCH   1  24
ATOM     24  C   UNL A   1      32.047  30.183  26.780  1.00  0.00     0.023 C 
BRANCH  24  25
ATOM     25  C   UNL A   1      31.788  31.680  26.724  1.00  0.00     0.023 C 
BRANCH  25  26
ATOM     26  C   UNL A   1      32.886  32.532  27.334  1.00  0.00     0.116 C 
BRANCH  26  27
ATOM     27  N   UNL A   1      32.494  33.906  27.608  1.00  0.00    -0.352 N 
ATOM     28  C   UNL A   1      33.061  34.775  28.516  1.00  0.00     0.251 C 
ATOM     29  H   UNL A   1      31.736  34.256  27.086  1.00  0.00     0.163 HD
ATOM     30  O   UNL A   1      32.599  35.891  28.706  1.00  0.00    -0.269 OA
BRANCH  28  31
ATOM     31  C   UNL A   1      34.217  34.291  29.291  1.00  0.00     0.039 A 
ATOM     32  C   UNL A   1      33.990  33.542  30.447  1.00  0.00     0.014 A 
ATOM     33  C   UNL A   1      35.506  34.453  28.779  1.00  0.00     0.014 A 
ATOM     34  C   UNL A   1      35.059  32.877  31.045  1.00  0.00     0.010 A 
ATOM     35  C   UNL A   1      36.546  33.711  29.318  1.00  0.00     0.010 A 
ATOM     36  C   UNL A   1      36.334  32.918  30.457  1.00  0.00    -0.014 A 
BRANCH  36  37
ATOM     37  C   UNL A   1      37.473  32.155  31.019  1.00  0.00     0.031 A 
ATOM     38  C   UNL A   1      37.970  32.482  32.398  1.00  0.00     0.074 A 
ATOM     39  C   UNL A   1      38.110  31.240  30.263  1.00  0.00     0.049 A 
ATOM     40  N   UNL A   1      39.012  32.015  33.035  1.00  0.00    -0.248 NA
ATOM     41  C   UNL A   1      37.220  33.507  33.144  1.00  0.00     0.031 C 
ATOM     42  C   UNL A   1      37.766  30.882  28.886  1.00  0.00     0.029 A 
ATOM     43  N   UNL A   1      39.193  30.448  30.550  1.00  0.00    -0.354 N 
ATOM     44  C   UNL A   1      39.061  32.712  34.234  1.00  0.00     0.074 A 
ATOM     45  C   UNL A   1      37.981  33.675  34.212  1.00  0.00     0.031 C 
ATOM     46  C   UNL A   1      38.600  29.920  28.459  1.00  0.00     0.029 A 
ATOM     47  C   UNL A   1      39.555  29.615  29.520  1.00  0.00     0.049 A 
ATOM     48  H   UNL A   1      39.665  30.473  31.414  1.00  0.00     0.167 HD
ATOM     49  C   UNL A   1      39.910  32.546  35.275  1.00  0.00     0.037 A 
ATOM     50  C   UNL A   1      40.545  28.706  29.445  1.00  0.00     0.037 A 
ATOM     51  C   UNL A   1      40.943  31.549  35.317  1.00  0.00     0.049 A 
ATOM     52  C   UNL A   1      41.444  28.503  30.632  1.00  0.00     0.074 A 
ATOM     53  C   UNL A   1      41.803  31.239  36.355  1.00  0.00     0.029 A 
ATOM     54  N   UNL A   1      41.247  30.690  34.272  1.00  0.00    -0.354 N 
ATOM     55  N   UNL A   1      41.437  29.122  31.788  1.00  0.00    -0.248 NA
ATOM     56  C   UNL A   1      42.484  27.472  30.507  1.00  0.00     0.031 C 
ATOM     57  C   UNL A   1      42.645  30.207  35.929  1.00  0.00     0.029 A 
ATOM     58  C   UNL A   1      42.288  29.854  34.636  1.00  0.00     0.049 A 
ATOM     59  H   UNL A   1      40.791  30.677  33.399  1.00  0.00     0.167 HD
ATOM     60  C   UNL A   1      42.452  28.540  32.536  1.00  0.00     0.074 A 
ATOM     61  C   UNL A   1      43.047  27.513  31.707  1.00  0.00     0.031 C 
ATOM     62  C   UNL A   1      42.856  28.831  33.797  1.00  0.00     0.037 A 
BRANCH  49  63
ATOM     63  C   UNL A   1      39.734  33.459  36.452  1.00  0.00     0.057 A 
ATOM     64  C   UNL A   1      38.857  33.149  37.501  1.00  0.00     0.134 A 
ATOM     65  C   UNL A   1      40.443  34.663  36.536  1.00  0.00     0.134 A 
ATOM     66  F   UNL A   1      38.133  32.019  37.471  1.00  0.00    -0.206 F 
ATOM     67  C   UNL A   1      38.667  34.020  38.573  1.00  0.00     0.040 A 
ATOM     68  C   UNL A   1      40.281  35.529  37.618  1.00  0.00     0.040 A 
ATOM     69  F   UNL A   1      41.299  35.019  35.566  1.00  0.00    -0.206 F 
ATOM     70  C   UNL A   1      39.383  35.214  38.636  1.00  0.00     0.006 A 
ENDBRANCH  49  63
BRANCH  50  71
ATOM     71  C   UNL A   1      40.708  27.886  28.219  1.00  0.00     0.057 A 
ATOM     72  C   UNL A   1      40.090  26.635  28.109  1.00  0.00     0.134 A 
ATOM     73  C   UNL A   1      41.476  28.326  27.136  1.00  0.00     0.134 A 
ATOM     74  F   UNL A   1      39.355  26.154  29.122  1.00  0.00    -0.206 F 
ATOM     75  C   UNL A   1      40.240  25.844  26.969  1.00  0.00     0.040 A 
ATOM     76  C   UNL A   1      41.619  27.553  25.982  1.00  0.00     0.040 A 
ATOM     77  F   UNL A   1      42.086  29.519  27.178  1.00  0.00    -0.206 F 
ATOM     78  C   UNL A   1      41.005  26.305  25.899  1.00  0.00     0.006 A 
ENDBRANCH  50  71
BRANCH  62  79
ATOM     79  C   UNL A   1      43.971  28.008  34.363  1.00  0.00     0.057 A 
ATOM     80  C   UNL A   1      45.310  28.387  34.220  1.00  0.00     0.134 A 
ATOM     81  C   UNL A   1      43.697  26.850  35.100  1.00  0.00     0.134 A 
ATOM     82  F   UNL A   1      45.636  29.480  33.513  1.00  0.00    -0.206 F 
ATOM     83  C   UNL A   1      46.343  27.632  34.778  1.00  0.00     0.040 A 
ATOM     84  C   UNL A   1      44.719  26.098  35.681  1.00  0.00     0.040 A 
ATOM     85  F   UNL A   1      42.432  26.439  35.280  1.00  0.00    -0.206 F 
ATOM     86  C   UNL A   1      46.047  26.487  35.516  1.00  0.00     0.006 A 
ENDBRANCH  62  79
ENDBRANCH  36  37
ENDBRANCH  28  31
ENDBRANCH  26  27
ENDBRANCH  25  26
ENDBRANCH  24  25
ENDBRANCH   1  24
TORSDOF 15
ENDMDL
