MODEL 1
REMARK VINA RESULT:     -12.7      0.000      0.000
REMARK SMILES O=C(NCCCCNC(=O)c1ccc2c(c1)[C@@H](C1CCOCC1)C(=O)N2)c1ccc(-c2c3nc(c(-c4c(F)cccc4F)c4ccc([nH]4)c(-c4c(F)cccc4F)c4nc(c(-c5c(F)cccc5F)c5ccc2[nH]5)C=C4)C=C3)cc1
REMARK SMILES IDX 5 1 4 2 3 3 1 4 2 5 27 7 28 8 80 9 29 10 79 11 30 12 31 13
REMARK SMILES IDX 32 14 73 15 33 16 78 17 72 18 74 19 34 20 77 21 71 22 70 23
REMARK SMILES IDX 35 25 61 26 44 27 60 28 45 29 48 30 59 31 75 32 46 33 47 34
REMARK SMILES IDX 58 36 76 37 49 38 36 39 37 40 42 41 38 42 39 43 41 44 43 45
REMARK SMILES IDX 40 46 62 47 63 48 68 49 64 50 65 51 67 52 69 53 66 54 50 55
REMARK SMILES IDX 51 56 56 57 52 58 53 59 55 60 57 61 54 62 6 63 7 64 8 65
REMARK SMILES IDX 9 66 10 68 11 69 12 70 16 71 13 72 15 73 14 74 17 75 26 76
REMARK SMILES IDX 24 77 25 79 18 80 19 81 23 82 20 83 22 84 21 85
REMARK H PARENT 3 6 74 24 48 35 8 67 26 78
REMARK Flexibility Score: inf
ROOT
ATOM      1  C   UNL A   1      37.913  19.964  24.931  1.00  0.00     0.023 C 
ENDROOT
BRANCH   1   2
ATOM      2  C   UNL A   1      39.150  20.268  25.764  1.00  0.00     0.116 C 
BRANCH   2   3
ATOM      3  N   UNL A   1      40.108  19.171  25.802  1.00  0.00    -0.352 N 
ATOM      4  O   UNL A   1      42.137  18.185  25.943  1.00  0.00    -0.269 OA
ATOM      5  C   UNL A   1      41.458  19.199  26.071  1.00  0.00     0.251 C 
ATOM      6  H   UNL A   1      39.736  18.281  25.607  1.00  0.00     0.163 HD
BRANCH   5   7
ATOM      7  C   UNL A   1      42.092  20.471  26.477  1.00  0.00     0.039 A 
ATOM      8  C   UNL A   1      42.089  20.862  27.815  1.00  0.00     0.014 A 
ATOM      9  C   UNL A   1      42.641  21.308  25.502  1.00  0.00     0.014 A 
ATOM     10  C   UNL A   1      42.429  22.165  28.147  1.00  0.00     0.010 A 
ATOM     11  C   UNL A   1      43.101  22.578  25.861  1.00  0.00     0.010 A 
ATOM     12  C   UNL A   1      42.947  23.040  27.177  1.00  0.00    -0.014 A 
BRANCH  12  13
ATOM     13  C   UNL A   1      43.349  24.412  27.588  1.00  0.00     0.031 A 
ATOM     14  C   UNL A   1      44.783  24.863  27.521  1.00  0.00     0.074 A 
ATOM     15  C   UNL A   1      42.389  25.274  27.974  1.00  0.00     0.049 A 
ATOM     16  N   UNL A   1      45.288  26.043  27.791  1.00  0.00    -0.248 NA
ATOM     17  C   UNL A   1      45.784  23.868  27.107  1.00  0.00     0.031 C 
ATOM     18  C   UNL A   1      40.963  24.953  28.086  1.00  0.00     0.029 A 
ATOM     19  N   UNL A   1      42.455  26.601  28.315  1.00  0.00    -0.354 N 
ATOM     20  C   UNL A   1      46.661  25.924  27.608  1.00  0.00     0.074 A 
ATOM     21  C   UNL A   1      46.915  24.550  27.229  1.00  0.00     0.031 C 
ATOM     22  C   UNL A   1      40.285  26.063  28.403  1.00  0.00     0.029 A 
ATOM     23  C   UNL A   1      41.230  27.156  28.593  1.00  0.00     0.049 A 
ATOM     24  H   UNL A   1      43.299  27.105  28.357  1.00  0.00     0.167 HD
ATOM     25  C   UNL A   1      47.620  26.874  27.738  1.00  0.00     0.037 A 
ATOM     26  C   UNL A   1      40.900  28.403  28.973  1.00  0.00     0.037 A 
ATOM     27  C   UNL A   1      47.358  28.246  28.100  1.00  0.00     0.049 A 
ATOM     28  C   UNL A   1      41.986  29.424  29.137  1.00  0.00     0.074 A 
ATOM     29  C   UNL A   1      48.256  29.293  28.213  1.00  0.00     0.029 A 
ATOM     30  N   UNL A   1      46.108  28.758  28.417  1.00  0.00    -0.354 N 
ATOM     31  N   UNL A   1      43.273  29.307  28.919  1.00  0.00    -0.248 NA
ATOM     32  C   UNL A   1      41.572  30.753  29.604  1.00  0.00     0.031 C 
ATOM     33  C   UNL A   1      47.560  30.423  28.658  1.00  0.00     0.029 A 
ATOM     34  C   UNL A   1      46.217  30.099  28.756  1.00  0.00     0.049 A 
ATOM     35  H   UNL A   1      45.268  28.245  28.403  1.00  0.00     0.167 HD
ATOM     36  C   UNL A   1      43.819  30.553  29.192  1.00  0.00     0.074 A 
ATOM     37  C   UNL A   1      42.718  31.415  29.575  1.00  0.00     0.031 C 
ATOM     38  C   UNL A   1      45.114  30.948  29.130  1.00  0.00     0.037 A 
BRANCH  25  39
ATOM     39  C   UNL A   1      49.049  26.461  27.519  1.00  0.00     0.057 A 
ATOM     40  C   UNL A   1      49.865  26.005  28.562  1.00  0.00     0.134 A 
ATOM     41  C   UNL A   1      49.605  26.479  26.232  1.00  0.00     0.134 A 
ATOM     42  F   UNL A   1      49.403  25.967  29.822  1.00  0.00    -0.206 F 
ATOM     43  C   UNL A   1      51.187  25.610  28.339  1.00  0.00     0.040 A 
ATOM     44  C   UNL A   1      50.914  26.060  25.991  1.00  0.00     0.040 A 
ATOM     45  F   UNL A   1      48.878  26.894  25.182  1.00  0.00    -0.206 F 
ATOM     46  C   UNL A   1      51.712  25.631  27.049  1.00  0.00     0.006 A 
ENDBRANCH  25  39
BRANCH  26  47
ATOM     47  C   UNL A   1      39.479  28.750  29.223  1.00  0.00     0.057 A 
ATOM     48  C   UNL A   1      38.904  28.577  30.487  1.00  0.00     0.134 A 
ATOM     49  C   UNL A   1      38.662  29.261  28.206  1.00  0.00     0.134 A 
ATOM     50  F   UNL A   1      39.631  28.080  31.497  1.00  0.00    -0.206 F 
ATOM     51  C   UNL A   1      37.563  28.880  30.726  1.00  0.00     0.040 A 
ATOM     52  C   UNL A   1      37.329  29.597  28.439  1.00  0.00     0.040 A 
ATOM     53  F   UNL A   1      39.155  29.459  26.975  1.00  0.00    -0.206 F 
ATOM     54  C   UNL A   1      36.772  29.398  29.701  1.00  0.00     0.006 A 
ENDBRANCH  26  47
BRANCH  38  55
ATOM     55  C   UNL A   1      45.402  32.391  29.437  1.00  0.00     0.057 A 
ATOM     56  C   UNL A   1      45.733  32.828  30.726  1.00  0.00     0.134 A 
ATOM     57  C   UNL A   1      45.355  33.354  28.421  1.00  0.00     0.134 A 
ATOM     58  F   UNL A   1      45.781  31.960  31.748  1.00  0.00    -0.206 F 
ATOM     59  C   UNL A   1      45.971  34.177  30.999  1.00  0.00     0.040 A 
ATOM     60  C   UNL A   1      45.624  34.699  28.675  1.00  0.00     0.040 A 
ATOM     61  F   UNL A   1      45.053  33.003  27.161  1.00  0.00    -0.206 F 
ATOM     62  C   UNL A   1      45.923  35.115  29.970  1.00  0.00     0.006 A 
ENDBRANCH  38  55
ENDBRANCH  12  13
ENDBRANCH   5   7
ENDBRANCH   2   3
ENDBRANCH   1   2
BRANCH   1  63
ATOM     63  C   UNL A   1      36.648  20.692  25.369  1.00  0.00     0.023 C 
BRANCH  63  64
ATOM     64  C   UNL A   1      36.751  22.213  25.369  1.00  0.00     0.116 C 
BRANCH  64  65
ATOM     65  N   UNL A   1      36.415  22.800  24.080  1.00  0.00    -0.352 N 
ATOM     66  C   UNL A   1      35.174  22.954  23.512  1.00  0.00     0.251 C 
ATOM     67  H   UNL A   1      37.175  23.129  23.547  1.00  0.00     0.163 HD
ATOM     68  O   UNL A   1      35.049  23.342  22.356  1.00  0.00    -0.269 OA
BRANCH  66  69
ATOM     69  C   UNL A   1      33.981  22.609  24.310  1.00  0.00     0.040 A 
ATOM     70  C   UNL A   1      33.378  21.341  24.153  1.00  0.00     0.016 A 
ATOM     71  C   UNL A   1      33.437  23.582  25.157  1.00  0.00     0.020 A 
ATOM     72  C   UNL A   1      32.163  21.060  24.773  1.00  0.00     0.027 A 
ATOM     73  C   UNL A   1      32.234  23.288  25.773  1.00  0.00    -0.011 A 
ATOM     74  C   UNL A   1      31.618  22.051  25.560  1.00  0.00     0.045 A 
ATOM     75  C   UNL A   1      31.378  24.118  26.703  1.00  0.00     0.114 C 
ATOM     76  N   UNL A   1      30.414  22.000  26.236  1.00  0.00    -0.325 N 
ATOM     77  C   UNL A   1      30.178  23.169  26.943  1.00  0.00     0.232 C 
ATOM     78  H   UNL A   1      29.801  21.230  26.217  1.00  0.00     0.169 HD
ATOM     79  O   UNL A   1      29.200  23.364  27.650  1.00  0.00    -0.274 OA
BRANCH  75  80
ATOM     80  C   UNL A   1      31.007  25.517  26.164  1.00  0.00     0.010 C 
ATOM     81  C   UNL A   1      30.492  25.458  24.715  1.00  0.00     0.033 C 
ATOM     82  C   UNL A   1      32.140  26.553  26.269  1.00  0.00     0.033 C 
ATOM     83  C   UNL A   1      30.184  26.848  24.174  1.00  0.00     0.160 C 
ATOM     84  C   UNL A   1      31.720  27.880  25.646  1.00  0.00     0.160 C 
ATOM     85  O   UNL A   1      31.322  27.700  24.290  1.00  0.00    -0.381 OA
ENDBRANCH  75  80
ENDBRANCH  66  69
ENDBRANCH  64  65
ENDBRANCH  63  64
ENDBRANCH   1  63
TORSDOF 12
ENDMDL
MODEL 2
REMARK VINA RESULT:     -12.7      5.123     10.243
REMARK SMILES O=C(NCCCCNC(=O)c1ccc2c(c1)[C@@H](C1CCOCC1)C(=O)N2)c1ccc(-c2c3nc(c(-c4c(F)cccc4F)c4ccc([nH]4)c(-c4c(F)cccc4F)c4nc(c(-c5c(F)cccc5F)c5ccc2[nH]5)C=C4)C=C3)cc1
REMARK SMILES IDX 5 1 4 2 3 3 1 4 2 5 27 7 28 8 80 9 29 10 79 11 30 12 31 13
REMARK SMILES IDX 32 14 73 15 33 16 78 17 72 18 74 19 34 20 77 21 71 22 70 23
REMARK SMILES IDX 35 25 61 26 44 27 60 28 45 29 48 30 59 31 75 32 46 33 47 34
REMARK SMILES IDX 58 36 76 37 49 38 36 39 37 40 42 41 38 42 39 43 41 44 43 45
REMARK SMILES IDX 40 46 62 47 63 48 68 49 64 50 65 51 67 52 69 53 66 54 50 55
REMARK SMILES IDX 51 56 56 57 52 58 53 59 55 60 57 61 54 62 6 63 7 64 8 65
REMARK SMILES IDX 9 66 10 68 11 69 12 70 16 71 13 72 15 73 14 74 17 75 26 76
REMARK SMILES IDX 24 77 25 79 18 80 19 81 23 82 20 83 22 84 21 85
REMARK H PARENT 3 6 74 24 48 35 8 67 26 78
REMARK Flexibility Score: inf
ROOT
ATOM      1  C   UNL A   1      31.425  31.964  26.794  1.00  0.00     0.023 C 
ENDROOT
BRANCH   1   2
ATOM      2  C   UNL A   1      32.618  32.746  27.325  1.00  0.00     0.116 C 
BRANCH   2   3
ATOM      3  N   UNL A   1      32.311  34.138  27.627  1.00  0.00    -0.352 N 
ATOM      4  O   UNL A   1      32.452  36.108  28.726  1.00  0.00    -0.269 OA
ATOM      5  C   UNL A   1      32.921  34.995  28.516  1.00  0.00     0.251 C 
ATOM      6  H   UNL A   1      31.558  34.522  27.122  1.00  0.00     0.163 HD
BRANCH   5   7
ATOM      7  C   UNL A   1      34.125  34.547  29.247  1.00  0.00     0.039 A 
ATOM      8  C   UNL A   1      35.386  34.668  28.664  1.00  0.00     0.014 A 
ATOM      9  C   UNL A   1      33.986  33.945  30.500  1.00  0.00     0.014 A 
ATOM     10  C   UNL A   1      36.465  34.000  29.225  1.00  0.00     0.010 A 
ATOM     11  C   UNL A   1      35.103  33.381  31.124  1.00  0.00     0.010 A 
ATOM     12  C   UNL A   1      36.342  33.353  30.466  1.00  0.00    -0.014 A 
BRANCH  12  13
ATOM     13  C   UNL A   1      37.537  32.695  31.056  1.00  0.00     0.031 A 
ATOM     14  C   UNL A   1      38.095  33.126  32.387  1.00  0.00     0.074 A 
ATOM     15  C   UNL A   1      38.090  31.657  30.399  1.00  0.00     0.049 A 
ATOM     16  N   UNL A   1      39.097  32.618  33.062  1.00  0.00    -0.248 NA
ATOM     17  C   UNL A   1      37.456  34.276  33.044  1.00  0.00     0.031 C 
ATOM     18  C   UNL A   1      37.644  31.151  29.098  1.00  0.00     0.029 A 
ATOM     19  N   UNL A   1      39.123  30.823  30.741  1.00  0.00    -0.354 N 
ATOM     20  C   UNL A   1      39.226  33.400  34.204  1.00  0.00     0.074 A 
ATOM     21  C   UNL A   1      38.216  34.434  34.119  1.00  0.00     0.031 C 
ATOM     22  C   UNL A   1      38.351  30.057  28.785  1.00  0.00     0.029 A 
ATOM     23  C   UNL A   1      39.350  29.829  29.821  1.00  0.00     0.049 A 
ATOM     24  H   UNL A   1      39.649  30.926  31.566  1.00  0.00     0.167 HD
ATOM     25  C   UNL A   1      40.101  33.265  35.230  1.00  0.00     0.037 A 
ATOM     26  C   UNL A   1      40.271  28.849  29.801  1.00  0.00     0.037 A 
ATOM     27  C   UNL A   1      41.095  32.223  35.317  1.00  0.00     0.049 A 
ATOM     28  C   UNL A   1      41.245  28.743  30.936  1.00  0.00     0.074 A 
ATOM     29  C   UNL A   1      41.997  31.974  36.338  1.00  0.00     0.029 A 
ATOM     30  N   UNL A   1      41.324  31.262  34.342  1.00  0.00    -0.354 N 
ATOM     31  N   UNL A   1      41.326  29.464  32.028  1.00  0.00    -0.248 NA
ATOM     32  C   UNL A   1      42.259  27.686  30.835  1.00  0.00     0.031 C 
ATOM     33  C   UNL A   1      42.811  30.903  35.954  1.00  0.00     0.029 A 
ATOM     34  C   UNL A   1      42.373  30.439  34.725  1.00  0.00     0.049 A 
ATOM     35  H   UNL A   1      40.815  31.176  33.504  1.00  0.00     0.167 HD
ATOM     36  C   UNL A   1      42.378  28.929  32.758  1.00  0.00     0.074 A 
ATOM     37  C   UNL A   1      42.893  27.813  31.990  1.00  0.00     0.031 C 
ATOM     38  C   UNL A   1      42.873  29.327  33.955  1.00  0.00     0.037 A 
BRANCH  25  39
ATOM     39  C   UNL A   1      40.050  34.286  36.333  1.00  0.00     0.057 A 
ATOM     40  C   UNL A   1      40.754  35.496  36.268  1.00  0.00     0.134 A 
ATOM     41  C   UNL A   1      39.248  34.073  37.463  1.00  0.00     0.134 A 
ATOM     42  F   UNL A   1      41.548  35.766  35.220  1.00  0.00    -0.206 F 
ATOM     43  C   UNL A   1      40.683  36.442  37.294  1.00  0.00     0.040 A 
ATOM     44  C   UNL A   1      39.146  35.022  38.482  1.00  0.00     0.040 A 
ATOM     45  F   UNL A   1      38.537  32.941  37.589  1.00  0.00    -0.206 F 
ATOM     46  C   UNL A   1      39.872  36.207  38.403  1.00  0.00     0.006 A 
ENDBRANCH  25  39
BRANCH  26  47
ATOM     47  C   UNL A   1      40.312  27.893  28.666  1.00  0.00     0.057 A 
ATOM     48  C   UNL A   1      39.637  26.669  28.727  1.00  0.00     0.134 A 
ATOM     49  C   UNL A   1      41.026  28.179  27.495  1.00  0.00     0.134 A 
ATOM     50  F   UNL A   1      38.947  26.333  29.826  1.00  0.00    -0.206 F 
ATOM     51  C   UNL A   1      39.686  25.755  27.674  1.00  0.00     0.040 A 
ATOM     52  C   UNL A   1      41.058  27.289  26.422  1.00  0.00     0.040 A 
ATOM     53  F   UNL A   1      41.685  29.340  27.369  1.00  0.00    -0.206 F 
ATOM     54  C   UNL A   1      40.395  26.067  26.514  1.00  0.00     0.006 A 
ENDBRANCH  26  47
BRANCH  38  55
ATOM     55  C   UNL A   1      43.999  28.515  34.531  1.00  0.00     0.057 A 
ATOM     56  C   UNL A   1      45.343  28.839  34.306  1.00  0.00     0.134 A 
ATOM     57  C   UNL A   1      43.730  27.397  35.331  1.00  0.00     0.134 A 
ATOM     58  F   UNL A   1      45.672  29.888  33.538  1.00  0.00    -0.206 F 
ATOM     59  C   UNL A   1      46.378  28.059  34.827  1.00  0.00     0.040 A 
ATOM     60  C   UNL A   1      44.754  26.630  35.884  1.00  0.00     0.040 A 
ATOM     61  F   UNL A   1      42.464  27.036  35.593  1.00  0.00    -0.206 F 
ATOM     62  C   UNL A   1      46.084  26.954  35.623  1.00  0.00     0.006 A 
ENDBRANCH  38  55
ENDBRANCH  12  13
ENDBRANCH   5   7
ENDBRANCH   2   3
ENDBRANCH   1   2
BRANCH   1  63
ATOM     63  C   UNL A   1      31.776  30.819  25.852  1.00  0.00     0.023 C 
BRANCH  63  64
ATOM     64  C   UNL A   1      32.794  29.825  26.400  1.00  0.00     0.116 C 
BRANCH  64  65
ATOM     65  N   UNL A   1      32.171  28.700  27.081  1.00  0.00    -0.352 N 
ATOM     66  C   UNL A   1      31.549  27.607  26.528  1.00  0.00     0.251 C 
ATOM     67  H   UNL A   1      32.198  28.726  28.065  1.00  0.00     0.163 HD
ATOM     68  O   UNL A   1      30.945  26.800  27.225  1.00  0.00    -0.269 OA
BRANCH  66  69
ATOM     69  C   UNL A   1      31.590  27.435  25.063  1.00  0.00     0.040 A 
ATOM     70  C   UNL A   1      30.557  27.978  24.266  1.00  0.00     0.016 A 
ATOM     71  C   UNL A   1      32.625  26.674  24.505  1.00  0.00     0.020 A 
ATOM     72  C   UNL A   1      30.492  27.686  22.906  1.00  0.00     0.027 A 
ATOM     73  C   UNL A   1      32.554  26.398  23.152  1.00  0.00    -0.011 A 
ATOM     74  C   UNL A   1      31.492  26.892  22.388  1.00  0.00     0.045 A 
ATOM     75  C   UNL A   1      33.473  25.590  22.265  1.00  0.00     0.114 C 
ATOM     76  N   UNL A   1      31.605  26.454  21.083  1.00  0.00    -0.325 N 
ATOM     77  C   UNL A   1      32.741  25.679  20.902  1.00  0.00     0.232 C 
ATOM     78  H   UNL A   1      30.960  26.665  20.370  1.00  0.00     0.169 HD
ATOM     79  O   UNL A   1      33.089  25.199  19.834  1.00  0.00    -0.274 OA
BRANCH  75  80
ATOM     80  C   UNL A   1      33.755  24.156  22.762  1.00  0.00     0.010 C 
ATOM     81  C   UNL A   1      32.459  23.395  23.092  1.00  0.00     0.033 C 
ATOM     82  C   UNL A   1      34.717  24.082  23.960  1.00  0.00     0.033 C 
ATOM     83  C   UNL A   1      32.750  22.002  23.636  1.00  0.00     0.160 C 
ATOM     84  C   UNL A   1      34.880  22.643  24.437  1.00  0.00     0.160 C 
ATOM     85  O   UNL A   1      33.617  22.071  24.765  1.00  0.00    -0.381 OA
ENDBRANCH  75  80
ENDBRANCH  66  69
ENDBRANCH  64  65
ENDBRANCH  63  64
ENDBRANCH   1  63
TORSDOF 12
ENDMDL
MODEL 3
REMARK VINA RESULT:     -12.6      4.926      9.923
REMARK SMILES O=C(NCCCCNC(=O)c1ccc2c(c1)[C@@H](C1CCOCC1)C(=O)N2)c1ccc(-c2c3nc(c(-c4c(F)cccc4F)c4ccc([nH]4)c(-c4c(F)cccc4F)c4nc(c(-c5c(F)cccc5F)c5ccc2[nH]5)C=C4)C=C3)cc1
REMARK SMILES IDX 5 1 4 2 3 3 1 4 2 5 27 7 28 8 80 9 29 10 79 11 30 12 31 13
REMARK SMILES IDX 32 14 73 15 33 16 78 17 72 18 74 19 34 20 77 21 71 22 70 23
REMARK SMILES IDX 35 25 61 26 44 27 60 28 45 29 48 30 59 31 75 32 46 33 47 34
REMARK SMILES IDX 58 36 76 37 49 38 36 39 37 40 42 41 38 42 39 43 41 44 43 45
REMARK SMILES IDX 40 46 62 47 63 48 68 49 64 50 65 51 67 52 69 53 66 54 50 55
REMARK SMILES IDX 51 56 56 57 52 58 53 59 55 60 57 61 54 62 6 63 7 64 8 65
REMARK SMILES IDX 9 66 10 68 11 69 12 70 16 71 13 72 15 73 14 74 17 75 26 76
REMARK SMILES IDX 24 77 25 79 18 80 19 81 23 82 20 83 22 84 21 85
REMARK H PARENT 3 6 74 24 48 35 8 67 26 78
REMARK Flexibility Score: inf
ROOT
ATOM      1  C   UNL A   1      31.271  32.118  26.928  1.00  0.00     0.023 C 
ENDROOT
BRANCH   1   2
ATOM      2  C   UNL A   1      32.483  33.036  26.855  1.00  0.00     0.116 C 
BRANCH   2   3
ATOM      3  N   UNL A   1      32.358  34.228  27.685  1.00  0.00    -0.352 N 
ATOM      4  O   UNL A   1      32.807  35.619  29.408  1.00  0.00    -0.269 OA
ATOM      5  C   UNL A   1      33.131  34.638  28.747  1.00  0.00     0.251 C 
ATOM      6  H   UNL A   1      31.613  34.827  27.451  1.00  0.00     0.163 HD
BRANCH   5   7
ATOM      7  C   UNL A   1      34.335  33.862  29.112  1.00  0.00     0.039 A 
ATOM      8  C   UNL A   1      34.212  32.669  29.823  1.00  0.00     0.014 A 
ATOM      9  C   UNL A   1      35.600  34.363  28.795  1.00  0.00     0.014 A 
ATOM     10  C   UNL A   1      35.337  32.098  30.399  1.00  0.00     0.010 A 
ATOM     11  C   UNL A   1      36.741  33.713  29.273  1.00  0.00     0.010 A 
ATOM     12  C   UNL A   1      36.619  32.607  30.127  1.00  0.00    -0.014 A 
BRANCH  12  13
ATOM     13  C   UNL A   1      37.802  31.932  30.724  1.00  0.00     0.031 A 
ATOM     14  C   UNL A   1      38.246  32.226  32.133  1.00  0.00     0.074 A 
ATOM     15  C   UNL A   1      38.447  31.001  29.996  1.00  0.00     0.049 A 
ATOM     16  N   UNL A   1      39.224  31.683  32.817  1.00  0.00    -0.248 NA
ATOM     17  C   UNL A   1      37.510  33.265  32.868  1.00  0.00     0.031 C 
ATOM     18  C   UNL A   1      38.115  30.633  28.616  1.00  0.00     0.029 A 
ATOM     19  N   UNL A   1      39.493  30.174  30.315  1.00  0.00    -0.354 N 
ATOM     20  C   UNL A   1      39.237  32.331  34.047  1.00  0.00     0.074 A 
ATOM     21  C   UNL A   1      38.187  33.326  34.007  1.00  0.00     0.031 C 
ATOM     22  C   UNL A   1      38.894  29.612  28.233  1.00  0.00     0.029 A 
ATOM     23  C   UNL A   1      39.830  29.305  29.306  1.00  0.00     0.049 A 
ATOM     24  H   UNL A   1      39.957  30.201  31.182  1.00  0.00     0.167 HD
ATOM     25  C   UNL A   1      40.046  32.111  35.112  1.00  0.00     0.037 A 
ATOM     26  C   UNL A   1      40.796  28.371  29.242  1.00  0.00     0.037 A 
ATOM     27  C   UNL A   1      41.080  31.106  35.152  1.00  0.00     0.049 A 
ATOM     28  C   UNL A   1      41.694  28.172  30.426  1.00  0.00     0.074 A 
ATOM     29  C   UNL A   1      41.921  30.776  36.201  1.00  0.00     0.029 A 
ATOM     30  N   UNL A   1      41.420  30.276  34.094  1.00  0.00    -0.354 N 
ATOM     31  N   UNL A   1      41.666  28.762  31.596  1.00  0.00    -0.248 NA
ATOM     32  C   UNL A   1      42.762  27.174  30.279  1.00  0.00     0.031 C 
ATOM     33  C   UNL A   1      42.810  29.790  35.758  1.00  0.00     0.029 A 
ATOM     34  C   UNL A   1      42.479  29.456  34.455  1.00  0.00     0.049 A 
ATOM     35  H   UNL A   1      40.975  30.269  33.216  1.00  0.00     0.167 HD
ATOM     36  C   UNL A   1      42.691  28.188  32.335  1.00  0.00     0.074 A 
ATOM     37  C   UNL A   1      43.309  27.191  31.485  1.00  0.00     0.031 C 
ATOM     38  C   UNL A   1      43.083  28.463  33.603  1.00  0.00     0.037 A 
BRANCH  25  39
ATOM     39  C   UNL A   1      39.871  32.993  36.318  1.00  0.00     0.057 A 
ATOM     40  C   UNL A   1      38.955  32.697  37.336  1.00  0.00     0.134 A 
ATOM     41  C   UNL A   1      40.664  34.137  36.483  1.00  0.00     0.134 A 
ATOM     42  F   UNL A   1      38.157  31.622  37.242  1.00  0.00    -0.206 F 
ATOM     43  C   UNL A   1      38.815  33.519  38.458  1.00  0.00     0.040 A 
ATOM     44  C   UNL A   1      40.555  34.950  37.613  1.00  0.00     0.040 A 
ATOM     45  F   UNL A   1      41.571  34.477  35.553  1.00  0.00    -0.206 F 
ATOM     46  C   UNL A   1      39.623  34.646  38.601  1.00  0.00     0.006 A 
ENDBRANCH  25  39
BRANCH  26  47
ATOM     47  C   UNL A   1      40.959  27.557  28.012  1.00  0.00     0.057 A 
ATOM     48  C   UNL A   1      41.746  28.006  26.946  1.00  0.00     0.134 A 
ATOM     49  C   UNL A   1      40.332  26.311  27.872  1.00  0.00     0.134 A 
ATOM     50  F   UNL A   1      42.360  29.196  27.015  1.00  0.00    -0.206 F 
ATOM     51  C   UNL A   1      41.887  27.258  25.776  1.00  0.00     0.040 A 
ATOM     52  C   UNL A   1      40.491  25.539  26.721  1.00  0.00     0.040 A 
ATOM     53  F   UNL A   1      39.573  25.819  28.861  1.00  0.00    -0.206 F 
ATOM     54  C   UNL A   1      41.263  26.016  25.664  1.00  0.00     0.006 A 
ENDBRANCH  26  47
BRANCH  38  55
ATOM     55  C   UNL A   1      44.205  27.634  34.163  1.00  0.00     0.057 A 
ATOM     56  C   UNL A   1      43.981  26.401  34.788  1.00  0.00     0.134 A 
ATOM     57  C   UNL A   1      45.530  28.077  34.066  1.00  0.00     0.134 A 
ATOM     58  F   UNL A   1      42.735  25.924  34.928  1.00  0.00    -0.206 F 
ATOM     59  C   UNL A   1      45.032  25.656  35.328  1.00  0.00     0.040 A 
ATOM     60  C   UNL A   1      46.591  27.326  34.572  1.00  0.00     0.040 A 
ATOM     61  F   UNL A   1      45.817  29.246  33.472  1.00  0.00    -0.206 F 
ATOM     62  C   UNL A   1      46.342  26.116  35.214  1.00  0.00     0.006 A 
ENDBRANCH  38  55
ENDBRANCH  12  13
ENDBRANCH   5   7
ENDBRANCH   2   3
ENDBRANCH   1   2
BRANCH   1  63
ATOM     63  C   UNL A   1      31.383  30.841  26.105  1.00  0.00     0.023 C 
BRANCH  63  64
ATOM     64  C   UNL A   1      31.721  29.588  26.906  1.00  0.00     0.116 C 
BRANCH  64  65
ATOM     65  N   UNL A   1      33.071  29.616  27.449  1.00  0.00    -0.352 N 
ATOM     66  C   UNL A   1      34.192  28.978  26.977  1.00  0.00     0.251 C 
ATOM     67  H   UNL A   1      33.197  30.162  28.259  1.00  0.00     0.163 HD
ATOM     68  O   UNL A   1      35.239  28.980  27.615  1.00  0.00    -0.269 OA
BRANCH  66  69
ATOM     69  C   UNL A   1      34.109  28.255  25.694  1.00  0.00     0.040 A 
ATOM     70  C   UNL A   1      33.919  28.979  24.495  1.00  0.00     0.016 A 
ATOM     71  C   UNL A   1      34.152  26.855  25.708  1.00  0.00     0.020 A 
ATOM     72  C   UNL A   1      33.675  28.306  23.300  1.00  0.00     0.027 A 
ATOM     73  C   UNL A   1      33.916  26.199  24.513  1.00  0.00    -0.011 A 
ATOM     74  C   UNL A   1      33.669  26.929  23.347  1.00  0.00     0.045 A 
ATOM     75  C   UNL A   1      33.856  24.722  24.199  1.00  0.00     0.114 C 
ATOM     76  N   UNL A   1      33.417  26.069  22.296  1.00  0.00    -0.325 N 
ATOM     77  C   UNL A   1      33.504  24.743  22.691  1.00  0.00     0.232 C 
ATOM     78  H   UNL A   1      33.201  26.361  21.380  1.00  0.00     0.169 HD
ATOM     79  O   UNL A   1      33.358  23.787  21.944  1.00  0.00    -0.274 OA
BRANCH  75  80
ATOM     80  C   UNL A   1      32.887  23.910  25.086  1.00  0.00     0.010 C 
ATOM     81  C   UNL A   1      31.553  24.647  25.304  1.00  0.00     0.033 C 
ATOM     82  C   UNL A   1      33.475  23.493  26.445  1.00  0.00     0.033 C 
ATOM     83  C   UNL A   1      30.627  23.865  26.226  1.00  0.00     0.160 C 
ATOM     84  C   UNL A   1      32.432  22.767  27.287  1.00  0.00     0.160 C 
ATOM     85  O   UNL A   1      31.272  23.574  27.464  1.00  0.00    -0.381 OA
ENDBRANCH  75  80
ENDBRANCH  66  69
ENDBRANCH  64  65
ENDBRANCH  63  64
ENDBRANCH   1  63
TORSDOF 12
ENDMDL
