MODEL 1
REMARK VINA RESULT:     -13.2      0.000      0.000
REMARK SMILES O=C(NCCCCNC(=O)c1ccc(-c2c3nc(c(-c4c(F)cccc4F)c4ccc([nH]4)c(-c4c(F)cccc4F)c4nc(c(-c5c(F)cccc5F)c5ccc2[nH]5)C=C4)C=C3)cc1)C1=Cc2cc(Cl)cc(-c3ccc(Cl)cc3)c2O[C@@H]1C(F)(F)F
REMARK SMILES IDX 6 1 5 2 4 3 3 4 1 5 2 6 65 8 66 9 82 10 67 11 81 12 68 13
REMARK SMILES IDX 80 14 69 15 72 16 70 17 71 18 83 19 84 20 85 21 86 22 73 23
REMARK SMILES IDX 74 24 79 25 75 26 78 27 76 28 77 29 7 30 8 31 9 32 10 34
REMARK SMILES IDX 11 35 12 36 64 37 13 38 63 39 14 40 15 41 16 42 57 43 17 44
REMARK SMILES IDX 62 45 56 46 58 47 18 48 61 49 55 50 54 51 19 53 45 54 28 55
REMARK SMILES IDX 44 56 29 57 32 58 43 59 59 60 30 61 31 62 42 64 60 65 33 66
REMARK SMILES IDX 20 67 21 68 26 69 22 70 23 71 25 72 27 73 24 74 46 75 47 76
REMARK SMILES IDX 52 77 48 78 49 79 51 80 53 81 50 82 34 83 35 84 40 85 36 86
REMARK SMILES IDX 37 87 39 88 41 89 38 90
REMARK H PARENT 3 7 8 33 58 52 32 63
REMARK Flexibility Score: inf
ROOT
ATOM      1  C   UNL A   1      32.447  28.908  26.531  1.00  0.00     0.023 C 
ENDROOT
BRANCH   1   2
ATOM      2  C   UNL A   1      31.543  27.860  27.173  1.00  0.00     0.023 C 
BRANCH   2   3
ATOM      3  C   UNL A   1      31.138  26.700  26.270  1.00  0.00     0.116 C 
BRANCH   3   4
ATOM      4  N   UNL A   1      31.313  25.384  26.864  1.00  0.00    -0.352 N 
ATOM      5  O   UNL A   1      32.290  23.412  27.300  1.00  0.00    -0.270 OA
ATOM      6  C   UNL A   1      32.140  24.349  26.518  1.00  0.00     0.251 C 
ATOM      7  H   UNL A   1      30.742  25.207  27.646  1.00  0.00     0.163 HD
BRANCH   6   8
ATOM      8  C   UNL A   1      32.953  24.359  25.267  1.00  0.00     0.067 C 
ATOM      9  C   UNL A   1      34.261  24.663  25.287  1.00  0.00     0.025 C 
ATOM     10  C   UNL A   1      32.463  23.370  24.243  1.00  0.00     0.314 C 
ATOM     11  C   UNL A   1      35.137  23.511  24.970  1.00  0.00     0.019 A 
ATOM     12  O   UNL A   1      33.232  22.143  24.302  1.00  0.00    -0.475 OA
ATOM     13  C   UNL A   1      36.473  23.604  25.371  1.00  0.00     0.032 A 
ATOM     14  C   UNL A   1      34.556  22.254  24.674  1.00  0.00     0.135 A 
ATOM     15  C   UNL A   1      37.203  22.440  25.558  1.00  0.00     0.042 A 
ATOM     16  C   UNL A   1      35.274  21.065  24.924  1.00  0.00     0.026 A 
ATOM     17  Cl  UNL A   1      38.793  22.533  26.208  1.00  0.00    -0.084 Cl
ATOM     18  C   UNL A   1      36.615  21.191  25.352  1.00  0.00     0.033 A 
BRANCH  10  19
ATOM     19  C   UNL A   1      32.437  23.996  22.833  1.00  0.00     0.429 C 
ATOM     20  F   UNL A   1      32.945  23.151  21.905  1.00  0.00    -0.167 F 
ATOM     21  F   UNL A   1      31.171  24.290  22.446  1.00  0.00    -0.167 F 
ATOM     22  F   UNL A   1      33.148  25.147  22.759  1.00  0.00    -0.167 F 
ENDBRANCH  10  19
BRANCH  16  23
ATOM     23  C   UNL A   1      34.641  19.723  24.937  1.00  0.00    -0.015 A 
ATOM     24  C   UNL A   1      35.389  18.591  24.555  1.00  0.00     0.010 A 
ATOM     25  C   UNL A   1      33.308  19.517  25.327  1.00  0.00     0.010 A 
ATOM     26  C   UNL A   1      34.829  17.310  24.540  1.00  0.00     0.021 A 
ATOM     27  C   UNL A   1      32.746  18.233  25.324  1.00  0.00     0.021 A 
ATOM     28  C   UNL A   1      33.507  17.136  24.925  1.00  0.00     0.041 A 
ATOM     29  Cl  UNL A   1      32.815  15.562  24.904  1.00  0.00    -0.084 Cl
ENDBRANCH  16  23
ENDBRANCH   6   8
ENDBRANCH   3   4
ENDBRANCH   2   3
ENDBRANCH   1   2
BRANCH   1  30
ATOM     30  C   UNL A   1      33.775  29.189  27.230  1.00  0.00     0.116 C 
BRANCH  30  31
ATOM     31  N   UNL A   1      33.819  30.414  28.013  1.00  0.00    -0.352 N 
ATOM     32  C   UNL A   1      34.879  30.947  28.721  1.00  0.00     0.251 C 
ATOM     33  H   UNL A   1      32.982  30.933  28.042  1.00  0.00     0.163 HD
ATOM     34  O   UNL A   1      34.745  31.999  29.327  1.00  0.00    -0.269 OA
BRANCH  32  35
ATOM     35  C   UNL A   1      36.171  30.222  28.774  1.00  0.00     0.039 A 
ATOM     36  C   UNL A   1      36.997  30.249  27.646  1.00  0.00     0.014 A 
ATOM     37  C   UNL A   1      36.590  29.563  29.932  1.00  0.00     0.014 A 
ATOM     38  C   UNL A   1      38.284  29.711  27.719  1.00  0.00     0.010 A 
ATOM     39  C   UNL A   1      37.890  29.075  30.024  1.00  0.00     0.010 A 
ATOM     40  C   UNL A   1      38.756  29.170  28.926  1.00  0.00    -0.014 A 
BRANCH  40  41
ATOM     41  C   UNL A   1      40.182  28.802  29.090  1.00  0.00     0.031 A 
ATOM     42  C   UNL A   1      41.168  29.766  29.676  1.00  0.00     0.074 A 
ATOM     43  C   UNL A   1      40.594  27.611  28.618  1.00  0.00     0.049 A 
ATOM     44  N   UNL A   1      42.442  29.594  29.920  1.00  0.00    -0.248 NA
ATOM     45  C   UNL A   1      40.666  31.107  30.007  1.00  0.00     0.031 C 
ATOM     46  C   UNL A   1      39.738  26.627  27.948  1.00  0.00     0.029 A 
ATOM     47  N   UNL A   1      41.833  27.024  28.619  1.00  0.00    -0.354 N 
ATOM     48  C   UNL A   1      42.896  30.800  30.435  1.00  0.00     0.074 A 
ATOM     49  C   UNL A   1      41.772  31.714  30.416  1.00  0.00     0.031 C 
ATOM     50  C   UNL A   1      40.470  25.548  27.635  1.00  0.00     0.029 A 
ATOM     51  C   UNL A   1      41.848  25.769  28.062  1.00  0.00     0.049 A 
ATOM     52  H   UNL A   1      42.636  27.462  28.984  1.00  0.00     0.167 HD
ATOM     53  C   UNL A   1      44.131  31.109  30.898  1.00  0.00     0.037 A 
ATOM     54  C   UNL A   1      42.856  24.889  27.928  1.00  0.00     0.037 A 
ATOM     55  C   UNL A   1      45.243  30.191  30.904  1.00  0.00     0.049 A 
ATOM     56  C   UNL A   1      44.213  25.249  28.461  1.00  0.00     0.074 A 
ATOM     57  C   UNL A   1      46.513  30.375  31.422  1.00  0.00     0.029 A 
ATOM     58  N   UNL A   1      45.220  28.921  30.345  1.00  0.00    -0.354 N 
ATOM     59  N   UNL A   1      44.601  26.350  29.060  1.00  0.00    -0.248 NA
ATOM     60  C   UNL A   1      45.267  24.239  28.314  1.00  0.00     0.031 C 
ATOM     61  C   UNL A   1      47.274  29.235  31.131  1.00  0.00     0.029 A 
ATOM     62  C   UNL A   1      46.463  28.320  30.479  1.00  0.00     0.049 A 
ATOM     63  H   UNL A   1      44.436  28.507  29.918  1.00  0.00     0.167 HD
ATOM     64  C   UNL A   1      45.935  26.153  29.389  1.00  0.00     0.074 A 
ATOM     65  C   UNL A   1      46.281  24.820  28.937  1.00  0.00     0.031 C 
ATOM     66  C   UNL A   1      46.794  26.996  30.013  1.00  0.00     0.037 A 
BRANCH  53  67
ATOM     67  C   UNL A   1      44.341  32.498  31.433  1.00  0.00     0.057 A 
ATOM     68  C   UNL A   1      44.777  33.547  30.612  1.00  0.00     0.134 A 
ATOM     69  C   UNL A   1      44.087  32.796  32.777  1.00  0.00     0.134 A 
ATOM     70  F   UNL A   1      45.047  33.330  29.316  1.00  0.00    -0.206 F 
ATOM     71  C   UNL A   1      44.987  34.833  31.116  1.00  0.00     0.040 A 
ATOM     72  C   UNL A   1      44.265  34.084  33.287  1.00  0.00     0.040 A 
ATOM     73  F   UNL A   1      43.660  31.842  33.618  1.00  0.00    -0.206 F 
ATOM     74  C   UNL A   1      44.724  35.104  32.458  1.00  0.00     0.006 A 
ENDBRANCH  53  67
BRANCH  54  75
ATOM     75  C   UNL A   1      42.600  23.556  27.328  1.00  0.00     0.057 A 
ATOM     76  C   UNL A   1      42.210  22.475  28.128  1.00  0.00     0.134 A 
ATOM     77  C   UNL A   1      42.728  23.329  25.953  1.00  0.00     0.134 A 
ATOM     78  F   UNL A   1      42.084  22.629  29.455  1.00  0.00    -0.206 F 
ATOM     79  C   UNL A   1      41.970  21.212  27.585  1.00  0.00     0.040 A 
ATOM     80  C   UNL A   1      42.469  22.076  25.394  1.00  0.00     0.040 A 
ATOM     81  F   UNL A   1      43.087  24.326  25.132  1.00  0.00    -0.206 F 
ATOM     82  C   UNL A   1      42.094  21.012  26.212  1.00  0.00     0.006 A 
ENDBRANCH  54  75
BRANCH  66  83
ATOM     83  C   UNL A   1      48.183  26.482  30.262  1.00  0.00     0.057 A 
ATOM     84  C   UNL A   1      48.529  25.826  31.450  1.00  0.00     0.134 A 
ATOM     85  C   UNL A   1      49.188  26.651  29.301  1.00  0.00     0.134 A 
ATOM     86  F   UNL A   1      47.617  25.646  32.419  1.00  0.00    -0.206 F 
ATOM     87  C   UNL A   1      49.833  25.389  31.689  1.00  0.00     0.040 A 
ATOM     88  C   UNL A   1      50.488  26.191  29.516  1.00  0.00     0.040 A 
ATOM     89  F   UNL A   1      48.922  27.264  28.137  1.00  0.00    -0.206 F 
ATOM     90  C   UNL A   1      50.816  25.569  30.718  1.00  0.00     0.006 A 
ENDBRANCH  66  83
ENDBRANCH  40  41
ENDBRANCH  32  35
ENDBRANCH  30  31
ENDBRANCH   1  30
TORSDOF 13
ENDMDL
MODEL 2
REMARK VINA RESULT:     -13.1      0.557      6.015
REMARK SMILES O=C(NCCCCNC(=O)c1ccc(-c2c3nc(c(-c4c(F)cccc4F)c4ccc([nH]4)c(-c4c(F)cccc4F)c4nc(c(-c5c(F)cccc5F)c5ccc2[nH]5)C=C4)C=C3)cc1)C1=Cc2cc(Cl)cc(-c3ccc(Cl)cc3)c2O[C@@H]1C(F)(F)F
REMARK SMILES IDX 6 1 5 2 4 3 3 4 1 5 2 6 65 8 66 9 82 10 67 11 81 12 68 13
REMARK SMILES IDX 80 14 69 15 72 16 70 17 71 18 83 19 84 20 85 21 86 22 73 23
REMARK SMILES IDX 74 24 79 25 75 26 78 27 76 28 77 29 7 30 8 31 9 32 10 34
REMARK SMILES IDX 11 35 12 36 64 37 13 38 63 39 14 40 15 41 16 42 57 43 17 44
REMARK SMILES IDX 62 45 56 46 58 47 18 48 61 49 55 50 54 51 19 53 45 54 28 55
REMARK SMILES IDX 44 56 29 57 32 58 43 59 59 60 30 61 31 62 42 64 60 65 33 66
REMARK SMILES IDX 20 67 21 68 26 69 22 70 23 71 25 72 27 73 24 74 46 75 47 76
REMARK SMILES IDX 52 77 48 78 49 79 51 80 53 81 50 82 34 83 35 84 40 85 36 86
REMARK SMILES IDX 37 87 39 88 41 89 38 90
REMARK H PARENT 3 7 8 33 58 52 32 63
REMARK Flexibility Score: inf
ROOT
ATOM      1  C   UNL A   1      32.645  28.741  26.469  1.00  0.00     0.023 C 
ENDROOT
BRANCH   1   2
ATOM      2  C   UNL A   1      31.597  27.838  27.111  1.00  0.00     0.023 C 
BRANCH   2   3
ATOM      3  C   UNL A   1      31.133  26.661  26.259  1.00  0.00     0.116 C 
BRANCH   3   4
ATOM      4  N   UNL A   1      31.322  25.358  26.876  1.00  0.00    -0.352 N 
ATOM      5  O   UNL A   1      32.316  23.401  27.341  1.00  0.00    -0.270 OA
ATOM      6  C   UNL A   1      32.153  24.323  26.542  1.00  0.00     0.251 C 
ATOM      7  H   UNL A   1      30.757  25.192  27.664  1.00  0.00     0.163 HD
BRANCH   6   8
ATOM      8  C   UNL A   1      32.958  24.315  25.286  1.00  0.00     0.067 C 
ATOM      9  C   UNL A   1      34.268  24.609  25.295  1.00  0.00     0.025 C 
ATOM     10  C   UNL A   1      32.453  23.322  24.273  1.00  0.00     0.314 C 
ATOM     11  C   UNL A   1      35.132  23.446  24.981  1.00  0.00     0.019 A 
ATOM     12  O   UNL A   1      33.211  22.089  24.338  1.00  0.00    -0.475 OA
ATOM     13  C   UNL A   1      36.472  23.532  25.372  1.00  0.00     0.032 A 
ATOM     14  C   UNL A   1      34.539  22.192  24.700  1.00  0.00     0.135 A 
ATOM     15  C   UNL A   1      37.194  22.363  25.564  1.00  0.00     0.042 A 
ATOM     16  C   UNL A   1      35.249  20.999  24.955  1.00  0.00     0.026 A 
ATOM     17  Cl  UNL A   1      38.789  22.448  26.202  1.00  0.00    -0.084 Cl
ATOM     18  C   UNL A   1      36.594  21.117  25.372  1.00  0.00     0.033 A 
BRANCH  10  19
ATOM     19  C   UNL A   1      32.422  23.936  22.859  1.00  0.00     0.429 C 
ATOM     20  F   UNL A   1      32.944  23.092  21.939  1.00  0.00    -0.167 F 
ATOM     21  F   UNL A   1      31.153  24.211  22.466  1.00  0.00    -0.167 F 
ATOM     22  F   UNL A   1      33.118  25.096  22.778  1.00  0.00    -0.167 F 
ENDBRANCH  10  19
BRANCH  16  23
ATOM     23  C   UNL A   1      34.604  19.663  24.983  1.00  0.00    -0.015 A 
ATOM     24  C   UNL A   1      35.347  18.519  24.625  1.00  0.00     0.010 A 
ATOM     25  C   UNL A   1      33.267  19.474  25.365  1.00  0.00     0.010 A 
ATOM     26  C   UNL A   1      34.776  17.243  24.626  1.00  0.00     0.021 A 
ATOM     27  C   UNL A   1      32.694  18.194  25.377  1.00  0.00     0.021 A 
ATOM     28  C   UNL A   1      33.450  17.086  25.002  1.00  0.00     0.041 A 
ATOM     29  Cl  UNL A   1      32.745  15.517  25.000  1.00  0.00    -0.084 Cl
ENDBRANCH  16  23
ENDBRANCH   6   8
ENDBRANCH   3   4
ENDBRANCH   2   3
ENDBRANCH   1   2
BRANCH   1  30
ATOM     30  C   UNL A   1      33.941  28.950  27.251  1.00  0.00     0.116 C 
BRANCH  30  31
ATOM     31  N   UNL A   1      34.022  30.193  28.001  1.00  0.00    -0.352 N 
ATOM     32  C   UNL A   1      35.117  30.749  28.633  1.00  0.00     0.251 C 
ATOM     33  H   UNL A   1      33.184  30.707  28.067  1.00  0.00     0.163 HD
ATOM     34  O   UNL A   1      35.012  31.814  29.222  1.00  0.00    -0.269 OA
BRANCH  32  35
ATOM     35  C   UNL A   1      36.416  30.033  28.626  1.00  0.00     0.039 A 
ATOM     36  C   UNL A   1      37.217  30.117  27.483  1.00  0.00     0.014 A 
ATOM     37  C   UNL A   1      36.864  29.328  29.745  1.00  0.00     0.014 A 
ATOM     38  C   UNL A   1      38.509  29.587  27.506  1.00  0.00     0.010 A 
ATOM     39  C   UNL A   1      38.169  28.847  29.788  1.00  0.00     0.010 A 
ATOM     40  C   UNL A   1      39.011  28.998  28.677  1.00  0.00    -0.014 A 
BRANCH  40  41
ATOM     41  C   UNL A   1      40.443  28.635  28.794  1.00  0.00     0.031 A 
ATOM     42  C   UNL A   1      40.934  27.279  28.388  1.00  0.00     0.074 A 
ATOM     43  C   UNL A   1      41.284  29.522  29.359  1.00  0.00     0.049 A 
ATOM     44  N   UNL A   1      42.156  26.810  28.394  1.00  0.00    -0.248 NA
ATOM     45  C   UNL A   1      39.919  26.313  27.943  1.00  0.00     0.031 C 
ATOM     46  C   UNL A   1      40.900  30.840  29.872  1.00  0.00     0.029 A 
ATOM     47  N   UNL A   1      42.631  29.451  29.604  1.00  0.00    -0.354 N 
ATOM     48  C   UNL A   1      42.059  25.498  27.952  1.00  0.00     0.074 A 
ATOM     49  C   UNL A   1      40.653  25.228  27.740  1.00  0.00     0.031 C 
ATOM     50  C   UNL A   1      41.992  31.465  30.339  1.00  0.00     0.029 A 
ATOM     51  C   UNL A   1      43.146  30.588  30.177  1.00  0.00     0.049 A 
ATOM     52  H   UNL A   1      43.177  28.660  29.389  1.00  0.00     0.167 HD
ATOM     53  C   UNL A   1      43.056  24.609  27.725  1.00  0.00     0.037 A 
ATOM     54  C   UNL A   1      44.411  30.895  30.517  1.00  0.00     0.037 A 
ATOM     55  C   UNL A   1      44.453  24.889  27.948  1.00  0.00     0.049 A 
ATOM     56  C   UNL A   1      45.500  29.897  30.244  1.00  0.00     0.074 A 
ATOM     57  C   UNL A   1      45.549  24.089  27.677  1.00  0.00     0.029 A 
ATOM     58  N   UNL A   1      44.943  26.056  28.516  1.00  0.00    -0.354 N 
ATOM     59  N   UNL A   1      45.413  28.702  29.709  1.00  0.00    -0.248 NA
ATOM     60  C   UNL A   1      46.865  30.297  30.608  1.00  0.00     0.031 C 
ATOM     61  C   UNL A   1      46.697  24.751  28.129  1.00  0.00     0.029 A 
ATOM     62  C   UNL A   1      46.323  25.986  28.633  1.00  0.00     0.049 A 
ATOM     63  H   UNL A   1      44.390  26.823  28.795  1.00  0.00     0.167 HD
ATOM     64  C   UNL A   1      46.713  28.220  29.643  1.00  0.00     0.074 A 
ATOM     65  C   UNL A   1      47.569  29.261  30.177  1.00  0.00     0.031 C 
ATOM     66  C   UNL A   1      47.158  27.027  29.177  1.00  0.00     0.037 A 
BRANCH  53  67
ATOM     67  C   UNL A   1      42.667  23.250  27.215  1.00  0.00     0.057 A 
ATOM     68  C   UNL A   1      42.697  22.937  25.848  1.00  0.00     0.134 A 
ATOM     69  C   UNL A   1      42.274  22.236  28.097  1.00  0.00     0.134 A 
ATOM     70  F   UNL A   1      43.055  23.864  24.946  1.00  0.00    -0.206 F 
ATOM     71  C   UNL A   1      42.319  21.678  25.376  1.00  0.00     0.040 A 
ATOM     72  C   UNL A   1      41.922  20.965  27.641  1.00  0.00     0.040 A 
ATOM     73  F   UNL A   1      42.229  22.463  29.419  1.00  0.00    -0.206 F 
ATOM     74  C   UNL A   1      41.935  20.686  26.276  1.00  0.00     0.006 A 
ENDBRANCH  53  67
BRANCH  54  75
ATOM     75  C   UNL A   1      44.723  32.230  31.082  1.00  0.00     0.057 A 
ATOM     76  C   UNL A   1      44.675  32.452  32.463  1.00  0.00     0.134 A 
ATOM     77  C   UNL A   1      45.086  33.309  30.267  1.00  0.00     0.134 A 
ATOM     78  F   UNL A   1      44.321  31.459  33.293  1.00  0.00    -0.206 F 
ATOM     79  C   UNL A   1      44.960  33.702  33.014  1.00  0.00     0.040 A 
ATOM     80  C   UNL A   1      45.396  34.559  30.806  1.00  0.00     0.040 A 
ATOM     81  F   UNL A   1      45.162  33.158  28.936  1.00  0.00    -0.206 F 
ATOM     82  C   UNL A   1      45.327  34.759  32.184  1.00  0.00     0.006 A 
ENDBRANCH  54  75
BRANCH  66  83
ATOM     83  C   UNL A   1      48.643  26.803  29.206  1.00  0.00     0.057 A 
ATOM     84  C   UNL A   1      49.479  27.234  28.167  1.00  0.00     0.134 A 
ATOM     85  C   UNL A   1      49.243  26.144  30.287  1.00  0.00     0.134 A 
ATOM     86  F   UNL A   1      48.965  27.857  27.095  1.00  0.00    -0.206 F 
ATOM     87  C   UNL A   1      50.852  26.984  28.184  1.00  0.00     0.040 A 
ATOM     88  C   UNL A   1      50.619  25.916  30.330  1.00  0.00     0.040 A 
ATOM     89  F   UNL A   1      48.503  25.713  31.319  1.00  0.00    -0.206 F 
ATOM     90  C   UNL A   1      51.426  26.326  29.270  1.00  0.00     0.006 A 
ENDBRANCH  66  83
ENDBRANCH  40  41
ENDBRANCH  32  35
ENDBRANCH  30  31
ENDBRANCH   1  30
TORSDOF 13
ENDMDL
MODEL 3
REMARK VINA RESULT:     -13.1      1.534      6.240
REMARK SMILES O=C(NCCCCNC(=O)c1ccc(-c2c3nc(c(-c4c(F)cccc4F)c4ccc([nH]4)c(-c4c(F)cccc4F)c4nc(c(-c5c(F)cccc5F)c5ccc2[nH]5)C=C4)C=C3)cc1)C1=Cc2cc(Cl)cc(-c3ccc(Cl)cc3)c2O[C@@H]1C(F)(F)F
REMARK SMILES IDX 6 1 5 2 4 3 3 4 1 5 2 6 65 8 66 9 82 10 67 11 81 12 68 13
REMARK SMILES IDX 80 14 69 15 72 16 70 17 71 18 83 19 84 20 85 21 86 22 73 23
REMARK SMILES IDX 74 24 79 25 75 26 78 27 76 28 77 29 7 30 8 31 9 32 10 34
REMARK SMILES IDX 11 35 12 36 64 37 13 38 63 39 14 40 15 41 16 42 57 43 17 44
REMARK SMILES IDX 62 45 56 46 58 47 18 48 61 49 55 50 54 51 19 53 45 54 28 55
REMARK SMILES IDX 44 56 29 57 32 58 43 59 59 60 30 61 31 62 42 64 60 65 33 66
REMARK SMILES IDX 20 67 21 68 26 69 22 70 23 71 25 72 27 73 24 74 46 75 47 76
REMARK SMILES IDX 52 77 48 78 49 79 51 80 53 81 50 82 34 83 35 84 40 85 36 86
REMARK SMILES IDX 37 87 39 88 41 89 38 90
REMARK H PARENT 3 7 8 33 58 52 32 63
REMARK Flexibility Score: inf
ROOT
ATOM      1  C   UNL A   1      33.054  29.217  26.924  1.00  0.00     0.023 C 
ENDROOT
BRANCH   1   2
ATOM      2  C   UNL A   1      32.210  28.050  27.426  1.00  0.00     0.023 C 
BRANCH   2   3
ATOM      3  C   UNL A   1      31.764  27.054  26.360  1.00  0.00     0.116 C 
BRANCH   3   4
ATOM      4  N   UNL A   1      31.669  25.678  26.823  1.00  0.00    -0.352 N 
ATOM      5  O   UNL A   1      32.242  23.524  27.073  1.00  0.00    -0.270 OA
ATOM      6  C   UNL A   1      32.297  24.543  26.386  1.00  0.00     0.251 C 
ATOM      7  H   UNL A   1      31.050  25.541  27.575  1.00  0.00     0.163 HD
BRANCH   6   8
ATOM      8  C   UNL A   1      33.138  24.517  25.154  1.00  0.00     0.067 C 
ATOM      9  C   UNL A   1      34.454  24.775  25.202  1.00  0.00     0.025 C 
ATOM     10  C   UNL A   1      32.636  23.539  24.124  1.00  0.00     0.314 C 
ATOM     11  C   UNL A   1      35.296  23.591  24.911  1.00  0.00     0.019 A 
ATOM     12  O   UNL A   1      33.360  22.286  24.208  1.00  0.00    -0.475 OA
ATOM     13  C   UNL A   1      36.625  23.641  25.340  1.00  0.00     0.032 A 
ATOM     14  C   UNL A   1      34.679  22.353  24.608  1.00  0.00     0.135 A 
ATOM     15  C   UNL A   1      37.311  22.453  25.551  1.00  0.00     0.042 A 
ATOM     16  C   UNL A   1      35.349  21.142  24.882  1.00  0.00     0.026 A 
ATOM     17  Cl  UNL A   1      38.888  22.495  26.235  1.00  0.00    -0.084 Cl
ATOM     18  C   UNL A   1      36.684  21.224  25.338  1.00  0.00     0.033 A 
BRANCH  10  19
ATOM     19  C   UNL A   1      32.663  24.156  22.711  1.00  0.00     0.429 C 
ATOM     20  F   UNL A   1      33.135  23.279  21.795  1.00  0.00    -0.167 F 
ATOM     21  F   UNL A   1      31.421  24.519  22.306  1.00  0.00    -0.167 F 
ATOM     22  F   UNL A   1      33.438  25.265  22.640  1.00  0.00    -0.167 F 
ENDBRANCH  10  19
BRANCH  16  23
ATOM     23  C   UNL A   1      34.669  19.823  24.887  1.00  0.00    -0.015 A 
ATOM     24  C   UNL A   1      35.385  18.663  24.524  1.00  0.00     0.010 A 
ATOM     25  C   UNL A   1      33.323  19.665  25.252  1.00  0.00     0.010 A 
ATOM     26  C   UNL A   1      34.781  17.403  24.504  1.00  0.00     0.021 A 
ATOM     27  C   UNL A   1      32.717  18.401  25.244  1.00  0.00     0.021 A 
ATOM     28  C   UNL A   1      33.447  17.277  24.865  1.00  0.00     0.041 A 
ATOM     29  Cl  UNL A   1      32.701  15.728  24.836  1.00  0.00    -0.084 Cl
ENDBRANCH  16  23
ENDBRANCH   6   8
ENDBRANCH   3   4
ENDBRANCH   2   3
ENDBRANCH   1   2
BRANCH   1  30
ATOM     30  C   UNL A   1      34.472  29.328  27.482  1.00  0.00     0.116 C 
BRANCH  30  31
ATOM     31  N   UNL A   1      34.659  30.342  28.507  1.00  0.00    -0.352 N 
ATOM     32  C   UNL A   1      35.808  30.662  29.204  1.00  0.00     0.251 C 
ATOM     33  H   UNL A   1      33.860  30.872  28.734  1.00  0.00     0.163 HD
ATOM     34  O   UNL A   1      35.793  31.554  30.037  1.00  0.00    -0.269 OA
BRANCH  32  35
ATOM     35  C   UNL A   1      37.054  29.895  28.964  1.00  0.00     0.039 A 
ATOM     36  C   UNL A   1      37.625  29.932  27.688  1.00  0.00     0.014 A 
ATOM     37  C   UNL A   1      37.682  29.186  29.991  1.00  0.00     0.014 A 
ATOM     38  C   UNL A   1      38.877  29.352  27.474  1.00  0.00     0.010 A 
ATOM     39  C   UNL A   1      38.953  28.654  29.793  1.00  0.00     0.010 A 
ATOM     40  C   UNL A   1      39.572  28.758  28.540  1.00  0.00    -0.014 A 
BRANCH  40  41
ATOM     41  C   UNL A   1      40.985  28.340  28.390  1.00  0.00     0.031 A 
ATOM     42  C   UNL A   1      41.343  26.921  28.064  1.00  0.00     0.074 A 
ATOM     43  C   UNL A   1      41.951  29.244  28.640  1.00  0.00     0.049 A 
ATOM     44  N   UNL A   1      42.525  26.395  27.865  1.00  0.00    -0.248 NA
ATOM     45  C   UNL A   1      40.233  25.962  27.976  1.00  0.00     0.031 C 
ATOM     46  C   UNL A   1      41.720  30.632  29.051  1.00  0.00     0.029 A 
ATOM     47  N   UNL A   1      43.317  29.135  28.594  1.00  0.00    -0.354 N 
ATOM     48  C   UNL A   1      42.303  25.046  27.626  1.00  0.00     0.074 A 
ATOM     49  C   UNL A   1      40.878  24.825  27.759  1.00  0.00     0.031 C 
ATOM     50  C   UNL A   1      42.902  31.252  29.186  1.00  0.00     0.029 A 
ATOM     51  C   UNL A   1      43.972  30.305  28.892  1.00  0.00     0.049 A 
ATOM     52  H   UNL A   1      43.783  28.298  28.369  1.00  0.00     0.167 HD
ATOM     53  C   UNL A   1      43.204  24.087  27.304  1.00  0.00     0.037 A 
ATOM     54  C   UNL A   1      45.287  30.586  28.907  1.00  0.00     0.037 A 
ATOM     55  C   UNL A   1      44.622  24.321  27.181  1.00  0.00     0.049 A 
ATOM     56  C   UNL A   1      46.265  29.509  28.535  1.00  0.00     0.074 A 
ATOM     57  C   UNL A   1      45.612  23.440  26.784  1.00  0.00     0.029 A 
ATOM     58  N   UNL A   1      45.252  25.522  27.475  1.00  0.00    -0.354 N 
ATOM     59  N   UNL A   1      46.035  28.265  28.189  1.00  0.00    -0.248 NA
ATOM     60  C   UNL A   1      47.686  29.880  28.540  1.00  0.00     0.031 C 
ATOM     61  C   UNL A   1      46.847  24.093  26.888  1.00  0.00     0.029 A 
ATOM     62  C   UNL A   1      46.621  25.397  27.298  1.00  0.00     0.049 A 
ATOM     63  H   UNL A   1      44.793  26.343  27.767  1.00  0.00     0.167 HD
ATOM     64  C   UNL A   1      47.276  27.713  27.905  1.00  0.00     0.074 A 
ATOM     65  C   UNL A   1      48.253  28.766  28.104  1.00  0.00     0.031 C 
ATOM     66  C   UNL A   1      47.581  26.452  27.511  1.00  0.00     0.037 A 
BRANCH  53  67
ATOM     67  C   UNL A   1      42.680  22.699  27.068  1.00  0.00     0.057 A 
ATOM     68  C   UNL A   1      42.276  21.871  28.125  1.00  0.00     0.134 A 
ATOM     69  C   UNL A   1      42.560  22.187  25.770  1.00  0.00     0.134 A 
ATOM     70  F   UNL A   1      42.373  22.294  29.395  1.00  0.00    -0.206 F 
ATOM     71  C   UNL A   1      41.805  20.576  27.903  1.00  0.00     0.040 A 
ATOM     72  C   UNL A   1      42.063  20.904  25.532  1.00  0.00     0.040 A 
ATOM     73  F   UNL A   1      42.921  22.927  24.710  1.00  0.00    -0.206 F 
ATOM     74  C   UNL A   1      41.693  20.091  26.601  1.00  0.00     0.006 A 
ENDBRANCH  53  67
BRANCH  54  75
ATOM     75  C   UNL A   1      45.747  31.962  29.215  1.00  0.00     0.057 A 
ATOM     76  C   UNL A   1      45.865  32.921  28.202  1.00  0.00     0.134 A 
ATOM     77  C   UNL A   1      46.068  32.358  30.519  1.00  0.00     0.134 A 
ATOM     78  F   UNL A   1      45.584  32.596  26.931  1.00  0.00    -0.206 F 
ATOM     79  C   UNL A   1      46.302  34.219  28.469  1.00  0.00     0.040 A 
ATOM     80  C   UNL A   1      46.484  33.660  30.804  1.00  0.00     0.040 A 
ATOM     81  F   UNL A   1      45.965  31.490  31.536  1.00  0.00    -0.206 F 
ATOM     82  C   UNL A   1      46.607  34.592  29.776  1.00  0.00     0.006 A 
ENDBRANCH  54  75
BRANCH  66  83
ATOM     83  C   UNL A   1      49.030  26.159  27.245  1.00  0.00     0.057 A 
ATOM     84  C   UNL A   1      49.893  25.712  28.254  1.00  0.00     0.134 A 
ATOM     85  C   UNL A   1      49.568  26.330  25.964  1.00  0.00     0.134 A 
ATOM     86  F   UNL A   1      49.444  25.543  29.508  1.00  0.00    -0.206 F 
ATOM     87  C   UNL A   1      51.247  25.482  28.008  1.00  0.00     0.040 A 
ATOM     88  C   UNL A   1      50.913  26.073  25.697  1.00  0.00     0.040 A 
ATOM     89  F   UNL A   1      48.795  26.747  24.949  1.00  0.00    -0.206 F 
ATOM     90  C   UNL A   1      51.760  25.659  26.724  1.00  0.00     0.006 A 
ENDBRANCH  66  83
ENDBRANCH  40  41
ENDBRANCH  32  35
ENDBRANCH  30  31
ENDBRANCH   1  30
TORSDOF 13
ENDMDL
