MODEL 1
REMARK VINA RESULT:     -11.4      0.000      0.000
REMARK SMILES CC[C@](C)(NS(=O)(=O)c1cc(C)c(Br)s1)C(=O)NCCCCNC(=O)c1ccc(-c2c3nc(c(-c4c(F)cccc4F)c4ccc([nH]4)c(-c4c(F)cccc4F)c4nc(c(-c5c(F)cccc5F)c5ccc2[nH]5)C=C4)C=C3)cc1
REMARK SMILES IDX 20 1 19 2 18 3 16 4 17 5 3 7 4 8 2 9 1 10 5 11 6 13 7 14
REMARK SMILES IDX 8 15 9 16 10 17 15 18 11 19 13 20 12 21 14 22 21 23 22 24
REMARK SMILES IDX 23 25 24 26 25 28 26 29 27 30 79 31 28 32 78 33 29 34 30 35
REMARK SMILES IDX 31 36 72 37 32 38 77 39 71 40 73 41 33 42 76 43 70 44 69 45
REMARK SMILES IDX 34 47 60 48 43 49 59 50 44 51 47 52 58 53 74 54 45 55 46 56
REMARK SMILES IDX 57 58 75 59 48 60 35 61 36 62 41 63 37 64 38 65 40 66 42 67
REMARK SMILES IDX 39 68 61 69 62 70 67 71 63 72 64 73 66 74 68 75 65 76 49 77
REMARK SMILES IDX 50 78 55 79 51 80 52 81 54 82 56 83 53 84
REMARK H PARENT 18 6 5 12 23 27 73 46 47 57
REMARK Flexibility Score: inf
ROOT
ATOM      1  C   UNL A   1      31.640  30.581  26.078  1.00  0.00     0.023 C 
ENDROOT
BRANCH   1   2
ATOM      2  C   UNL A   1      33.055  29.994  26.136  1.00  0.00     0.116 C 
BRANCH   2   3
ATOM      3  N   UNL A   1      33.696  29.617  24.884  1.00  0.00    -0.354 N 
ATOM      4  C   UNL A   1      33.509  28.563  24.032  1.00  0.00     0.241 C 
ATOM      5  O   UNL A   1      33.708  28.816  22.837  1.00  0.00    -0.273 OA
ATOM      6  H   UNL A   1      34.400  30.243  24.594  1.00  0.00     0.163 HD
BRANCH   4   7
ATOM      7  C   UNL A   1      33.102  27.142  24.478  1.00  0.00     0.108 C 
ATOM      8  C   UNL A   1      33.904  26.773  25.766  1.00  0.00     0.040 C 
BRANCH   7   9
ATOM      9  C   UNL A   1      33.443  26.126  23.337  1.00  0.00     0.030 C 
ATOM     10  C   UNL A   1      34.289  24.901  23.690  1.00  0.00     0.006 C 
ENDBRANCH   7   9
BRANCH   7  11
ATOM     11  N   UNL A   1      31.707  26.929  24.922  1.00  0.00    -0.195 NA
ATOM     12  H   UNL A   1      31.164  27.370  24.181  1.00  0.00     0.142 HD
BRANCH  11  13
ATOM     13  S   UNL A   1      30.796  25.599  25.305  1.00  0.00     0.251 S 
ATOM     14  O   UNL A   1      30.102  25.966  26.521  1.00  0.00    -0.206 OA
ATOM     15  O   UNL A   1      30.006  25.324  24.123  1.00  0.00    -0.206 OA
BRANCH  13  16
ATOM     16  C   UNL A   1      31.541  24.037  25.691  1.00  0.00     0.136 A 
ATOM     17  C   UNL A   1      32.263  23.624  26.807  1.00  0.00     0.038 A 
ATOM     18  S   UNL A   1      31.273  22.704  24.664  1.00  0.00    -0.115 S 
ATOM     19  C   UNL A   1      32.884  22.333  26.641  1.00  0.00    -0.025 A 
ATOM     20  C   UNL A   1      32.511  21.817  25.418  1.00  0.00     0.074 A 
ATOM     21  C   UNL A   1      33.853  21.727  27.608  1.00  0.00     0.046 C 
ATOM     22  Br  UNL A   1      33.278  20.298  24.625  1.00  0.00    -0.039 Br
ENDBRANCH  13  16
ENDBRANCH  11  13
ENDBRANCH   7  11
ENDBRANCH   4   7
ENDBRANCH   2   3
ENDBRANCH   1   2
BRANCH   1  23
ATOM     23  C   UNL A   1      31.403  31.980  26.639  1.00  0.00     0.023 C 
BRANCH  23  24
ATOM     24  C   UNL A   1      32.620  32.606  27.274  1.00  0.00     0.116 C 
BRANCH  24  25
ATOM     25  N   UNL A   1      32.447  34.022  27.629  1.00  0.00    -0.352 N 
ATOM     26  C   UNL A   1      33.035  34.729  28.684  1.00  0.00     0.251 C 
ATOM     27  H   UNL A   1      31.842  34.538  27.050  1.00  0.00     0.163 HD
ATOM     28  O   UNL A   1      32.588  35.776  29.090  1.00  0.00    -0.269 OA
BRANCH  26  29
ATOM     29  C   UNL A   1      34.273  34.167  29.255  1.00  0.00     0.039 A 
ATOM     30  C   UNL A   1      34.374  33.453  30.457  1.00  0.00     0.014 A 
ATOM     31  C   UNL A   1      35.367  34.285  28.439  1.00  0.00     0.014 A 
ATOM     32  C   UNL A   1      35.605  32.857  30.755  1.00  0.00     0.010 A 
ATOM     33  C   UNL A   1      36.170  33.207  28.486  1.00  0.00     0.010 A 
ATOM     34  C   UNL A   1      36.545  32.795  29.732  1.00  0.00    -0.014 A 
BRANCH  34  35
ATOM     35  C   UNL A   1      37.889  32.262  29.771  1.00  0.00     0.031 A 
ATOM     36  C   UNL A   1      38.003  30.899  29.222  1.00  0.00     0.074 A 
ATOM     37  C   UNL A   1      38.955  33.081  29.961  1.00  0.00     0.049 A 
ATOM     38  N   UNL A   1      38.044  29.794  29.885  1.00  0.00    -0.248 NA
ATOM     39  C   UNL A   1      37.811  30.719  27.774  1.00  0.00     0.031 C 
ATOM     40  C   UNL A   1      38.995  34.548  30.115  1.00  0.00     0.029 A 
ATOM     41  N   UNL A   1      40.275  32.755  29.999  1.00  0.00    -0.354 N 
ATOM     42  C   UNL A   1      38.157  28.796  28.924  1.00  0.00     0.074 A 
ATOM     43  C   UNL A   1      37.714  29.390  27.694  1.00  0.00     0.031 C 
ATOM     44  C   UNL A   1      40.272  34.991  30.040  1.00  0.00     0.029 A 
ATOM     45  C   UNL A   1      41.149  33.840  30.016  1.00  0.00     0.049 A 
ATOM     46  H   UNL A   1      40.588  31.823  30.012  1.00  0.00     0.167 HD
ATOM     47  C   UNL A   1      38.908  27.684  29.164  1.00  0.00     0.037 A 
ATOM     48  C   UNL A   1      42.504  33.771  30.025  1.00  0.00     0.037 A 
ATOM     49  C   UNL A   1      39.293  27.646  30.560  1.00  0.00     0.049 A 
ATOM     50  C   UNL A   1      42.856  32.395  30.454  1.00  0.00     0.074 A 
ATOM     51  C   UNL A   1      38.629  27.527  31.762  1.00  0.00     0.029 A 
ATOM     52  N   UNL A   1      40.529  28.175  30.849  1.00  0.00    -0.354 N 
ATOM     53  N   UNL A   1      42.611  31.928  31.649  1.00  0.00    -0.248 NA
ATOM     54  C   UNL A   1      43.035  31.388  29.420  1.00  0.00     0.031 C 
ATOM     55  C   UNL A   1      39.343  28.368  32.669  1.00  0.00     0.029 A 
ATOM     56  C   UNL A   1      40.452  28.901  32.009  1.00  0.00     0.049 A 
ATOM     57  H   UNL A   1      41.342  28.052  30.309  1.00  0.00     0.167 HD
ATOM     58  C   UNL A   1      42.190  30.621  31.446  1.00  0.00     0.074 A 
ATOM     59  C   UNL A   1      42.578  30.312  30.070  1.00  0.00     0.031 C 
ATOM     60  C   UNL A   1      41.305  30.034  32.308  1.00  0.00     0.037 A 
BRANCH  47  61
ATOM     61  C   UNL A   1      39.667  26.886  28.123  1.00  0.00     0.057 A 
ATOM     62  C   UNL A   1      39.603  25.480  28.186  1.00  0.00     0.134 A 
ATOM     63  C   UNL A   1      40.657  27.389  27.254  1.00  0.00     0.134 A 
ATOM     64  F   UNL A   1      38.691  24.865  28.955  1.00  0.00    -0.206 F 
ATOM     65  C   UNL A   1      40.518  24.649  27.528  1.00  0.00     0.040 A 
ATOM     66  C   UNL A   1      41.548  26.566  26.557  1.00  0.00     0.040 A 
ATOM     67  F   UNL A   1      40.889  28.694  27.086  1.00  0.00    -0.206 F 
ATOM     68  C   UNL A   1      41.507  25.193  26.722  1.00  0.00     0.006 A 
ENDBRANCH  47  61
BRANCH  48  69
ATOM     69  C   UNL A   1      43.493  34.689  29.421  1.00  0.00     0.057 A 
ATOM     70  C   UNL A   1      43.748  34.691  28.043  1.00  0.00     0.134 A 
ATOM     71  C   UNL A   1      43.993  35.784  30.147  1.00  0.00     0.134 A 
ATOM     72  F   UNL A   1      43.279  33.707  27.264  1.00  0.00    -0.206 F 
ATOM     73  C   UNL A   1      44.439  35.738  27.415  1.00  0.00     0.040 A 
ATOM     74  C   UNL A   1      44.682  36.836  29.533  1.00  0.00     0.040 A 
ATOM     75  F   UNL A   1      43.746  35.907  31.459  1.00  0.00    -0.206 F 
ATOM     76  C   UNL A   1      44.895  36.823  28.160  1.00  0.00     0.006 A 
ENDBRANCH  48  69
BRANCH  60  77
ATOM     77  C   UNL A   1      41.050  30.741  33.617  1.00  0.00     0.057 A 
ATOM     78  C   UNL A   1      39.979  31.617  33.854  1.00  0.00     0.134 A 
ATOM     79  C   UNL A   1      41.842  30.411  34.720  1.00  0.00     0.134 A 
ATOM     80  F   UNL A   1      39.112  31.929  32.885  1.00  0.00    -0.206 F 
ATOM     81  C   UNL A   1      39.729  32.163  35.117  1.00  0.00     0.040 A 
ATOM     82  C   UNL A   1      41.587  30.923  35.994  1.00  0.00     0.040 A 
ATOM     83  F   UNL A   1      42.853  29.539  34.584  1.00  0.00    -0.206 F 
ATOM     84  C   UNL A   1      40.532  31.810  36.195  1.00  0.00     0.006 A 
ENDBRANCH  60  77
ENDBRANCH  34  35
ENDBRANCH  26  29
ENDBRANCH  24  25
ENDBRANCH  23  24
ENDBRANCH   1  23
TORSDOF 15
ENDMDL
MODEL 2
REMARK VINA RESULT:     -11.1      4.550      9.254
REMARK SMILES CC[C@](C)(NS(=O)(=O)c1cc(C)c(Br)s1)C(=O)NCCCCNC(=O)c1ccc(-c2c3nc(c(-c4c(F)cccc4F)c4ccc([nH]4)c(-c4c(F)cccc4F)c4nc(c(-c5c(F)cccc5F)c5ccc2[nH]5)C=C4)C=C3)cc1
REMARK SMILES IDX 20 1 19 2 18 3 16 4 17 5 3 7 4 8 2 9 1 10 5 11 6 13 7 14
REMARK SMILES IDX 8 15 9 16 10 17 15 18 11 19 13 20 12 21 14 22 21 23 22 24
REMARK SMILES IDX 23 25 24 26 25 28 26 29 27 30 79 31 28 32 78 33 29 34 30 35
REMARK SMILES IDX 31 36 72 37 32 38 77 39 71 40 73 41 33 42 76 43 70 44 69 45
REMARK SMILES IDX 34 47 60 48 43 49 59 50 44 51 47 52 58 53 74 54 45 55 46 56
REMARK SMILES IDX 57 58 75 59 48 60 35 61 36 62 41 63 37 64 38 65 40 66 42 67
REMARK SMILES IDX 39 68 61 69 62 70 67 71 63 72 64 73 66 74 68 75 65 76 49 77
REMARK SMILES IDX 50 78 55 79 51 80 52 81 54 82 56 83 53 84
REMARK H PARENT 18 6 5 12 23 27 73 46 47 57
REMARK Flexibility Score: inf
ROOT
ATOM      1  C   UNL A   1      40.834  21.341  27.218  1.00  0.00     0.023 C 
ENDROOT
BRANCH   1   2
ATOM      2  C   UNL A   1      39.859  21.506  26.047  1.00  0.00     0.116 C 
BRANCH   2   3
ATOM      3  N   UNL A   1      38.862  20.466  25.829  1.00  0.00    -0.354 N 
ATOM      4  C   UNL A   1      37.676  20.454  25.148  1.00  0.00     0.241 C 
ATOM      5  O   UNL A   1      37.386  19.370  24.624  1.00  0.00    -0.273 OA
ATOM      6  H   UNL A   1      39.086  19.607  26.254  1.00  0.00     0.163 HD
BRANCH   4   7
ATOM      7  C   UNL A   1      36.724  21.663  25.028  1.00  0.00     0.108 C 
ATOM      8  C   UNL A   1      37.038  22.416  23.697  1.00  0.00     0.040 C 
BRANCH   7   9
ATOM      9  C   UNL A   1      36.955  22.623  26.243  1.00  0.00     0.030 C 
ATOM     10  C   UNL A   1      37.467  24.037  25.959  1.00  0.00     0.006 C 
ENDBRANCH   7   9
BRANCH   7  11
ATOM     11  N   UNL A   1      35.277  21.394  24.886  1.00  0.00    -0.195 NA
ATOM     12  H   UNL A   1      35.137  20.584  25.490  1.00  0.00     0.142 HD
BRANCH  11  13
ATOM     13  S   UNL A   1      33.897  22.278  25.128  1.00  0.00     0.251 S 
ATOM     14  O   UNL A   1      32.952  21.759  24.162  1.00  0.00    -0.206 OA
ATOM     15  O   UNL A   1      33.589  22.127  26.535  1.00  0.00    -0.206 OA
BRANCH  13  16
ATOM     16  C   UNL A   1      33.855  24.031  24.870  1.00  0.00     0.136 A 
ATOM     17  C   UNL A   1      34.018  25.088  25.762  1.00  0.00     0.038 A 
ATOM     18  S   UNL A   1      33.747  24.642  23.283  1.00  0.00    -0.115 S 
ATOM     19  C   UNL A   1      33.698  26.373  25.191  1.00  0.00    -0.025 A 
ATOM     20  C   UNL A   1      33.390  26.200  23.858  1.00  0.00     0.074 A 
ATOM     21  C   UNL A   1      33.619  27.649  25.968  1.00  0.00     0.046 C 
ATOM     22  Br  UNL A   1      32.639  27.525  22.760  1.00  0.00    -0.039 Br
ENDBRANCH  13  16
ENDBRANCH  11  13
ENDBRANCH   7  11
ENDBRANCH   4   7
ENDBRANCH   2   3
ENDBRANCH   1   2
BRANCH   1  23
ATOM     23  C   UNL A   1      41.878  20.229  27.151  1.00  0.00     0.023 C 
BRANCH  23  24
ATOM     24  C   UNL A   1      42.237  19.802  25.749  1.00  0.00     0.116 C 
BRANCH  24  25
ATOM     25  N   UNL A   1      43.672  19.549  25.552  1.00  0.00    -0.352 N 
ATOM     26  C   UNL A   1      44.669  20.457  25.177  1.00  0.00     0.251 C 
ATOM     27  H   UNL A   1      43.969  18.623  25.703  1.00  0.00     0.163 HD
ATOM     28  O   UNL A   1      45.732  20.102  24.725  1.00  0.00    -0.269 OA
BRANCH  26  29
ATOM     29  C   UNL A   1      44.390  21.886  25.412  1.00  0.00     0.039 A 
ATOM     30  C   UNL A   1      43.602  22.714  24.602  1.00  0.00     0.014 A 
ATOM     31  C   UNL A   1      44.877  22.361  26.602  1.00  0.00     0.014 A 
ATOM     32  C   UNL A   1      43.318  24.002  25.073  1.00  0.00     0.010 A 
ATOM     33  C   UNL A   1      44.047  23.241  27.189  1.00  0.00     0.010 A 
ATOM     34  C   UNL A   1      43.615  24.271  26.405  1.00  0.00    -0.014 A 
BRANCH  34  35
ATOM     35  C   UNL A   1      43.450  25.508  27.135  1.00  0.00     0.031 A 
ATOM     36  C   UNL A   1      44.444  26.540  26.789  1.00  0.00     0.074 A 
ATOM     37  C   UNL A   1      42.290  25.779  27.787  1.00  0.00     0.049 A 
ATOM     38  N   UNL A   1      45.514  26.839  27.441  1.00  0.00    -0.248 NA
ATOM     39  C   UNL A   1      44.373  27.145  25.449  1.00  0.00     0.031 C 
ATOM     40  C   UNL A   1      41.049  24.984  27.863  1.00  0.00     0.029 A 
ATOM     41  N   UNL A   1      41.958  26.892  28.494  1.00  0.00    -0.354 N 
ATOM     42  C   UNL A   1      46.106  27.868  26.718  1.00  0.00     0.074 A 
ATOM     43  C   UNL A   1      45.539  27.794  25.401  1.00  0.00     0.031 C 
ATOM     44  C   UNL A   1      40.055  25.721  28.410  1.00  0.00     0.029 A 
ATOM     45  C   UNL A   1      40.623  26.964  28.887  1.00  0.00     0.049 A 
ATOM     46  H   UNL A   1      42.612  27.595  28.711  1.00  0.00     0.167 HD
ATOM     47  C   UNL A   1      46.759  28.879  27.358  1.00  0.00     0.037 A 
ATOM     48  C   UNL A   1      40.049  27.985  29.573  1.00  0.00     0.037 A 
ATOM     49  C   UNL A   1      46.914  28.551  28.760  1.00  0.00     0.049 A 
ATOM     50  C   UNL A   1      41.156  28.755  30.192  1.00  0.00     0.074 A 
ATOM     51  C   UNL A   1      47.589  27.586  29.477  1.00  0.00     0.029 A 
ATOM     52  N   UNL A   1      45.945  29.050  29.598  1.00  0.00    -0.354 N 
ATOM     53  N   UNL A   1      41.929  28.278  31.129  1.00  0.00    -0.248 NA
ATOM     54  C   UNL A   1      41.708  29.870  29.439  1.00  0.00     0.031 C 
ATOM     55  C   UNL A   1      46.732  27.266  30.574  1.00  0.00     0.029 A 
ATOM     56  C   UNL A   1      45.611  28.098  30.525  1.00  0.00     0.049 A 
ATOM     57  H   UNL A   1      45.551  29.951  29.542  1.00  0.00     0.167 HD
ATOM     58  C   UNL A   1      43.202  28.735  30.813  1.00  0.00     0.074 A 
ATOM     59  C   UNL A   1      42.985  29.797  29.831  1.00  0.00     0.031 C 
ATOM     60  C   UNL A   1      44.307  28.002  31.150  1.00  0.00     0.037 A 
BRANCH  47  61
ATOM     61  C   UNL A   1      46.859  30.313  26.877  1.00  0.00     0.057 A 
ATOM     62  C   UNL A   1      48.116  30.947  26.932  1.00  0.00     0.134 A 
ATOM     63  C   UNL A   1      45.776  31.182  26.629  1.00  0.00     0.134 A 
ATOM     64  F   UNL A   1      49.237  30.238  27.137  1.00  0.00    -0.206 F 
ATOM     65  C   UNL A   1      48.269  32.337  26.861  1.00  0.00     0.040 A 
ATOM     66  C   UNL A   1      45.923  32.568  26.511  1.00  0.00     0.040 A 
ATOM     67  F   UNL A   1      44.506  30.770  26.573  1.00  0.00    -0.206 F 
ATOM     68  C   UNL A   1      47.166  33.155  26.665  1.00  0.00     0.006 A 
ENDBRANCH  47  61
BRANCH  48  69
ATOM     69  C   UNL A   1      38.668  28.506  29.493  1.00  0.00     0.057 A 
ATOM     70  C   UNL A   1      37.843  28.577  30.624  1.00  0.00     0.134 A 
ATOM     71  C   UNL A   1      38.233  29.217  28.361  1.00  0.00     0.134 A 
ATOM     72  F   UNL A   1      38.195  27.961  31.761  1.00  0.00    -0.206 F 
ATOM     73  C   UNL A   1      36.663  29.337  30.638  1.00  0.00     0.040 A 
ATOM     74  C   UNL A   1      37.060  29.980  28.362  1.00  0.00     0.040 A 
ATOM     75  F   UNL A   1      38.984  29.265  27.251  1.00  0.00    -0.206 F 
ATOM     76  C   UNL A   1      36.278  30.053  29.509  1.00  0.00     0.006 A 
ENDBRANCH  48  69
BRANCH  60  77
ATOM     77  C   UNL A   1      44.106  26.863  32.118  1.00  0.00     0.057 A 
ATOM     78  C   UNL A   1      44.081  25.506  31.758  1.00  0.00     0.134 A 
ATOM     79  C   UNL A   1      44.077  27.147  33.486  1.00  0.00     0.134 A 
ATOM     80  F   UNL A   1      44.190  25.127  30.481  1.00  0.00    -0.206 F 
ATOM     81  C   UNL A   1      43.998  24.485  32.710  1.00  0.00     0.040 A 
ATOM     82  C   UNL A   1      44.025  26.137  34.450  1.00  0.00     0.040 A 
ATOM     83  F   UNL A   1      44.150  28.417  33.911  1.00  0.00    -0.206 F 
ATOM     84  C   UNL A   1      43.976  24.800  34.064  1.00  0.00     0.006 A 
ENDBRANCH  60  77
ENDBRANCH  34  35
ENDBRANCH  26  29
ENDBRANCH  24  25
ENDBRANCH  23  24
ENDBRANCH   1  23
TORSDOF 15
ENDMDL
MODEL 3
REMARK VINA RESULT:     -11.1      2.082      2.976
REMARK SMILES CC[C@](C)(NS(=O)(=O)c1cc(C)c(Br)s1)C(=O)NCCCCNC(=O)c1ccc(-c2c3nc(c(-c4c(F)cccc4F)c4ccc([nH]4)c(-c4c(F)cccc4F)c4nc(c(-c5c(F)cccc5F)c5ccc2[nH]5)C=C4)C=C3)cc1
REMARK SMILES IDX 20 1 19 2 18 3 16 4 17 5 3 7 4 8 2 9 1 10 5 11 6 13 7 14
REMARK SMILES IDX 8 15 9 16 10 17 15 18 11 19 13 20 12 21 14 22 21 23 22 24
REMARK SMILES IDX 23 25 24 26 25 28 26 29 27 30 79 31 28 32 78 33 29 34 30 35
REMARK SMILES IDX 31 36 72 37 32 38 77 39 71 40 73 41 33 42 76 43 70 44 69 45
REMARK SMILES IDX 34 47 60 48 43 49 59 50 44 51 47 52 58 53 74 54 45 55 46 56
REMARK SMILES IDX 57 58 75 59 48 60 35 61 36 62 41 63 37 64 38 65 40 66 42 67
REMARK SMILES IDX 39 68 61 69 62 70 67 71 63 72 64 73 66 74 68 75 65 76 49 77
REMARK SMILES IDX 50 78 55 79 51 80 52 81 54 82 56 83 53 84
REMARK H PARENT 18 6 5 12 23 27 73 46 47 57
REMARK Flexibility Score: inf
ROOT
ATOM      1  C   UNL A   1      32.272  29.855  25.625  1.00  0.00     0.023 C 
ENDROOT
BRANCH   1   2
ATOM      2  C   UNL A   1      32.322  28.547  26.423  1.00  0.00     0.116 C 
BRANCH   2   3
ATOM      3  N   UNL A   1      31.203  27.623  26.302  1.00  0.00    -0.354 N 
ATOM      4  C   UNL A   1      31.140  26.273  26.089  1.00  0.00     0.241 C 
ATOM      5  O   UNL A   1      30.185  25.702  26.633  1.00  0.00    -0.273 OA
ATOM      6  H   UNL A   1      30.321  28.053  26.390  1.00  0.00     0.163 HD
BRANCH   4   7
ATOM      7  C   UNL A   1      32.144  25.476  25.228  1.00  0.00     0.108 C 
ATOM      8  C   UNL A   1      31.405  24.251  24.603  1.00  0.00     0.040 C 
BRANCH   7   9
ATOM      9  C   UNL A   1      33.318  24.976  26.135  1.00  0.00     0.030 C 
ATOM     10  C   UNL A   1      34.566  24.411  25.454  1.00  0.00     0.006 C 
ENDBRANCH   7   9
BRANCH   7  11
ATOM     11  N   UNL A   1      32.700  26.136  24.027  1.00  0.00    -0.195 NA
ATOM     12  H   UNL A   1      33.314  25.420  23.639  1.00  0.00     0.142 HD
BRANCH  11  13
ATOM     13  S   UNL A   1      32.049  26.834  22.673  1.00  0.00     0.251 S 
ATOM     14  O   UNL A   1      33.080  27.726  22.185  1.00  0.00    -0.206 OA
ATOM     15  O   UNL A   1      31.646  25.729  21.829  1.00  0.00    -0.206 OA
BRANCH  13  16
ATOM     16  C   UNL A   1      30.602  27.856  22.755  1.00  0.00     0.136 A 
ATOM     17  C   UNL A   1      29.347  27.615  23.308  1.00  0.00     0.038 A 
ATOM     18  S   UNL A   1      30.689  29.475  22.230  1.00  0.00    -0.115 S 
ATOM     19  C   UNL A   1      28.373  28.626  22.977  1.00  0.00    -0.025 A 
ATOM     20  C   UNL A   1      28.996  29.620  22.252  1.00  0.00     0.074 A 
ATOM     21  C   UNL A   1      26.913  28.530  23.291  1.00  0.00     0.046 C 
ATOM     22  Br  UNL A   1      28.099  31.004  21.355  1.00  0.00    -0.039 Br
ENDBRANCH  13  16
ENDBRANCH  11  13
ENDBRANCH   7  11
ENDBRANCH   4   7
ENDBRANCH   2   3
ENDBRANCH   1   2
BRANCH   1  23
ATOM     23  C   UNL A   1      31.680  31.096  26.288  1.00  0.00     0.023 C 
BRANCH  23  24
ATOM     24  C   UNL A   1      32.619  31.795  27.240  1.00  0.00     0.116 C 
BRANCH  24  25
ATOM     25  N   UNL A   1      32.400  33.245  27.337  1.00  0.00    -0.352 N 
ATOM     26  C   UNL A   1      32.957  34.147  28.251  1.00  0.00     0.251 C 
ATOM     27  H   UNL A   1      31.784  33.632  26.674  1.00  0.00     0.163 HD
ATOM     28  O   UNL A   1      32.475  35.235  28.463  1.00  0.00    -0.269 OA
BRANCH  26  29
ATOM     29  C   UNL A   1      34.208  33.735  28.916  1.00  0.00     0.039 A 
ATOM     30  C   UNL A   1      34.311  33.172  30.195  1.00  0.00     0.014 A 
ATOM     31  C   UNL A   1      35.319  33.828  28.119  1.00  0.00     0.014 A 
ATOM     32  C   UNL A   1      35.566  32.694  30.592  1.00  0.00     0.010 A 
ATOM     33  C   UNL A   1      36.184  32.816  28.313  1.00  0.00     0.010 A 
ATOM     34  C   UNL A   1      36.542  32.576  29.608  1.00  0.00    -0.014 A 
BRANCH  34  35
ATOM     35  C   UNL A   1      37.914  32.138  29.743  1.00  0.00     0.031 A 
ATOM     36  C   UNL A   1      38.141  30.752  29.294  1.00  0.00     0.074 A 
ATOM     37  C   UNL A   1      38.914  33.037  29.925  1.00  0.00     0.049 A 
ATOM     38  N   UNL A   1      38.220  29.698  30.031  1.00  0.00    -0.248 NA
ATOM     39  C   UNL A   1      38.034  30.467  27.854  1.00  0.00     0.031 C 
ATOM     40  C   UNL A   1      38.853  34.510  29.981  1.00  0.00     0.029 A 
ATOM     41  N   UNL A   1      40.248  32.804  30.044  1.00  0.00    -0.354 N 
ATOM     42  C   UNL A   1      38.445  28.650  29.146  1.00  0.00     0.074 A 
ATOM     43  C   UNL A   1      38.026  29.132  27.860  1.00  0.00     0.031 C 
ATOM     44  C   UNL A   1      40.100  35.033  29.934  1.00  0.00     0.029 A 
ATOM     45  C   UNL A   1      41.050  33.944  30.028  1.00  0.00     0.049 A 
ATOM     46  H   UNL A   1      40.620  31.897  30.135  1.00  0.00     0.167 HD
ATOM     47  C   UNL A   1      39.252  27.609  29.495  1.00  0.00     0.037 A 
ATOM     48  C   UNL A   1      42.404  33.966  30.102  1.00  0.00     0.037 A 
ATOM     49  C   UNL A   1      39.570  27.687  30.906  1.00  0.00     0.049 A 
ATOM     50  C   UNL A   1      42.821  32.648  30.640  1.00  0.00     0.074 A 
ATOM     51  C   UNL A   1      38.856  27.601  32.082  1.00  0.00     0.029 A 
ATOM     52  N   UNL A   1      40.753  28.316  31.214  1.00  0.00    -0.354 N 
ATOM     53  N   UNL A   1      42.548  32.244  31.850  1.00  0.00    -0.248 NA
ATOM     54  C   UNL A   1      43.116  31.590  29.685  1.00  0.00     0.031 C 
ATOM     55  C   UNL A   1      39.469  28.545  32.962  1.00  0.00     0.029 A 
ATOM     56  C   UNL A   1      40.573  29.108  32.317  1.00  0.00     0.049 A 
ATOM     57  H   UNL A   1      41.599  28.212  30.720  1.00  0.00     0.167 HD
ATOM     58  C   UNL A   1      42.222  30.900  31.718  1.00  0.00     0.074 A 
ATOM     59  C   UNL A   1      42.698  30.530  30.386  1.00  0.00     0.031 C 
ATOM     60  C   UNL A   1      41.336  30.313  32.578  1.00  0.00     0.037 A 
BRANCH  47  61
ATOM     61  C   UNL A   1      40.112  26.798  28.545  1.00  0.00     0.057 A 
ATOM     62  C   UNL A   1      39.857  25.417  28.432  1.00  0.00     0.134 A 
ATOM     63  C   UNL A   1      41.323  27.220  27.959  1.00  0.00     0.134 A 
ATOM     64  F   UNL A   1      38.729  24.881  28.924  1.00  0.00    -0.206 F 
ATOM     65  C   UNL A   1      40.780  24.518  27.884  1.00  0.00     0.040 A 
ATOM     66  C   UNL A   1      42.231  26.336  27.368  1.00  0.00     0.040 A 
ATOM     67  F   UNL A   1      41.750  28.485  27.992  1.00  0.00    -0.206 F 
ATOM     68  C   UNL A   1      41.981  24.975  27.363  1.00  0.00     0.006 A 
ENDBRANCH  47  61
BRANCH  48  69
ATOM     69  C   UNL A   1      43.361  34.908  29.483  1.00  0.00     0.057 A 
ATOM     70  C   UNL A   1      43.667  34.852  28.116  1.00  0.00     0.134 A 
ATOM     71  C   UNL A   1      43.770  36.068  30.164  1.00  0.00     0.134 A 
ATOM     72  F   UNL A   1      43.284  33.801  27.377  1.00  0.00    -0.206 F 
ATOM     73  C   UNL A   1      44.320  35.904  27.456  1.00  0.00     0.040 A 
ATOM     74  C   UNL A   1      44.420  37.125  29.517  1.00  0.00     0.040 A 
ATOM     75  F   UNL A   1      43.468  36.246  31.459  1.00  0.00    -0.206 F 
ATOM     76  C   UNL A   1      44.684  37.051  28.154  1.00  0.00     0.006 A 
ENDBRANCH  48  69
BRANCH  60  77
ATOM     77  C   UNL A   1      40.971  31.084  33.822  1.00  0.00     0.057 A 
ATOM     78  C   UNL A   1      39.831  31.893  33.954  1.00  0.00     0.134 A 
ATOM     79  C   UNL A   1      41.734  30.887  34.977  1.00  0.00     0.134 A 
ATOM     80  F   UNL A   1      38.990  32.074  32.931  1.00  0.00    -0.206 F 
ATOM     81  C   UNL A   1      39.485  32.501  35.165  1.00  0.00     0.040 A 
ATOM     82  C   UNL A   1      41.384  31.463  36.201  1.00  0.00     0.040 A 
ATOM     83  F   UNL A   1      42.809  30.085  34.944  1.00  0.00    -0.206 F 
ATOM     84  C   UNL A   1      40.261  32.280  36.297  1.00  0.00     0.006 A 
ENDBRANCH  60  77
ENDBRANCH  34  35
ENDBRANCH  26  29
ENDBRANCH  24  25
ENDBRANCH  23  24
ENDBRANCH   1  23
TORSDOF 15
ENDMDL
