MODEL 1
REMARK VINA RESULT:     -12.2      0.000      0.000
REMARK SMILES C#Cc1cc(Cl)cc2c1O[C@H](C(F)(F)F)C(C(=O)NCCCCNC(=O)c1ccc(-c3c4nc(c(-c5c(F)cccc5F)c5ccc([nH]5)c(-c5c(F)cccc5F)c5nc(c(-c6c(F)cccc6F)c6ccc3[nH]6)C=C5)C=C4)cc1)=C2
REMARK SMILES IDX 22 1 21 2 20 3 19 4 17 5 18 6 16 8 3 9 4 10 9 11 5 12 8 13
REMARK SMILES IDX 10 14 6 15 7 16 81 17 11 18 2 19 1 20 12 21 13 22 14 23
REMARK SMILES IDX 15 24 23 25 24 26 25 27 26 29 27 30 28 31 80 32 29 33 79 34
REMARK SMILES IDX 30 35 31 36 32 37 73 38 33 39 78 40 72 41 74 42 34 43 77 44
REMARK SMILES IDX 71 45 70 46 35 48 61 49 44 50 60 51 45 52 48 53 59 54 75 55
REMARK SMILES IDX 46 56 47 57 58 59 76 60 49 61 36 62 37 63 42 64 38 65 39 66
REMARK SMILES IDX 41 67 43 68 40 69 62 70 63 71 68 72 64 73 65 74 67 75 69 76
REMARK SMILES IDX 66 77 50 78 51 79 56 80 52 81 53 82 55 83 57 84 54 85
REMARK H PARENT 19 7 24 28 74 47 48 58
REMARK Flexibility Score: inf
ROOT
ATOM      1  C   UNL A   1      37.894  20.068  25.002  1.00  0.00     0.023 C 
ENDROOT
BRANCH   1   2
ATOM      2  C   UNL A   1      37.240  21.318  24.429  1.00  0.00     0.023 C 
BRANCH   2   3
ATOM      3  C   UNL A   1      37.307  22.511  25.375  1.00  0.00     0.116 C 
BRANCH   3   4
ATOM      4  N   UNL A   1      36.258  22.473  26.380  1.00  0.00    -0.352 N 
ATOM      5  C   UNL A   1      34.983  22.920  26.495  1.00  0.00     0.251 C 
ATOM      6  O   UNL A   1      34.403  22.625  27.543  1.00  0.00    -0.270 OA
ATOM      7  H   UNL A   1      36.549  21.997  27.191  1.00  0.00     0.163 HD
BRANCH   5   8
ATOM      8  C   UNL A   1      34.273  23.726  25.458  1.00  0.00     0.067 C 
ATOM      9  C   UNL A   1      32.552  26.160  22.495  1.00  0.00     0.068 A 
ATOM     10  C   UNL A   1      31.990  27.385  22.841  1.00  0.00     0.041 A 
ATOM     11  C   UNL A   1      33.144  25.368  23.488  1.00  0.00     0.143 A 
ATOM     12  C   UNL A   1      32.027  27.807  24.170  1.00  0.00     0.043 A 
ATOM     13  C   UNL A   1      33.191  25.789  24.820  1.00  0.00     0.020 A 
ATOM     14  O   UNL A   1      33.713  24.198  23.076  1.00  0.00    -0.474 OA
ATOM     15  Cl  UNL A   1      31.341  29.327  24.595  1.00  0.00    -0.084 Cl
ATOM     16  C   UNL A   1      32.625  27.020  25.160  1.00  0.00     0.032 A 
ATOM     17  C   UNL A   1      33.872  24.961  25.812  1.00  0.00     0.025 C 
ATOM     18  C   UNL A   1      33.987  23.206  24.084  1.00  0.00     0.314 C 
BRANCH   9  19
ATOM     19  C   UNL A   1      32.528  25.709  21.134  1.00  0.00    -0.067 C 
ATOM     20  C   UNL A   1      32.551  25.394  19.974  1.00  0.00     0.010 C 
ENDBRANCH   9  19
BRANCH  18  21
ATOM     21  C   UNL A   1      32.868  22.146  24.075  1.00  0.00     0.429 C 
ATOM     22  F   UNL A   1      32.257  22.112  22.864  1.00  0.00    -0.167 F 
ATOM     23  F   UNL A   1      33.331  20.893  24.301  1.00  0.00    -0.167 F 
ATOM     24  F   UNL A   1      31.919  22.385  25.005  1.00  0.00    -0.167 F 
ENDBRANCH  18  21
ENDBRANCH   5   8
ENDBRANCH   3   4
ENDBRANCH   2   3
ENDBRANCH   1   2
BRANCH   1  25
ATOM     25  C   UNL A   1      39.161  20.336  25.805  1.00  0.00     0.116 C 
BRANCH  25  26
ATOM     26  N   UNL A   1      40.086  19.209  25.821  1.00  0.00    -0.352 N 
ATOM     27  C   UNL A   1      41.444  19.236  26.029  1.00  0.00     0.251 C 
ATOM     28  H   UNL A   1      39.690  18.322  25.664  1.00  0.00     0.163 HD
ATOM     29  O   UNL A   1      42.131  18.232  25.888  1.00  0.00    -0.269 OA
BRANCH  27  30
ATOM     30  C   UNL A   1      42.058  20.525  26.390  1.00  0.00     0.039 A 
ATOM     31  C   UNL A   1      42.405  21.416  25.376  1.00  0.00     0.014 A 
ATOM     32  C   UNL A   1      42.163  20.886  27.738  1.00  0.00     0.014 A 
ATOM     33  C   UNL A   1      42.800  22.707  25.717  1.00  0.00     0.010 A 
ATOM     34  C   UNL A   1      42.455  22.201  28.066  1.00  0.00     0.010 A 
ATOM     35  C   UNL A   1      42.790  23.120  27.061  1.00  0.00    -0.014 A 
BRANCH  35  36
ATOM     36  C   UNL A   1      43.159  24.506  27.435  1.00  0.00     0.031 A 
ATOM     37  C   UNL A   1      44.597  24.930  27.382  1.00  0.00     0.074 A 
ATOM     38  C   UNL A   1      42.208  25.366  27.848  1.00  0.00     0.049 A 
ATOM     39  N   UNL A   1      45.127  26.088  27.681  1.00  0.00    -0.248 NA
ATOM     40  C   UNL A   1      45.576  23.914  26.960  1.00  0.00     0.031 C 
ATOM     41  C   UNL A   1      40.783  25.055  27.973  1.00  0.00     0.029 A 
ATOM     42  N   UNL A   1      42.297  26.680  28.232  1.00  0.00    -0.354 N 
ATOM     43  C   UNL A   1      46.492  25.938  27.479  1.00  0.00     0.074 A 
ATOM     44  C   UNL A   1      46.720  24.559  27.112  1.00  0.00     0.031 C 
ATOM     45  C   UNL A   1      40.126  26.160  28.361  1.00  0.00     0.029 A 
ATOM     46  C   UNL A   1      41.087  27.243  28.556  1.00  0.00     0.049 A 
ATOM     47  H   UNL A   1      43.149  27.172  28.271  1.00  0.00     0.167 HD
ATOM     48  C   UNL A   1      47.464  26.875  27.556  1.00  0.00     0.037 A 
ATOM     49  C   UNL A   1      40.786  28.491  28.963  1.00  0.00     0.037 A 
ATOM     50  C   UNL A   1      47.227  28.248  27.912  1.00  0.00     0.049 A 
ATOM     51  C   UNL A   1      41.890  29.504  29.093  1.00  0.00     0.074 A 
ATOM     52  C   UNL A   1      48.138  29.285  27.984  1.00  0.00     0.029 A 
ATOM     53  N   UNL A   1      45.991  28.773  28.261  1.00  0.00    -0.354 N 
ATOM     54  N   UNL A   1      43.170  29.367  28.837  1.00  0.00    -0.248 NA
ATOM     55  C   UNL A   1      41.512  30.843  29.564  1.00  0.00     0.031 C 
ATOM     56  C   UNL A   1      47.468  30.421  28.442  1.00  0.00     0.029 A 
ATOM     57  C   UNL A   1      46.124  30.113  28.587  1.00  0.00     0.049 A 
ATOM     58  H   UNL A   1      45.145  28.268  28.276  1.00  0.00     0.167 HD
ATOM     59  C   UNL A   1      43.745  30.605  29.093  1.00  0.00     0.074 A 
ATOM     60  C   UNL A   1      42.670  31.486  29.506  1.00  0.00     0.031 C 
ATOM     61  C   UNL A   1      45.045  30.978  28.996  1.00  0.00     0.037 A 
BRANCH  48  62
ATOM     62  C   UNL A   1      48.868  26.447  27.241  1.00  0.00     0.057 A 
ATOM     63  C   UNL A   1      49.744  25.994  28.237  1.00  0.00     0.134 A 
ATOM     64  C   UNL A   1      49.337  26.445  25.921  1.00  0.00     0.134 A 
ATOM     65  F   UNL A   1      49.365  25.986  29.525  1.00  0.00    -0.206 F 
ATOM     66  C   UNL A   1      51.042  25.578  27.936  1.00  0.00     0.040 A 
ATOM     67  C   UNL A   1      50.620  25.997  25.604  1.00  0.00     0.040 A 
ATOM     68  F   UNL A   1      48.551  26.861  24.917  1.00  0.00    -0.206 F 
ATOM     69  C   UNL A   1      51.479  25.569  26.614  1.00  0.00     0.006 A 
ENDBRANCH  48  62
BRANCH  49  70
ATOM     70  C   UNL A   1      39.372  28.853  29.236  1.00  0.00     0.057 A 
ATOM     71  C   UNL A   1      38.547  29.356  28.222  1.00  0.00     0.134 A 
ATOM     72  C   UNL A   1      38.797  28.673  30.501  1.00  0.00     0.134 A 
ATOM     73  F   UNL A   1      39.042  29.569  26.993  1.00  0.00    -0.206 F 
ATOM     74  C   UNL A   1      37.207  29.667  28.455  1.00  0.00     0.040 A 
ATOM     75  C   UNL A   1      37.450  28.953  30.740  1.00  0.00     0.040 A 
ATOM     76  F   UNL A   1      39.530  28.189  31.514  1.00  0.00    -0.206 F 
ATOM     77  C   UNL A   1      36.652  29.455  29.716  1.00  0.00     0.006 A 
ENDBRANCH  49  70
BRANCH  61  78
ATOM     78  C   UNL A   1      45.392  32.402  29.327  1.00  0.00     0.057 A 
ATOM     79  C   UNL A   1      45.311  33.423  28.372  1.00  0.00     0.134 A 
ATOM     80  C   UNL A   1      45.722  32.770  30.638  1.00  0.00     0.134 A 
ATOM     81  F   UNL A   1      45.008  33.139  27.096  1.00  0.00    -0.206 F 
ATOM     82  C   UNL A   1      45.559  34.755  28.706  1.00  0.00     0.040 A 
ATOM     83  C   UNL A   1      45.939  34.102  30.991  1.00  0.00     0.040 A 
ATOM     84  F   UNL A   1      45.803  31.844  31.607  1.00  0.00    -0.206 F 
ATOM     85  C   UNL A   1      45.861  35.099  30.022  1.00  0.00     0.006 A 
ENDBRANCH  61  78
ENDBRANCH  35  36
ENDBRANCH  27  30
ENDBRANCH  25  26
ENDBRANCH   1  25
TORSDOF 13
ENDMDL
MODEL 2
REMARK VINA RESULT:     -12.2      2.969      7.706
REMARK SMILES C#Cc1cc(Cl)cc2c1O[C@H](C(F)(F)F)C(C(=O)NCCCCNC(=O)c1ccc(-c3c4nc(c(-c5c(F)cccc5F)c5ccc([nH]5)c(-c5c(F)cccc5F)c5nc(c(-c6c(F)cccc6F)c6ccc3[nH]6)C=C5)C=C4)cc1)=C2
REMARK SMILES IDX 22 1 21 2 20 3 19 4 17 5 18 6 16 8 3 9 4 10 9 11 5 12 8 13
REMARK SMILES IDX 10 14 6 15 7 16 81 17 11 18 2 19 1 20 12 21 13 22 14 23
REMARK SMILES IDX 15 24 23 25 24 26 25 27 26 29 27 30 28 31 80 32 29 33 79 34
REMARK SMILES IDX 30 35 31 36 32 37 73 38 33 39 78 40 72 41 74 42 34 43 77 44
REMARK SMILES IDX 71 45 70 46 35 48 61 49 44 50 60 51 45 52 48 53 59 54 75 55
REMARK SMILES IDX 46 56 47 57 58 59 76 60 49 61 36 62 37 63 42 64 38 65 39 66
REMARK SMILES IDX 41 67 43 68 40 69 62 70 63 71 68 72 64 73 65 74 67 75 69 76
REMARK SMILES IDX 66 77 50 78 51 79 56 80 52 81 53 82 55 83 57 84 54 85
REMARK H PARENT 19 7 24 28 74 47 48 58
REMARK Flexibility Score: inf
ROOT
ATOM      1  C   UNL A   1      34.036  28.436  25.766  1.00  0.00     0.023 C 
ENDROOT
BRANCH   1   2
ATOM      2  C   UNL A   1      32.906  28.841  24.829  1.00  0.00     0.023 C 
BRANCH   2   3
ATOM      3  C   UNL A   1      32.188  27.647  24.213  1.00  0.00     0.116 C 
BRANCH   3   4
ATOM      4  N   UNL A   1      31.295  26.997  25.158  1.00  0.00    -0.352 N 
ATOM      5  C   UNL A   1      31.212  25.790  25.771  1.00  0.00     0.251 C 
ATOM      6  O   UNL A   1      30.280  25.656  26.568  1.00  0.00    -0.270 OA
ATOM      7  H   UNL A   1      30.555  27.590  25.423  1.00  0.00     0.163 HD
BRANCH   5   8
ATOM      8  C   UNL A   1      32.152  24.655  25.533  1.00  0.00     0.067 C 
ATOM      9  C   UNL A   1      34.781  21.396  25.179  1.00  0.00     0.068 A 
ATOM     10  C   UNL A   1      36.146  21.576  25.385  1.00  0.00     0.041 A 
ATOM     11  C   UNL A   1      33.912  22.484  25.323  1.00  0.00     0.143 A 
ATOM     12  C   UNL A   1      36.626  22.838  25.734  1.00  0.00     0.043 A 
ATOM     13  C   UNL A   1      34.387  23.750  25.680  1.00  0.00     0.020 A 
ATOM     14  O   UNL A   1      32.583  22.231  25.148  1.00  0.00    -0.474 OA
ATOM     15  Cl  UNL A   1      38.312  23.059  25.998  1.00  0.00    -0.084 Cl
ATOM     16  C   UNL A   1      35.757  23.925  25.885  1.00  0.00     0.032 A 
ATOM     17  C   UNL A   1      33.439  24.844  25.880  1.00  0.00     0.025 C 
ATOM     18  C   UNL A   1      31.719  23.361  24.918  1.00  0.00     0.314 C 
BRANCH   9  19
ATOM     19  C   UNL A   1      34.266  20.105  24.823  1.00  0.00    -0.067 C 
ATOM     20  C   UNL A   1      33.879  18.993  24.582  1.00  0.00     0.010 C 
ENDBRANCH   9  19
BRANCH  18  21
ATOM     21  C   UNL A   1      31.437  23.489  23.408  1.00  0.00     0.429 C 
ATOM     22  F   UNL A   1      30.141  23.832  23.196  1.00  0.00    -0.167 F 
ATOM     23  F   UNL A   1      32.184  24.450  22.815  1.00  0.00    -0.167 F 
ATOM     24  F   UNL A   1      31.671  22.342  22.736  1.00  0.00    -0.167 F 
ENDBRANCH  18  21
ENDBRANCH   5   8
ENDBRANCH   3   4
ENDBRANCH   2   3
ENDBRANCH   1   2
BRANCH   1  25
ATOM     25  C   UNL A   1      33.705  28.580  27.246  1.00  0.00     0.116 C 
BRANCH  25  26
ATOM     26  N   UNL A   1      33.659  29.966  27.697  1.00  0.00    -0.352 N 
ATOM     27  C   UNL A   1      34.662  30.690  28.297  1.00  0.00     0.251 C 
ATOM     28  H   UNL A   1      32.808  30.440  27.555  1.00  0.00     0.163 HD
ATOM     29  O   UNL A   1      34.456  31.810  28.749  1.00  0.00    -0.269 OA
BRANCH  27  30
ATOM     30  C   UNL A   1      35.988  30.061  28.417  1.00  0.00     0.039 A 
ATOM     31  C   UNL A   1      36.892  30.184  27.363  1.00  0.00     0.014 A 
ATOM     32  C   UNL A   1      36.362  29.466  29.626  1.00  0.00     0.014 A 
ATOM     33  C   UNL A   1      38.207  29.764  27.548  1.00  0.00     0.010 A 
ATOM     34  C   UNL A   1      37.695  29.147  29.840  1.00  0.00     0.010 A 
ATOM     35  C   UNL A   1      38.626  29.280  28.799  1.00  0.00    -0.014 A 
BRANCH  35  36
ATOM     36  C   UNL A   1      40.034  28.877  29.028  1.00  0.00     0.031 A 
ATOM     37  C   UNL A   1      40.971  29.821  29.722  1.00  0.00     0.074 A 
ATOM     38  C   UNL A   1      40.471  27.682  28.586  1.00  0.00     0.049 A 
ATOM     39  N   UNL A   1      42.239  29.665  30.006  1.00  0.00    -0.248 NA
ATOM     40  C   UNL A   1      40.420  31.123  30.134  1.00  0.00     0.031 C 
ATOM     41  C   UNL A   1      39.661  26.697  27.867  1.00  0.00     0.029 A 
ATOM     42  N   UNL A   1      41.705  27.090  28.683  1.00  0.00    -0.354 N 
ATOM     43  C   UNL A   1      42.630  30.842  30.629  1.00  0.00     0.074 A 
ATOM     44  C   UNL A   1      41.493  31.733  30.611  1.00  0.00     0.031 C 
ATOM     45  C   UNL A   1      40.406  25.607  27.629  1.00  0.00     0.029 A 
ATOM     46  C   UNL A   1      41.758  25.832  28.135  1.00  0.00     0.049 A 
ATOM     47  H   UNL A   1      42.479  27.527  29.106  1.00  0.00     0.167 HD
ATOM     48  C   UNL A   1      43.820  31.138  31.199  1.00  0.00     0.037 A 
ATOM     49  C   UNL A   1      42.779  24.958  28.052  1.00  0.00     0.037 A 
ATOM     50  C   UNL A   1      44.943  30.242  31.222  1.00  0.00     0.049 A 
ATOM     51  C   UNL A   1      44.110  25.330  28.645  1.00  0.00     0.074 A 
ATOM     52  C   UNL A   1      46.182  30.433  31.805  1.00  0.00     0.029 A 
ATOM     53  N   UNL A   1      44.967  28.987  30.631  1.00  0.00    -0.354 N 
ATOM     54  N   UNL A   1      44.450  26.421  29.290  1.00  0.00    -0.248 NA
ATOM     55  C   UNL A   1      45.197  24.353  28.506  1.00  0.00     0.031 C 
ATOM     56  C   UNL A   1      46.978  29.324  31.509  1.00  0.00     0.029 A 
ATOM     57  C   UNL A   1      46.213  28.409  30.803  1.00  0.00     0.049 A 
ATOM     58  H   UNL A   1      44.210  28.570  30.158  1.00  0.00     0.167 HD
ATOM     59  C   UNL A   1      45.780  26.253  29.652  1.00  0.00     0.074 A 
ATOM     60  C   UNL A   1      46.179  24.945  29.172  1.00  0.00     0.031 C 
ATOM     61  C   UNL A   1      46.597  27.104  30.320  1.00  0.00     0.037 A 
BRANCH  48  62
ATOM     62  C   UNL A   1      43.961  32.484  31.850  1.00  0.00     0.057 A 
ATOM     63  C   UNL A   1      43.698  32.677  33.213  1.00  0.00     0.134 A 
ATOM     64  C   UNL A   1      44.407  33.590  31.117  1.00  0.00     0.134 A 
ATOM     65  F   UNL A   1      43.252  31.664  33.972  1.00  0.00    -0.206 F 
ATOM     66  C   UNL A   1      43.851  33.926  33.818  1.00  0.00     0.040 A 
ATOM     67  C   UNL A   1      44.598  34.836  31.719  1.00  0.00     0.040 A 
ATOM     68  F   UNL A   1      44.682  33.477  29.809  1.00  0.00    -0.206 F 
ATOM     69  C   UNL A   1      44.312  35.007  33.071  1.00  0.00     0.006 A 
ENDBRANCH  48  62
BRANCH  49  70
ATOM     70  C   UNL A   1      42.563  23.635  27.414  1.00  0.00     0.057 A 
ATOM     71  C   UNL A   1      42.184  22.521  28.173  1.00  0.00     0.134 A 
ATOM     72  C   UNL A   1      42.692  23.456  26.030  1.00  0.00     0.134 A 
ATOM     73  F   UNL A   1      42.062  22.622  29.505  1.00  0.00    -0.206 F 
ATOM     74  C   UNL A   1      41.943  21.279  27.582  1.00  0.00     0.040 A 
ATOM     75  C   UNL A   1      42.426  22.227  25.423  1.00  0.00     0.040 A 
ATOM     76  F   UNL A   1      43.046  24.484  25.244  1.00  0.00    -0.206 F 
ATOM     77  C   UNL A   1      42.053  21.134  26.200  1.00  0.00     0.006 A 
ENDBRANCH  49  70
BRANCH  61  78
ATOM     78  C   UNL A   1      48.005  26.657  30.590  1.00  0.00     0.057 A 
ATOM     79  C   UNL A   1      48.342  25.935  31.742  1.00  0.00     0.134 A 
ATOM     80  C   UNL A   1      49.017  26.871  29.645  1.00  0.00     0.134 A 
ATOM     81  F   UNL A   1      47.424  25.701  32.692  1.00  0.00    -0.206 F 
ATOM     82  C   UNL A   1      49.636  25.455  31.950  1.00  0.00     0.040 A 
ATOM     83  C   UNL A   1      50.305  26.367  29.826  1.00  0.00     0.040 A 
ATOM     84  F   UNL A   1      48.760  27.543  28.511  1.00  0.00    -0.206 F 
ATOM     85  C   UNL A   1      50.618  25.660  30.983  1.00  0.00     0.006 A 
ENDBRANCH  61  78
ENDBRANCH  35  36
ENDBRANCH  27  30
ENDBRANCH  25  26
ENDBRANCH   1  25
TORSDOF 13
ENDMDL
MODEL 3
REMARK VINA RESULT:     -12.1      5.115      9.839
REMARK SMILES C#Cc1cc(Cl)cc2c1O[C@H](C(F)(F)F)C(C(=O)NCCCCNC(=O)c1ccc(-c3c4nc(c(-c5c(F)cccc5F)c5ccc([nH]5)c(-c5c(F)cccc5F)c5nc(c(-c6c(F)cccc6F)c6ccc3[nH]6)C=C5)C=C4)cc1)=C2
REMARK SMILES IDX 22 1 21 2 20 3 19 4 17 5 18 6 16 8 3 9 4 10 9 11 5 12 8 13
REMARK SMILES IDX 10 14 6 15 7 16 81 17 11 18 2 19 1 20 12 21 13 22 14 23
REMARK SMILES IDX 15 24 23 25 24 26 25 27 26 29 27 30 28 31 80 32 29 33 79 34
REMARK SMILES IDX 30 35 31 36 32 37 73 38 33 39 78 40 72 41 74 42 34 43 77 44
REMARK SMILES IDX 71 45 70 46 35 48 61 49 44 50 60 51 45 52 48 53 59 54 75 55
REMARK SMILES IDX 46 56 47 57 58 59 76 60 49 61 36 62 37 63 42 64 38 65 39 66
REMARK SMILES IDX 41 67 43 68 40 69 62 70 63 71 68 72 64 73 65 74 67 75 69 76
REMARK SMILES IDX 66 77 50 78 51 79 56 80 52 81 53 82 55 83 57 84 54 85
REMARK H PARENT 19 7 24 28 74 47 48 58
REMARK Flexibility Score: inf
ROOT
ATOM      1  C   UNL A   1      31.615  31.736  26.622  1.00  0.00     0.023 C 
ENDROOT
BRANCH   1   2
ATOM      2  C   UNL A   1      31.781  30.224  26.699  1.00  0.00     0.023 C 
BRANCH   2   3
ATOM      3  C   UNL A   1      33.236  29.781  26.615  1.00  0.00     0.116 C 
BRANCH   3   4
ATOM      4  N   UNL A   1      33.642  29.489  25.250  1.00  0.00    -0.352 N 
ATOM      5  C   UNL A   1      33.619  28.417  24.420  1.00  0.00     0.251 C 
ATOM      6  O   UNL A   1      34.041  28.614  23.277  1.00  0.00    -0.270 OA
ATOM      7  H   UNL A   1      34.038  30.277  24.813  1.00  0.00     0.163 HD
BRANCH   5   8
ATOM      8  C   UNL A   1      33.134  27.059  24.806  1.00  0.00     0.067 C 
ATOM      9  C   UNL A   1      31.913  23.279  26.180  1.00  0.00     0.068 A 
ATOM     10  C   UNL A   1      32.748  22.177  26.018  1.00  0.00     0.041 A 
ATOM     11  C   UNL A   1      32.341  24.538  25.739  1.00  0.00     0.143 A 
ATOM     12  C   UNL A   1      33.998  22.345  25.423  1.00  0.00     0.043 A 
ATOM     13  C   UNL A   1      33.596  24.713  25.149  1.00  0.00     0.020 A 
ATOM     14  O   UNL A   1      31.493  25.584  25.965  1.00  0.00    -0.474 OA
ATOM     15  Cl  UNL A   1      35.033  20.983  25.232  1.00  0.00    -0.084 Cl
ATOM     16  C   UNL A   1      34.428  23.603  24.989  1.00  0.00     0.032 A 
ATOM     17  C   UNL A   1      34.027  26.054  24.760  1.00  0.00     0.025 C 
ATOM     18  C   UNL A   1      31.718  26.791  25.212  1.00  0.00     0.314 C 
BRANCH   9  19
ATOM     19  C   UNL A   1      30.625  23.131  26.793  1.00  0.00    -0.067 C 
ATOM     20  C   UNL A   1      29.528  22.952  27.251  1.00  0.00     0.010 C 
ENDBRANCH   9  19
BRANCH  18  21
ATOM     21  C   UNL A   1      30.743  26.838  24.019  1.00  0.00     0.429 C 
ATOM     22  F   UNL A   1      30.192  28.073  23.907  1.00  0.00    -0.167 F 
ATOM     23  F   UNL A   1      31.351  26.586  22.835  1.00  0.00    -0.167 F 
ATOM     24  F   UNL A   1      29.734  25.949  24.137  1.00  0.00    -0.167 F 
ENDBRANCH  18  21
ENDBRANCH   5   8
ENDBRANCH   3   4
ENDBRANCH   2   3
ENDBRANCH   1   2
BRANCH   1  25
ATOM     25  C   UNL A   1      32.750  32.524  27.265  1.00  0.00     0.116 C 
BRANCH  25  26
ATOM     26  N   UNL A   1      32.395  33.904  27.572  1.00  0.00    -0.352 N 
ATOM     27  C   UNL A   1      32.982  34.740  28.492  1.00  0.00     0.251 C 
ATOM     28  H   UNL A   1      31.645  34.283  27.061  1.00  0.00     0.163 HD
ATOM     29  O   UNL A   1      32.506  35.839  28.750  1.00  0.00    -0.269 OA
BRANCH  27  30
ATOM     30  C   UNL A   1      34.185  34.257  29.191  1.00  0.00     0.039 A 
ATOM     31  C   UNL A   1      34.034  33.427  30.301  1.00  0.00     0.014 A 
ATOM     32  C   UNL A   1      35.449  34.529  28.658  1.00  0.00     0.014 A 
ATOM     33  C   UNL A   1      35.160  32.811  30.842  1.00  0.00     0.010 A 
ATOM     34  C   UNL A   1      36.550  33.833  29.134  1.00  0.00     0.010 A 
ATOM     35  C   UNL A   1      36.418  32.978  30.239  1.00  0.00    -0.014 A 
BRANCH  35  36
ATOM     36  C   UNL A   1      37.616  32.289  30.772  1.00  0.00     0.031 A 
ATOM     37  C   UNL A   1      38.254  32.784  32.037  1.00  0.00     0.074 A 
ATOM     38  C   UNL A   1      38.143  31.244  30.105  1.00  0.00     0.049 A 
ATOM     39  N   UNL A   1      39.312  32.330  32.660  1.00  0.00    -0.248 NA
ATOM     40  C   UNL A   1      37.638  33.957  32.679  1.00  0.00     0.031 C 
ATOM     41  C   UNL A   1      37.631  30.698  28.847  1.00  0.00     0.029 A 
ATOM     42  N   UNL A   1      39.224  30.451  30.396  1.00  0.00    -0.354 N 
ATOM     43  C   UNL A   1      39.481  33.158  33.761  1.00  0.00     0.074 A 
ATOM     44  C   UNL A   1      38.471  34.188  33.680  1.00  0.00     0.031 C 
ATOM     45  C   UNL A   1      38.368  29.632  28.500  1.00  0.00     0.029 A 
ATOM     46  C   UNL A   1      39.433  29.447  29.483  1.00  0.00     0.049 A 
ATOM     47  H   UNL A   1      39.795  30.588  31.186  1.00  0.00     0.167 HD
ATOM     48  C   UNL A   1      40.375  33.047  34.770  1.00  0.00     0.037 A 
ATOM     49  C   UNL A   1      40.375  28.485  29.443  1.00  0.00     0.037 A 
ATOM     50  C   UNL A   1      41.370  32.013  34.848  1.00  0.00     0.049 A 
ATOM     51  C   UNL A   1      41.393  28.413  30.547  1.00  0.00     0.074 A 
ATOM     52  C   UNL A   1      42.300  31.791  35.846  1.00  0.00     0.029 A 
ATOM     53  N   UNL A   1      41.569  31.030  33.888  1.00  0.00    -0.354 N 
ATOM     54  N   UNL A   1      41.504  29.163  31.618  1.00  0.00    -0.248 NA
ATOM     55  C   UNL A   1      42.413  27.361  30.443  1.00  0.00     0.031 C 
ATOM     56  C   UNL A   1      43.106  30.718  35.460  1.00  0.00     0.029 A 
ATOM     57  C   UNL A   1      42.633  30.223  34.254  1.00  0.00     0.049 A 
ATOM     58  H   UNL A   1      41.034  30.924  33.068  1.00  0.00     0.167 HD
ATOM     59  C   UNL A   1      42.589  28.661  32.325  1.00  0.00     0.074 A 
ATOM     60  C   UNL A   1      43.090  27.530  31.571  1.00  0.00     0.031 C 
ATOM     61  C   UNL A   1      43.122  29.099  33.493  1.00  0.00     0.037 A 
BRANCH  48  62
ATOM     62  C   UNL A   1      40.309  34.065  35.871  1.00  0.00     0.057 A 
ATOM     63  C   UNL A   1      41.037  35.262  35.816  1.00  0.00     0.134 A 
ATOM     64  C   UNL A   1      39.475  33.869  36.978  1.00  0.00     0.134 A 
ATOM     65  F   UNL A   1      41.868  35.507  34.791  1.00  0.00    -0.206 F 
ATOM     66  C   UNL A   1      40.957  36.214  36.833  1.00  0.00     0.040 A 
ATOM     67  C   UNL A   1      39.359  34.830  37.984  1.00  0.00     0.040 A 
ATOM     68  F   UNL A   1      38.746  32.749  37.094  1.00  0.00    -0.206 F 
ATOM     69  C   UNL A   1      40.107  36.004  37.916  1.00  0.00     0.006 A 
ENDBRANCH  48  62
BRANCH  49  70
ATOM     70  C   UNL A   1      40.368  27.496  28.335  1.00  0.00     0.057 A 
ATOM     71  C   UNL A   1      41.103  27.719  27.164  1.00  0.00     0.134 A 
ATOM     72  C   UNL A   1      39.662  26.290  28.431  1.00  0.00     0.134 A 
ATOM     73  F   UNL A   1      41.786  28.862  27.003  1.00  0.00    -0.206 F 
ATOM     74  C   UNL A   1      41.134  26.781  26.130  1.00  0.00     0.040 A 
ATOM     75  C   UNL A   1      39.708  25.331  27.416  1.00  0.00     0.040 A 
ATOM     76  F   UNL A   1      38.943  26.011  29.529  1.00  0.00    -0.206 F 
ATOM     77  C   UNL A   1      40.444  25.578  26.260  1.00  0.00     0.006 A 
ENDBRANCH  49  70
BRANCH  61  78
ATOM     78  C   UNL A   1      44.303  28.355  34.046  1.00  0.00     0.057 A 
ATOM     79  C   UNL A   1      45.618  28.773  33.804  1.00  0.00     0.134 A 
ATOM     80  C   UNL A   1      44.122  27.264  34.906  1.00  0.00     0.134 A 
ATOM     81  F   UNL A   1      45.864  29.806  32.984  1.00  0.00    -0.206 F 
ATOM     82  C   UNL A   1      46.709  28.124  34.386  1.00  0.00     0.040 A 
ATOM     83  C   UNL A   1      45.202  26.628  35.519  1.00  0.00     0.040 A 
ATOM     84  F   UNL A   1      42.888  26.819  35.193  1.00  0.00    -0.206 F 
ATOM     85  C   UNL A   1      46.500  27.056  35.257  1.00  0.00     0.006 A 
ENDBRANCH  61  78
ENDBRANCH  35  36
ENDBRANCH  27  30
ENDBRANCH  25  26
ENDBRANCH   1  25
TORSDOF 13
ENDMDL
