MODEL 1
REMARK VINA RESULT:     -12.1      0.000      0.000
REMARK SMILES Cc1n[nH]c(C(=O)N2CCC(CCC(=O)NCCCCNC(=O)c3ccc(-c4c5nc(c(-c6c(F)cccc6F)c6ccc([nH]6)c(-c6c(F)cccc6F)c6nc(c(-c7c(F)cccc7F)c7ccc4[nH]7)C=C6)C=C5)cc3)CC2)n1
REMARK SMILES IDX 18 1 17 2 16 3 14 4 15 5 13 7 12 8 11 9 6 10 7 11 8 12 9 13
REMARK SMILES IDX 79 14 10 15 78 16 5 17 1 18 2 19 3 20 80 21 4 22 19 24 20 25
REMARK SMILES IDX 21 26 22 27 23 29 24 30 25 31 77 32 26 33 76 34 27 35 28 36
REMARK SMILES IDX 29 37 70 38 30 39 75 40 69 41 71 42 31 43 74 44 68 45 67 46
REMARK SMILES IDX 32 48 58 49 41 50 57 51 42 52 45 53 56 54 72 55 43 56 44 57
REMARK SMILES IDX 55 59 73 60 46 61 33 62 34 63 39 64 35 65 36 66 38 67 40 68
REMARK SMILES IDX 37 69 59 70 60 71 65 72 61 73 62 74 64 75 66 76 63 77 47 78
REMARK SMILES IDX 48 79 53 80 49 81 50 82 52 83 54 84 51 85
REMARK H PARENT 16 6 4 23 21 28 71 47 45 58
REMARK Flexibility Score: inf
ROOT
ATOM      1  C   UNL A   1      41.603  20.760  26.982  1.00  0.00     0.023 C 
ENDROOT
BRANCH   1   2
ATOM      2  C   UNL A   1      40.185  20.518  26.418  1.00  0.00     0.116 C 
BRANCH   2   3
ATOM      3  N   UNL A   1      39.376  21.724  26.478  1.00  0.00    -0.356 N 
ATOM      4  C   UNL A   1      38.311  22.152  25.741  1.00  0.00     0.220 C 
ATOM      5  O   UNL A   1      37.883  23.284  25.985  1.00  0.00    -0.275 OA
ATOM      6  H   UNL A   1      39.650  22.353  27.185  1.00  0.00     0.163 HD
BRANCH   4   7
ATOM      7  C   UNL A   1      37.612  21.280  24.700  1.00  0.00     0.100 C 
BRANCH   7   8
ATOM      8  C   UNL A   1      36.227  20.707  25.079  1.00  0.00     0.013 C 
BRANCH   8   9
ATOM      9  C   UNL A   1      35.167  21.796  25.264  1.00  0.00    -0.007 C 
ATOM     10  C   UNL A   1      31.738  24.297  25.689  1.00  0.00     0.291 C 
ATOM     11  O   UNL A   1      30.725  23.796  25.200  1.00  0.00    -0.265 OA
ATOM     12  N   UNL A   1      32.936  23.571  25.621  1.00  0.00    -0.336 N 
ATOM     13  C   UNL A   1      33.298  23.103  24.285  1.00  0.00     0.120 C 
ATOM     14  C   UNL A   1      33.837  23.324  26.752  1.00  0.00     0.120 C 
ATOM     15  C   UNL A   1      34.008  21.755  24.269  1.00  0.00     0.025 C 
ATOM     16  C   UNL A   1      34.583  21.973  26.668  1.00  0.00     0.025 C 
BRANCH  10  17
ATOM     17  C   UNL A   1      31.781  25.676  26.152  1.00  0.00     0.214 A 
ATOM     18  C   UNL A   1      33.551  28.609  27.062  1.00  0.00     0.092 C 
ATOM     19  C   UNL A   1      32.549  27.562  26.770  1.00  0.00     0.148 A 
ATOM     20  N   UNL A   1      31.286  27.594  27.217  1.00  0.00    -0.159 NA
ATOM     21  N   UNL A   1      32.855  26.443  26.041  1.00  0.00    -0.207 NA
ATOM     22  N   UNL A   1      30.860  26.370  26.875  1.00  0.00    -0.255 N 
ATOM     23  H   UNL A   1      29.976  26.011  27.120  1.00  0.00     0.192 HD
ENDBRANCH  10  17
ENDBRANCH   8   9
ENDBRANCH   7   8
ENDBRANCH   4   7
ENDBRANCH   2   3
ENDBRANCH   1   2
BRANCH   1  24
ATOM     24  C   UNL A   1      42.670  19.682  26.812  1.00  0.00     0.023 C 
BRANCH  24  25
ATOM     25  C   UNL A   1      42.945  19.320  25.364  1.00  0.00     0.116 C 
BRANCH  25  26
ATOM     26  N   UNL A   1      44.361  19.042  25.041  1.00  0.00    -0.352 N 
ATOM     27  C   UNL A   1      45.310  19.947  24.555  1.00  0.00     0.251 C 
ATOM     28  H   UNL A   1      44.669  18.118  25.184  1.00  0.00     0.163 HD
ATOM     29  O   UNL A   1      46.358  19.642  24.034  1.00  0.00    -0.269 OA
BRANCH  27  30
ATOM     30  C   UNL A   1      45.046  21.350  24.837  1.00  0.00     0.039 A 
ATOM     31  C   UNL A   1      44.149  22.161  24.139  1.00  0.00     0.014 A 
ATOM     32  C   UNL A   1      45.654  21.746  26.010  1.00  0.00     0.014 A 
ATOM     33  C   UNL A   1      43.861  23.398  24.700  1.00  0.00     0.010 A 
ATOM     34  C   UNL A   1      44.995  22.677  26.721  1.00  0.00     0.010 A 
ATOM     35  C   UNL A   1      44.318  23.634  26.003  1.00  0.00    -0.014 A 
BRANCH  35  36
ATOM     36  C   UNL A   1      44.158  24.851  26.751  1.00  0.00     0.031 A 
ATOM     37  C   UNL A   1      45.225  25.836  26.536  1.00  0.00     0.074 A 
ATOM     38  C   UNL A   1      42.982  25.140  27.353  1.00  0.00     0.049 A 
ATOM     39  N   UNL A   1      46.210  26.071  27.329  1.00  0.00    -0.248 NA
ATOM     40  C   UNL A   1      45.328  26.496  25.228  1.00  0.00     0.031 C 
ATOM     41  C   UNL A   1      41.707  24.398  27.378  1.00  0.00     0.029 A 
ATOM     42  N   UNL A   1      42.682  26.253  28.059  1.00  0.00    -0.354 N 
ATOM     43  C   UNL A   1      46.933  27.089  26.731  1.00  0.00     0.074 A 
ATOM     44  C   UNL A   1      46.484  27.150  25.364  1.00  0.00     0.031 C 
ATOM     45  C   UNL A   1      40.731  25.175  27.900  1.00  0.00     0.029 A 
ATOM     46  C   UNL A   1      41.348  26.379  28.415  1.00  0.00     0.049 A 
ATOM     47  H   UNL A   1      43.360  26.923  28.303  1.00  0.00     0.167 HD
ATOM     48  C   UNL A   1      47.647  27.960  27.493  1.00  0.00     0.037 A 
ATOM     49  C   UNL A   1      40.813  27.413  29.104  1.00  0.00     0.037 A 
ATOM     50  C   UNL A   1      47.739  27.495  28.860  1.00  0.00     0.049 A 
ATOM     51  C   UNL A   1      41.940  28.049  29.841  1.00  0.00     0.074 A 
ATOM     52  C   UNL A   1      48.273  26.373  29.464  1.00  0.00     0.029 A 
ATOM     53  N   UNL A   1      46.835  28.007  29.764  1.00  0.00    -0.354 N 
ATOM     54  N   UNL A   1      42.599  27.441  30.794  1.00  0.00    -0.248 NA
ATOM     55  C   UNL A   1      42.670  29.116  29.170  1.00  0.00     0.031 C 
ATOM     56  C   UNL A   1      47.321  26.000  30.461  1.00  0.00     0.029 A 
ATOM     57  C   UNL A   1      46.300  26.953  30.465  1.00  0.00     0.049 A 
ATOM     58  H   UNL A   1      46.611  28.958  29.887  1.00  0.00     0.167 HD
ATOM     59  C   UNL A   1      43.934  27.757  30.576  1.00  0.00     0.074 A 
ATOM     60  C   UNL A   1      43.908  28.849  29.601  1.00  0.00     0.031 C 
ATOM     61  C   UNL A   1      44.941  26.916  30.966  1.00  0.00     0.037 A 
BRANCH  48  62
ATOM     62  C   UNL A   1      47.936  29.385  27.116  1.00  0.00     0.057 A 
ATOM     63  C   UNL A   1      49.254  29.857  27.214  1.00  0.00     0.134 A 
ATOM     64  C   UNL A   1      46.950  30.374  26.926  1.00  0.00     0.134 A 
ATOM     65  F   UNL A   1      50.276  29.009  27.399  1.00  0.00    -0.206 F 
ATOM     66  C   UNL A   1      49.561  31.222  27.201  1.00  0.00     0.040 A 
ATOM     67  C   UNL A   1      47.252  31.736  26.860  1.00  0.00     0.040 A 
ATOM     68  F   UNL A   1      45.642  30.091  26.899  1.00  0.00    -0.206 F 
ATOM     69  C   UNL A   1      48.556  32.166  27.032  1.00  0.00     0.006 A 
ENDBRANCH  48  62
BRANCH  49  70
ATOM     70  C   UNL A   1      39.504  28.058  28.872  1.00  0.00     0.057 A 
ATOM     71  C   UNL A   1      38.534  28.123  29.878  1.00  0.00     0.134 A 
ATOM     72  C   UNL A   1      39.275  28.862  27.738  1.00  0.00     0.134 A 
ATOM     73  F   UNL A   1      38.682  27.420  31.009  1.00  0.00    -0.206 F 
ATOM     74  C   UNL A   1      37.412  28.959  29.778  1.00  0.00     0.040 A 
ATOM     75  C   UNL A   1      38.161  29.700  27.625  1.00  0.00     0.040 A 
ATOM     76  F   UNL A   1      40.171  28.926  26.742  1.00  0.00    -0.206 F 
ATOM     77  C   UNL A   1      37.231  29.761  28.654  1.00  0.00     0.006 A 
ENDBRANCH  49  70
BRANCH  61  78
ATOM     78  C   UNL A   1      44.560  25.718  31.803  1.00  0.00     0.057 A 
ATOM     79  C   UNL A   1      44.381  24.427  31.284  1.00  0.00     0.134 A 
ATOM     80  C   UNL A   1      44.529  25.837  33.194  1.00  0.00     0.134 A 
ATOM     81  F   UNL A   1      44.497  24.189  29.976  1.00  0.00    -0.206 F 
ATOM     82  C   UNL A   1      44.139  23.315  32.099  1.00  0.00     0.040 A 
ATOM     83  C   UNL A   1      44.315  24.731  34.026  1.00  0.00     0.040 A 
ATOM     84  F   UNL A   1      44.758  27.025  33.774  1.00  0.00    -0.206 F 
ATOM     85  C   UNL A   1      44.109  23.467  33.479  1.00  0.00     0.006 A 
ENDBRANCH  61  78
ENDBRANCH  35  36
ENDBRANCH  27  30
ENDBRANCH  25  26
ENDBRANCH  24  25
ENDBRANCH   1  24
TORSDOF 14
ENDMDL
MODEL 2
REMARK VINA RESULT:     -11.3      4.735      9.796
REMARK SMILES Cc1n[nH]c(C(=O)N2CCC(CCC(=O)NCCCCNC(=O)c3ccc(-c4c5nc(c(-c6c(F)cccc6F)c6ccc([nH]6)c(-c6c(F)cccc6F)c6nc(c(-c7c(F)cccc7F)c7ccc4[nH]7)C=C6)C=C5)cc3)CC2)n1
REMARK SMILES IDX 18 1 17 2 16 3 14 4 15 5 13 7 12 8 11 9 6 10 7 11 8 12 9 13
REMARK SMILES IDX 79 14 10 15 78 16 5 17 1 18 2 19 3 20 80 21 4 22 19 24 20 25
REMARK SMILES IDX 21 26 22 27 23 29 24 30 25 31 77 32 26 33 76 34 27 35 28 36
REMARK SMILES IDX 29 37 70 38 30 39 75 40 69 41 71 42 31 43 74 44 68 45 67 46
REMARK SMILES IDX 32 48 58 49 41 50 57 51 42 52 45 53 56 54 72 55 43 56 44 57
REMARK SMILES IDX 55 59 73 60 46 61 33 62 34 63 39 64 35 65 36 66 38 67 40 68
REMARK SMILES IDX 37 69 59 70 60 71 65 72 61 73 62 74 64 75 66 76 63 77 47 78
REMARK SMILES IDX 48 79 53 80 49 81 50 82 52 83 54 84 51 85
REMARK H PARENT 16 6 4 23 21 28 71 47 45 58
REMARK Flexibility Score: inf
ROOT
ATOM      1  C   UNL A   1      32.187  29.954  25.953  1.00  0.00     0.023 C 
ENDROOT
BRANCH   1   2
ATOM      2  C   UNL A   1      31.542  29.454  24.641  1.00  0.00     0.116 C 
BRANCH   2   3
ATOM      3  N   UNL A   1      32.520  29.364  23.569  1.00  0.00    -0.356 N 
ATOM      4  C   UNL A   1      33.429  28.404  23.234  1.00  0.00     0.220 C 
ATOM      5  O   UNL A   1      34.193  28.661  22.298  1.00  0.00    -0.275 OA
ATOM      6  H   UNL A   1      32.528  30.146  22.970  1.00  0.00     0.163 HD
BRANCH   4   7
ATOM      7  C   UNL A   1      33.493  27.039  23.918  1.00  0.00     0.100 C 
BRANCH   7   8
ATOM      8  C   UNL A   1      32.456  25.983  23.472  1.00  0.00     0.013 C 
BRANCH   8   9
ATOM      9  C   UNL A   1      32.726  24.600  24.069  1.00  0.00    -0.007 C 
ATOM     10  C   UNL A   1      33.523  21.093  26.363  1.00  0.00     0.291 C 
ATOM     11  O   UNL A   1      34.052  21.348  27.446  1.00  0.00    -0.265 OA
ATOM     12  N   UNL A   1      33.203  22.163  25.514  1.00  0.00    -0.336 N 
ATOM     13  C   UNL A   1      34.304  23.084  25.241  1.00  0.00     0.120 C 
ATOM     14  C   UNL A   1      31.904  22.362  24.863  1.00  0.00     0.120 C 
ATOM     15  C   UNL A   1      33.873  24.536  25.076  1.00  0.00     0.025 C 
ATOM     16  C   UNL A   1      31.531  23.848  24.661  1.00  0.00     0.025 C 
BRANCH  10  17
ATOM     17  C   UNL A   1      33.400  19.736  25.855  1.00  0.00     0.214 A 
ATOM     18  C   UNL A   1      33.361  17.388  23.199  1.00  0.00     0.092 C 
ATOM     19  C   UNL A   1      33.310  18.104  24.492  1.00  0.00     0.148 A 
ATOM     20  N   UNL A   1      32.771  17.591  25.606  1.00  0.00    -0.159 NA
ATOM     21  N   UNL A   1      33.782  19.382  24.637  1.00  0.00    -0.207 NA
ATOM     22  N   UNL A   1      32.779  18.661  26.413  1.00  0.00    -0.255 N 
ATOM     23  H   UNL A   1      32.378  18.670  27.313  1.00  0.00     0.192 HD
ENDBRANCH  10  17
ENDBRANCH   8   9
ENDBRANCH   7   8
ENDBRANCH   4   7
ENDBRANCH   2   3
ENDBRANCH   1   2
BRANCH   1  24
ATOM     24  C   UNL A   1      31.699  31.258  26.577  1.00  0.00     0.023 C 
BRANCH  24  25
ATOM     25  C   UNL A   1      32.794  32.051  27.267  1.00  0.00     0.116 C 
BRANCH  25  26
ATOM     26  N   UNL A   1      32.514  33.491  27.446  1.00  0.00    -0.352 N 
ATOM     27  C   UNL A   1      33.020  34.333  28.441  1.00  0.00     0.251 C 
ATOM     28  H   UNL A   1      31.903  33.902  26.792  1.00  0.00     0.163 HD
ATOM     29  O   UNL A   1      32.562  35.414  28.737  1.00  0.00    -0.269 OA
BRANCH  27  30
ATOM     30  C   UNL A   1      34.271  33.909  29.050  1.00  0.00     0.039 A 
ATOM     31  C   UNL A   1      34.393  33.265  30.283  1.00  0.00     0.014 A 
ATOM     32  C   UNL A   1      35.326  34.048  28.173  1.00  0.00     0.014 A 
ATOM     33  C   UNL A   1      35.638  32.731  30.587  1.00  0.00     0.010 A 
ATOM     34  C   UNL A   1      36.302  33.130  28.287  1.00  0.00     0.010 A 
ATOM     35  C   UNL A   1      36.588  32.692  29.559  1.00  0.00    -0.014 A 
BRANCH  35  36
ATOM     36  C   UNL A   1      37.939  32.213  29.669  1.00  0.00     0.031 A 
ATOM     37  C   UNL A   1      38.128  30.831  29.213  1.00  0.00     0.074 A 
ATOM     38  C   UNL A   1      38.958  33.072  29.898  1.00  0.00     0.049 A 
ATOM     39  N   UNL A   1      38.233  29.792  29.966  1.00  0.00    -0.248 NA
ATOM     40  C   UNL A   1      37.997  30.533  27.782  1.00  0.00     0.031 C 
ATOM     41  C   UNL A   1      38.962  34.541  30.048  1.00  0.00     0.029 A 
ATOM     42  N   UNL A   1      40.271  32.769  29.995  1.00  0.00    -0.354 N 
ATOM     43  C   UNL A   1      38.426  28.727  29.102  1.00  0.00     0.074 A 
ATOM     44  C   UNL A   1      38.051  29.198  27.794  1.00  0.00     0.031 C 
ATOM     45  C   UNL A   1      40.233  35.003  30.024  1.00  0.00     0.029 A 
ATOM     46  C   UNL A   1      41.123  33.861  30.052  1.00  0.00     0.049 A 
ATOM     47  H   UNL A   1      40.599  31.841  30.024  1.00  0.00     0.167 HD
ATOM     48  C   UNL A   1      39.129  27.636  29.509  1.00  0.00     0.037 A 
ATOM     49  C   UNL A   1      42.472  33.803  30.132  1.00  0.00     0.037 A 
ATOM     50  C   UNL A   1      39.351  27.668  30.938  1.00  0.00     0.049 A 
ATOM     51  C   UNL A   1      42.798  32.458  30.682  1.00  0.00     0.074 A 
ATOM     52  C   UNL A   1      38.521  27.671  32.044  1.00  0.00     0.029 A 
ATOM     53  N   UNL A   1      40.558  28.161  31.380  1.00  0.00    -0.354 N 
ATOM     54  N   UNL A   1      42.470  32.086  31.893  1.00  0.00    -0.248 NA
ATOM     55  C   UNL A   1      42.993  31.369  29.734  1.00  0.00     0.031 C 
ATOM     56  C   UNL A   1      39.110  28.610  32.946  1.00  0.00     0.029 A 
ATOM     57  C   UNL A   1      40.300  29.069  32.378  1.00  0.00     0.049 A 
ATOM     58  H   UNL A   1      41.448  27.909  31.041  1.00  0.00     0.167 HD
ATOM     59  C   UNL A   1      42.022  30.777  31.766  1.00  0.00     0.074 A 
ATOM     60  C   UNL A   1      42.433  30.368  30.422  1.00  0.00     0.031 C 
ATOM     61  C   UNL A   1      41.103  30.249  32.632  1.00  0.00     0.037 A 
BRANCH  48  62
ATOM     62  C   UNL A   1      39.929  26.749  28.599  1.00  0.00     0.057 A 
ATOM     63  C   UNL A   1      40.952  27.321  27.825  1.00  0.00     0.134 A 
ATOM     64  C   UNL A   1      39.568  25.432  28.249  1.00  0.00     0.134 A 
ATOM     65  F   UNL A   1      41.378  28.569  28.063  1.00  0.00    -0.206 F 
ATOM     66  C   UNL A   1      41.521  26.656  26.733  1.00  0.00     0.040 A 
ATOM     67  C   UNL A   1      40.166  24.742  27.193  1.00  0.00     0.040 A 
ATOM     68  F   UNL A   1      38.555  24.784  28.836  1.00  0.00    -0.206 F 
ATOM     69  C   UNL A   1      41.121  25.366  26.409  1.00  0.00     0.006 A 
ENDBRANCH  48  62
BRANCH  49  70
ATOM     70  C   UNL A   1      43.446  34.678  29.446  1.00  0.00     0.057 A 
ATOM     71  C   UNL A   1      44.153  35.667  30.138  1.00  0.00     0.134 A 
ATOM     72  C   UNL A   1      43.902  34.385  28.146  1.00  0.00     0.134 A 
ATOM     73  F   UNL A   1      43.813  35.989  31.394  1.00  0.00    -0.206 F 
ATOM     74  C   UNL A   1      45.267  36.313  29.582  1.00  0.00     0.040 A 
ATOM     75  C   UNL A   1      45.010  35.021  27.579  1.00  0.00     0.040 A 
ATOM     76  F   UNL A   1      43.338  33.410  27.417  1.00  0.00    -0.206 F 
ATOM     77  C   UNL A   1      45.706  35.980  28.303  1.00  0.00     0.006 A 
ENDBRANCH  49  70
BRANCH  61  78
ATOM     78  C   UNL A   1      40.728  31.077  33.837  1.00  0.00     0.057 A 
ATOM     79  C   UNL A   1      39.603  31.915  33.891  1.00  0.00     0.134 A 
ATOM     80  C   UNL A   1      41.430  30.905  35.032  1.00  0.00     0.134 A 
ATOM     81  F   UNL A   1      38.804  32.063  32.832  1.00  0.00    -0.206 F 
ATOM     82  C   UNL A   1      39.217  32.583  35.058  1.00  0.00     0.040 A 
ATOM     83  C   UNL A   1      41.042  31.544  36.215  1.00  0.00     0.040 A 
ATOM     84  F   UNL A   1      42.478  30.069  35.083  1.00  0.00    -0.206 F 
ATOM     85  C   UNL A   1      39.939  32.394  36.230  1.00  0.00     0.006 A 
ENDBRANCH  61  78
ENDBRANCH  35  36
ENDBRANCH  27  30
ENDBRANCH  25  26
ENDBRANCH  24  25
ENDBRANCH   1  24
TORSDOF 14
ENDMDL
MODEL 3
REMARK VINA RESULT:     -11.1      4.795     10.125
REMARK SMILES Cc1n[nH]c(C(=O)N2CCC(CCC(=O)NCCCCNC(=O)c3ccc(-c4c5nc(c(-c6c(F)cccc6F)c6ccc([nH]6)c(-c6c(F)cccc6F)c6nc(c(-c7c(F)cccc7F)c7ccc4[nH]7)C=C6)C=C5)cc3)CC2)n1
REMARK SMILES IDX 18 1 17 2 16 3 14 4 15 5 13 7 12 8 11 9 6 10 7 11 8 12 9 13
REMARK SMILES IDX 79 14 10 15 78 16 5 17 1 18 2 19 3 20 80 21 4 22 19 24 20 25
REMARK SMILES IDX 21 26 22 27 23 29 24 30 25 31 77 32 26 33 76 34 27 35 28 36
REMARK SMILES IDX 29 37 70 38 30 39 75 40 69 41 71 42 31 43 74 44 68 45 67 46
REMARK SMILES IDX 32 48 58 49 41 50 57 51 42 52 45 53 56 54 72 55 43 56 44 57
REMARK SMILES IDX 55 59 73 60 46 61 33 62 34 63 39 64 35 65 36 66 38 67 40 68
REMARK SMILES IDX 37 69 59 70 60 71 65 72 61 73 62 74 64 75 66 76 63 77 47 78
REMARK SMILES IDX 48 79 53 80 49 81 50 82 52 83 54 84 51 85
REMARK H PARENT 16 6 4 23 21 28 71 47 45 58
REMARK Flexibility Score: inf
ROOT
ATOM      1  C   UNL A   1      37.303  30.527  32.387  1.00  0.00     0.023 C 
ENDROOT
BRANCH   1   2
ATOM      2  C   UNL A   1      38.495  31.488  32.185  1.00  0.00     0.116 C 
BRANCH   2   3
ATOM      3  N   UNL A   1      39.585  31.181  33.098  1.00  0.00    -0.356 N 
ATOM      4  C   UNL A   1      40.061  31.819  34.205  1.00  0.00     0.220 C 
ATOM      5  O   UNL A   1      41.074  31.346  34.729  1.00  0.00    -0.275 OA
ATOM      6  H   UNL A   1      40.073  30.356  32.872  1.00  0.00     0.163 HD
BRANCH   4   7
ATOM      7  C   UNL A   1      39.369  33.027  34.836  1.00  0.00     0.100 C 
BRANCH   7   8
ATOM      8  C   UNL A   1      37.916  32.825  35.326  1.00  0.00     0.013 C 
BRANCH   8   9
ATOM      9  C   UNL A   1      36.898  33.608  34.495  1.00  0.00    -0.007 C 
ATOM     10  C   UNL A   1      34.123  36.297  32.688  1.00  0.00     0.291 C 
ATOM     11  O   UNL A   1      33.670  37.117  33.489  1.00  0.00    -0.265 OA
ATOM     12  N   UNL A   1      35.053  35.357  33.157  1.00  0.00    -0.336 N 
ATOM     13  C   UNL A   1      34.631  34.608  34.338  1.00  0.00     0.120 C 
ATOM     14  C   UNL A   1      36.337  35.054  32.517  1.00  0.00     0.120 C 
ATOM     15  C   UNL A   1      35.767  34.259  35.291  1.00  0.00     0.025 C 
ATOM     16  C   UNL A   1      37.447  34.648  33.513  1.00  0.00     0.025 C 
BRANCH  10  17
ATOM     17  C   UNL A   1      33.589  36.144  31.344  1.00  0.00     0.214 A 
ATOM     18  C   UNL A   1      33.136  34.287  28.359  1.00  0.00     0.092 C 
ATOM     19  C   UNL A   1      33.158  35.293  29.442  1.00  0.00     0.148 A 
ATOM     20  N   UNL A   1      32.880  36.591  29.257  1.00  0.00    -0.159 NA
ATOM     21  N   UNL A   1      33.509  34.975  30.727  1.00  0.00    -0.207 NA
ATOM     22  N   UNL A   1      33.230  37.102  30.446  1.00  0.00    -0.255 N 
ATOM     23  H   UNL A   1      33.228  38.066  30.649  1.00  0.00     0.192 HD
ENDBRANCH  10  17
ENDBRANCH   8   9
ENDBRANCH   7   8
ENDBRANCH   4   7
ENDBRANCH   2   3
ENDBRANCH   1   2
BRANCH   1  24
ATOM     24  C   UNL A   1      35.885  31.029  32.130  1.00  0.00     0.023 C 
BRANCH  24  25
ATOM     25  C   UNL A   1      35.794  32.053  31.013  1.00  0.00     0.116 C 
BRANCH  25  26
ATOM     26  N   UNL A   1      34.997  31.637  29.839  1.00  0.00    -0.352 N 
ATOM     27  C   UNL A   1      35.481  31.210  28.598  1.00  0.00     0.251 C 
ATOM     28  H   UNL A   1      34.019  31.663  29.943  1.00  0.00     0.163 HD
ATOM     29  O   UNL A   1      34.829  31.154  27.580  1.00  0.00    -0.269 OA
BRANCH  27  30
ATOM     30  C   UNL A   1      36.832  30.673  28.599  1.00  0.00     0.039 A 
ATOM     31  C   UNL A   1      38.005  31.430  28.641  1.00  0.00     0.014 A 
ATOM     32  C   UNL A   1      36.825  29.301  28.743  1.00  0.00     0.014 A 
ATOM     33  C   UNL A   1      39.186  30.738  28.871  1.00  0.00     0.010 A 
ATOM     34  C   UNL A   1      37.860  28.782  29.425  1.00  0.00     0.010 A 
ATOM     35  C   UNL A   1      39.079  29.394  29.251  1.00  0.00    -0.014 A 
BRANCH  35  36
ATOM     36  C   UNL A   1      40.171  28.494  29.503  1.00  0.00     0.031 A 
ATOM     37  C   UNL A   1      40.479  28.301  30.924  1.00  0.00     0.074 A 
ATOM     38  C   UNL A   1      40.650  27.699  28.518  1.00  0.00     0.049 A 
ATOM     39  N   UNL A   1      41.444  28.852  31.572  1.00  0.00    -0.248 NA
ATOM     40  C   UNL A   1      39.516  27.581  31.767  1.00  0.00     0.031 C 
ATOM     41  C   UNL A   1      40.219  27.541  27.115  1.00  0.00     0.029 A 
ATOM     42  N   UNL A   1      41.645  26.790  28.618  1.00  0.00    -0.354 N 
ATOM     43  C   UNL A   1      41.357  28.355  32.862  1.00  0.00     0.074 A 
ATOM     44  C   UNL A   1      40.046  27.771  32.978  1.00  0.00     0.031 C 
ATOM     45  C   UNL A   1      40.825  26.463  26.566  1.00  0.00     0.029 A 
ATOM     46  C   UNL A   1      41.815  25.982  27.505  1.00  0.00     0.049 A 
ATOM     47  H   UNL A   1      42.208  26.710  29.422  1.00  0.00     0.167 HD
ATOM     48  C   UNL A   1      42.474  28.241  33.628  1.00  0.00     0.037 A 
ATOM     49  C   UNL A   1      42.731  24.994  27.384  1.00  0.00     0.037 A 
ATOM     50  C   UNL A   1      43.590  28.933  33.021  1.00  0.00     0.049 A 
ATOM     51  C   UNL A   1      43.807  25.301  28.368  1.00  0.00     0.074 A 
ATOM     52  C   UNL A   1      43.838  30.249  32.678  1.00  0.00     0.029 A 
ATOM     53  N   UNL A   1      44.467  28.183  32.270  1.00  0.00    -0.354 N 
ATOM     54  N   UNL A   1      44.576  26.355  28.273  1.00  0.00    -0.248 NA
ATOM     55  C   UNL A   1      43.670  24.755  29.711  1.00  0.00     0.031 C 
ATOM     56  C   UNL A   1      44.485  30.184  31.406  1.00  0.00     0.029 A 
ATOM     57  C   UNL A   1      44.665  28.839  31.078  1.00  0.00     0.049 A 
ATOM     58  H   UNL A   1      44.878  27.329  32.538  1.00  0.00     0.167 HD
ATOM     59  C   UNL A   1      44.688  26.845  29.569  1.00  0.00     0.074 A 
ATOM     60  C   UNL A   1      44.163  25.776  30.421  1.00  0.00     0.031 C 
ATOM     61  C   UNL A   1      44.909  28.173  29.814  1.00  0.00     0.037 A 
BRANCH  48  62
ATOM     62  C   UNL A   1      42.667  27.215  34.707  1.00  0.00     0.057 A 
ATOM     63  C   UNL A   1      42.544  27.612  36.049  1.00  0.00     0.134 A 
ATOM     64  C   UNL A   1      43.227  25.938  34.503  1.00  0.00     0.134 A 
ATOM     65  F   UNL A   1      42.028  28.808  36.367  1.00  0.00    -0.206 F 
ATOM     66  C   UNL A   1      43.016  26.826  37.106  1.00  0.00     0.040 A 
ATOM     67  C   UNL A   1      43.653  25.124  35.554  1.00  0.00     0.040 A 
ATOM     68  F   UNL A   1      43.486  25.453  33.282  1.00  0.00    -0.206 F 
ATOM     69  C   UNL A   1      43.580  25.582  36.859  1.00  0.00     0.006 A 
ENDBRANCH  48  62
BRANCH  49  70
ATOM     70  C   UNL A   1      42.543  23.674  26.746  1.00  0.00     0.057 A 
ATOM     71  C   UNL A   1      43.529  23.111  25.928  1.00  0.00     0.134 A 
ATOM     72  C   UNL A   1      41.498  22.815  27.138  1.00  0.00     0.134 A 
ATOM     73  F   UNL A   1      44.580  23.843  25.533  1.00  0.00    -0.206 F 
ATOM     74  C   UNL A   1      43.496  21.763  25.543  1.00  0.00     0.040 A 
ATOM     75  C   UNL A   1      41.453  21.469  26.761  1.00  0.00     0.040 A 
ATOM     76  F   UNL A   1      40.534  23.232  27.973  1.00  0.00    -0.206 F 
ATOM     77  C   UNL A   1      42.462  20.935  25.972  1.00  0.00     0.006 A 
ENDBRANCH  49  70
BRANCH  61  78
ATOM     78  C   UNL A   1      45.207  29.059  28.629  1.00  0.00     0.057 A 
ATOM     79  C   UNL A   1      44.243  29.846  27.979  1.00  0.00     0.134 A 
ATOM     80  C   UNL A   1      46.532  29.246  28.230  1.00  0.00     0.134 A 
ATOM     81  F   UNL A   1      42.964  29.819  28.358  1.00  0.00    -0.206 F 
ATOM     82  C   UNL A   1      44.570  30.742  26.956  1.00  0.00     0.040 A 
ATOM     83  C   UNL A   1      46.880  30.158  27.226  1.00  0.00     0.040 A 
ATOM     84  F   UNL A   1      47.522  28.582  28.846  1.00  0.00    -0.206 F 
ATOM     85  C   UNL A   1      45.897  30.903  26.578  1.00  0.00     0.006 A 
ENDBRANCH  61  78
ENDBRANCH  35  36
ENDBRANCH  27  30
ENDBRANCH  25  26
ENDBRANCH  24  25
ENDBRANCH   1  24
TORSDOF 14
ENDMDL
