MODEL 1
REMARK VINA RESULT:     -11.9      0.000      0.000
REMARK SMILES C/C(=N\NC(N)=S)c1nnn(-c2ccc(C(=O)NCCCCNC(=O)c3ccc(-c4c5nc(c(-c6c(F)cccc6F)c6ccc([nH]6)c(-c6c(F)cccc6F)c6nc(c(-c7c(F)cccc7F)c7ccc4[nH]7)C=C6)C=C5)cc3)cc2)c1C
REMARK SMILES IDX 19 1 18 2 16 3 17 4 15 6 12 7 13 8 81 9 14 10 80 11 11 12
REMARK SMILES IDX 8 13 9 14 82 15 10 16 83 17 2 18 1 19 3 20 4 21 5 23 7 24
REMARK SMILES IDX 6 25 20 28 21 29 22 30 23 31 24 32 25 34 26 35 27 36 79 37
REMARK SMILES IDX 28 38 78 39 29 40 30 41 31 42 72 43 32 44 77 45 71 46 73 47
REMARK SMILES IDX 33 48 76 49 70 50 69 51 34 53 60 54 43 55 59 56 44 57 47 58
REMARK SMILES IDX 58 59 74 60 45 61 46 62 57 64 75 65 48 66 35 67 36 68 41 69
REMARK SMILES IDX 37 70 38 71 40 72 42 73 39 74 61 75 62 76 67 77 63 78 64 79
REMARK SMILES IDX 66 80 68 81 65 82 49 83 50 84 55 85 51 86 52 87 54 88 56 89
REMARK SMILES IDX 53 90
REMARK H PARENT 18 5 4 22 6 26 6 27 23 33 73 52 47 63
REMARK Flexibility Score: inf
ROOT
ATOM      1  C   UNL A   1      39.305  21.719  26.067  1.00  0.00     0.116 C 
ENDROOT
BRANCH   1   2
ATOM      2  N   UNL A   1      38.616  20.539  25.575  1.00  0.00    -0.352 N 
ATOM      3  C   UNL A   1      37.383  20.341  24.997  1.00  0.00     0.251 C 
ATOM      4  O   UNL A   1      37.124  19.204  24.603  1.00  0.00    -0.269 OA
ATOM      5  H   UNL A   1      39.139  19.710  25.674  1.00  0.00     0.163 HD
BRANCH   3   6
ATOM      6  C   UNL A   1      36.386  21.430  24.768  1.00  0.00     0.039 A 
ATOM      7  C   UNL A   1      34.329  23.243  24.217  1.00  0.00     0.067 A 
ATOM      8  C   UNL A   1      34.110  22.238  25.159  1.00  0.00     0.029 A 
ATOM      9  C   UNL A   1      35.587  23.427  23.647  1.00  0.00     0.029 A 
ATOM     10  C   UNL A   1      35.135  21.316  25.407  1.00  0.00     0.016 A 
ATOM     11  C   UNL A   1      36.617  22.546  23.961  1.00  0.00     0.016 A 
BRANCH   7  12
ATOM     12  N   UNL A   1      33.254  24.012  23.744  1.00  0.00    -0.217 N 
ATOM     13  C   UNL A   1      31.628  25.435  23.540  1.00  0.00     0.132 A 
ATOM     14  N   UNL A   1      31.915  24.909  22.306  1.00  0.00    -0.128 NA
ATOM     15  C   UNL A   1      32.490  24.901  24.478  1.00  0.00     0.071 A 
ATOM     16  N   UNL A   1      32.956  24.098  22.432  1.00  0.00    -0.061 NA
ATOM     17  C   UNL A   1      32.757  25.283  25.885  1.00  0.00     0.069 C 
BRANCH  13  18
ATOM     18  C   UNL A   1      30.736  26.566  23.701  1.00  0.00     0.087 C 
ATOM     19  C   UNL A   1      29.482  26.294  24.488  1.00  0.00     0.071 C 
ATOM     20  N   UNL A   1      31.133  27.688  23.176  1.00  0.00    -0.176 NA
BRANCH  20  21
ATOM     21  N   UNL A   1      30.412  28.836  23.343  1.00  0.00    -0.254 N 
ATOM     22  H   UNL A   1      30.268  29.122  24.274  1.00  0.00     0.193 HD
BRANCH  21  23
ATOM     23  C   UNL A   1      29.860  29.647  22.371  1.00  0.00     0.184 C 
ATOM     24  S   UNL A   1      28.284  30.144  22.181  1.00  0.00    -0.040 S 
BRANCH  23  25
ATOM     25  N   UNL A   1      30.795  30.074  21.468  1.00  0.00    -0.375 N 
ATOM     26  H   UNL A   1      31.349  30.862  21.668  1.00  0.00     0.159 HD
ATOM     27  H   UNL A   1      30.913  29.593  20.616  1.00  0.00     0.159 HD
ENDBRANCH  23  25
ENDBRANCH  21  23
ENDBRANCH  20  21
ENDBRANCH  13  18
ENDBRANCH   7  12
ENDBRANCH   3   6
ENDBRANCH   1   2
BRANCH   1  28
ATOM     28  C   UNL A   1      40.674  21.379  26.674  1.00  0.00     0.023 C 
BRANCH  28  29
ATOM     29  C   UNL A   1      41.288  20.044  26.234  1.00  0.00     0.023 C 
BRANCH  29  30
ATOM     30  C   UNL A   1      42.667  19.741  26.809  1.00  0.00     0.116 C 
BRANCH  30  31
ATOM     31  N   UNL A   1      43.696  19.538  25.782  1.00  0.00    -0.352 N 
ATOM     32  C   UNL A   1      44.257  20.478  24.930  1.00  0.00     0.251 C 
ATOM     33  H   UNL A   1      44.029  18.616  25.685  1.00  0.00     0.163 HD
ATOM     34  O   UNL A   1      44.808  20.159  23.895  1.00  0.00    -0.269 OA
BRANCH  32  35
ATOM     35  C   UNL A   1      44.185  21.892  25.335  1.00  0.00     0.039 A 
ATOM     36  C   UNL A   1      43.337  22.810  24.710  1.00  0.00     0.014 A 
ATOM     37  C   UNL A   1      44.940  22.252  26.443  1.00  0.00     0.014 A 
ATOM     38  C   UNL A   1      43.183  24.073  25.280  1.00  0.00     0.010 A 
ATOM     39  C   UNL A   1      44.633  23.408  27.107  1.00  0.00     0.010 A 
ATOM     40  C   UNL A   1      43.818  24.357  26.497  1.00  0.00    -0.014 A 
BRANCH  40  41
ATOM     41  C   UNL A   1      43.634  25.628  27.186  1.00  0.00     0.031 A 
ATOM     42  C   UNL A   1      44.585  26.724  26.854  1.00  0.00     0.074 A 
ATOM     43  C   UNL A   1      42.531  25.880  27.925  1.00  0.00     0.049 A 
ATOM     44  N   UNL A   1      45.443  27.281  27.643  1.00  0.00    -0.248 NA
ATOM     45  C   UNL A   1      44.643  27.222  25.472  1.00  0.00     0.031 C 
ATOM     46  C   UNL A   1      41.342  25.041  28.136  1.00  0.00     0.029 A 
ATOM     47  N   UNL A   1      42.197  27.029  28.566  1.00  0.00    -0.354 N 
ATOM     48  C   UNL A   1      46.046  28.306  26.919  1.00  0.00     0.074 A 
ATOM     49  C   UNL A   1      45.607  28.144  25.554  1.00  0.00     0.031 C 
ATOM     50  C   UNL A   1      40.338  25.795  28.630  1.00  0.00     0.029 A 
ATOM     51  C   UNL A   1      40.869  27.104  28.952  1.00  0.00     0.049 A 
ATOM     52  H   UNL A   1      42.846  27.748  28.743  1.00  0.00     0.167 HD
ATOM     53  C   UNL A   1      46.724  29.317  27.534  1.00  0.00     0.037 A 
ATOM     54  C   UNL A   1      40.245  28.180  29.484  1.00  0.00     0.037 A 
ATOM     55  C   UNL A   1      46.959  29.025  28.924  1.00  0.00     0.049 A 
ATOM     56  C   UNL A   1      41.299  29.043  30.072  1.00  0.00     0.074 A 
ATOM     57  C   UNL A   1      47.647  28.040  29.604  1.00  0.00     0.029 A 
ATOM     58  N   UNL A   1      46.120  29.599  29.850  1.00  0.00    -0.354 N 
ATOM     59  N   UNL A   1      42.024  28.696  31.101  1.00  0.00    -0.248 NA
ATOM     60  C   UNL A   1      41.873  30.083  29.230  1.00  0.00     0.031 C 
ATOM     61  C   UNL A   1      46.826  27.735  30.731  1.00  0.00     0.029 A 
ATOM     62  C   UNL A   1      45.728  28.597  30.701  1.00  0.00     0.049 A 
ATOM     63  H   UNL A   1      45.852  30.545  29.893  1.00  0.00     0.167 HD
ATOM     64  C   UNL A   1      43.303  29.141  30.802  1.00  0.00     0.074 A 
ATOM     65  C   UNL A   1      43.129  30.070  29.686  1.00  0.00     0.031 C 
ATOM     66  C   UNL A   1      44.411  28.508  31.289  1.00  0.00     0.037 A 
BRANCH  53  67
ATOM     67  C   UNL A   1      46.914  30.704  26.986  1.00  0.00     0.057 A 
ATOM     68  C   UNL A   1      48.187  31.303  27.029  1.00  0.00     0.134 A 
ATOM     69  C   UNL A   1      45.848  31.572  26.684  1.00  0.00     0.134 A 
ATOM     70  F   UNL A   1      49.278  30.579  27.323  1.00  0.00    -0.206 F 
ATOM     71  C   UNL A   1      48.376  32.678  26.845  1.00  0.00     0.040 A 
ATOM     72  C   UNL A   1      46.032  32.938  26.451  1.00  0.00     0.040 A 
ATOM     73  F   UNL A   1      44.574  31.161  26.701  1.00  0.00    -0.206 F 
ATOM     74  C   UNL A   1      47.294  33.502  26.561  1.00  0.00     0.006 A 
ENDBRANCH  53  67
BRANCH  54  75
ATOM     75  C   UNL A   1      38.854  28.621  29.245  1.00  0.00     0.057 A 
ATOM     76  C   UNL A   1      37.922  28.673  30.288  1.00  0.00     0.134 A 
ATOM     77  C   UNL A   1      38.475  29.250  28.044  1.00  0.00     0.134 A 
ATOM     78  F   UNL A   1      38.207  28.132  31.482  1.00  0.00    -0.206 F 
ATOM     79  C   UNL A   1      36.694  29.335  30.154  1.00  0.00     0.040 A 
ATOM     80  C   UNL A   1      37.250  29.907  27.895  1.00  0.00     0.040 A 
ATOM     81  F   UNL A   1      39.315  29.322  27.000  1.00  0.00    -0.206 F 
ATOM     82  C   UNL A   1      36.360  29.965  28.959  1.00  0.00     0.006 A 
ENDBRANCH  54  75
BRANCH  66  83
ATOM     83  C   UNL A   1      44.216  27.442  32.336  1.00  0.00     0.057 A 
ATOM     84  C   UNL A   1      44.165  26.068  32.055  1.00  0.00     0.134 A 
ATOM     85  C   UNL A   1      44.260  27.804  33.686  1.00  0.00     0.134 A 
ATOM     86  F   UNL A   1      44.227  25.615  30.799  1.00  0.00    -0.206 F 
ATOM     87  C   UNL A   1      44.118  25.104  33.066  1.00  0.00     0.040 A 
ATOM     88  C   UNL A   1      44.245  26.850  34.707  1.00  0.00     0.040 A 
ATOM     89  F   UNL A   1      44.374  29.095  34.035  1.00  0.00    -0.206 F 
ATOM     90  C   UNL A   1      44.165  25.494  34.398  1.00  0.00     0.006 A 
ENDBRANCH  66  83
ENDBRANCH  40  41
ENDBRANCH  32  35
ENDBRANCH  30  31
ENDBRANCH  29  30
ENDBRANCH  28  29
ENDBRANCH   1  28
TORSDOF 16
ENDMDL
MODEL 2
REMARK VINA RESULT:     -11.9      3.470      9.174
REMARK SMILES C/C(=N\NC(N)=S)c1nnn(-c2ccc(C(=O)NCCCCNC(=O)c3ccc(-c4c5nc(c(-c6c(F)cccc6F)c6ccc([nH]6)c(-c6c(F)cccc6F)c6nc(c(-c7c(F)cccc7F)c7ccc4[nH]7)C=C6)C=C5)cc3)cc2)c1C
REMARK SMILES IDX 19 1 18 2 16 3 17 4 15 6 12 7 13 8 81 9 14 10 80 11 11 12
REMARK SMILES IDX 8 13 9 14 82 15 10 16 83 17 2 18 1 19 3 20 4 21 5 23 7 24
REMARK SMILES IDX 6 25 20 28 21 29 22 30 23 31 24 32 25 34 26 35 27 36 79 37
REMARK SMILES IDX 28 38 78 39 29 40 30 41 31 42 72 43 32 44 77 45 71 46 73 47
REMARK SMILES IDX 33 48 76 49 70 50 69 51 34 53 60 54 43 55 59 56 44 57 47 58
REMARK SMILES IDX 58 59 74 60 45 61 46 62 57 64 75 65 48 66 35 67 36 68 41 69
REMARK SMILES IDX 37 70 38 71 40 72 42 73 39 74 61 75 62 76 67 77 63 78 64 79
REMARK SMILES IDX 66 80 68 81 65 82 49 83 50 84 55 85 51 86 52 87 54 88 56 89
REMARK SMILES IDX 53 90
REMARK H PARENT 18 5 4 22 6 26 6 27 23 33 73 52 47 63
REMARK Flexibility Score: inf
ROOT
ATOM      1  C   UNL A   1      33.736  26.470  24.738  1.00  0.00     0.116 C 
ENDROOT
BRANCH   1   2
ATOM      2  N   UNL A   1      32.908  25.326  24.399  1.00  0.00    -0.352 N 
ATOM      3  C   UNL A   1      33.137  23.969  24.386  1.00  0.00     0.251 C 
ATOM      4  O   UNL A   1      32.179  23.240  24.126  1.00  0.00    -0.269 OA
ATOM      5  H   UNL A   1      31.995  25.571  24.122  1.00  0.00     0.163 HD
BRANCH   3   6
ATOM      6  C   UNL A   1      34.449  23.342  24.729  1.00  0.00     0.039 A 
ATOM      7  C   UNL A   1      36.857  21.976  25.121  1.00  0.00     0.067 A 
ATOM      8  C   UNL A   1      36.687  22.724  23.957  1.00  0.00     0.029 A 
ATOM      9  C   UNL A   1      35.902  22.002  26.135  1.00  0.00     0.029 A 
ATOM     10  C   UNL A   1      35.467  23.381  23.755  1.00  0.00     0.016 A 
ATOM     11  C   UNL A   1      34.726  22.722  25.948  1.00  0.00     0.016 A 
BRANCH   7  12
ATOM     12  N   UNL A   1      37.943  21.093  25.239  1.00  0.00    -0.217 N 
ATOM     13  C   UNL A   1      39.850  20.171  25.711  1.00  0.00     0.132 A 
ATOM     14  N   UNL A   1      39.002  19.210  25.222  1.00  0.00    -0.128 NA
ATOM     15  C   UNL A   1      39.190  21.383  25.762  1.00  0.00     0.071 A 
ATOM     16  N   UNL A   1      37.820  19.770  25.006  1.00  0.00    -0.061 NA
ATOM     17  C   UNL A   1      39.558  22.668  26.403  1.00  0.00     0.069 C 
BRANCH  13  18
ATOM     18  C   UNL A   1      41.125  19.832  26.313  1.00  0.00     0.087 C 
ATOM     19  C   UNL A   1      41.219  20.058  27.798  1.00  0.00     0.071 C 
ATOM     20  N   UNL A   1      42.026  19.346  25.510  1.00  0.00    -0.176 NA
BRANCH  20  21
ATOM     21  N   UNL A   1      43.230  18.912  25.987  1.00  0.00    -0.254 N 
ATOM     22  H   UNL A   1      43.243  18.625  26.928  1.00  0.00     0.193 HD
BRANCH  21  23
ATOM     23  C   UNL A   1      44.433  18.825  25.313  1.00  0.00     0.184 C 
ATOM     24  S   UNL A   1      44.788  19.206  23.734  1.00  0.00    -0.040 S 
BRANCH  23  25
ATOM     25  N   UNL A   1      45.437  18.355  26.115  1.00  0.00    -0.375 N 
ATOM     26  H   UNL A   1      45.951  18.979  26.677  1.00  0.00     0.159 HD
ATOM     27  H   UNL A   1      45.646  17.393  26.131  1.00  0.00     0.159 HD
ENDBRANCH  23  25
ENDBRANCH  21  23
ENDBRANCH  20  21
ENDBRANCH  13  18
ENDBRANCH   7  12
ENDBRANCH   3   6
ENDBRANCH   1   2
BRANCH   1  28
ATOM     28  C   UNL A   1      33.208  27.222  25.969  1.00  0.00     0.023 C 
BRANCH  28  29
ATOM     29  C   UNL A   1      33.264  28.752  25.893  1.00  0.00     0.023 C 
BRANCH  29  30
ATOM     30  C   UNL A   1      33.629  29.456  27.195  1.00  0.00     0.116 C 
BRANCH  30  31
ATOM     31  N   UNL A   1      33.997  30.865  27.015  1.00  0.00    -0.352 N 
ATOM     32  C   UNL A   1      35.024  31.570  27.626  1.00  0.00     0.251 C 
ATOM     33  H   UNL A   1      33.444  31.375  26.379  1.00  0.00     0.163 HD
ATOM     34  O   UNL A   1      35.017  32.783  27.697  1.00  0.00    -0.269 OA
BRANCH  32  35
ATOM     35  C   UNL A   1      36.149  30.793  28.175  1.00  0.00     0.039 A 
ATOM     36  C   UNL A   1      36.267  29.413  27.995  1.00  0.00     0.014 A 
ATOM     37  C   UNL A   1      37.147  31.523  28.807  1.00  0.00     0.014 A 
ATOM     38  C   UNL A   1      37.456  28.789  28.372  1.00  0.00     0.010 A 
ATOM     39  C   UNL A   1      38.375  30.949  28.986  1.00  0.00     0.010 A 
ATOM     40  C   UNL A   1      38.519  29.572  28.846  1.00  0.00    -0.014 A 
BRANCH  40  41
ATOM     41  C   UNL A   1      39.814  28.993  29.181  1.00  0.00     0.031 A 
ATOM     42  C   UNL A   1      40.090  28.733  30.621  1.00  0.00     0.074 A 
ATOM     43  C   UNL A   1      40.642  28.510  28.229  1.00  0.00     0.049 A 
ATOM     44  N   UNL A   1      40.993  29.291  31.357  1.00  0.00    -0.248 NA
ATOM     45  C   UNL A   1      39.227  27.795  31.353  1.00  0.00     0.031 C 
ATOM     46  C   UNL A   1      40.428  28.405  26.778  1.00  0.00     0.029 A 
ATOM     47  N   UNL A   1      41.839  27.893  28.394  1.00  0.00    -0.354 N 
ATOM     48  C   UNL A   1      40.930  28.674  32.604  1.00  0.00     0.074 A 
ATOM     49  C   UNL A   1      39.745  27.851  32.584  1.00  0.00     0.031 C 
ATOM     50  C   UNL A   1      41.330  27.552  26.247  1.00  0.00     0.029 A 
ATOM     51  C   UNL A   1      42.293  27.214  27.276  1.00  0.00     0.049 A 
ATOM     52  H   UNL A   1      42.344  27.927  29.239  1.00  0.00     0.167 HD
ATOM     53  C   UNL A   1      41.957  28.754  33.497  1.00  0.00     0.037 A 
ATOM     54  C   UNL A   1      43.380  26.411  27.207  1.00  0.00     0.037 A 
ATOM     55  C   UNL A   1      42.922  29.746  33.103  1.00  0.00     0.049 A 
ATOM     56  C   UNL A   1      44.276  26.801  28.324  1.00  0.00     0.074 A 
ATOM     57  C   UNL A   1      42.881  31.113  32.905  1.00  0.00     0.029 A 
ATOM     58  N   UNL A   1      44.066  29.315  32.476  1.00  0.00    -0.354 N 
ATOM     59  N   UNL A   1      44.878  27.958  28.394  1.00  0.00    -0.248 NA
ATOM     60  C   UNL A   1      44.126  26.101  29.592  1.00  0.00     0.031 C 
ATOM     61  C   UNL A   1      43.696  31.338  31.756  1.00  0.00     0.029 A 
ATOM     62  C   UNL A   1      44.233  30.108  31.369  1.00  0.00     0.049 A 
ATOM     63  H   UNL A   1      44.653  28.579  32.764  1.00  0.00     0.167 HD
ATOM     64  C   UNL A   1      44.792  28.323  29.730  1.00  0.00     0.074 A 
ATOM     65  C   UNL A   1      44.407  27.101  30.433  1.00  0.00     0.031 C 
ATOM     66  C   UNL A   1      44.760  29.635  30.109  1.00  0.00     0.037 A 
BRANCH  53  67
ATOM     67  C   UNL A   1      42.272  27.739  34.562  1.00  0.00     0.057 A 
ATOM     68  C   UNL A   1      42.853  26.509  34.202  1.00  0.00     0.134 A 
ATOM     69  C   UNL A   1      41.769  27.809  35.874  1.00  0.00     0.134 A 
ATOM     70  F   UNL A   1      43.353  26.318  32.971  1.00  0.00    -0.206 F 
ATOM     71  C   UNL A   1      42.875  25.408  35.068  1.00  0.00     0.040 A 
ATOM     72  C   UNL A   1      41.829  26.732  36.762  1.00  0.00     0.040 A 
ATOM     73  F   UNL A   1      41.107  28.884  36.321  1.00  0.00    -0.206 F 
ATOM     74  C   UNL A   1      42.356  25.516  36.351  1.00  0.00     0.006 A 
ENDBRANCH  53  67
BRANCH  54  75
ATOM     75  C   UNL A   1      43.529  25.165  26.426  1.00  0.00     0.057 A 
ATOM     76  C   UNL A   1      44.427  25.084  25.356  1.00  0.00     0.134 A 
ATOM     77  C   UNL A   1      42.985  23.944  26.872  1.00  0.00     0.134 A 
ATOM     78  F   UNL A   1      45.023  26.189  24.884  1.00  0.00    -0.206 F 
ATOM     79  C   UNL A   1      44.786  23.858  24.779  1.00  0.00     0.040 A 
ATOM     80  C   UNL A   1      43.330  22.716  26.300  1.00  0.00     0.040 A 
ATOM     81  F   UNL A   1      42.167  23.894  27.934  1.00  0.00    -0.206 F 
ATOM     82  C   UNL A   1      44.247  22.668  25.259  1.00  0.00     0.006 A 
ENDBRANCH  54  75
BRANCH  66  83
ATOM     83  C   UNL A   1      45.037  30.683  29.064  1.00  0.00     0.057 A 
ATOM     84  C   UNL A   1      44.044  31.286  28.277  1.00  0.00     0.134 A 
ATOM     85  C   UNL A   1      46.322  31.227  28.976  1.00  0.00     0.134 A 
ATOM     86  F   UNL A   1      42.765  30.910  28.367  1.00  0.00    -0.206 F 
ATOM     87  C   UNL A   1      44.324  32.349  27.413  1.00  0.00     0.040 A 
ATOM     88  C   UNL A   1      46.610  32.310  28.141  1.00  0.00     0.040 A 
ATOM     89  F   UNL A   1      47.312  30.748  29.745  1.00  0.00    -0.206 F 
ATOM     90  C   UNL A   1      45.611  32.870  27.348  1.00  0.00     0.006 A 
ENDBRANCH  66  83
ENDBRANCH  40  41
ENDBRANCH  32  35
ENDBRANCH  30  31
ENDBRANCH  29  30
ENDBRANCH  28  29
ENDBRANCH   1  28
TORSDOF 16
ENDMDL
MODEL 3
REMARK VINA RESULT:     -11.8      3.639      8.147
REMARK SMILES C/C(=N\NC(N)=S)c1nnn(-c2ccc(C(=O)NCCCCNC(=O)c3ccc(-c4c5nc(c(-c6c(F)cccc6F)c6ccc([nH]6)c(-c6c(F)cccc6F)c6nc(c(-c7c(F)cccc7F)c7ccc4[nH]7)C=C6)C=C5)cc3)cc2)c1C
REMARK SMILES IDX 19 1 18 2 16 3 17 4 15 6 12 7 13 8 81 9 14 10 80 11 11 12
REMARK SMILES IDX 8 13 9 14 82 15 10 16 83 17 2 18 1 19 3 20 4 21 5 23 7 24
REMARK SMILES IDX 6 25 20 28 21 29 22 30 23 31 24 32 25 34 26 35 27 36 79 37
REMARK SMILES IDX 28 38 78 39 29 40 30 41 31 42 72 43 32 44 77 45 71 46 73 47
REMARK SMILES IDX 33 48 76 49 70 50 69 51 34 53 60 54 43 55 59 56 44 57 47 58
REMARK SMILES IDX 58 59 74 60 45 61 46 62 57 64 75 65 48 66 35 67 36 68 41 69
REMARK SMILES IDX 37 70 38 71 40 72 42 73 39 74 61 75 62 76 67 77 63 78 64 79
REMARK SMILES IDX 66 80 68 81 65 82 49 83 50 84 55 85 51 86 52 87 54 88 56 89
REMARK SMILES IDX 53 90
REMARK H PARENT 18 5 4 22 6 26 6 27 23 33 73 52 47 63
REMARK Flexibility Score: inf
ROOT
ATOM      1  C   UNL A   1      31.582  30.016  25.981  1.00  0.00     0.116 C 
ENDROOT
BRANCH   1   2
ATOM      2  N   UNL A   1      31.165  30.023  24.590  1.00  0.00    -0.352 N 
ATOM      3  C   UNL A   1      31.027  29.034  23.644  1.00  0.00     0.251 C 
ATOM      4  O   UNL A   1      30.558  29.361  22.553  1.00  0.00    -0.269 OA
ATOM      5  H   UNL A   1      30.932  30.919  24.255  1.00  0.00     0.163 HD
BRANCH   3   6
ATOM      6  C   UNL A   1      31.351  27.596  23.888  1.00  0.00     0.039 A 
ATOM      7  C   UNL A   1      31.817  24.941  24.631  1.00  0.00     0.067 A 
ATOM      8  C   UNL A   1      30.502  25.377  24.474  1.00  0.00     0.029 A 
ATOM      9  C   UNL A   1      32.890  25.768  24.306  1.00  0.00     0.029 A 
ATOM     10  C   UNL A   1      30.277  26.716  24.130  1.00  0.00     0.016 A 
ATOM     11  C   UNL A   1      32.646  27.074  23.894  1.00  0.00     0.016 A 
BRANCH   7  12
ATOM     12  N   UNL A   1      32.081  23.699  25.230  1.00  0.00    -0.217 N 
ATOM     13  C   UNL A   1      32.656  21.643  25.621  1.00  0.00     0.132 A 
ATOM     14  N   UNL A   1      32.445  22.279  26.817  1.00  0.00    -0.128 NA
ATOM     15  C   UNL A   1      32.460  22.535  24.585  1.00  0.00     0.071 A 
ATOM     16  N   UNL A   1      32.166  23.551  26.567  1.00  0.00    -0.061 NA
ATOM     17  C   UNL A   1      32.767  22.433  23.139  1.00  0.00     0.069 C 
BRANCH  13  18
ATOM     18  C   UNL A   1      33.255  20.324  25.551  1.00  0.00     0.087 C 
ATOM     19  C   UNL A   1      34.665  20.281  25.027  1.00  0.00     0.071 C 
ATOM     20  N   UNL A   1      32.520  19.338  25.974  1.00  0.00    -0.176 NA
BRANCH  20  21
ATOM     21  N   UNL A   1      33.016  18.067  26.035  1.00  0.00    -0.254 N 
ATOM     22  H   UNL A   1      33.711  17.908  26.712  1.00  0.00     0.193 HD
BRANCH  21  23
ATOM     23  C   UNL A   1      32.665  16.976  25.264  1.00  0.00     0.184 C 
ATOM     24  S   UNL A   1      32.756  15.355  25.625  1.00  0.00    -0.040 S 
BRANCH  23  25
ATOM     25  N   UNL A   1      32.172  17.347  24.043  1.00  0.00    -0.375 N 
ATOM     26  H   UNL A   1      32.568  16.979  23.220  1.00  0.00     0.159 HD
ATOM     27  H   UNL A   1      31.421  17.982  23.986  1.00  0.00     0.159 HD
ENDBRANCH  23  25
ENDBRANCH  21  23
ENDBRANCH  20  21
ENDBRANCH  13  18
ENDBRANCH   7  12
ENDBRANCH   3   6
ENDBRANCH   1   2
BRANCH   1  28
ATOM     28  C   UNL A   1      33.112  30.015  26.126  1.00  0.00     0.023 C 
BRANCH  28  29
ATOM     29  C   UNL A   1      33.703  28.880  26.972  1.00  0.00     0.023 C 
BRANCH  29  30
ATOM     30  C   UNL A   1      35.162  29.061  27.374  1.00  0.00     0.116 C 
BRANCH  30  31
ATOM     31  N   UNL A   1      35.336  29.840  28.605  1.00  0.00    -0.352 N 
ATOM     32  C   UNL A   1      36.364  29.760  29.534  1.00  0.00     0.251 C 
ATOM     33  H   UNL A   1      34.635  30.504  28.796  1.00  0.00     0.163 HD
ATOM     34  O   UNL A   1      36.233  30.164  30.673  1.00  0.00    -0.269 OA
BRANCH  32  35
ATOM     35  C   UNL A   1      37.642  29.182  29.086  1.00  0.00     0.039 A 
ATOM     36  C   UNL A   1      38.301  29.620  27.935  1.00  0.00     0.014 A 
ATOM     37  C   UNL A   1      38.214  28.234  29.924  1.00  0.00     0.014 A 
ATOM     38  C   UNL A   1      39.596  29.162  27.691  1.00  0.00     0.010 A 
ATOM     39  C   UNL A   1      39.545  27.950  29.792  1.00  0.00     0.010 A 
ATOM     40  C   UNL A   1      40.223  28.343  28.642  1.00  0.00    -0.014 A 
BRANCH  40  41
ATOM     41  C   UNL A   1      41.602  27.897  28.487  1.00  0.00     0.031 A 
ATOM     42  C   UNL A   1      41.830  26.663  27.686  1.00  0.00     0.074 A 
ATOM     43  C   UNL A   1      42.643  28.672  28.859  1.00  0.00     0.049 A 
ATOM     44  N   UNL A   1      42.305  25.536  28.105  1.00  0.00    -0.248 NA
ATOM     45  C   UNL A   1      41.427  26.646  26.273  1.00  0.00     0.031 C 
ATOM     46  C   UNL A   1      42.637  30.042  29.396  1.00  0.00     0.029 A 
ATOM     47  N   UNL A   1      43.969  28.418  28.720  1.00  0.00    -0.354 N 
ATOM     48  C   UNL A   1      42.415  24.710  26.989  1.00  0.00     0.074 A 
ATOM     49  C   UNL A   1      41.745  25.399  25.913  1.00  0.00     0.031 C 
ATOM     50  C   UNL A   1      43.874  30.573  29.296  1.00  0.00     0.029 A 
ATOM     51  C   UNL A   1      44.785  29.525  28.880  1.00  0.00     0.049 A 
ATOM     52  H   UNL A   1      44.321  27.520  28.523  1.00  0.00     0.167 HD
ATOM     53  C   UNL A   1      43.204  23.598  26.995  1.00  0.00     0.037 A 
ATOM     54  C   UNL A   1      46.119  29.580  28.665  1.00  0.00     0.037 A 
ATOM     55  C   UNL A   1      43.641  23.268  28.326  1.00  0.00     0.049 A 
ATOM     56  C   UNL A   1      46.630  28.190  28.764  1.00  0.00     0.074 A 
ATOM     57  C   UNL A   1      42.999  22.917  29.497  1.00  0.00     0.029 A 
ATOM     58  N   UNL A   1      44.909  23.647  28.697  1.00  0.00    -0.354 N 
ATOM     59  N   UNL A   1      46.627  27.498  29.872  1.00  0.00    -0.248 NA
ATOM     60  C   UNL A   1      46.700  27.403  27.540  1.00  0.00     0.031 C 
ATOM     61  C   UNL A   1      43.724  23.591  30.525  1.00  0.00     0.029 A 
ATOM     62  C   UNL A   1      44.797  24.252  29.923  1.00  0.00     0.049 A 
ATOM     63  H   UNL A   1      45.737  23.512  28.183  1.00  0.00     0.167 HD
ATOM     64  C   UNL A   1      46.260  26.216  29.490  1.00  0.00     0.074 A 
ATOM     65  C   UNL A   1      46.412  26.196  28.035  1.00  0.00     0.031 C 
ATOM     66  C   UNL A   1      45.596  25.380  30.343  1.00  0.00     0.037 A 
BRANCH  53  67
ATOM     67  C   UNL A   1      43.847  22.975  25.786  1.00  0.00     0.057 A 
ATOM     68  C   UNL A   1      43.728  21.589  25.570  1.00  0.00     0.134 A 
ATOM     69  C   UNL A   1      44.807  23.629  24.992  1.00  0.00     0.134 A 
ATOM     70  F   UNL A   1      42.857  20.854  26.280  1.00  0.00    -0.206 F 
ATOM     71  C   UNL A   1      44.549  20.896  24.672  1.00  0.00     0.040 A 
ATOM     72  C   UNL A   1      45.599  22.955  24.058  1.00  0.00     0.040 A 
ATOM     73  F   UNL A   1      45.094  24.927  25.156  1.00  0.00    -0.206 F 
ATOM     74  C   UNL A   1      45.493  21.580  23.916  1.00  0.00     0.006 A 
ENDBRANCH  53  67
BRANCH  54  75
ATOM     75  C   UNL A   1      46.894  30.705  28.100  1.00  0.00     0.057 A 
ATOM     76  C   UNL A   1      46.499  31.331  26.911  1.00  0.00     0.134 A 
ATOM     77  C   UNL A   1      47.890  31.364  28.845  1.00  0.00     0.134 A 
ATOM     78  F   UNL A   1      45.532  30.797  26.151  1.00  0.00    -0.206 F 
ATOM     79  C   UNL A   1      47.044  32.555  26.500  1.00  0.00     0.040 A 
ATOM     80  C   UNL A   1      48.446  32.582  28.442  1.00  0.00     0.040 A 
ATOM     81  F   UNL A   1      48.297  30.893  30.033  1.00  0.00    -0.206 F 
ATOM     82  C   UNL A   1      48.012  33.191  27.272  1.00  0.00     0.006 A 
ENDBRANCH  54  75
BRANCH  66  83
ATOM     83  C   UNL A   1      45.460  25.799  31.783  1.00  0.00     0.057 A 
ATOM     84  C   UNL A   1      46.481  25.669  32.736  1.00  0.00     0.134 A 
ATOM     85  C   UNL A   1      44.325  26.518  32.174  1.00  0.00     0.134 A 
ATOM     86  F   UNL A   1      47.647  25.092  32.429  1.00  0.00    -0.206 F 
ATOM     87  C   UNL A   1      46.363  26.191  34.027  1.00  0.00     0.040 A 
ATOM     88  C   UNL A   1      44.207  27.073  33.451  1.00  0.00     0.040 A 
ATOM     89  F   UNL A   1      43.333  26.741  31.298  1.00  0.00    -0.206 F 
ATOM     90  C   UNL A   1      45.224  26.902  34.387  1.00  0.00     0.006 A 
ENDBRANCH  66  83
ENDBRANCH  40  41
ENDBRANCH  32  35
ENDBRANCH  30  31
ENDBRANCH  29  30
ENDBRANCH  28  29
ENDBRANCH   1  28
TORSDOF 16
ENDMDL
