MODEL 1
REMARK VINA RESULT:     -11.3      0.000      0.000
REMARK SMILES [NH3+][C@H](CCC(=O)NCCCCNC(=O)c1ccc(-c2c3nc(c(-c4c(F)cccc4F)c4ccc([nH]4)c(-c4c(F)cccc4F)c4nc(c(-c5c(F)cccc5F)c5ccc2[nH]5)C=C4)C=C3)cc1)Cc1c[nH]c2ccccc12
REMARK SMILES IDX 8 1 7 2 5 3 6 4 4 6 3 7 2 8 1 9 69 13 70 14 71 15 78 16
REMARK SMILES IDX 72 17 73 18 77 19 74 21 76 22 75 23 9 24 10 25 11 26 12 27
REMARK SMILES IDX 13 28 14 30 15 31 16 32 68 33 17 34 67 35 18 36 19 37 20 38
REMARK SMILES IDX 61 39 21 40 66 41 60 42 62 43 22 44 65 45 59 46 58 47 23 49
REMARK SMILES IDX 49 50 32 51 48 52 33 53 36 54 47 55 63 56 34 57 35 58 46 60
REMARK SMILES IDX 64 61 37 62 24 63 25 64 30 65 26 66 27 67 29 68 31 69 28 70
REMARK SMILES IDX 50 71 51 72 56 73 52 74 53 75 55 76 57 77 54 78 38 79 39 80
REMARK SMILES IDX 44 81 40 82 41 83 43 84 45 85 42 86
REMARK H PARENT 7 5 1 10 1 11 1 12 72 20 12 29 62 48 36 59
REMARK Flexibility Score: inf
ROOT
ATOM      1  C   UNL A   1      37.363  22.609  25.463  1.00  0.00     0.116 C 
ENDROOT
BRANCH   1   2
ATOM      2  N   UNL A   1      36.233  22.609  26.381  1.00  0.00    -0.356 N 
ATOM      3  C   UNL A   1      35.076  23.300  26.520  1.00  0.00     0.220 C 
ATOM      4  O   UNL A   1      34.280  22.832  27.344  1.00  0.00    -0.275 OA
ATOM      5  H   UNL A   1      36.336  21.928  27.085  1.00  0.00     0.163 HD
BRANCH   3   6
ATOM      6  C   UNL A   1      34.666  24.537  25.746  1.00  0.00     0.106 C 
BRANCH   6   7
ATOM      7  C   UNL A   1      34.260  24.348  24.294  1.00  0.00     0.075 C 
BRANCH   7   8
ATOM      8  C   UNL A   1      33.103  23.367  24.059  1.00  0.00     0.185 C 
BRANCH   8   9
ATOM      9  N   UNL A   1      32.098  24.160  23.343  1.00  0.00    -0.355 N 
ATOM     10  H   UNL A   1      31.730  23.617  22.562  1.00  0.00     0.344 HD
ATOM     11  H   UNL A   1      32.529  25.015  22.989  1.00  0.00     0.344 HD
ATOM     12  H   UNL A   1      31.339  24.400  23.979  1.00  0.00     0.344 HD
ENDBRANCH   8   9
BRANCH   8  13
ATOM     13  C   UNL A   1      33.530  21.942  23.480  1.00  0.00     0.102 C 
BRANCH  13  14
ATOM     14  C   UNL A   1      32.698  20.719  23.996  1.00  0.00    -0.017 A 
ATOM     15  C   UNL A   1      32.492  20.640  25.376  1.00  0.00     0.087 A 
ATOM     16  C   UNL A   1      32.997  19.322  23.786  1.00  0.00     0.003 A 
ATOM     17  N   UNL A   1      33.751  20.084  25.682  1.00  0.00    -0.361 N 
ATOM     18  C   UNL A   1      33.992  19.104  24.738  1.00  0.00     0.046 A 
ATOM     19  C   UNL A   1      32.490  18.170  23.160  1.00  0.00     0.010 A 
ATOM     20  H   UNL A   1      34.344  20.344  26.424  1.00  0.00     0.166 HD
ATOM     21  C   UNL A   1      34.929  18.083  24.626  1.00  0.00     0.026 A 
ATOM     22  C   UNL A   1      33.278  17.004  23.218  1.00  0.00     0.001 A 
ATOM     23  C   UNL A   1      34.542  17.017  23.818  1.00  0.00     0.002 A 
ENDBRANCH  13  14
ENDBRANCH   8  13
ENDBRANCH   7   8
ENDBRANCH   6   7
ENDBRANCH   3   6
ENDBRANCH   1   2
BRANCH   1  24
ATOM     24  C   UNL A   1      37.331  21.430  24.469  1.00  0.00     0.023 C 
BRANCH  24  25
ATOM     25  C   UNL A   1      37.938  20.165  25.001  1.00  0.00     0.023 C 
BRANCH  25  26
ATOM     26  C   UNL A   1      39.202  20.464  25.754  1.00  0.00     0.116 C 
BRANCH  26  27
ATOM     27  N   UNL A   1      40.034  19.273  25.904  1.00  0.00    -0.352 N 
ATOM     28  C   UNL A   1      41.401  19.223  26.063  1.00  0.00     0.251 C 
ATOM     29  H   UNL A   1      39.564  18.408  25.890  1.00  0.00     0.163 HD
ATOM     30  O   UNL A   1      42.032  18.201  25.911  1.00  0.00    -0.269 OA
BRANCH  28  31
ATOM     31  C   UNL A   1      42.057  20.497  26.399  1.00  0.00     0.039 A 
ATOM     32  C   UNL A   1      42.397  21.374  25.376  1.00  0.00     0.014 A 
ATOM     33  C   UNL A   1      42.154  20.869  27.744  1.00  0.00     0.014 A 
ATOM     34  C   UNL A   1      42.793  22.662  25.715  1.00  0.00     0.010 A 
ATOM     35  C   UNL A   1      42.351  22.196  28.058  1.00  0.00     0.010 A 
ATOM     36  C   UNL A   1      42.722  23.094  27.052  1.00  0.00    -0.014 A 
BRANCH  36  37
ATOM     37  C   UNL A   1      43.081  24.474  27.430  1.00  0.00     0.031 A 
ATOM     38  C   UNL A   1      44.522  24.895  27.401  1.00  0.00     0.074 A 
ATOM     39  C   UNL A   1      42.119  25.330  27.817  1.00  0.00     0.049 A 
ATOM     40  N   UNL A   1      45.044  26.055  27.700  1.00  0.00    -0.248 NA
ATOM     41  C   UNL A   1      45.515  23.878  27.008  1.00  0.00     0.031 C 
ATOM     42  C   UNL A   1      40.693  25.011  27.927  1.00  0.00     0.029 A 
ATOM     43  N   UNL A   1      42.194  26.649  28.181  1.00  0.00    -0.354 N 
ATOM     44  C   UNL A   1      46.413  25.904  27.529  1.00  0.00     0.074 A 
ATOM     45  C   UNL A   1      46.655  24.523  27.186  1.00  0.00     0.031 C 
ATOM     46  C   UNL A   1      40.022  26.119  28.276  1.00  0.00     0.029 A 
ATOM     47  C   UNL A   1      40.975  27.203  28.484  1.00  0.00     0.049 A 
ATOM     48  H   UNL A   1      43.040  27.151  28.220  1.00  0.00     0.167 HD
ATOM     49  C   UNL A   1      47.378  26.844  27.619  1.00  0.00     0.037 A 
ATOM     50  C   UNL A   1      40.665  28.444  28.902  1.00  0.00     0.037 A 
ATOM     51  C   UNL A   1      47.127  28.214  27.968  1.00  0.00     0.049 A 
ATOM     52  C   UNL A   1      41.771  29.450  29.064  1.00  0.00     0.074 A 
ATOM     53  C   UNL A   1      48.032  29.254  28.057  1.00  0.00     0.029 A 
ATOM     54  N   UNL A   1      45.884  28.731  28.304  1.00  0.00    -0.354 N 
ATOM     55  N   UNL A   1      43.055  29.313  28.834  1.00  0.00    -0.248 NA
ATOM     56  C   UNL A   1      41.386  30.785  29.538  1.00  0.00     0.031 C 
ATOM     57  C   UNL A   1      47.357  30.376  28.538  1.00  0.00     0.029 A 
ATOM     58  C   UNL A   1      46.011  30.065  28.645  1.00  0.00     0.049 A 
ATOM     59  H   UNL A   1      45.040  28.224  28.300  1.00  0.00     0.167 HD
ATOM     60  C   UNL A   1      43.623  30.553  29.100  1.00  0.00     0.074 A 
ATOM     61  C   UNL A   1      42.540  31.431  29.489  1.00  0.00     0.031 C 
ATOM     62  C   UNL A   1      44.923  30.931  29.026  1.00  0.00     0.037 A 
BRANCH  49  63
ATOM     63  C   UNL A   1      48.791  26.415  27.356  1.00  0.00     0.057 A 
ATOM     64  C   UNL A   1      49.640  25.974  28.383  1.00  0.00     0.134 A 
ATOM     65  C   UNL A   1      49.300  26.408  26.052  1.00  0.00     0.134 A 
ATOM     66  F   UNL A   1      49.220  25.962  29.656  1.00  0.00    -0.206 F 
ATOM     67  C   UNL A   1      50.952  25.578  28.124  1.00  0.00     0.040 A 
ATOM     68  C   UNL A   1      50.596  25.973  25.775  1.00  0.00     0.040 A 
ATOM     69  F   UNL A   1      48.541  26.810  25.021  1.00  0.00    -0.206 F 
ATOM     70  C   UNL A   1      51.430  25.567  26.815  1.00  0.00     0.006 A 
ENDBRANCH  49  63
BRANCH  50  71
ATOM     71  C   UNL A   1      39.258  28.799  29.213  1.00  0.00     0.057 A 
ATOM     72  C   UNL A   1      38.425  29.391  28.256  1.00  0.00     0.134 A 
ATOM     73  C   UNL A   1      38.721  28.588  30.489  1.00  0.00     0.134 A 
ATOM     74  F   UNL A   1      38.881  29.629  27.017  1.00  0.00    -0.206 F 
ATOM     75  C   UNL A   1      37.129  29.802  28.569  1.00  0.00     0.040 A 
ATOM     76  C   UNL A   1      37.412  28.953  30.803  1.00  0.00     0.040 A 
ATOM     77  F   UNL A   1      39.459  28.011  31.450  1.00  0.00    -0.206 F 
ATOM     78  C   UNL A   1      36.618  29.579  29.846  1.00  0.00     0.006 A 
ENDBRANCH  50  71
BRANCH  62  79
ATOM     79  C   UNL A   1      45.244  32.370  29.314  1.00  0.00     0.057 A 
ATOM     80  C   UNL A   1      45.662  32.808  30.577  1.00  0.00     0.134 A 
ATOM     81  C   UNL A   1      45.173  33.327  28.292  1.00  0.00     0.134 A 
ATOM     82  F   UNL A   1      45.753  31.946  31.602  1.00  0.00    -0.206 F 
ATOM     83  C   UNL A   1      45.950  34.151  30.824  1.00  0.00     0.040 A 
ATOM     84  C   UNL A   1      45.505  34.662  28.514  1.00  0.00     0.040 A 
ATOM     85  F   UNL A   1      44.800  32.975  27.051  1.00  0.00    -0.206 F 
ATOM     86  C   UNL A   1      45.880  35.080  29.788  1.00  0.00     0.006 A 
ENDBRANCH  62  79
ENDBRANCH  36  37
ENDBRANCH  28  31
ENDBRANCH  26  27
ENDBRANCH  25  26
ENDBRANCH  24  25
ENDBRANCH   1  24
TORSDOF 16
ENDMDL
MODEL 2
REMARK VINA RESULT:     -11.3      5.636     10.635
REMARK SMILES [NH3+][C@H](CCC(=O)NCCCCNC(=O)c1ccc(-c2c3nc(c(-c4c(F)cccc4F)c4ccc([nH]4)c(-c4c(F)cccc4F)c4nc(c(-c5c(F)cccc5F)c5ccc2[nH]5)C=C4)C=C3)cc1)Cc1c[nH]c2ccccc12
REMARK SMILES IDX 8 1 7 2 5 3 6 4 4 6 3 7 2 8 1 9 69 13 70 14 71 15 78 16
REMARK SMILES IDX 72 17 73 18 77 19 74 21 76 22 75 23 9 24 10 25 11 26 12 27
REMARK SMILES IDX 13 28 14 30 15 31 16 32 68 33 17 34 67 35 18 36 19 37 20 38
REMARK SMILES IDX 61 39 21 40 66 41 60 42 62 43 22 44 65 45 59 46 58 47 23 49
REMARK SMILES IDX 49 50 32 51 48 52 33 53 36 54 47 55 63 56 34 57 35 58 46 60
REMARK SMILES IDX 64 61 37 62 24 63 25 64 30 65 26 66 27 67 29 68 31 69 28 70
REMARK SMILES IDX 50 71 51 72 56 73 52 74 53 75 55 76 57 77 54 78 38 79 39 80
REMARK SMILES IDX 44 81 40 82 41 83 43 84 45 85 42 86
REMARK H PARENT 7 5 1 10 1 11 1 12 72 20 12 29 62 48 36 59
REMARK Flexibility Score: inf
ROOT
ATOM      1  C   UNL A   1      33.446  30.031  26.842  1.00  0.00     0.116 C 
ENDROOT
BRANCH   1   2
ATOM      2  N   UNL A   1      33.874  29.429  25.589  1.00  0.00    -0.356 N 
ATOM      3  C   UNL A   1      33.846  28.197  25.027  1.00  0.00     0.220 C 
ATOM      4  O   UNL A   1      34.143  28.160  23.826  1.00  0.00    -0.275 OA
ATOM      5  H   UNL A   1      34.294  30.090  24.992  1.00  0.00     0.163 HD
BRANCH   3   6
ATOM      6  C   UNL A   1      33.453  26.902  25.711  1.00  0.00     0.106 C 
BRANCH   6   7
ATOM      7  C   UNL A   1      33.003  25.754  24.822  1.00  0.00     0.075 C 
BRANCH   7   8
ATOM      8  C   UNL A   1      31.488  25.648  24.604  1.00  0.00     0.185 C 
BRANCH   8   9
ATOM      9  N   UNL A   1      31.084  24.509  25.435  1.00  0.00    -0.355 N 
ATOM     10  H   UNL A   1      30.200  24.134  25.092  1.00  0.00     0.344 HD
ATOM     11  H   UNL A   1      30.970  24.816  26.402  1.00  0.00     0.344 HD
ATOM     12  H   UNL A   1      31.801  23.785  25.391  1.00  0.00     0.344 HD
ENDBRANCH   8   9
BRANCH   8  13
ATOM     13  C   UNL A   1      30.688  27.024  24.724  1.00  0.00     0.102 C 
BRANCH  13  14
ATOM     14  C   UNL A   1      30.084  27.581  23.390  1.00  0.00    -0.017 A 
ATOM     15  C   UNL A   1      30.994  28.053  22.440  1.00  0.00     0.087 A 
ATOM     16  C   UNL A   1      29.125  28.651  23.257  1.00  0.00     0.003 A 
ATOM     17  N   UNL A   1      31.187  29.317  23.037  1.00  0.00    -0.361 N 
ATOM     18  C   UNL A   1      29.938  29.774  23.410  1.00  0.00     0.046 A 
ATOM     19  C   UNL A   1      27.811  28.905  22.827  1.00  0.00     0.010 A 
ATOM     20  H   UNL A   1      32.046  29.782  23.163  1.00  0.00     0.166 HD
ATOM     21  C   UNL A   1      29.450  31.004  23.835  1.00  0.00     0.026 A 
ATOM     22  C   UNL A   1      27.317  30.214  22.996  1.00  0.00     0.001 A 
ATOM     23  C   UNL A   1      28.086  31.198  23.627  1.00  0.00     0.002 A 
ENDBRANCH  13  14
ENDBRANCH   8  13
ENDBRANCH   7   8
ENDBRANCH   6   7
ENDBRANCH   3   6
ENDBRANCH   1   2
BRANCH   1  24
ATOM     24  C   UNL A   1      31.953  30.415  26.848  1.00  0.00     0.023 C 
BRANCH  24  25
ATOM     25  C   UNL A   1      31.701  31.892  26.760  1.00  0.00     0.023 C 
BRANCH  25  26
ATOM     26  C   UNL A   1      32.779  32.652  27.475  1.00  0.00     0.116 C 
BRANCH  26  27
ATOM     27  N   UNL A   1      32.441  34.067  27.613  1.00  0.00    -0.352 N 
ATOM     28  C   UNL A   1      32.945  34.961  28.530  1.00  0.00     0.251 C 
ATOM     29  H   UNL A   1      31.776  34.420  26.978  1.00  0.00     0.163 HD
ATOM     30  O   UNL A   1      32.419  36.030  28.746  1.00  0.00    -0.269 OA
BRANCH  28  31
ATOM     31  C   UNL A   1      34.149  34.528  29.258  1.00  0.00     0.039 A 
ATOM     32  C   UNL A   1      34.003  33.818  30.445  1.00  0.00     0.014 A 
ATOM     33  C   UNL A   1      35.397  34.680  28.645  1.00  0.00     0.014 A 
ATOM     34  C   UNL A   1      35.127  33.213  30.994  1.00  0.00     0.010 A 
ATOM     35  C   UNL A   1      36.455  33.915  29.085  1.00  0.00     0.010 A 
ATOM     36  C   UNL A   1      36.345  33.215  30.291  1.00  0.00    -0.014 A 
BRANCH  36  37
ATOM     37  C   UNL A   1      37.538  32.530  30.824  1.00  0.00     0.031 A 
ATOM     38  C   UNL A   1      38.179  33.040  32.082  1.00  0.00     0.074 A 
ATOM     39  C   UNL A   1      38.048  31.472  30.167  1.00  0.00     0.049 A 
ATOM     40  N   UNL A   1      39.232  32.584  32.709  1.00  0.00    -0.248 NA
ATOM     41  C   UNL A   1      37.580  34.232  32.711  1.00  0.00     0.031 C 
ATOM     42  C   UNL A   1      37.530  30.924  28.911  1.00  0.00     0.029 A 
ATOM     43  N   UNL A   1      39.110  30.664  30.472  1.00  0.00    -0.354 N 
ATOM     44  C   UNL A   1      39.414  33.427  33.795  1.00  0.00     0.074 A 
ATOM     45  C   UNL A   1      38.422  34.472  33.701  1.00  0.00     0.031 C 
ATOM     46  C   UNL A   1      38.242  29.835  28.583  1.00  0.00     0.029 A 
ATOM     47  C   UNL A   1      39.307  29.654  29.563  1.00  0.00     0.049 A 
ATOM     48  H   UNL A   1      39.678  30.794  31.265  1.00  0.00     0.167 HD
ATOM     49  C   UNL A   1      40.308  33.319  34.801  1.00  0.00     0.037 A 
ATOM     50  C   UNL A   1      40.254  28.699  29.517  1.00  0.00     0.037 A 
ATOM     51  C   UNL A   1      41.294  32.279  34.882  1.00  0.00     0.049 A 
ATOM     52  C   UNL A   1      41.283  28.647  30.612  1.00  0.00     0.074 A 
ATOM     53  C   UNL A   1      42.229  32.062  35.876  1.00  0.00     0.029 A 
ATOM     54  N   UNL A   1      41.488  31.294  33.924  1.00  0.00    -0.354 N 
ATOM     55  N   UNL A   1      41.404  29.411  31.672  1.00  0.00    -0.248 NA
ATOM     56  C   UNL A   1      42.306  27.599  30.510  1.00  0.00     0.031 C 
ATOM     57  C   UNL A   1      43.049  31.006  35.476  1.00  0.00     0.029 A 
ATOM     58  C   UNL A   1      42.558  30.495  34.285  1.00  0.00     0.049 A 
ATOM     59  H   UNL A   1      40.944  31.181  33.111  1.00  0.00     0.167 HD
ATOM     60  C   UNL A   1      42.490  28.912  32.379  1.00  0.00     0.074 A 
ATOM     61  C   UNL A   1      42.979  27.769  31.636  1.00  0.00     0.031 C 
ATOM     62  C   UNL A   1      43.032  29.357  33.539  1.00  0.00     0.037 A 
BRANCH  49  63
ATOM     63  C   UNL A   1      40.272  34.363  35.878  1.00  0.00     0.057 A 
ATOM     64  C   UNL A   1      40.990  35.564  35.777  1.00  0.00     0.134 A 
ATOM     65  C   UNL A   1      39.479  34.180  37.017  1.00  0.00     0.134 A 
ATOM     66  F   UNL A   1      41.776  35.801  34.717  1.00  0.00    -0.206 F 
ATOM     67  C   UNL A   1      40.947  36.526  36.787  1.00  0.00     0.040 A 
ATOM     68  C   UNL A   1      39.394  35.153  38.012  1.00  0.00     0.040 A 
ATOM     69  F   UNL A   1      38.760  33.058  37.176  1.00  0.00    -0.206 F 
ATOM     70  C   UNL A   1      40.139  36.326  37.904  1.00  0.00     0.006 A 
ENDBRANCH  49  63
BRANCH  50  71
ATOM     71  C   UNL A   1      40.287  27.730  28.393  1.00  0.00     0.057 A 
ATOM     72  C   UNL A   1      39.665  26.479  28.488  1.00  0.00     0.134 A 
ATOM     73  C   UNL A   1      40.972  28.018  27.206  1.00  0.00     0.134 A 
ATOM     74  F   UNL A   1      39.000  26.138  29.602  1.00  0.00    -0.206 F 
ATOM     75  C   UNL A   1      39.764  25.535  27.467  1.00  0.00     0.040 A 
ATOM     76  C   UNL A   1      41.040  27.100  26.158  1.00  0.00     0.040 A 
ATOM     77  F   UNL A   1      41.576  29.204  27.041  1.00  0.00    -0.206 F 
ATOM     78  C   UNL A   1      40.450  25.846  26.295  1.00  0.00     0.006 A 
ENDBRANCH  50  71
BRANCH  62  79
ATOM     79  C   UNL A   1      44.179  28.575  34.114  1.00  0.00     0.057 A 
ATOM     80  C   UNL A   1      45.516  28.911  33.866  1.00  0.00     0.134 A 
ATOM     81  C   UNL A   1      43.936  27.489  34.967  1.00  0.00     0.134 A 
ATOM     82  F   UNL A   1      45.822  29.939  33.059  1.00  0.00    -0.206 F 
ATOM     83  C   UNL A   1      46.566  28.167  34.405  1.00  0.00     0.040 A 
ATOM     84  C   UNL A   1      44.977  26.769  35.550  1.00  0.00     0.040 A 
ATOM     85  F   UNL A   1      42.679  27.123  35.265  1.00  0.00    -0.206 F 
ATOM     86  C   UNL A   1      46.297  27.098  35.257  1.00  0.00     0.006 A 
ENDBRANCH  62  79
ENDBRANCH  36  37
ENDBRANCH  28  31
ENDBRANCH  26  27
ENDBRANCH  25  26
ENDBRANCH  24  25
ENDBRANCH   1  24
TORSDOF 16
ENDMDL
MODEL 3
REMARK VINA RESULT:     -11.1      4.968     10.689
REMARK SMILES [NH3+][C@H](CCC(=O)NCCCCNC(=O)c1ccc(-c2c3nc(c(-c4c(F)cccc4F)c4ccc([nH]4)c(-c4c(F)cccc4F)c4nc(c(-c5c(F)cccc5F)c5ccc2[nH]5)C=C4)C=C3)cc1)Cc1c[nH]c2ccccc12
REMARK SMILES IDX 8 1 7 2 5 3 6 4 4 6 3 7 2 8 1 9 69 13 70 14 71 15 78 16
REMARK SMILES IDX 72 17 73 18 77 19 74 21 76 22 75 23 9 24 10 25 11 26 12 27
REMARK SMILES IDX 13 28 14 30 15 31 16 32 68 33 17 34 67 35 18 36 19 37 20 38
REMARK SMILES IDX 61 39 21 40 66 41 60 42 62 43 22 44 65 45 59 46 58 47 23 49
REMARK SMILES IDX 49 50 32 51 48 52 33 53 36 54 47 55 63 56 34 57 35 58 46 60
REMARK SMILES IDX 64 61 37 62 24 63 25 64 30 65 26 66 27 67 29 68 31 69 28 70
REMARK SMILES IDX 50 71 51 72 56 73 52 74 53 75 55 76 57 77 54 78 38 79 39 80
REMARK SMILES IDX 44 81 40 82 41 83 43 84 45 85 42 86
REMARK H PARENT 7 5 1 10 1 11 1 12 72 20 12 29 62 48 36 59
REMARK Flexibility Score: inf
ROOT
ATOM      1  C   UNL A   1      33.066  35.883  28.729  1.00  0.00     0.116 C 
ENDROOT
BRANCH   1   2
ATOM      2  N   UNL A   1      33.161  36.835  29.826  1.00  0.00    -0.356 N 
ATOM      3  C   UNL A   1      32.965  36.817  31.166  1.00  0.00     0.220 C 
ATOM      4  O   UNL A   1      33.365  37.821  31.769  1.00  0.00    -0.275 OA
ATOM      5  H   UNL A   1      33.440  37.725  29.512  1.00  0.00     0.163 HD
BRANCH   3   6
ATOM      6  C   UNL A   1      32.356  35.688  31.974  1.00  0.00     0.106 C 
BRANCH   6   7
ATOM      7  C   UNL A   1      33.275  34.933  32.919  1.00  0.00     0.075 C 
BRANCH   7   8
ATOM      8  C   UNL A   1      34.620  34.500  32.321  1.00  0.00     0.185 C 
BRANCH   8   9
ATOM      9  N   UNL A   1      35.494  35.662  32.522  1.00  0.00    -0.355 N 
ATOM     10  H   UNL A   1      35.096  36.473  32.047  1.00  0.00     0.344 HD
ATOM     11  H   UNL A   1      36.418  35.464  32.138  1.00  0.00     0.344 HD
ATOM     12  H   UNL A   1      35.574  35.858  33.519  1.00  0.00     0.344 HD
ENDBRANCH   8   9
BRANCH   8  13
ATOM     13  C   UNL A   1      35.129  33.056  32.769  1.00  0.00     0.102 C 
BRANCH  13  14
ATOM     14  C   UNL A   1      36.183  32.381  31.827  1.00  0.00    -0.017 A 
ATOM     15  C   UNL A   1      37.104  31.521  32.431  1.00  0.00     0.087 A 
ATOM     16  C   UNL A   1      37.118  33.053  30.957  1.00  0.00     0.003 A 
ATOM     17  N   UNL A   1      37.969  32.535  32.893  1.00  0.00    -0.361 N 
ATOM     18  C   UNL A   1      38.108  33.440  31.859  1.00  0.00     0.046 A 
ATOM     19  C   UNL A   1      37.436  33.215  29.597  1.00  0.00     0.010 A 
ATOM     20  H   UNL A   1      38.391  32.587  33.782  1.00  0.00     0.166 HD
ATOM     21  C   UNL A   1      38.968  34.506  31.620  1.00  0.00     0.026 A 
ATOM     22  C   UNL A   1      38.482  34.103  29.280  1.00  0.00     0.001 A 
ATOM     23  C   UNL A   1      39.129  34.841  30.278  1.00  0.00     0.002 A 
ENDBRANCH  13  14
ENDBRANCH   8  13
ENDBRANCH   7   8
ENDBRANCH   6   7
ENDBRANCH   3   6
ENDBRANCH   1   2
BRANCH   1  24
ATOM     24  C   UNL A   1      34.247  34.892  28.687  1.00  0.00     0.023 C 
BRANCH  24  25
ATOM     25  C   UNL A   1      33.865  33.472  28.988  1.00  0.00     0.023 C 
BRANCH  25  26
ATOM     26  C   UNL A   1      34.634  32.525  28.113  1.00  0.00     0.116 C 
BRANCH  26  27
ATOM     27  N   UNL A   1      33.945  31.245  27.970  1.00  0.00    -0.352 N 
ATOM     28  C   UNL A   1      34.514  29.993  27.898  1.00  0.00     0.251 C 
ATOM     29  H   UNL A   1      32.962  31.281  27.920  1.00  0.00     0.163 HD
ATOM     30  O   UNL A   1      33.898  29.024  27.514  1.00  0.00    -0.269 OA
BRANCH  28  31
ATOM     31  C   UNL A   1      35.932  29.906  28.287  1.00  0.00     0.039 A 
ATOM     32  C   UNL A   1      36.261  29.375  29.529  1.00  0.00     0.014 A 
ATOM     33  C   UNL A   1      36.910  30.189  27.329  1.00  0.00     0.014 A 
ATOM     34  C   UNL A   1      37.594  29.080  29.787  1.00  0.00     0.010 A 
ATOM     35  C   UNL A   1      38.188  29.709  27.517  1.00  0.00     0.010 A 
ATOM     36  C   UNL A   1      38.554  29.197  28.766  1.00  0.00    -0.014 A 
BRANCH  36  37
ATOM     37  C   UNL A   1      39.966  28.834  28.997  1.00  0.00     0.031 A 
ATOM     38  C   UNL A   1      40.874  29.812  29.685  1.00  0.00     0.074 A 
ATOM     39  C   UNL A   1      40.425  27.644  28.571  1.00  0.00     0.049 A 
ATOM     40  N   UNL A   1      42.142  29.687  29.976  1.00  0.00    -0.248 NA
ATOM     41  C   UNL A   1      40.297  31.111  30.076  1.00  0.00     0.031 C 
ATOM     42  C   UNL A   1      39.639  26.639  27.851  1.00  0.00     0.029 A 
ATOM     43  N   UNL A   1      41.665  27.074  28.692  1.00  0.00    -0.354 N 
ATOM     44  C   UNL A   1      42.505  30.881  30.582  1.00  0.00     0.074 A 
ATOM     45  C   UNL A   1      41.355  31.752  30.542  1.00  0.00     0.031 C 
ATOM     46  C   UNL A   1      40.400  25.554  27.644  1.00  0.00     0.029 A 
ATOM     47  C   UNL A   1      41.743  25.815  28.150  1.00  0.00     0.049 A 
ATOM     48  H   UNL A   1      42.426  27.523  29.125  1.00  0.00     0.167 HD
ATOM     49  C   UNL A   1      43.685  31.208  31.153  1.00  0.00     0.037 A 
ATOM     50  C   UNL A   1      42.788  24.973  28.057  1.00  0.00     0.037 A 
ATOM     51  C   UNL A   1      44.825  30.336  31.181  1.00  0.00     0.049 A 
ATOM     52  C   UNL A   1      44.111  25.394  28.636  1.00  0.00     0.074 A 
ATOM     53  C   UNL A   1      46.059  30.561  31.761  1.00  0.00     0.029 A 
ATOM     54  N   UNL A   1      44.879  29.083  30.590  1.00  0.00    -0.354 N 
ATOM     55  N   UNL A   1      44.424  26.501  29.267  1.00  0.00    -0.248 NA
ATOM     56  C   UNL A   1      45.225  24.449  28.495  1.00  0.00     0.031 C 
ATOM     57  C   UNL A   1      46.889  29.487  31.441  1.00  0.00     0.029 A 
ATOM     58  C   UNL A   1      46.142  28.543  30.755  1.00  0.00     0.049 A 
ATOM     59  H   UNL A   1      44.130  28.643  30.126  1.00  0.00     0.167 HD
ATOM     60  C   UNL A   1      45.757  26.367  29.630  1.00  0.00     0.074 A 
ATOM     61  C   UNL A   1      46.187  25.065  29.165  1.00  0.00     0.031 C 
ATOM     62  C   UNL A   1      46.555  27.243  30.291  1.00  0.00     0.037 A 
BRANCH  49  63
ATOM     63  C   UNL A   1      43.804  32.571  31.768  1.00  0.00     0.057 A 
ATOM     64  C   UNL A   1      44.229  33.688  31.033  1.00  0.00     0.134 A 
ATOM     65  C   UNL A   1      43.453  32.777  33.108  1.00  0.00     0.134 A 
ATOM     66  F   UNL A   1      44.588  33.560  29.747  1.00  0.00    -0.206 F 
ATOM     67  C   UNL A   1      44.335  34.949  31.619  1.00  0.00     0.040 A 
ATOM     68  C   UNL A   1      43.513  34.042  33.693  1.00  0.00     0.040 A 
ATOM     69  F   UNL A   1      43.031  31.756  33.868  1.00  0.00    -0.206 F 
ATOM     70  C   UNL A   1      43.967  35.131  32.950  1.00  0.00     0.006 A 
ENDBRANCH  49  63
BRANCH  50  71
ATOM     71  C   UNL A   1      42.636  23.661  27.378  1.00  0.00     0.057 A 
ATOM     72  C   UNL A   1      42.310  22.502  28.092  1.00  0.00     0.134 A 
ATOM     73  C   UNL A   1      42.847  23.529  26.000  1.00  0.00     0.134 A 
ATOM     74  F   UNL A   1      42.104  22.559  29.416  1.00  0.00    -0.206 F 
ATOM     75  C   UNL A   1      42.247  21.255  27.470  1.00  0.00     0.040 A 
ATOM     76  C   UNL A   1      42.743  22.296  25.358  1.00  0.00     0.040 A 
ATOM     77  F   UNL A   1      43.146  24.602  25.252  1.00  0.00    -0.206 F 
ATOM     78  C   UNL A   1      42.460  21.150  26.097  1.00  0.00     0.006 A 
ENDBRANCH  50  71
BRANCH  62  79
ATOM     79  C   UNL A   1      47.956  26.803  30.606  1.00  0.00     0.057 A 
ATOM     80  C   UNL A   1      48.265  26.022  31.727  1.00  0.00     0.134 A 
ATOM     81  C   UNL A   1      49.011  27.135  29.743  1.00  0.00     0.134 A 
ATOM     82  F   UNL A   1      47.305  25.667  32.595  1.00  0.00    -0.206 F 
ATOM     83  C   UNL A   1      49.575  25.629  32.003  1.00  0.00     0.040 A 
ATOM     84  C   UNL A   1      50.315  26.707  29.982  1.00  0.00     0.040 A 
ATOM     85  F   UNL A   1      48.785  27.863  28.638  1.00  0.00    -0.206 F 
ATOM     86  C   UNL A   1      50.603  25.964  31.124  1.00  0.00     0.006 A 
ENDBRANCH  62  79
ENDBRANCH  36  37
ENDBRANCH  28  31
ENDBRANCH  26  27
ENDBRANCH  25  26
ENDBRANCH  24  25
ENDBRANCH   1  24
TORSDOF 16
ENDMDL
