MODEL 1
REMARK VINA RESULT:     -14.4      0.000      0.000
REMARK SMILES Cc1coc2cc3c(cc12)[C@@H](C)[C@H](CCC(=O)N[C@@H](Cc1c[nH]c2ccccc12)C(=O)NCCCCNC(=O)c1ccc(-c2c4nc(c(-c5c(F)cccc5F)c5ccc([nH]5)c(-c5c(F)cccc5F)c5nc(c(-c6c(F)cccc6F)c6ccc2[nH]6)C=C5)C=C4)cc1)C(=O)O3
REMARK SMILES IDX 33 1 32 2 30 3 31 4 19 6 18 7 16 8 17 9 15 11 14 12 13 13
REMARK SMILES IDX 1 14 2 15 3 16 10 17 4 18 5 19 9 20 6 21 8 22 7 23 11 24
REMARK SMILES IDX 96 25 12 26 94 27 95 28 20 29 21 30 22 31 29 32 23 33 24 34
REMARK SMILES IDX 28 35 25 37 27 38 26 39 34 40 35 41 36 42 37 43 38 44 39 46
REMARK SMILES IDX 40 47 41 48 93 49 42 50 92 51 43 52 44 53 45 54 86 55 46 56
REMARK SMILES IDX 91 57 85 58 87 59 47 60 90 61 84 62 83 63 48 65 74 66 57 67
REMARK SMILES IDX 73 68 58 69 61 70 72 71 88 72 59 73 60 74 71 76 89 77 62 78
REMARK SMILES IDX 49 79 50 80 55 81 51 82 52 83 54 84 56 85 53 86 75 87 76 88
REMARK SMILES IDX 81 89 77 90 78 91 80 92 82 93 79 94 63 95 64 96 69 97 65 98
REMARK SMILES IDX 66 99 68 100 70 101 67 102
REMARK H PARENT 32 5 18 10 23 36 37 45 87 64 61 75
REMARK Flexibility Score: inf
ROOT
ATOM      1  C   UNL A   1      35.486  20.817  25.132  1.00  0.00     0.116 C 
ENDROOT
BRANCH   1   2
ATOM      2  N   UNL A   1      35.072  21.337  26.436  1.00  0.00    -0.354 N 
ATOM      3  C   UNL A   1      33.859  21.828  26.846  1.00  0.00     0.242 C 
ATOM      4  O   UNL A   1      33.607  21.827  28.054  1.00  0.00    -0.273 OA
ATOM      5  H   UNL A   1      35.774  21.334  27.127  1.00  0.00     0.163 HD
BRANCH   3   6
ATOM      6  C   UNL A   1      32.811  22.294  25.832  1.00  0.00     0.175 C 
BRANCH   6   7
ATOM      7  N   UNL A   1      33.542  23.161  24.870  1.00  0.00    -0.344 N 
ATOM      8  C   UNL A   1      34.171  24.364  24.881  1.00  0.00     0.220 C 
ATOM      9  O   UNL A   1      34.846  24.663  23.893  1.00  0.00    -0.275 OA
ATOM     10  H   UNL A   1      33.581  22.747  23.978  1.00  0.00     0.164 HD
BRANCH   8  11
ATOM     11  C   UNL A   1      33.976  25.379  25.988  1.00  0.00     0.101 C 
BRANCH  11  12
ATOM     12  C   UNL A   1      33.903  26.852  25.512  1.00  0.00     0.026 C 
BRANCH  12  13
ATOM     13  C   UNL A   1      32.576  27.511  25.900  1.00  0.00     0.107 C 
ATOM     14  C   UNL A   1      28.663  32.858  23.094  1.00  0.00     0.048 C 
ATOM     15  C   UNL A   1      28.524  31.391  22.978  1.00  0.00    -0.005 A 
ATOM     16  C   UNL A   1      27.540  30.709  22.290  1.00  0.00     0.199 A 
ATOM     17  C   UNL A   1      29.411  30.396  23.484  1.00  0.00     0.024 A 
ATOM     18  O   UNL A   1      27.796  29.381  22.268  1.00  0.00    -0.464 OA
ATOM     19  C   UNL A   1      28.956  29.198  22.947  1.00  0.00     0.137 A 
ATOM     20  C   UNL A   1      30.562  30.388  24.306  1.00  0.00     0.020 A 
ATOM     21  C   UNL A   1      29.614  27.992  23.066  1.00  0.00     0.095 A 
ATOM     22  C   UNL A   1      31.235  29.176  24.521  1.00  0.00    -0.001 A 
ATOM     23  C   UNL A   1      30.775  28.033  23.831  1.00  0.00     0.138 A 
ATOM     24  C   UNL A   1      32.367  29.011  25.541  1.00  0.00     0.034 C 
ATOM     25  O   UNL A   1      31.441  26.833  23.949  1.00  0.00    -0.426 OA
ATOM     26  C   UNL A   1      32.054  29.781  26.848  1.00  0.00     0.014 C 
ATOM     27  C   UNL A   1      31.403  26.736  25.304  1.00  0.00     0.314 C 
ATOM     28  O   UNL A   1      30.498  26.200  25.899  1.00  0.00    -0.251 OA
ENDBRANCH  12  13
ENDBRANCH  11  12
ENDBRANCH   8  11
ENDBRANCH   6   7
BRANCH   6  29
ATOM     29  C   UNL A   1      31.885  21.091  25.425  1.00  0.00     0.072 C 
BRANCH  29  30
ATOM     30  C   UNL A   1      32.206  20.098  24.334  1.00  0.00    -0.020 A 
ATOM     31  C   UNL A   1      32.057  20.265  22.965  1.00  0.00     0.087 A 
ATOM     32  C   UNL A   1      32.614  18.734  24.513  1.00  0.00     0.003 A 
ATOM     33  N   UNL A   1      32.479  19.129  22.326  1.00  0.00    -0.361 N 
ATOM     34  C   UNL A   1      32.843  18.183  23.251  1.00  0.00     0.046 A 
ATOM     35  C   UNL A   1      32.876  17.943  25.648  1.00  0.00     0.010 A 
ATOM     36  H   UNL A   1      32.515  19.011  21.349  1.00  0.00     0.166 HD
ATOM     37  C   UNL A   1      33.384  16.904  23.068  1.00  0.00     0.026 A 
ATOM     38  C   UNL A   1      33.435  16.673  25.486  1.00  0.00     0.001 A 
ATOM     39  C   UNL A   1      33.704  16.172  24.215  1.00  0.00     0.002 A 
ENDBRANCH  29  30
ENDBRANCH   6  29
ENDBRANCH   3   6
ENDBRANCH   1   2
BRANCH   1  40
ATOM     40  C   UNL A   1      36.722  21.499  24.569  1.00  0.00     0.023 C 
BRANCH  40  41
ATOM     41  C   UNL A   1      38.033  21.051  25.227  1.00  0.00     0.023 C 
BRANCH  41  42
ATOM     42  C   UNL A   1      38.737  22.128  26.058  1.00  0.00     0.116 C 
BRANCH  42  43
ATOM     43  N   UNL A   1      40.173  22.191  25.872  1.00  0.00    -0.352 N 
ATOM     44  C   UNL A   1      41.166  22.890  26.505  1.00  0.00     0.251 C 
ATOM     45  H   UNL A   1      40.501  21.614  25.145  1.00  0.00     0.163 HD
ATOM     46  O   UNL A   1      42.317  22.460  26.419  1.00  0.00    -0.269 OA
BRANCH  44  47
ATOM     47  C   UNL A   1      40.930  24.202  27.156  1.00  0.00     0.039 A 
ATOM     48  C   UNL A   1      40.019  25.150  26.703  1.00  0.00     0.014 A 
ATOM     49  C   UNL A   1      41.776  24.529  28.233  1.00  0.00     0.014 A 
ATOM     50  C   UNL A   1      40.060  26.439  27.189  1.00  0.00     0.010 A 
ATOM     51  C   UNL A   1      41.788  25.815  28.763  1.00  0.00     0.010 A 
ATOM     52  C   UNL A   1      40.965  26.780  28.196  1.00  0.00    -0.014 A 
BRANCH  52  53
ATOM     53  C   UNL A   1      40.859  28.141  28.700  1.00  0.00     0.031 A 
ATOM     54  C   UNL A   1      41.946  29.033  28.206  1.00  0.00     0.074 A 
ATOM     55  C   UNL A   1      39.887  28.579  29.519  1.00  0.00     0.049 A 
ATOM     56  N   UNL A   1      42.881  29.599  28.896  1.00  0.00    -0.248 NA
ATOM     57  C   UNL A   1      42.109  29.161  26.749  1.00  0.00     0.031 C 
ATOM     58  C   UNL A   1      38.645  27.906  29.897  1.00  0.00     0.029 A 
ATOM     59  N   UNL A   1      39.786  29.787  30.140  1.00  0.00    -0.354 N 
ATOM     60  C   UNL A   1      43.652  30.309  27.977  1.00  0.00     0.074 A 
ATOM     61  C   UNL A   1      43.227  29.881  26.672  1.00  0.00     0.031 C 
ATOM     62  C   UNL A   1      37.822  28.798  30.495  1.00  0.00     0.029 A 
ATOM     63  C   UNL A   1      38.530  30.055  30.667  1.00  0.00     0.049 A 
ATOM     64  H   UNL A   1      40.540  30.417  30.208  1.00  0.00     0.167 HD
ATOM     65  C   UNL A   1      44.421  31.358  28.371  1.00  0.00     0.037 A 
ATOM     66  C   UNL A   1      38.101  31.246  31.153  1.00  0.00     0.037 A 
ATOM     67  C   UNL A   1      44.742  31.266  29.773  1.00  0.00     0.049 A 
ATOM     68  C   UNL A   1      39.302  32.045  31.495  1.00  0.00     0.074 A 
ATOM     69  C   UNL A   1      45.427  30.362  30.560  1.00  0.00     0.029 A 
ATOM     70  N   UNL A   1      44.030  32.054  30.642  1.00  0.00    -0.354 N 
ATOM     71  N   UNL A   1      40.103  31.773  32.487  1.00  0.00    -0.248 NA
ATOM     72  C   UNL A   1      39.844  32.933  30.479  1.00  0.00     0.031 C 
ATOM     73  C   UNL A   1      44.737  30.354  31.807  1.00  0.00     0.029 A 
ATOM     74  C   UNL A   1      43.703  31.287  31.728  1.00  0.00     0.049 A 
ATOM     75  H   UNL A   1      43.797  33.001  30.509  1.00  0.00     0.167 HD
ATOM     76  C   UNL A   1      41.366  32.089  32.012  1.00  0.00     0.074 A 
ATOM     77  C   UNL A   1      41.134  32.899  30.819  1.00  0.00     0.031 C 
ATOM     78  C   UNL A   1      42.471  31.430  32.468  1.00  0.00     0.037 A 
BRANCH  65  79
ATOM     79  C   UNL A   1      44.509  32.658  27.599  1.00  0.00     0.057 A 
ATOM     80  C   UNL A   1      45.565  32.837  26.684  1.00  0.00     0.134 A 
ATOM     81  C   UNL A   1      43.811  33.839  27.930  1.00  0.00     0.134 A 
ATOM     82  F   UNL A   1      46.311  31.798  26.277  1.00  0.00    -0.206 F 
ATOM     83  C   UNL A   1      45.963  34.099  26.227  1.00  0.00     0.040 A 
ATOM     84  C   UNL A   1      44.171  35.099  27.443  1.00  0.00     0.040 A 
ATOM     85  F   UNL A   1      42.806  33.867  28.810  1.00  0.00    -0.206 F 
ATOM     86  C   UNL A   1      45.274  35.238  26.619  1.00  0.00     0.006 A 
ENDBRANCH  65  79
BRANCH  66  87
ATOM     87  C   UNL A   1      36.756  31.865  31.069  1.00  0.00     0.057 A 
ATOM     88  C   UNL A   1      36.002  32.104  32.230  1.00  0.00     0.134 A 
ATOM     89  C   UNL A   1      36.307  32.507  29.902  1.00  0.00     0.134 A 
ATOM     90  F   UNL A   1      36.366  31.565  33.402  1.00  0.00    -0.206 F 
ATOM     91  C   UNL A   1      34.898  32.966  32.240  1.00  0.00     0.040 A 
ATOM     92  C   UNL A   1      35.200  33.362  29.897  1.00  0.00     0.040 A 
ATOM     93  F   UNL A   1      36.981  32.404  28.748  1.00  0.00    -0.206 F 
ATOM     94  C   UNL A   1      34.503  33.611  31.073  1.00  0.00     0.006 A 
ENDBRANCH  66  87
BRANCH  78  95
ATOM     95  C   UNL A   1      42.330  30.575  33.696  1.00  0.00     0.057 A 
ATOM     96  C   UNL A   1      42.398  31.064  35.008  1.00  0.00     0.134 A 
ATOM     97  C   UNL A   1      41.929  29.243  33.534  1.00  0.00     0.134 A 
ATOM     98  F   UNL A   1      42.688  32.347  35.258  1.00  0.00    -0.206 F 
ATOM     99  C   UNL A   1      42.099  30.255  36.110  1.00  0.00     0.040 A 
ATOM    100  C   UNL A   1      41.595  28.436  34.623  1.00  0.00     0.040 A 
ATOM    101  F   UNL A   1      41.796  28.721  32.304  1.00  0.00    -0.206 F 
ATOM    102  C   UNL A   1      41.683  28.940  35.917  1.00  0.00     0.006 A 
ENDBRANCH  78  95
ENDBRANCH  52  53
ENDBRANCH  44  47
ENDBRANCH  42  43
ENDBRANCH  41  42
ENDBRANCH  40  41
ENDBRANCH   1  40
TORSDOF 17
ENDMDL
MODEL 2
REMARK VINA RESULT:     -14.3      2.822      9.224
REMARK SMILES Cc1coc2cc3c(cc12)[C@@H](C)[C@H](CCC(=O)N[C@@H](Cc1c[nH]c2ccccc12)C(=O)NCCCCNC(=O)c1ccc(-c2c4nc(c(-c5c(F)cccc5F)c5ccc([nH]5)c(-c5c(F)cccc5F)c5nc(c(-c6c(F)cccc6F)c6ccc2[nH]6)C=C5)C=C4)cc1)C(=O)O3
REMARK SMILES IDX 33 1 32 2 30 3 31 4 19 6 18 7 16 8 17 9 15 11 14 12 13 13
REMARK SMILES IDX 1 14 2 15 3 16 10 17 4 18 5 19 9 20 6 21 8 22 7 23 11 24
REMARK SMILES IDX 96 25 12 26 94 27 95 28 20 29 21 30 22 31 29 32 23 33 24 34
REMARK SMILES IDX 28 35 25 37 27 38 26 39 34 40 35 41 36 42 37 43 38 44 39 46
REMARK SMILES IDX 40 47 41 48 93 49 42 50 92 51 43 52 44 53 45 54 86 55 46 56
REMARK SMILES IDX 91 57 85 58 87 59 47 60 90 61 84 62 83 63 48 65 74 66 57 67
REMARK SMILES IDX 73 68 58 69 61 70 72 71 88 72 59 73 60 74 71 76 89 77 62 78
REMARK SMILES IDX 49 79 50 80 55 81 51 82 52 83 54 84 56 85 53 86 75 87 76 88
REMARK SMILES IDX 81 89 77 90 78 91 80 92 82 93 79 94 63 95 64 96 69 97 65 98
REMARK SMILES IDX 66 99 68 100 70 101 67 102
REMARK H PARENT 32 5 18 10 23 36 37 45 87 64 61 75
REMARK Flexibility Score: inf
ROOT
ATOM      1  C   UNL A   1      35.385  29.202  27.388  1.00  0.00     0.116 C 
ENDROOT
BRANCH   1   2
ATOM      2  N   UNL A   1      34.029  28.922  27.859  1.00  0.00    -0.354 N 
ATOM      3  C   UNL A   1      32.902  28.584  27.156  1.00  0.00     0.242 C 
ATOM      4  O   UNL A   1      31.993  28.001  27.754  1.00  0.00    -0.273 OA
ATOM      5  H   UNL A   1      33.907  28.984  28.835  1.00  0.00     0.163 HD
BRANCH   3   6
ATOM      6  C   UNL A   1      32.799  28.851  25.652  1.00  0.00     0.175 C 
BRANCH   6   7
ATOM      7  N   UNL A   1      33.637  27.809  25.002  1.00  0.00    -0.344 N 
ATOM      8  C   UNL A   1      33.484  26.539  24.547  1.00  0.00     0.220 C 
ATOM      9  O   UNL A   1      34.402  26.062  23.874  1.00  0.00    -0.275 OA
ATOM     10  H   UNL A   1      34.558  28.128  24.865  1.00  0.00     0.164 HD
BRANCH   8  11
ATOM     11  C   UNL A   1      32.308  25.667  24.931  1.00  0.00     0.101 C 
BRANCH  11  12
ATOM     12  C   UNL A   1      32.682  24.370  25.692  1.00  0.00     0.026 C 
BRANCH  12  13
ATOM     13  C   UNL A   1      33.607  23.471  24.867  1.00  0.00     0.107 C 
ATOM     14  C   UNL A   1      35.163  16.447  25.020  1.00  0.00     0.048 C 
ATOM     15  C   UNL A   1      34.245  17.219  24.155  1.00  0.00    -0.005 A 
ATOM     16  C   UNL A   1      33.476  16.721  23.122  1.00  0.00     0.199 A 
ATOM     17  C   UNL A   1      33.914  18.601  24.260  1.00  0.00     0.024 A 
ATOM     18  O   UNL A   1      32.643  17.672  22.637  1.00  0.00    -0.464 OA
ATOM     19  C   UNL A   1      32.873  18.795  23.361  1.00  0.00     0.137 A 
ATOM     20  C   UNL A   1      34.360  19.693  25.042  1.00  0.00     0.020 A 
ATOM     21  C   UNL A   1      32.153  19.965  23.245  1.00  0.00     0.095 A 
ATOM     22  C   UNL A   1      33.711  20.929  24.915  1.00  0.00    -0.001 A 
ATOM     23  C   UNL A   1      32.581  21.000  24.071  1.00  0.00     0.138 A 
ATOM     24  C   UNL A   1      34.227  22.222  25.557  1.00  0.00     0.034 C 
ATOM     25  O   UNL A   1      31.861  22.169  23.964  1.00  0.00    -0.426 OA
ATOM     26  C   UNL A   1      35.769  22.322  25.442  1.00  0.00     0.014 C 
ATOM     27  C   UNL A   1      32.891  22.984  23.609  1.00  0.00     0.314 C 
ATOM     28  O   UNL A   1      33.213  23.172  22.460  1.00  0.00    -0.251 OA
ENDBRANCH  12  13
ENDBRANCH  11  12
ENDBRANCH   8  11
ENDBRANCH   6   7
BRANCH   6  29
ATOM     29  C   UNL A   1      31.309  29.170  25.264  1.00  0.00     0.072 C 
BRANCH  29  30
ATOM     30  C   UNL A   1      30.812  29.326  23.846  1.00  0.00    -0.020 A 
ATOM     31  C   UNL A   1      31.287  28.695  22.706  1.00  0.00     0.087 A 
ATOM     32  C   UNL A   1      29.825  30.262  23.386  1.00  0.00     0.003 A 
ATOM     33  N   UNL A   1      30.549  29.103  21.627  1.00  0.00    -0.361 N 
ATOM     34  C   UNL A   1      29.635  30.049  22.018  1.00  0.00     0.046 A 
ATOM     35  C   UNL A   1      29.027  31.224  24.032  1.00  0.00     0.010 A 
ATOM     36  H   UNL A   1      30.660  28.768  20.707  1.00  0.00     0.166 HD
ATOM     37  C   UNL A   1      28.641  30.703  21.281  1.00  0.00     0.026 A 
ATOM     38  C   UNL A   1      28.016  31.871  23.317  1.00  0.00     0.001 A 
ATOM     39  C   UNL A   1      27.814  31.597  21.967  1.00  0.00     0.002 A 
ENDBRANCH  29  30
ENDBRANCH   6  29
ENDBRANCH   3   6
ENDBRANCH   1   2
BRANCH   1  40
ATOM     40  C   UNL A   1      35.841  30.628  27.656  1.00  0.00     0.023 C 
BRANCH  40  41
ATOM     41  C   UNL A   1      34.689  31.620  27.860  1.00  0.00     0.023 C 
BRANCH  41  42
ATOM     42  C   UNL A   1      35.025  32.823  28.746  1.00  0.00     0.116 C 
BRANCH  42  43
ATOM     43  N   UNL A   1      34.620  32.685  30.131  1.00  0.00    -0.352 N 
ATOM     44  C   UNL A   1      35.299  32.359  31.274  1.00  0.00     0.251 C 
ATOM     45  H   UNL A   1      33.663  32.863  30.280  1.00  0.00     0.163 HD
ATOM     46  O   UNL A   1      34.812  32.703  32.352  1.00  0.00    -0.269 OA
BRANCH  44  47
ATOM     47  C   UNL A   1      36.504  31.493  31.268  1.00  0.00     0.039 A 
ATOM     48  C   UNL A   1      37.806  31.963  31.143  1.00  0.00     0.014 A 
ATOM     49  C   UNL A   1      36.278  30.103  31.281  1.00  0.00     0.014 A 
ATOM     50  C   UNL A   1      38.835  31.088  30.867  1.00  0.00     0.010 A 
ATOM     51  C   UNL A   1      37.321  29.211  31.053  1.00  0.00     0.010 A 
ATOM     52  C   UNL A   1      38.588  29.716  30.791  1.00  0.00    -0.014 A 
BRANCH  52  53
ATOM     53  C   UNL A   1      39.760  28.877  30.588  1.00  0.00     0.031 A 
ATOM     54  C   UNL A   1      40.588  28.725  31.817  1.00  0.00     0.074 A 
ATOM     55  C   UNL A   1      40.080  28.280  29.427  1.00  0.00     0.049 A 
ATOM     56  N   UNL A   1      41.794  29.146  32.017  1.00  0.00    -0.248 NA
ATOM     57  C   UNL A   1      39.926  28.198  33.022  1.00  0.00     0.031 C 
ATOM     58  C   UNL A   1      39.265  28.141  28.221  1.00  0.00     0.029 A 
ATOM     59  N   UNL A   1      41.214  27.594  29.115  1.00  0.00    -0.354 N 
ATOM     60  C   UNL A   1      42.114  28.774  33.321  1.00  0.00     0.074 A 
ATOM     61  C   UNL A   1      40.887  28.339  33.933  1.00  0.00     0.031 C 
ATOM     62  C   UNL A   1      39.840  27.233  27.400  1.00  0.00     0.029 A 
ATOM     63  C   UNL A   1      41.124  26.837  27.955  1.00  0.00     0.049 A 
ATOM     64  H   UNL A   1      42.030  27.631  29.666  1.00  0.00     0.167 HD
ATOM     65  C   UNL A   1      43.408  28.644  33.716  1.00  0.00     0.037 A 
ATOM     66  C   UNL A   1      42.021  25.915  27.525  1.00  0.00     0.037 A 
ATOM     67  C   UNL A   1      44.285  29.419  32.874  1.00  0.00     0.049 A 
ATOM     68  C   UNL A   1      43.311  26.206  28.195  1.00  0.00     0.074 A 
ATOM     69  C   UNL A   1      44.422  30.761  32.581  1.00  0.00     0.029 A 
ATOM     70  N   UNL A   1      44.993  28.752  31.907  1.00  0.00    -0.354 N 
ATOM     71  N   UNL A   1      44.051  27.247  27.937  1.00  0.00    -0.248 NA
ATOM     72  C   UNL A   1      43.593  25.534  29.454  1.00  0.00     0.031 C 
ATOM     73  C   UNL A   1      44.807  30.806  31.209  1.00  0.00     0.029 A 
ATOM     74  C   UNL A   1      44.931  29.492  30.758  1.00  0.00     0.049 A 
ATOM     75  H   UNL A   1      45.462  27.892  32.019  1.00  0.00     0.167 HD
ATOM     76  C   UNL A   1      44.576  27.615  29.166  1.00  0.00     0.074 A 
ATOM     77  C   UNL A   1      44.351  26.465  30.037  1.00  0.00     0.031 C 
ATOM     78  C   UNL A   1      44.885  28.917  29.433  1.00  0.00     0.037 A 
BRANCH  65  79
ATOM     79  C   UNL A   1      43.904  27.497  34.571  1.00  0.00     0.057 A 
ATOM     80  C   UNL A   1      44.600  27.786  35.761  1.00  0.00     0.134 A 
ATOM     81  C   UNL A   1      44.007  26.158  34.138  1.00  0.00     0.134 A 
ATOM     82  F   UNL A   1      44.584  29.019  36.290  1.00  0.00    -0.206 F 
ATOM     83  C   UNL A   1      45.421  26.849  36.401  1.00  0.00     0.040 A 
ATOM     84  C   UNL A   1      44.788  25.203  34.796  1.00  0.00     0.040 A 
ATOM     85  F   UNL A   1      43.445  25.713  33.011  1.00  0.00    -0.206 F 
ATOM     86  C   UNL A   1      45.529  25.556  35.910  1.00  0.00     0.006 A 
ENDBRANCH  65  79
BRANCH  66  87
ATOM     87  C   UNL A   1      41.784  24.633  26.819  1.00  0.00     0.057 A 
ATOM     88  C   UNL A   1      42.669  24.188  25.823  1.00  0.00     0.134 A 
ATOM     89  C   UNL A   1      40.873  23.678  27.303  1.00  0.00     0.134 A 
ATOM     90  F   UNL A   1      43.599  25.012  25.319  1.00  0.00    -0.206 F 
ATOM     91  C   UNL A   1      42.678  22.863  25.369  1.00  0.00     0.040 A 
ATOM     92  C   UNL A   1      40.866  22.354  26.851  1.00  0.00     0.040 A 
ATOM     93  F   UNL A   1      40.022  23.969  28.296  1.00  0.00    -0.206 F 
ATOM     94  C   UNL A   1      41.785  21.937  25.895  1.00  0.00     0.006 A 
ENDBRANCH  66  87
BRANCH  78  95
ATOM     95  C   UNL A   1      44.929  29.886  28.285  1.00  0.00     0.057 A 
ATOM     96  C   UNL A   1      43.823  30.619  27.832  1.00  0.00     0.134 A 
ATOM     97  C   UNL A   1      46.177  30.218  27.745  1.00  0.00     0.134 A 
ATOM     98  F   UNL A   1      42.603  30.433  28.353  1.00  0.00    -0.206 F 
ATOM     99  C   UNL A   1      43.954  31.624  26.868  1.00  0.00     0.040 A 
ATOM    100  C   UNL A   1      46.326  31.242  26.808  1.00  0.00     0.040 A 
ATOM    101  F   UNL A   1      47.286  29.589  28.167  1.00  0.00    -0.206 F 
ATOM    102  C   UNL A   1      45.211  31.947  26.363  1.00  0.00     0.006 A 
ENDBRANCH  78  95
ENDBRANCH  52  53
ENDBRANCH  44  47
ENDBRANCH  42  43
ENDBRANCH  41  42
ENDBRANCH  40  41
ENDBRANCH   1  40
TORSDOF 17
ENDMDL
MODEL 3
REMARK VINA RESULT:     -14.1      1.162      2.094
REMARK SMILES Cc1coc2cc3c(cc12)[C@@H](C)[C@H](CCC(=O)N[C@@H](Cc1c[nH]c2ccccc12)C(=O)NCCCCNC(=O)c1ccc(-c2c4nc(c(-c5c(F)cccc5F)c5ccc([nH]5)c(-c5c(F)cccc5F)c5nc(c(-c6c(F)cccc6F)c6ccc2[nH]6)C=C5)C=C4)cc1)C(=O)O3
REMARK SMILES IDX 33 1 32 2 30 3 31 4 19 6 18 7 16 8 17 9 15 11 14 12 13 13
REMARK SMILES IDX 1 14 2 15 3 16 10 17 4 18 5 19 9 20 6 21 8 22 7 23 11 24
REMARK SMILES IDX 96 25 12 26 94 27 95 28 20 29 21 30 22 31 29 32 23 33 24 34
REMARK SMILES IDX 28 35 25 37 27 38 26 39 34 40 35 41 36 42 37 43 38 44 39 46
REMARK SMILES IDX 40 47 41 48 93 49 42 50 92 51 43 52 44 53 45 54 86 55 46 56
REMARK SMILES IDX 91 57 85 58 87 59 47 60 90 61 84 62 83 63 48 65 74 66 57 67
REMARK SMILES IDX 73 68 58 69 61 70 72 71 88 72 59 73 60 74 71 76 89 77 62 78
REMARK SMILES IDX 49 79 50 80 55 81 51 82 52 83 54 84 56 85 53 86 75 87 76 88
REMARK SMILES IDX 81 89 77 90 78 91 80 92 82 93 79 94 63 95 64 96 69 97 65 98
REMARK SMILES IDX 66 99 68 100 70 101 67 102
REMARK H PARENT 32 5 18 10 23 36 37 45 87 64 61 75
REMARK Flexibility Score: inf
ROOT
ATOM      1  C   UNL A   1      35.738  20.239  25.237  1.00  0.00     0.116 C 
ENDROOT
BRANCH   1   2
ATOM      2  N   UNL A   1      35.178  21.043  26.324  1.00  0.00    -0.354 N 
ATOM      3  C   UNL A   1      34.002  21.745  26.387  1.00  0.00     0.242 C 
ATOM      4  O   UNL A   1      33.535  22.004  27.500  1.00  0.00    -0.273 OA
ATOM      5  H   UNL A   1      35.732  21.087  27.137  1.00  0.00     0.163 HD
BRANCH   3   6
ATOM      6  C   UNL A   1      33.244  22.133  25.115  1.00  0.00     0.175 C 
BRANCH   6   7
ATOM      7  N   UNL A   1      34.282  22.580  24.150  1.00  0.00    -0.344 N 
ATOM      8  C   UNL A   1      34.343  23.314  23.010  1.00  0.00     0.220 C 
ATOM      9  O   UNL A   1      35.461  23.629  22.595  1.00  0.00    -0.275 OA
ATOM     10  H   UNL A   1      35.173  22.251  24.410  1.00  0.00     0.164 HD
BRANCH   8  11
ATOM     11  C   UNL A   1      33.119  23.647  22.184  1.00  0.00     0.101 C 
BRANCH  11  12
ATOM     12  C   UNL A   1      32.669  25.128  22.258  1.00  0.00     0.026 C 
BRANCH  12  13
ATOM     13  C   UNL A   1      32.365  25.561  23.694  1.00  0.00     0.107 C 
ATOM     14  C   UNL A   1      34.281  31.222  27.702  1.00  0.00     0.048 C 
ATOM     15  C   UNL A   1      33.041  30.944  26.947  1.00  0.00    -0.005 A 
ATOM     16  C   UNL A   1      31.922  31.750  26.876  1.00  0.00     0.199 A 
ATOM     17  C   UNL A   1      32.782  29.837  26.087  1.00  0.00     0.024 A 
ATOM     18  O   UNL A   1      31.030  31.263  25.982  1.00  0.00    -0.464 OA
ATOM     19  C   UNL A   1      31.574  30.133  25.467  1.00  0.00     0.137 A 
ATOM     20  C   UNL A   1      33.454  28.640  25.745  1.00  0.00     0.020 A 
ATOM     21  C   UNL A   1      31.021  29.391  24.445  1.00  0.00     0.095 A 
ATOM     22  C   UNL A   1      32.902  27.808  24.761  1.00  0.00    -0.001 A 
ATOM     23  C   UNL A   1      31.740  28.253  24.094  1.00  0.00     0.138 A 
ATOM     24  C   UNL A   1      33.433  26.403  24.451  1.00  0.00     0.034 C 
ATOM     25  O   UNL A   1      31.196  27.511  23.069  1.00  0.00    -0.426 OA
ATOM     26  C   UNL A   1      33.807  25.651  25.753  1.00  0.00     0.014 C 
ATOM     27  C   UNL A   1      31.053  26.341  23.748  1.00  0.00     0.314 C 
ATOM     28  O   UNL A   1      30.056  26.061  24.371  1.00  0.00    -0.251 OA
ENDBRANCH  12  13
ENDBRANCH  11  12
ENDBRANCH   8  11
ENDBRANCH   6   7
BRANCH   6  29
ATOM     29  C   UNL A   1      32.135  21.063  24.803  1.00  0.00     0.072 C 
BRANCH  29  30
ATOM     30  C   UNL A   1      32.346  19.844  23.936  1.00  0.00    -0.020 A 
ATOM     31  C   UNL A   1      32.157  19.734  22.567  1.00  0.00     0.087 A 
ATOM     32  C   UNL A   1      32.666  18.520  24.388  1.00  0.00     0.003 A 
ATOM     33  N   UNL A   1      32.475  18.463  22.170  1.00  0.00    -0.361 N 
ATOM     34  C   UNL A   1      32.808  17.704  23.264  1.00  0.00     0.046 A 
ATOM     35  C   UNL A   1      32.916  17.964  25.657  1.00  0.00     0.010 A 
ATOM     36  H   UNL A   1      32.466  18.142  21.239  1.00  0.00     0.166 HD
ATOM     37  C   UNL A   1      33.252  16.378  23.341  1.00  0.00     0.026 A 
ATOM     38  C   UNL A   1      33.379  16.649  25.752  1.00  0.00     0.001 A 
ATOM     39  C   UNL A   1      33.565  15.877  24.608  1.00  0.00     0.002 A 
ENDBRANCH  29  30
ENDBRANCH   6  29
ENDBRANCH   3   6
ENDBRANCH   1   2
BRANCH   1  40
ATOM     40  C   UNL A   1      37.233  20.435  25.042  1.00  0.00     0.023 C 
BRANCH  40  41
ATOM     41  C   UNL A   1      37.627  21.868  24.662  1.00  0.00     0.023 C 
BRANCH  41  42
ATOM     42  C   UNL A   1      38.204  22.702  25.809  1.00  0.00     0.116 C 
BRANCH  42  43
ATOM     43  N   UNL A   1      39.479  22.232  26.315  1.00  0.00    -0.352 N 
ATOM     44  C   UNL A   1      40.349  22.723  27.251  1.00  0.00     0.251 C 
ATOM     45  H   UNL A   1      39.779  21.390  25.904  1.00  0.00     0.163 HD
ATOM     46  O   UNL A   1      41.142  21.935  27.770  1.00  0.00    -0.269 OA
BRANCH  44  47
ATOM     47  C   UNL A   1      40.469  24.171  27.551  1.00  0.00     0.039 A 
ATOM     48  C   UNL A   1      41.521  24.741  28.260  1.00  0.00     0.014 A 
ATOM     49  C   UNL A   1      39.379  24.981  27.179  1.00  0.00     0.014 A 
ATOM     50  C   UNL A   1      41.419  26.031  28.734  1.00  0.00     0.010 A 
ATOM     51  C   UNL A   1      39.293  26.300  27.612  1.00  0.00     0.010 A 
ATOM     52  C   UNL A   1      40.292  26.800  28.437  1.00  0.00    -0.014 A 
BRANCH  52  53
ATOM     53  C   UNL A   1      40.331  28.177  28.907  1.00  0.00     0.031 A 
ATOM     54  C   UNL A   1      41.479  28.951  28.356  1.00  0.00     0.074 A 
ATOM     55  C   UNL A   1      39.431  28.723  29.744  1.00  0.00     0.049 A 
ATOM     56  N   UNL A   1      42.485  29.443  29.001  1.00  0.00    -0.248 NA
ATOM     57  C   UNL A   1      41.604  29.027  26.891  1.00  0.00     0.031 C 
ATOM     58  C   UNL A   1      38.145  28.179  30.178  1.00  0.00     0.029 A 
ATOM     59  N   UNL A   1      39.463  29.950  30.334  1.00  0.00    -0.354 N 
ATOM     60  C   UNL A   1      43.287  30.055  28.040  1.00  0.00     0.074 A 
ATOM     61  C   UNL A   1      42.781  29.638  26.761  1.00  0.00     0.031 C 
ATOM     62  C   UNL A   1      37.429  29.158  30.776  1.00  0.00     0.029 A 
ATOM     63  C   UNL A   1      38.256  30.348  30.892  1.00  0.00     0.049 A 
ATOM     64  H   UNL A   1      40.274  30.509  30.361  1.00  0.00     0.167 HD
ATOM     65  C   UNL A   1      44.163  31.037  28.381  1.00  0.00     0.037 A 
ATOM     66  C   UNL A   1      37.956  31.586  31.358  1.00  0.00     0.037 A 
ATOM     67  C   UNL A   1      44.520  30.949  29.774  1.00  0.00     0.049 A 
ATOM     68  C   UNL A   1      39.237  32.276  31.642  1.00  0.00     0.074 A 
ATOM     69  C   UNL A   1      45.144  30.004  30.564  1.00  0.00     0.029 A 
ATOM     70  N   UNL A   1      43.914  31.821  30.644  1.00  0.00    -0.354 N 
ATOM     71  N   UNL A   1      40.041  31.954  32.615  1.00  0.00    -0.248 NA
ATOM     72  C   UNL A   1      39.824  33.085  30.585  1.00  0.00     0.031 C 
ATOM     73  C   UNL A   1      44.498  30.092  31.831  1.00  0.00     0.029 A 
ATOM     74  C   UNL A   1      43.553  31.115  31.759  1.00  0.00     0.049 A 
ATOM     75  H   UNL A   1      43.765  32.783  30.492  1.00  0.00     0.167 HD
ATOM     76  C   UNL A   1      41.312  32.139  32.093  1.00  0.00     0.074 A 
ATOM     77  C   UNL A   1      41.116  32.938  30.886  1.00  0.00     0.031 C 
ATOM     78  C   UNL A   1      42.365  31.390  32.533  1.00  0.00     0.037 A 
BRANCH  65  79
ATOM     79  C   UNL A   1      44.345  32.304  27.571  1.00  0.00     0.057 A 
ATOM     80  C   UNL A   1      45.409  32.377  26.651  1.00  0.00     0.134 A 
ATOM     81  C   UNL A   1      43.739  33.543  27.869  1.00  0.00     0.134 A 
ATOM     82  F   UNL A   1      46.073  31.273  26.273  1.00  0.00    -0.206 F 
ATOM     83  C   UNL A   1      45.899  33.592  26.157  1.00  0.00     0.040 A 
ATOM     84  C   UNL A   1      44.191  34.758  27.346  1.00  0.00     0.040 A 
ATOM     85  F   UNL A   1      42.742  33.671  28.749  1.00  0.00    -0.206 F 
ATOM     86  C   UNL A   1      45.298  34.791  26.516  1.00  0.00     0.006 A 
ENDBRANCH  65  79
BRANCH  66  87
ATOM     87  C   UNL A   1      36.672  32.325  31.299  1.00  0.00     0.057 A 
ATOM     88  C   UNL A   1      35.957  32.617  32.472  1.00  0.00     0.134 A 
ATOM     89  C   UNL A   1      36.270  33.020  30.146  1.00  0.00     0.134 A 
ATOM     90  F   UNL A   1      36.284  32.032  33.634  1.00  0.00    -0.206 F 
ATOM     91  C   UNL A   1      34.936  33.576  32.507  1.00  0.00     0.040 A 
ATOM     92  C   UNL A   1      35.245  33.973  30.165  1.00  0.00     0.040 A 
ATOM     93  F   UNL A   1      36.917  32.871  28.982  1.00  0.00    -0.206 F 
ATOM     94  C   UNL A   1      34.588  34.269  31.353  1.00  0.00     0.006 A 
ENDBRANCH  66  87
BRANCH  78  95
ATOM     95  C   UNL A   1      42.186  30.582  33.787  1.00  0.00     0.057 A 
ATOM     96  C   UNL A   1      41.655  29.285  33.819  1.00  0.00     0.134 A 
ATOM     97  C   UNL A   1      42.742  31.071  34.976  1.00  0.00     0.134 A 
ATOM     98  F   UNL A   1      41.180  28.700  32.712  1.00  0.00    -0.206 F 
ATOM     99  C   UNL A   1      41.660  28.518  34.989  1.00  0.00     0.040 A 
ATOM    100  C   UNL A   1      42.784  30.302  36.140  1.00  0.00     0.040 A 
ATOM    101  F   UNL A   1      43.310  32.287  35.007  1.00  0.00    -0.206 F 
ATOM    102  C   UNL A   1      42.239  29.022  36.150  1.00  0.00     0.006 A 
ENDBRANCH  78  95
ENDBRANCH  52  53
ENDBRANCH  44  47
ENDBRANCH  42  43
ENDBRANCH  41  42
ENDBRANCH  40  41
ENDBRANCH   1  40
TORSDOF 17
ENDMDL
