MODEL 1
REMARK VINA RESULT:     -12.2      0.000      0.000
REMARK SMILES Cc1ccccc1OCCN1C(=O)CC[C@H](C(=O)NCCCCNC(=O)c2ccc(-c3c4nc(c(-c5c(F)cccc5F)c5ccc([nH]5)c(-c5c(F)cccc5F)c5nc(c(-c6c(F)cccc6F)c6ccc3[nH]6)C=C5)C=C4)cc2)[C@@H]1c1ccco1
REMARK SMILES IDX 20 1 19 2 17 3 18 4 16 6 11 7 12 8 81 9 13 10 14 11 15 12
REMARK SMILES IDX 10 13 9 14 8 15 7 16 1 17 2 18 3 19 4 20 6 21 5 22 82 23
REMARK SMILES IDX 83 24 86 25 84 26 85 27 21 28 22 29 23 30 24 31 25 32 26 34
REMARK SMILES IDX 27 35 28 36 80 37 29 38 79 39 30 40 31 41 32 42 73 43 33 44
REMARK SMILES IDX 78 45 72 46 74 47 34 48 77 49 71 50 70 51 35 53 61 54 44 55
REMARK SMILES IDX 60 56 45 57 48 58 59 59 75 60 46 61 47 62 58 64 76 65 49 66
REMARK SMILES IDX 36 67 37 68 42 69 38 70 39 71 41 72 43 73 40 74 62 75 63 76
REMARK SMILES IDX 68 77 64 78 65 79 67 80 69 81 66 82 50 83 51 84 56 85 52 86
REMARK SMILES IDX 53 87 55 88 57 89 54 90
REMARK H PARENT 19 5 24 33 74 52 48 63
REMARK Flexibility Score: inf
ROOT
ATOM      1  C   UNL A   1      35.922  21.174  25.163  1.00  0.00     0.116 C 
ENDROOT
BRANCH   1   2
ATOM      2  N   UNL A   1      35.394  21.485  26.482  1.00  0.00    -0.356 N 
ATOM      3  C   UNL A   1      34.507  22.446  26.866  1.00  0.00     0.225 C 
ATOM      4  O   UNL A   1      34.006  22.332  27.990  1.00  0.00    -0.275 OA
ATOM      5  H   UNL A   1      35.732  20.913  27.209  1.00  0.00     0.163 HD
BRANCH   3   6
ATOM      6  C   UNL A   1      34.105  23.622  25.970  1.00  0.00     0.109 C 
ATOM      7  N   UNL A   1      32.739  24.280  23.943  1.00  0.00    -0.328 N 
ATOM      8  C   UNL A   1      33.836  24.682  23.204  1.00  0.00     0.223 C 
ATOM      9  C   UNL A   1      32.856  23.383  25.103  1.00  0.00     0.164 C 
ATOM     10  O   UNL A   1      33.747  25.185  22.083  1.00  0.00    -0.275 OA
ATOM     11  C   UNL A   1      35.204  24.432  23.786  1.00  0.00     0.101 C 
ATOM     12  C   UNL A   1      35.288  24.305  25.293  1.00  0.00     0.026 C 
BRANCH   7  13
ATOM     13  C   UNL A   1      31.406  24.517  23.370  1.00  0.00     0.162 C 
BRANCH  13  14
ATOM     14  C   UNL A   1      30.624  25.694  23.973  1.00  0.00     0.251 C 
BRANCH  14  15
ATOM     15  O   UNL A   1      31.220  26.986  23.842  1.00  0.00    -0.491 OA
BRANCH  15  16
ATOM     16  C   UNL A   1      31.956  27.492  24.877  1.00  0.00     0.122 A 
ATOM     17  C   UNL A   1      33.968  28.323  23.523  1.00  0.00     0.048 C 
ATOM     18  C   UNL A   1      33.198  28.134  24.796  1.00  0.00    -0.009 A 
ATOM     19  C   UNL A   1      33.782  28.621  25.984  1.00  0.00     0.007 A 
ATOM     20  C   UNL A   1      33.182  28.418  27.227  1.00  0.00     0.001 A 
ATOM     21  C   UNL A   1      31.388  27.247  26.138  1.00  0.00     0.047 A 
ATOM     22  C   UNL A   1      31.990  27.713  27.306  1.00  0.00     0.004 A 
ENDBRANCH  15  16
ENDBRANCH  14  15
ENDBRANCH  13  14
ENDBRANCH   7  13
BRANCH   9  23
ATOM     23  C   UNL A   1      32.675  21.965  24.665  1.00  0.00     0.127 A 
ATOM     24  C   UNL A   1      32.814  21.361  23.433  1.00  0.00     0.048 A 
ATOM     25  O   UNL A   1      32.290  21.044  25.597  1.00  0.00    -0.467 OA
ATOM     26  C   UNL A   1      32.444  20.016  23.615  1.00  0.00     0.042 A 
ATOM     27  C   UNL A   1      32.177  19.855  24.953  1.00  0.00     0.195 A 
ENDBRANCH   9  23
ENDBRANCH   3   6
ENDBRANCH   1   2
BRANCH   1  28
ATOM     28  C   UNL A   1      37.432  20.949  25.129  1.00  0.00     0.023 C 
BRANCH  28  29
ATOM     29  C   UNL A   1      38.287  22.207  25.277  1.00  0.00     0.023 C 
BRANCH  29  30
ATOM     30  C   UNL A   1      39.094  22.286  26.566  1.00  0.00     0.116 C 
BRANCH  30  31
ATOM     31  N   UNL A   1      40.499  22.607  26.398  1.00  0.00    -0.352 N 
ATOM     32  C   UNL A   1      41.154  23.831  26.392  1.00  0.00     0.251 C 
ATOM     33  H   UNL A   1      41.086  21.828  26.267  1.00  0.00     0.163 HD
ATOM     34  O   UNL A   1      42.339  23.857  26.111  1.00  0.00    -0.269 OA
BRANCH  32  35
ATOM     35  C   UNL A   1      40.485  25.085  26.862  1.00  0.00     0.039 A 
ATOM     36  C   UNL A   1      40.665  26.245  26.087  1.00  0.00     0.014 A 
ATOM     37  C   UNL A   1      39.865  25.197  28.099  1.00  0.00     0.014 A 
ATOM     38  C   UNL A   1      40.470  27.505  26.653  1.00  0.00     0.010 A 
ATOM     39  C   UNL A   1      39.782  26.432  28.707  1.00  0.00     0.010 A 
ATOM     40  C   UNL A   1      40.149  27.579  28.005  1.00  0.00    -0.014 A 
BRANCH  40  41
ATOM     41  C   UNL A   1      40.356  28.762  28.826  1.00  0.00     0.031 A 
ATOM     42  C   UNL A   1      39.282  29.741  29.053  1.00  0.00     0.074 A 
ATOM     43  C   UNL A   1      41.499  28.838  29.541  1.00  0.00     0.049 A 
ATOM     44  N   UNL A   1      39.499  30.957  29.420  1.00  0.00    -0.248 NA
ATOM     45  C   UNL A   1      37.870  29.433  28.861  1.00  0.00     0.031 C 
ATOM     46  C   UNL A   1      41.780  29.684  30.698  1.00  0.00     0.029 A 
ATOM     47  N   UNL A   1      42.725  28.234  29.262  1.00  0.00    -0.354 N 
ATOM     48  C   UNL A   1      38.290  31.497  29.780  1.00  0.00     0.074 A 
ATOM     49  C   UNL A   1      37.297  30.537  29.350  1.00  0.00     0.031 C 
ATOM     50  C   UNL A   1      43.111  29.764  30.859  1.00  0.00     0.029 A 
ATOM     51  C   UNL A   1      43.724  29.101  29.719  1.00  0.00     0.049 A 
ATOM     52  H   UNL A   1      42.860  27.362  28.824  1.00  0.00     0.167 HD
ATOM     53  C   UNL A   1      38.249  32.628  30.535  1.00  0.00     0.037 A 
ATOM     54  C   UNL A   1      44.679  29.637  28.908  1.00  0.00     0.037 A 
ATOM     55  C   UNL A   1      39.588  33.098  30.871  1.00  0.00     0.049 A 
ATOM     56  C   UNL A   1      44.594  31.147  28.879  1.00  0.00     0.074 A 
ATOM     57  C   UNL A   1      40.389  32.897  31.984  1.00  0.00     0.029 A 
ATOM     58  N   UNL A   1      40.423  33.584  29.871  1.00  0.00    -0.354 N 
ATOM     59  N   UNL A   1      43.545  31.811  29.279  1.00  0.00    -0.248 NA
ATOM     60  C   UNL A   1      45.649  32.021  28.379  1.00  0.00     0.031 C 
ATOM     61  C   UNL A   1      41.726  33.193  31.624  1.00  0.00     0.029 A 
ATOM     62  C   UNL A   1      41.736  33.605  30.304  1.00  0.00     0.049 A 
ATOM     63  H   UNL A   1      40.122  33.871  28.978  1.00  0.00     0.167 HD
ATOM     64  C   UNL A   1      43.755  33.151  29.106  1.00  0.00     0.074 A 
ATOM     65  C   UNL A   1      45.088  33.234  28.538  1.00  0.00     0.031 C 
ATOM     66  C   UNL A   1      42.807  34.075  29.437  1.00  0.00     0.037 A 
BRANCH  53  67
ATOM     67  C   UNL A   1      36.982  33.089  31.199  1.00  0.00     0.057 A 
ATOM     68  C   UNL A   1      36.677  32.745  32.528  1.00  0.00     0.134 A 
ATOM     69  C   UNL A   1      35.999  33.849  30.542  1.00  0.00     0.134 A 
ATOM     70  F   UNL A   1      37.543  32.075  33.299  1.00  0.00    -0.206 F 
ATOM     71  C   UNL A   1      35.450  33.055  33.127  1.00  0.00     0.040 A 
ATOM     72  C   UNL A   1      34.749  34.125  31.112  1.00  0.00     0.040 A 
ATOM     73  F   UNL A   1      36.222  34.357  29.320  1.00  0.00    -0.206 F 
ATOM     74  C   UNL A   1      34.467  33.719  32.409  1.00  0.00     0.006 A 
ENDBRANCH  53  67
BRANCH  54  75
ATOM     75  C   UNL A   1      45.037  28.768  27.755  1.00  0.00     0.057 A 
ATOM     76  C   UNL A   1      45.964  27.732  27.973  1.00  0.00     0.134 A 
ATOM     77  C   UNL A   1      44.191  28.644  26.646  1.00  0.00     0.134 A 
ATOM     78  F   UNL A   1      46.797  27.786  29.023  1.00  0.00    -0.206 F 
ATOM     79  C   UNL A   1      45.957  26.563  27.208  1.00  0.00     0.040 A 
ATOM     80  C   UNL A   1      44.182  27.480  25.868  1.00  0.00     0.040 A 
ATOM     81  F   UNL A   1      43.251  29.567  26.403  1.00  0.00    -0.206 F 
ATOM     82  C   UNL A   1      45.036  26.420  26.174  1.00  0.00     0.006 A 
ENDBRANCH  54  75
BRANCH  66  83
ATOM     83  C   UNL A   1      42.839  35.527  29.052  1.00  0.00     0.057 A 
ATOM     84  C   UNL A   1      42.058  36.074  28.026  1.00  0.00     0.134 A 
ATOM     85  C   UNL A   1      43.544  36.459  29.843  1.00  0.00     0.134 A 
ATOM     86  F   UNL A   1      41.266  35.307  27.263  1.00  0.00    -0.206 F 
ATOM     87  C   UNL A   1      42.012  37.451  27.777  1.00  0.00     0.040 A 
ATOM     88  C   UNL A   1      43.465  37.839  29.637  1.00  0.00     0.040 A 
ATOM     89  F   UNL A   1      44.318  36.071  30.869  1.00  0.00    -0.206 F 
ATOM     90  C   UNL A   1      42.703  38.339  28.592  1.00  0.00     0.006 A 
ENDBRANCH  66  83
ENDBRANCH  40  41
ENDBRANCH  32  35
ENDBRANCH  30  31
ENDBRANCH  29  30
ENDBRANCH  28  29
ENDBRANCH   1  28
TORSDOF 16
ENDMDL
MODEL 2
REMARK VINA RESULT:     -12.2      3.042      8.480
REMARK SMILES Cc1ccccc1OCCN1C(=O)CC[C@H](C(=O)NCCCCNC(=O)c2ccc(-c3c4nc(c(-c5c(F)cccc5F)c5ccc([nH]5)c(-c5c(F)cccc5F)c5nc(c(-c6c(F)cccc6F)c6ccc3[nH]6)C=C5)C=C4)cc2)[C@@H]1c1ccco1
REMARK SMILES IDX 20 1 19 2 17 3 18 4 16 6 11 7 12 8 81 9 13 10 14 11 15 12
REMARK SMILES IDX 10 13 9 14 8 15 7 16 1 17 2 18 3 19 4 20 6 21 5 22 82 23
REMARK SMILES IDX 83 24 86 25 84 26 85 27 21 28 22 29 23 30 24 31 25 32 26 34
REMARK SMILES IDX 27 35 28 36 80 37 29 38 79 39 30 40 31 41 32 42 73 43 33 44
REMARK SMILES IDX 78 45 72 46 74 47 34 48 77 49 71 50 70 51 35 53 61 54 44 55
REMARK SMILES IDX 60 56 45 57 48 58 59 59 75 60 46 61 47 62 58 64 76 65 49 66
REMARK SMILES IDX 36 67 37 68 42 69 38 70 39 71 41 72 43 73 40 74 62 75 63 76
REMARK SMILES IDX 68 77 64 78 65 79 67 80 69 81 66 82 50 83 51 84 56 85 52 86
REMARK SMILES IDX 53 87 55 88 57 89 54 90
REMARK H PARENT 19 5 24 33 74 52 48 63
REMARK Flexibility Score: inf
ROOT
ATOM      1  C   UNL A   1      32.307  29.268  25.408  1.00  0.00     0.116 C 
ENDROOT
BRANCH   1   2
ATOM      2  N   UNL A   1      33.213  29.311  24.271  1.00  0.00    -0.356 N 
ATOM      3  C   UNL A   1      33.738  28.293  23.530  1.00  0.00     0.225 C 
ATOM      4  O   UNL A   1      34.257  28.594  22.449  1.00  0.00    -0.275 OA
ATOM      5  H   UNL A   1      33.490  30.215  23.994  1.00  0.00     0.163 HD
BRANCH   3   6
ATOM      6  C   UNL A   1      33.694  26.827  23.971  1.00  0.00     0.109 C 
ATOM      7  N   UNL A   1      32.186  24.809  24.226  1.00  0.00    -0.328 N 
ATOM      8  C   UNL A   1      32.330  24.744  25.599  1.00  0.00     0.223 C 
ATOM      9  C   UNL A   1      32.480  26.030  23.459  1.00  0.00     0.164 C 
ATOM     10  O   UNL A   1      31.831  23.853  26.289  1.00  0.00    -0.275 OA
ATOM     11  C   UNL A   1      33.088  25.856  26.278  1.00  0.00     0.101 C 
ATOM     12  C   UNL A   1      34.086  26.616  25.429  1.00  0.00     0.026 C 
BRANCH   7  13
ATOM     13  C   UNL A   1      31.439  23.728  23.566  1.00  0.00     0.162 C 
BRANCH  13  14
ATOM     14  C   UNL A   1      32.295  22.648  22.887  1.00  0.00     0.251 C 
BRANCH  14  15
ATOM     15  O   UNL A   1      33.024  21.777  23.755  1.00  0.00    -0.491 OA
BRANCH  15  16
ATOM     16  C   UNL A   1      34.272  22.141  24.175  1.00  0.00     0.122 A 
ATOM     17  C   UNL A   1      34.092  21.329  26.600  1.00  0.00     0.048 C 
ATOM     18  C   UNL A   1      34.827  21.942  25.446  1.00  0.00    -0.009 A 
ATOM     19  C   UNL A   1      36.154  22.361  25.673  1.00  0.00     0.007 A 
ATOM     20  C   UNL A   1      36.890  23.017  24.685  1.00  0.00     0.001 A 
ATOM     21  C   UNL A   1      35.003  22.849  23.207  1.00  0.00     0.047 A 
ATOM     22  C   UNL A   1      36.306  23.278  23.454  1.00  0.00     0.004 A 
ENDBRANCH  15  16
ENDBRANCH  14  15
ENDBRANCH  13  14
ENDBRANCH   7  13
BRANCH   9  23
ATOM     23  C   UNL A   1      31.234  26.842  23.304  1.00  0.00     0.127 A 
ATOM     24  C   UNL A   1      30.066  26.876  24.038  1.00  0.00     0.048 A 
ATOM     25  O   UNL A   1      31.160  27.722  22.263  1.00  0.00    -0.467 OA
ATOM     26  C   UNL A   1      29.220  27.785  23.376  1.00  0.00     0.042 A 
ATOM     27  C   UNL A   1      29.939  28.310  22.331  1.00  0.00     0.195 A 
ENDBRANCH   9  23
ENDBRANCH   3   6
ENDBRANCH   1   2
BRANCH   1  28
ATOM     28  C   UNL A   1      31.557  30.574  25.661  1.00  0.00     0.023 C 
BRANCH  28  29
ATOM     29  C   UNL A   1      32.042  31.387  26.862  1.00  0.00     0.023 C 
BRANCH  29  30
ATOM     30  C   UNL A   1      33.276  30.829  27.558  1.00  0.00     0.116 C 
BRANCH  30  31
ATOM     31  N   UNL A   1      33.979  31.765  28.416  1.00  0.00    -0.352 N 
ATOM     32  C   UNL A   1      35.146  31.617  29.152  1.00  0.00     0.251 C 
ATOM     33  H   UNL A   1      33.559  32.652  28.488  1.00  0.00     0.163 HD
ATOM     34  O   UNL A   1      35.482  32.518  29.901  1.00  0.00    -0.269 OA
BRANCH  32  35
ATOM     35  C   UNL A   1      36.070  30.459  28.941  1.00  0.00     0.039 A 
ATOM     36  C   UNL A   1      36.414  29.690  30.068  1.00  0.00     0.014 A 
ATOM     37  C   UNL A   1      36.737  30.227  27.745  1.00  0.00     0.014 A 
ATOM     38  C   UNL A   1      37.568  28.907  30.058  1.00  0.00     0.010 A 
ATOM     39  C   UNL A   1      37.939  29.553  27.758  1.00  0.00     0.010 A 
ATOM     40  C   UNL A   1      38.387  28.950  28.933  1.00  0.00    -0.014 A 
BRANCH  40  41
ATOM     41  C   UNL A   1      39.792  28.577  28.935  1.00  0.00     0.031 A 
ATOM     42  C   UNL A   1      40.236  27.237  28.523  1.00  0.00     0.074 A 
ATOM     43  C   UNL A   1      40.701  29.556  29.135  1.00  0.00     0.049 A 
ATOM     44  N   UNL A   1      41.370  26.730  28.865  1.00  0.00    -0.248 NA
ATOM     45  C   UNL A   1      39.421  26.345  27.705  1.00  0.00     0.031 C 
ATOM     46  C   UNL A   1      42.126  29.537  28.812  1.00  0.00     0.029 A 
ATOM     47  N   UNL A   1      40.528  30.758  29.820  1.00  0.00    -0.354 N 
ATOM     48  C   UNL A   1      41.558  25.602  28.107  1.00  0.00     0.074 A 
ATOM     49  C   UNL A   1      40.292  25.363  27.451  1.00  0.00     0.031 C 
ATOM     50  C   UNL A   1      42.738  30.505  29.515  1.00  0.00     0.029 A 
ATOM     51  C   UNL A   1      41.752  31.067  30.425  1.00  0.00     0.049 A 
ATOM     52  H   UNL A   1      39.700  31.288  29.870  1.00  0.00     0.167 HD
ATOM     53  C   UNL A   1      42.802  25.062  27.989  1.00  0.00     0.037 A 
ATOM     54  C   UNL A   1      41.907  31.213  31.771  1.00  0.00     0.037 A 
ATOM     55  C   UNL A   1      43.795  25.836  28.726  1.00  0.00     0.049 A 
ATOM     56  C   UNL A   1      42.877  30.196  32.329  1.00  0.00     0.074 A 
ATOM     57  C   UNL A   1      44.661  26.844  28.333  1.00  0.00     0.029 A 
ATOM     58  N   UNL A   1      43.750  25.877  30.115  1.00  0.00    -0.354 N 
ATOM     59  N   UNL A   1      43.230  29.117  31.685  1.00  0.00    -0.248 NA
ATOM     60  C   UNL A   1      43.498  30.287  33.646  1.00  0.00     0.031 C 
ATOM     61  C   UNL A   1      45.080  27.542  29.493  1.00  0.00     0.029 A 
ATOM     62  C   UNL A   1      44.496  26.940  30.592  1.00  0.00     0.049 A 
ATOM     63  H   UNL A   1      43.257  25.239  30.680  1.00  0.00     0.167 HD
ATOM     64  C   UNL A   1      44.091  28.384  32.454  1.00  0.00     0.074 A 
ATOM     65  C   UNL A   1      44.228  29.157  33.675  1.00  0.00     0.031 C 
ATOM     66  C   UNL A   1      44.608  27.199  32.020  1.00  0.00     0.037 A 
BRANCH  53  67
ATOM     67  C   UNL A   1      43.117  24.022  26.951  1.00  0.00     0.057 A 
ATOM     68  C   UNL A   1      43.052  22.647  27.240  1.00  0.00     0.134 A 
ATOM     69  C   UNL A   1      43.536  24.336  25.647  1.00  0.00     0.134 A 
ATOM     70  F   UNL A   1      42.612  22.195  28.421  1.00  0.00    -0.206 F 
ATOM     71  C   UNL A   1      43.459  21.663  26.331  1.00  0.00     0.040 A 
ATOM     72  C   UNL A   1      43.991  23.366  24.744  1.00  0.00     0.040 A 
ATOM     73  F   UNL A   1      43.511  25.600  25.200  1.00  0.00    -0.206 F 
ATOM     74  C   UNL A   1      43.962  22.021  25.089  1.00  0.00     0.006 A 
ENDBRANCH  53  67
BRANCH  54  75
ATOM     75  C   UNL A   1      40.687  31.715  32.458  1.00  0.00     0.057 A 
ATOM     76  C   UNL A   1      40.417  33.095  32.400  1.00  0.00     0.134 A 
ATOM     77  C   UNL A   1      39.611  30.866  32.743  1.00  0.00     0.134 A 
ATOM     78  F   UNL A   1      41.404  33.961  32.123  1.00  0.00    -0.206 F 
ATOM     79  C   UNL A   1      39.116  33.596  32.483  1.00  0.00     0.040 A 
ATOM     80  C   UNL A   1      38.303  31.360  32.835  1.00  0.00     0.040 A 
ATOM     81  F   UNL A   1      39.781  29.538  32.766  1.00  0.00    -0.206 F 
ATOM     82  C   UNL A   1      38.049  32.721  32.663  1.00  0.00     0.006 A 
ENDBRANCH  54  75
BRANCH  66  83
ATOM     83  C   UNL A   1      45.345  26.208  32.877  1.00  0.00     0.057 A 
ATOM     84  C   UNL A   1      44.710  25.292  33.724  1.00  0.00     0.134 A 
ATOM     85  C   UNL A   1      46.739  26.036  32.729  1.00  0.00     0.134 A 
ATOM     86  F   UNL A   1      43.378  25.286  33.876  1.00  0.00    -0.206 F 
ATOM     87  C   UNL A   1      45.416  24.296  34.409  1.00  0.00     0.040 A 
ATOM     88  C   UNL A   1      47.446  25.014  33.367  1.00  0.00     0.040 A 
ATOM     89  F   UNL A   1      47.468  26.836  31.936  1.00  0.00    -0.206 F 
ATOM     90  C   UNL A   1      46.785  24.145  34.221  1.00  0.00     0.006 A 
ENDBRANCH  66  83
ENDBRANCH  40  41
ENDBRANCH  32  35
ENDBRANCH  30  31
ENDBRANCH  29  30
ENDBRANCH  28  29
ENDBRANCH   1  28
TORSDOF 16
ENDMDL
MODEL 3
REMARK VINA RESULT:     -12.2      3.349      8.516
REMARK SMILES Cc1ccccc1OCCN1C(=O)CC[C@H](C(=O)NCCCCNC(=O)c2ccc(-c3c4nc(c(-c5c(F)cccc5F)c5ccc([nH]5)c(-c5c(F)cccc5F)c5nc(c(-c6c(F)cccc6F)c6ccc3[nH]6)C=C5)C=C4)cc2)[C@@H]1c1ccco1
REMARK SMILES IDX 20 1 19 2 17 3 18 4 16 6 11 7 12 8 81 9 13 10 14 11 15 12
REMARK SMILES IDX 10 13 9 14 8 15 7 16 1 17 2 18 3 19 4 20 6 21 5 22 82 23
REMARK SMILES IDX 83 24 86 25 84 26 85 27 21 28 22 29 23 30 24 31 25 32 26 34
REMARK SMILES IDX 27 35 28 36 80 37 29 38 79 39 30 40 31 41 32 42 73 43 33 44
REMARK SMILES IDX 78 45 72 46 74 47 34 48 77 49 71 50 70 51 35 53 61 54 44 55
REMARK SMILES IDX 60 56 45 57 48 58 59 59 75 60 46 61 47 62 58 64 76 65 49 66
REMARK SMILES IDX 36 67 37 68 42 69 38 70 39 71 41 72 43 73 40 74 62 75 63 76
REMARK SMILES IDX 68 77 64 78 65 79 67 80 69 81 66 82 50 83 51 84 56 85 52 86
REMARK SMILES IDX 53 87 55 88 57 89 54 90
REMARK H PARENT 19 5 24 33 74 52 48 63
REMARK Flexibility Score: inf
ROOT
ATOM      1  C   UNL A   1      34.273  28.603  26.359  1.00  0.00     0.116 C 
ENDROOT
BRANCH   1   2
ATOM      2  N   UNL A   1      32.914  28.515  26.871  1.00  0.00    -0.356 N 
ATOM      3  C   UNL A   1      32.043  27.466  26.868  1.00  0.00     0.225 C 
ATOM      4  O   UNL A   1      31.056  27.553  27.606  1.00  0.00    -0.275 OA
ATOM      5  H   UNL A   1      32.571  29.342  27.283  1.00  0.00     0.163 HD
BRANCH   3   6
ATOM      6  C   UNL A   1      32.248  26.209  26.017  1.00  0.00     0.109 C 
ATOM      7  N   UNL A   1      31.841  25.190  23.735  1.00  0.00    -0.328 N 
ATOM      8  C   UNL A   1      31.029  24.180  24.216  1.00  0.00     0.223 C 
ATOM      9  C   UNL A   1      32.104  26.420  24.498  1.00  0.00     0.164 C 
ATOM     10  O   UNL A   1      30.566  23.289  23.501  1.00  0.00    -0.275 OA
ATOM     11  C   UNL A   1      30.654  24.216  25.675  1.00  0.00     0.101 C 
ATOM     12  C   UNL A   1      31.592  24.963  26.600  1.00  0.00     0.026 C 
BRANCH   7  13
ATOM     13  C   UNL A   1      32.200  25.158  22.309  1.00  0.00     0.162 C 
BRANCH  13  14
ATOM     14  C   UNL A   1      33.653  24.765  21.999  1.00  0.00     0.251 C 
BRANCH  14  15
ATOM     15  O   UNL A   1      34.037  23.432  22.342  1.00  0.00    -0.491 OA
BRANCH  15  16
ATOM     16  C   UNL A   1      34.355  23.140  23.638  1.00  0.00     0.122 A 
ATOM     17  C   UNL A   1      32.978  20.990  23.876  1.00  0.00     0.048 C 
ATOM     18  C   UNL A   1      33.929  22.032  24.384  1.00  0.00    -0.009 A 
ATOM     19  C   UNL A   1      34.401  21.889  25.705  1.00  0.00     0.007 A 
ATOM     20  C   UNL A   1      35.221  22.852  26.293  1.00  0.00     0.001 A 
ATOM     21  C   UNL A   1      35.138  24.128  24.258  1.00  0.00     0.047 A 
ATOM     22  C   UNL A   1      35.577  23.984  25.574  1.00  0.00     0.004 A 
ENDBRANCH  15  16
ENDBRANCH  14  15
ENDBRANCH  13  14
ENDBRANCH   7  13
BRANCH   9  23
ATOM     23  C   UNL A   1      31.115  27.474  24.116  1.00  0.00     0.127 A 
ATOM     24  C   UNL A   1      29.762  27.408  23.853  1.00  0.00     0.048 A 
ATOM     25  O   UNL A   1      31.559  28.757  23.970  1.00  0.00    -0.467 OA
ATOM     26  C   UNL A   1      29.377  28.708  23.477  1.00  0.00     0.042 A 
ATOM     27  C   UNL A   1      30.488  29.505  23.605  1.00  0.00     0.195 A 
ENDBRANCH   9  23
ENDBRANCH   3   6
ENDBRANCH   1   2
BRANCH   1  28
ATOM     28  C   UNL A   1      35.246  29.327  27.287  1.00  0.00     0.023 C 
BRANCH  28  29
ATOM     29  C   UNL A   1      34.630  30.418  28.164  1.00  0.00     0.023 C 
BRANCH  29  30
ATOM     30  C   UNL A   1      34.782  31.834  27.626  1.00  0.00     0.116 C 
BRANCH  30  31
ATOM     31  N   UNL A   1      34.049  32.855  28.354  1.00  0.00    -0.352 N 
ATOM     32  C   UNL A   1      34.299  33.444  29.585  1.00  0.00     0.251 C 
ATOM     33  H   UNL A   1      33.241  33.184  27.898  1.00  0.00     0.163 HD
ATOM     34  O   UNL A   1      33.466  34.203  30.049  1.00  0.00    -0.269 OA
BRANCH  32  35
ATOM     35  C   UNL A   1      35.615  33.289  30.280  1.00  0.00     0.039 A 
ATOM     36  C   UNL A   1      36.725  33.952  29.724  1.00  0.00     0.014 A 
ATOM     37  C   UNL A   1      35.825  32.390  31.318  1.00  0.00     0.014 A 
ATOM     38  C   UNL A   1      38.019  33.525  30.020  1.00  0.00     0.010 A 
ATOM     39  C   UNL A   1      37.089  31.882  31.530  1.00  0.00     0.010 A 
ATOM     40  C   UNL A   1      38.176  32.404  30.830  1.00  0.00    -0.014 A 
BRANCH  40  41
ATOM     41  C   UNL A   1      39.378  31.586  30.862  1.00  0.00     0.031 A 
ATOM     42  C   UNL A   1      39.506  30.370  30.043  1.00  0.00     0.074 A 
ATOM     43  C   UNL A   1      40.455  32.077  31.511  1.00  0.00     0.049 A 
ATOM     44  N   UNL A   1      40.338  29.423  30.308  1.00  0.00    -0.248 NA
ATOM     45  C   UNL A   1      38.685  30.114  28.865  1.00  0.00     0.031 C 
ATOM     46  C   UNL A   1      41.850  31.665  31.375  1.00  0.00     0.029 A 
ATOM     47  N   UNL A   1      40.476  32.991  32.564  1.00  0.00    -0.354 N 
ATOM     48  C   UNL A   1      40.369  28.591  29.216  1.00  0.00     0.074 A 
ATOM     49  C   UNL A   1      39.275  29.019  28.374  1.00  0.00     0.031 C 
ATOM     50  C   UNL A   1      42.532  32.095  32.451  1.00  0.00     0.029 A 
ATOM     51  C   UNL A   1      41.563  32.656  33.380  1.00  0.00     0.049 A 
ATOM     52  H   UNL A   1      39.844  33.733  32.706  1.00  0.00     0.167 HD
ATOM     53  C   UNL A   1      41.401  27.717  29.058  1.00  0.00     0.037 A 
ATOM     54  C   UNL A   1      41.437  32.319  34.694  1.00  0.00     0.037 A 
ATOM     55  C   UNL A   1      42.374  27.833  30.138  1.00  0.00     0.049 A 
ATOM     56  C   UNL A   1      41.922  30.909  34.951  1.00  0.00     0.074 A 
ATOM     57  C   UNL A   1      43.556  28.547  30.247  1.00  0.00     0.029 A 
ATOM     58  N   UNL A   1      42.022  27.458  31.430  1.00  0.00    -0.354 N 
ATOM     59  N   UNL A   1      42.094  30.028  34.004  1.00  0.00    -0.248 NA
ATOM     60  C   UNL A   1      42.220  30.370  36.274  1.00  0.00     0.031 C 
ATOM     61  C   UNL A   1      43.876  28.664  31.622  1.00  0.00     0.029 A 
ATOM     62  C   UNL A   1      42.907  27.996  32.348  1.00  0.00     0.049 A 
ATOM     63  H   UNL A   1      41.251  26.891  31.660  1.00  0.00     0.167 HD
ATOM     64  C   UNL A   1      42.508  28.844  34.547  1.00  0.00     0.074 A 
ATOM     65  C   UNL A   1      42.573  29.106  35.973  1.00  0.00     0.031 C 
ATOM     66  C   UNL A   1      42.754  27.748  33.774  1.00  0.00     0.037 A 
BRANCH  53  67
ATOM     67  C   UNL A   1      41.639  27.005  27.756  1.00  0.00     0.057 A 
ATOM     68  C   UNL A   1      41.470  25.615  27.633  1.00  0.00     0.134 A 
ATOM     69  C   UNL A   1      42.083  27.654  26.591  1.00  0.00     0.134 A 
ATOM     70  F   UNL A   1      40.994  24.871  28.640  1.00  0.00    -0.206 F 
ATOM     71  C   UNL A   1      41.805  24.911  26.470  1.00  0.00     0.040 A 
ATOM     72  C   UNL A   1      42.467  26.959  25.437  1.00  0.00     0.040 A 
ATOM     73  F   UNL A   1      42.155  28.993  26.532  1.00  0.00    -0.206 F 
ATOM     74  C   UNL A   1      42.336  25.578  25.376  1.00  0.00     0.006 A 
ENDBRANCH  53  67
BRANCH  54  75
ATOM     75  C   UNL A   1      40.285  32.975  35.368  1.00  0.00     0.057 A 
ATOM     76  C   UNL A   1      39.081  32.254  35.468  1.00  0.00     0.134 A 
ATOM     77  C   UNL A   1      40.473  34.031  36.267  1.00  0.00     0.134 A 
ATOM     78  F   UNL A   1      38.843  31.225  34.640  1.00  0.00    -0.206 F 
ATOM     79  C   UNL A   1      38.169  32.480  36.502  1.00  0.00     0.040 A 
ATOM     80  C   UNL A   1      39.561  34.271  37.303  1.00  0.00     0.040 A 
ATOM     81  F   UNL A   1      41.615  34.731  36.264  1.00  0.00    -0.206 F 
ATOM     82  C   UNL A   1      38.429  33.469  37.447  1.00  0.00     0.006 A 
ENDBRANCH  54  75
BRANCH  66  83
ATOM     83  C   UNL A   1      42.961  26.351  34.289  1.00  0.00     0.057 A 
ATOM     84  C   UNL A   1      41.973  25.618  34.959  1.00  0.00     0.134 A 
ATOM     85  C   UNL A   1      44.132  25.635  33.958  1.00  0.00     0.134 A 
ATOM     86  F   UNL A   1      40.778  26.153  35.246  1.00  0.00    -0.206 F 
ATOM     87  C   UNL A   1      42.152  24.275  35.311  1.00  0.00     0.040 A 
ATOM     88  C   UNL A   1      44.300  24.281  34.258  1.00  0.00     0.040 A 
ATOM     89  F   UNL A   1      45.150  26.213  33.303  1.00  0.00    -0.206 F 
ATOM     90  C   UNL A   1      43.310  23.598  34.948  1.00  0.00     0.006 A 
ENDBRANCH  66  83
ENDBRANCH  40  41
ENDBRANCH  32  35
ENDBRANCH  30  31
ENDBRANCH  29  30
ENDBRANCH  28  29
ENDBRANCH   1  28
TORSDOF 16
ENDMDL
