MODEL 1
REMARK VINA RESULT:     -11.6      0.000      0.000
REMARK SMILES [NH3+][C@H]1C=C[C@@H](C(=O)NC2(CC(=O)NCCCCNC(=O)c3ccc(-c4c5nc(c(-c6c(F)cccc6F)c6ccc([nH]6)c(-c6c(F)cccc6F)c6nc(c(-c7c(F)cccc7F)c7ccc4[nH]7)C=C6)C=C5)cc3)CCC2)C1
REMARK SMILES IDX 14 1 13 2 11 3 12 4 10 6 9 7 75 8 77 9 76 10 8 11 6 12 7 13
REMARK SMILES IDX 5 15 2 16 3 17 78 18 4 19 1 20 15 24 16 25 17 26 18 27 19 28
REMARK SMILES IDX 20 30 21 31 22 32 74 33 23 34 73 35 24 36 25 37 26 38 67 39
REMARK SMILES IDX 27 40 72 41 66 42 68 43 28 44 71 45 65 46 64 47 29 49 55 50
REMARK SMILES IDX 38 51 54 52 39 53 42 54 53 55 69 56 40 57 41 58 52 60 70 61
REMARK SMILES IDX 43 62 30 63 31 64 36 65 32 66 33 67 35 68 37 69 34 70 56 71
REMARK SMILES IDX 57 72 62 73 58 74 59 75 61 76 63 77 60 78 44 79 45 80 50 81
REMARK SMILES IDX 46 82 47 83 49 84 51 85 48 86
REMARK H PARENT 13 5 8 14 1 21 1 22 1 23 18 29 68 48 42 59
REMARK Flexibility Score: inf
ROOT
ATOM      1  C   UNL A   1      37.215  22.116  24.851  1.00  0.00     0.116 C 
ENDROOT
BRANCH   1   2
ATOM      2  N   UNL A   1      36.453  22.669  23.751  1.00  0.00    -0.356 N 
ATOM      3  C   UNL A   1      35.132  23.009  23.734  1.00  0.00     0.222 C 
ATOM      4  O   UNL A   1      34.578  23.166  22.644  1.00  0.00    -0.275 OA
ATOM      5  H   UNL A   1      36.949  22.819  22.914  1.00  0.00     0.163 HD
BRANCH   3   6
ATOM      6  C   UNL A   1      34.370  23.222  25.024  1.00  0.00     0.128 C 
BRANCH   6   7
ATOM      7  C   UNL A   1      33.466  22.071  25.543  1.00  0.00     0.049 C 
ATOM      8  C   UNL A   1      32.260  22.638  26.377  1.00  0.00     0.029 C 
ATOM      9  C   UNL A   1      33.940  21.453  26.883  1.00  0.00     0.029 C 
ATOM     10  C   UNL A   1      33.149  22.544  27.626  1.00  0.00     0.005 C 
BRANCH   7  11
ATOM     11  N   UNL A   1      32.975  21.243  24.418  1.00  0.00    -0.350 N 
ATOM     12  C   UNL A   1      32.887  19.941  24.046  1.00  0.00     0.227 C 
ATOM     13  O   UNL A   1      32.234  19.754  23.005  1.00  0.00    -0.274 OA
ATOM     14  H   UNL A   1      32.593  21.820  23.718  1.00  0.00     0.164 HD
BRANCH  12  15
ATOM     15  C   UNL A   1      33.492  18.706  24.723  1.00  0.00     0.107 C 
ATOM     16  C   UNL A   1      33.151  16.424  25.511  1.00  0.00     0.205 C 
ATOM     17  C   UNL A   1      34.064  16.476  24.328  1.00  0.00     0.033 C 
ATOM     18  C   UNL A   1      32.529  17.825  25.511  1.00  0.00     0.087 C 
ATOM     19  C   UNL A   1      34.239  17.726  23.876  1.00  0.00    -0.012 C 
BRANCH  16  20
ATOM     20  N   UNL A   1      32.152  15.379  25.376  1.00  0.00    -0.352 N 
ATOM     21  H   UNL A   1      31.352  15.739  24.856  1.00  0.00     0.345 HD
ATOM     22  H   UNL A   1      31.848  15.076  26.301  1.00  0.00     0.345 HD
ATOM     23  H   UNL A   1      32.554  14.586  24.874  1.00  0.00     0.345 HD
ENDBRANCH  16  20
ENDBRANCH  12  15
ENDBRANCH   7  11
ENDBRANCH   6   7
ENDBRANCH   3   6
ENDBRANCH   1   2
BRANCH   1  24
ATOM     24  C   UNL A   1      36.880  20.636  25.002  1.00  0.00     0.023 C 
BRANCH  24  25
ATOM     25  C   UNL A   1      38.051  19.674  24.869  1.00  0.00     0.023 C 
BRANCH  25  26
ATOM     26  C   UNL A   1      39.243  20.022  25.743  1.00  0.00     0.116 C 
BRANCH  26  27
ATOM     27  N   UNL A   1      40.242  18.964  25.835  1.00  0.00    -0.352 N 
ATOM     28  C   UNL A   1      41.584  19.078  26.126  1.00  0.00     0.251 C 
ATOM     29  H   UNL A   1      39.915  18.050  25.669  1.00  0.00     0.163 HD
ATOM     30  O   UNL A   1      42.310  18.089  26.093  1.00  0.00    -0.269 OA
BRANCH  28  31
ATOM     31  C   UNL A   1      42.147  20.411  26.428  1.00  0.00     0.039 A 
ATOM     32  C   UNL A   1      42.538  21.244  25.376  1.00  0.00     0.014 A 
ATOM     33  C   UNL A   1      42.219  20.863  27.746  1.00  0.00     0.014 A 
ATOM     34  C   UNL A   1      42.914  22.563  25.646  1.00  0.00     0.010 A 
ATOM     35  C   UNL A   1      42.479  22.201  27.999  1.00  0.00     0.010 A 
ATOM     36  C   UNL A   1      42.839  23.066  26.955  1.00  0.00    -0.014 A 
BRANCH  36  37
ATOM     37  C   UNL A   1      43.162  24.479  27.279  1.00  0.00     0.031 A 
ATOM     38  C   UNL A   1      44.592  24.947  27.207  1.00  0.00     0.074 A 
ATOM     39  C   UNL A   1      42.204  25.307  27.737  1.00  0.00     0.049 A 
ATOM     40  N   UNL A   1      45.115  26.080  27.598  1.00  0.00    -0.248 NA
ATOM     41  C   UNL A   1      45.573  23.986  26.674  1.00  0.00     0.031 C 
ATOM     42  C   UNL A   1      40.792  24.960  27.923  1.00  0.00     0.029 A 
ATOM     43  N   UNL A   1      42.278  26.614  28.146  1.00  0.00    -0.354 N 
ATOM     44  C   UNL A   1      46.484  25.948  27.403  1.00  0.00     0.074 A 
ATOM     45  C   UNL A   1      46.717  24.607  26.917  1.00  0.00     0.031 C 
ATOM     46  C   UNL A   1      40.130  26.037  28.376  1.00  0.00     0.029 A 
ATOM     47  C   UNL A   1      41.073  27.137  28.549  1.00  0.00     0.049 A 
ATOM     48  H   UNL A   1      43.116  27.130  28.150  1.00  0.00     0.167 HD
ATOM     49  C   UNL A   1      47.459  26.870  27.581  1.00  0.00     0.037 A 
ATOM     50  C   UNL A   1      40.766  28.367  29.003  1.00  0.00     0.037 A 
ATOM     51  C   UNL A   1      47.217  28.226  27.992  1.00  0.00     0.049 A 
ATOM     52  C   UNL A   1      41.852  29.399  29.117  1.00  0.00     0.074 A 
ATOM     53  C   UNL A   1      48.124  29.262  28.131  1.00  0.00     0.029 A 
ATOM     54  N   UNL A   1      45.969  28.739  28.311  1.00  0.00    -0.354 N 
ATOM     55  N   UNL A   1      43.136  29.278  28.879  1.00  0.00    -0.248 NA
ATOM     56  C   UNL A   1      41.447  30.743  29.553  1.00  0.00     0.031 C 
ATOM     57  C   UNL A   1      47.424  30.400  28.550  1.00  0.00     0.029 A 
ATOM     58  C   UNL A   1      46.079  30.078  28.640  1.00  0.00     0.049 A 
ATOM     59  H   UNL A   1      45.128  28.225  28.304  1.00  0.00     0.167 HD
ATOM     60  C   UNL A   1      43.684  30.534  29.101  1.00  0.00     0.074 A 
ATOM     61  C   UNL A   1      42.593  31.405  29.487  1.00  0.00     0.031 C 
ATOM     62  C   UNL A   1      44.976  30.931  28.995  1.00  0.00     0.037 A 
BRANCH  49  63
ATOM     63  C   UNL A   1      48.871  26.439  27.309  1.00  0.00     0.057 A 
ATOM     64  C   UNL A   1      49.700  25.941  28.324  1.00  0.00     0.134 A 
ATOM     65  C   UNL A   1      49.408  26.520  26.018  1.00  0.00     0.134 A 
ATOM     66  F   UNL A   1      49.252  25.855  29.586  1.00  0.00    -0.206 F 
ATOM     67  C   UNL A   1      51.023  25.577  28.073  1.00  0.00     0.040 A 
ATOM     68  C   UNL A   1      50.720  26.130  25.749  1.00  0.00     0.040 A 
ATOM     69  F   UNL A   1      48.667  26.982  24.999  1.00  0.00    -0.206 F 
ATOM     70  C   UNL A   1      51.536  25.666  26.781  1.00  0.00     0.006 A 
ENDBRANCH  49  63
BRANCH  50  71
ATOM     71  C   UNL A   1      39.360  28.709  29.330  1.00  0.00     0.057 A 
ATOM     72  C   UNL A   1      38.498  29.213  28.348  1.00  0.00     0.134 A 
ATOM     73  C   UNL A   1      38.843  28.548  30.620  1.00  0.00     0.134 A 
ATOM     74  F   UNL A   1      38.943  29.404  27.096  1.00  0.00    -0.206 F 
ATOM     75  C   UNL A   1      37.181  29.566  28.640  1.00  0.00     0.040 A 
ATOM     76  C   UNL A   1      37.519  28.876  30.922  1.00  0.00     0.040 A 
ATOM     77  F   UNL A   1      39.614  28.059  31.603  1.00  0.00    -0.206 F 
ATOM     78  C   UNL A   1      36.686  29.393  29.931  1.00  0.00     0.006 A 
ENDBRANCH  50  71
BRANCH  62  79
ATOM     79  C   UNL A   1      45.269  32.380  29.244  1.00  0.00     0.057 A 
ATOM     80  C   UNL A   1      45.642  32.853  30.508  1.00  0.00     0.134 A 
ATOM     81  C   UNL A   1      45.218  33.303  28.192  1.00  0.00     0.134 A 
ATOM     82  F   UNL A   1      45.697  32.019  31.557  1.00  0.00    -0.206 F 
ATOM     83  C   UNL A   1      45.935  34.200  30.720  1.00  0.00     0.040 A 
ATOM     84  C   UNL A   1      45.531  34.648  28.388  1.00  0.00     0.040 A 
ATOM     85  F   UNL A   1      44.875  32.910  26.956  1.00  0.00    -0.206 F 
ATOM     86  C   UNL A   1      45.886  35.101  29.657  1.00  0.00     0.006 A 
ENDBRANCH  62  79
ENDBRANCH  36  37
ENDBRANCH  28  31
ENDBRANCH  26  27
ENDBRANCH  25  26
ENDBRANCH  24  25
ENDBRANCH   1  24
TORSDOF 15
ENDMDL
MODEL 2
REMARK VINA RESULT:     -11.6      6.071     11.965
REMARK SMILES [NH3+][C@H]1C=C[C@@H](C(=O)NC2(CC(=O)NCCCCNC(=O)c3ccc(-c4c5nc(c(-c6c(F)cccc6F)c6ccc([nH]6)c(-c6c(F)cccc6F)c6nc(c(-c7c(F)cccc7F)c7ccc4[nH]7)C=C6)C=C5)cc3)CCC2)C1
REMARK SMILES IDX 14 1 13 2 11 3 12 4 10 6 9 7 75 8 77 9 76 10 8 11 6 12 7 13
REMARK SMILES IDX 5 15 2 16 3 17 78 18 4 19 1 20 15 24 16 25 17 26 18 27 19 28
REMARK SMILES IDX 20 30 21 31 22 32 74 33 23 34 73 35 24 36 25 37 26 38 67 39
REMARK SMILES IDX 27 40 72 41 66 42 68 43 28 44 71 45 65 46 64 47 29 49 55 50
REMARK SMILES IDX 38 51 54 52 39 53 42 54 53 55 69 56 40 57 41 58 52 60 70 61
REMARK SMILES IDX 43 62 30 63 31 64 36 65 32 66 33 67 35 68 37 69 34 70 56 71
REMARK SMILES IDX 57 72 62 73 58 74 59 75 61 76 63 77 60 78 44 79 45 80 50 81
REMARK SMILES IDX 46 82 47 83 49 84 51 85 48 86
REMARK H PARENT 13 5 8 14 1 21 1 22 1 23 18 29 68 48 42 59
REMARK Flexibility Score: inf
ROOT
ATOM      1  C   UNL A   1      34.039  36.335  33.623  1.00  0.00     0.116 C 
ENDROOT
BRANCH   1   2
ATOM      2  N   UNL A   1      33.936  34.897  33.754  1.00  0.00    -0.356 N 
ATOM      3  C   UNL A   1      34.950  33.989  33.837  1.00  0.00     0.222 C 
ATOM      4  O   UNL A   1      34.695  32.800  33.630  1.00  0.00    -0.275 OA
ATOM      5  H   UNL A   1      33.023  34.530  33.790  1.00  0.00     0.163 HD
BRANCH   3   6
ATOM      6  C   UNL A   1      36.352  34.422  34.207  1.00  0.00     0.128 C 
BRANCH   6   7
ATOM      7  C   UNL A   1      37.327  33.354  34.772  1.00  0.00     0.049 C 
ATOM      8  C   UNL A   1      37.033  33.074  36.291  1.00  0.00     0.029 C 
ATOM      9  C   UNL A   1      38.676  33.933  35.269  1.00  0.00     0.029 C 
ATOM     10  C   UNL A   1      38.019  34.200  36.635  1.00  0.00     0.005 C 
BRANCH   7  11
ATOM     11  N   UNL A   1      37.243  32.102  33.988  1.00  0.00    -0.350 N 
ATOM     12  C   UNL A   1      37.998  31.018  33.673  1.00  0.00     0.227 C 
ATOM     13  O   UNL A   1      37.382  30.135  33.051  1.00  0.00    -0.274 OA
ATOM     14  H   UNL A   1      36.361  32.034  33.556  1.00  0.00     0.164 HD
BRANCH  12  15
ATOM     15  C   UNL A   1      39.480  30.762  33.968  1.00  0.00     0.107 C 
ATOM     16  C   UNL A   1      41.129  29.573  35.313  1.00  0.00     0.205 C 
ATOM     17  C   UNL A   1      41.119  29.099  33.894  1.00  0.00     0.033 C 
ATOM     18  C   UNL A   1      39.829  30.381  35.402  1.00  0.00     0.087 C 
ATOM     19  C   UNL A   1      40.199  29.735  33.154  1.00  0.00    -0.012 C 
BRANCH  16  20
ATOM     20  N   UNL A   1      41.153  28.464  36.251  1.00  0.00    -0.352 N 
ATOM     21  H   UNL A   1      40.539  27.722  35.916  1.00  0.00     0.345 HD
ATOM     22  H   UNL A   1      40.832  28.784  37.164  1.00  0.00     0.345 HD
ATOM     23  H   UNL A   1      42.106  28.107  36.331  1.00  0.00     0.345 HD
ENDBRANCH  16  20
ENDBRANCH  12  15
ENDBRANCH   7  11
ENDBRANCH   6   7
ENDBRANCH   3   6
ENDBRANCH   1   2
BRANCH   1  24
ATOM     24  C   UNL A   1      34.216  36.695  32.152  1.00  0.00     0.023 C 
BRANCH  24  25
ATOM     25  C   UNL A   1      33.055  36.335  31.236  1.00  0.00     0.023 C 
BRANCH  25  26
ATOM     26  C   UNL A   1      33.323  36.593  29.764  1.00  0.00     0.116 C 
BRANCH  26  27
ATOM     27  N   UNL A   1      32.697  35.628  28.868  1.00  0.00    -0.352 N 
ATOM     28  C   UNL A   1      33.187  34.411  28.446  1.00  0.00     0.251 C 
ATOM     29  H   UNL A   1      31.811  35.877  28.521  1.00  0.00     0.163 HD
ATOM     30  O   UNL A   1      32.563  33.744  27.626  1.00  0.00    -0.269 OA
BRANCH  28  31
ATOM     31  C   UNL A   1      34.495  33.943  28.952  1.00  0.00     0.039 A 
ATOM     32  C   UNL A   1      34.539  33.135  30.091  1.00  0.00     0.014 A 
ATOM     33  C   UNL A   1      35.668  34.244  28.259  1.00  0.00     0.014 A 
ATOM     34  C   UNL A   1      35.751  32.555  30.477  1.00  0.00     0.010 A 
ATOM     35  C   UNL A   1      36.842  33.577  28.574  1.00  0.00     0.010 A 
ATOM     36  C   UNL A   1      36.902  32.731  29.692  1.00  0.00    -0.014 A 
BRANCH  36  37
ATOM     37  C   UNL A   1      38.194  32.080  30.023  1.00  0.00     0.031 A 
ATOM     38  C   UNL A   1      39.202  32.819  30.865  1.00  0.00     0.074 A 
ATOM     39  C   UNL A   1      38.509  30.884  29.490  1.00  0.00     0.049 A 
ATOM     40  N   UNL A   1      40.443  32.509  31.138  1.00  0.00    -0.248 NA
ATOM     41  C   UNL A   1      38.769  34.110  31.428  1.00  0.00     0.031 C 
ATOM     42  C   UNL A   1      37.654  30.094  28.601  1.00  0.00     0.029 A 
ATOM     43  N   UNL A   1      39.649  30.129  29.608  1.00  0.00    -0.354 N 
ATOM     44  C   UNL A   1      40.947  33.583  31.859  1.00  0.00     0.074 A 
ATOM     45  C   UNL A   1      39.901  34.577  31.930  1.00  0.00     0.031 C 
ATOM     46  C   UNL A   1      38.285  28.952  28.283  1.00  0.00     0.029 A 
ATOM     47  C   UNL A   1      39.602  28.946  28.912  1.00  0.00     0.049 A 
ATOM     48  H   UNL A   1      40.427  30.409  30.141  1.00  0.00     0.167 HD
ATOM     49  C   UNL A   1      42.163  33.719  32.439  1.00  0.00     0.037 A 
ATOM     50  C   UNL A   1      40.518  27.966  28.798  1.00  0.00     0.037 A 
ATOM     51  C   UNL A   1      43.176  32.698  32.432  1.00  0.00     0.049 A 
ATOM     52  C   UNL A   1      41.831  28.102  29.517  1.00  0.00     0.074 A 
ATOM     53  C   UNL A   1      44.412  32.703  33.053  1.00  0.00     0.029 A 
ATOM     54  N   UNL A   1      43.055  31.478  31.784  1.00  0.00    -0.354 N 
ATOM     55  N   UNL A   1      42.277  29.101  30.241  1.00  0.00    -0.248 NA
ATOM     56  C   UNL A   1      42.765  26.972  29.413  1.00  0.00     0.031 C 
ATOM     57  C   UNL A   1      45.047  31.489  32.766  1.00  0.00     0.029 A 
ATOM     58  C   UNL A   1      44.192  30.719  31.995  1.00  0.00     0.049 A 
ATOM     59  H   UNL A   1      42.275  31.194  31.253  1.00  0.00     0.167 HD
ATOM     60  C   UNL A   1      43.524  28.706  30.706  1.00  0.00     0.074 A 
ATOM     61  C   UNL A   1      43.762  27.374  30.189  1.00  0.00     0.031 C 
ATOM     62  C   UNL A   1      44.395  29.385  31.492  1.00  0.00     0.037 A 
BRANCH  49  63
ATOM     63  C   UNL A   1      42.447  35.012  33.146  1.00  0.00     0.057 A 
ATOM     64  C   UNL A   1      43.026  36.104  32.485  1.00  0.00     0.134 A 
ATOM     65  C   UNL A   1      42.136  35.170  34.503  1.00  0.00     0.134 A 
ATOM     66  F   UNL A   1      43.364  36.012  31.189  1.00  0.00    -0.206 F 
ATOM     67  C   UNL A   1      43.322  37.291  33.156  1.00  0.00     0.040 A 
ATOM     68  C   UNL A   1      42.399  36.363  35.177  1.00  0.00     0.040 A 
ATOM     69  F   UNL A   1      41.575  34.167  35.195  1.00  0.00    -0.206 F 
ATOM     70  C   UNL A   1      43.004  37.425  34.505  1.00  0.00     0.006 A 
ENDBRANCH  49  63
BRANCH  50  71
ATOM     71  C   UNL A   1      40.206  26.743  28.019  1.00  0.00     0.057 A 
ATOM     72  C   UNL A   1      40.707  26.573  26.722  1.00  0.00     0.134 A 
ATOM     73  C   UNL A   1      39.403  25.722  28.539  1.00  0.00     0.134 A 
ATOM     74  F   UNL A   1      41.469  27.526  26.164  1.00  0.00    -0.206 F 
ATOM     75  C   UNL A   1      40.404  25.443  25.962  1.00  0.00     0.040 A 
ATOM     76  C   UNL A   1      39.110  24.574  27.797  1.00  0.00     0.040 A 
ATOM     77  F   UNL A   1      38.902  25.819  29.779  1.00  0.00    -0.206 F 
ATOM     78  C   UNL A   1      39.606  24.437  26.501  1.00  0.00     0.006 A 
ENDBRANCH  50  71
BRANCH  62  79
ATOM     79  C   UNL A   1      45.656  28.678  31.886  1.00  0.00     0.057 A 
ATOM     80  C   UNL A   1      46.823  28.760  31.115  1.00  0.00     0.134 A 
ATOM     81  C   UNL A   1      45.714  27.942  33.075  1.00  0.00     0.134 A 
ATOM     82  F   UNL A   1      46.827  29.441  29.959  1.00  0.00    -0.206 F 
ATOM     83  C   UNL A   1      47.997  28.116  31.505  1.00  0.00     0.040 A 
ATOM     84  C   UNL A   1      46.888  27.313  33.487  1.00  0.00     0.040 A 
ATOM     85  F   UNL A   1      44.632  27.832  33.862  1.00  0.00    -0.206 F 
ATOM     86  C   UNL A   1      48.033  27.395  32.698  1.00  0.00     0.006 A 
ENDBRANCH  62  79
ENDBRANCH  36  37
ENDBRANCH  28  31
ENDBRANCH  26  27
ENDBRANCH  25  26
ENDBRANCH  24  25
ENDBRANCH   1  24
TORSDOF 15
ENDMDL
MODEL 3
REMARK VINA RESULT:     -11.6      2.537      4.006
REMARK SMILES [NH3+][C@H]1C=C[C@@H](C(=O)NC2(CC(=O)NCCCCNC(=O)c3ccc(-c4c5nc(c(-c6c(F)cccc6F)c6ccc([nH]6)c(-c6c(F)cccc6F)c6nc(c(-c7c(F)cccc7F)c7ccc4[nH]7)C=C6)C=C5)cc3)CCC2)C1
REMARK SMILES IDX 14 1 13 2 11 3 12 4 10 6 9 7 75 8 77 9 76 10 8 11 6 12 7 13
REMARK SMILES IDX 5 15 2 16 3 17 78 18 4 19 1 20 15 24 16 25 17 26 18 27 19 28
REMARK SMILES IDX 20 30 21 31 22 32 74 33 23 34 73 35 24 36 25 37 26 38 67 39
REMARK SMILES IDX 27 40 72 41 66 42 68 43 28 44 71 45 65 46 64 47 29 49 55 50
REMARK SMILES IDX 38 51 54 52 39 53 42 54 53 55 69 56 40 57 41 58 52 60 70 61
REMARK SMILES IDX 43 62 30 63 31 64 36 65 32 66 33 67 35 68 37 69 34 70 56 71
REMARK SMILES IDX 57 72 62 73 58 74 59 75 61 76 63 77 60 78 44 79 45 80 50 81
REMARK SMILES IDX 46 82 47 83 49 84 51 85 48 86
REMARK H PARENT 13 5 8 14 1 21 1 22 1 23 18 29 68 48 42 59
REMARK Flexibility Score: inf
ROOT
ATOM      1  C   UNL A   1      37.538  23.392  25.861  1.00  0.00     0.116 C 
ENDROOT
BRANCH   1   2
ATOM      2  N   UNL A   1      37.331  23.529  24.434  1.00  0.00    -0.356 N 
ATOM      3  C   UNL A   1      36.231  23.174  23.710  1.00  0.00     0.222 C 
ATOM      4  O   UNL A   1      36.339  23.069  22.486  1.00  0.00    -0.275 OA
ATOM      5  H   UNL A   1      38.074  23.927  23.925  1.00  0.00     0.163 HD
BRANCH   3   6
ATOM      6  C   UNL A   1      34.896  22.948  24.387  1.00  0.00     0.128 C 
BRANCH   6   7
ATOM      7  C   UNL A   1      33.863  24.108  24.383  1.00  0.00     0.049 C 
ATOM      8  C   UNL A   1      34.083  25.058  25.617  1.00  0.00     0.029 C 
ATOM      9  C   UNL A   1      32.513  23.752  25.056  1.00  0.00     0.029 C 
ATOM     10  C   UNL A   1      33.119  24.162  26.410  1.00  0.00     0.005 C 
BRANCH   7  11
ATOM     11  N   UNL A   1      33.941  24.874  23.119  1.00  0.00    -0.350 N 
ATOM     12  C   UNL A   1      33.454  26.011  22.559  1.00  0.00     0.227 C 
ATOM     13  O   UNL A   1      33.958  26.288  21.456  1.00  0.00    -0.274 OA
ATOM     14  H   UNL A   1      34.533  24.411  22.482  1.00  0.00     0.164 HD
BRANCH  12  15
ATOM     15  C   UNL A   1      32.378  26.959  23.095  1.00  0.00     0.107 C 
ATOM     16  C   UNL A   1      31.080  28.995  22.752  1.00  0.00     0.205 C 
ATOM     17  C   UNL A   1      30.233  27.768  22.640  1.00  0.00     0.033 C 
ATOM     18  C   UNL A   1      32.502  28.424  22.690  1.00  0.00     0.087 C 
ATOM     19  C   UNL A   1      30.945  26.643  22.807  1.00  0.00    -0.012 C 
BRANCH  16  20
ATOM     20  N   UNL A   1      30.817  29.932  21.675  1.00  0.00    -0.352 N 
ATOM     21  H   UNL A   1      30.589  30.846  22.067  1.00  0.00     0.345 HD
ATOM     22  H   UNL A   1      30.032  29.598  21.117  1.00  0.00     0.345 HD
ATOM     23  H   UNL A   1      31.645  30.013  21.084  1.00  0.00     0.345 HD
ENDBRANCH  16  20
ENDBRANCH  12  15
ENDBRANCH   7  11
ENDBRANCH   6   7
ENDBRANCH   3   6
ENDBRANCH   1   2
BRANCH   1  24
ATOM     24  C   UNL A   1      38.839  22.636  26.110  1.00  0.00     0.023 C 
BRANCH  24  25
ATOM     25  C   UNL A   1      38.935  21.254  25.481  1.00  0.00     0.023 C 
BRANCH  25  26
ATOM     26  C   UNL A   1      39.371  20.163  26.444  1.00  0.00     0.116 C 
BRANCH  26  27
ATOM     27  N   UNL A   1      40.471  19.343  25.952  1.00  0.00    -0.352 N 
ATOM     28  C   UNL A   1      41.813  19.653  25.901  1.00  0.00     0.251 C 
ATOM     29  H   UNL A   1      40.224  18.453  25.613  1.00  0.00     0.163 HD
ATOM     30  O   UNL A   1      42.610  18.874  25.386  1.00  0.00    -0.269 OA
BRANCH  28  31
ATOM     31  C   UNL A   1      42.274  20.956  26.428  1.00  0.00     0.039 A 
ATOM     32  C   UNL A   1      42.630  21.969  25.534  1.00  0.00     0.014 A 
ATOM     33  C   UNL A   1      42.282  21.197  27.802  1.00  0.00     0.014 A 
ATOM     34  C   UNL A   1      42.906  23.250  26.020  1.00  0.00     0.010 A 
ATOM     35  C   UNL A   1      42.441  22.492  28.271  1.00  0.00     0.010 A 
ATOM     36  C   UNL A   1      42.765  23.533  27.388  1.00  0.00    -0.014 A 
BRANCH  36  37
ATOM     37  C   UNL A   1      42.979  24.895  27.941  1.00  0.00     0.031 A 
ATOM     38  C   UNL A   1      44.359  25.304  28.385  1.00  0.00     0.074 A 
ATOM     39  C   UNL A   1      41.934  25.719  28.144  1.00  0.00     0.049 A 
ATOM     40  N   UNL A   1      44.739  26.373  29.037  1.00  0.00    -0.248 NA
ATOM     41  C   UNL A   1      45.450  24.354  28.105  1.00  0.00     0.031 C 
ATOM     42  C   UNL A   1      40.535  25.418  27.826  1.00  0.00     0.029 A 
ATOM     43  N   UNL A   1      41.885  26.978  28.685  1.00  0.00    -0.354 N 
ATOM     44  C   UNL A   1      46.094  26.199  29.285  1.00  0.00     0.074 A 
ATOM     45  C   UNL A   1      46.458  24.900  28.768  1.00  0.00     0.031 C 
ATOM     46  C   UNL A   1      39.773  26.477  28.146  1.00  0.00     0.029 A 
ATOM     47  C   UNL A   1      40.621  27.514  28.725  1.00  0.00     0.049 A 
ATOM     48  H   UNL A   1      42.681  27.454  29.013  1.00  0.00     0.167 HD
ATOM     49  C   UNL A   1      46.967  27.057  29.863  1.00  0.00     0.037 A 
ATOM     50  C   UNL A   1      40.195  28.709  29.177  1.00  0.00     0.037 A 
ATOM     51  C   UNL A   1      46.620  28.379  30.308  1.00  0.00     0.049 A 
ATOM     52  C   UNL A   1      41.196  29.678  29.742  1.00  0.00     0.074 A 
ATOM     53  C   UNL A   1      47.443  29.357  30.837  1.00  0.00     0.029 A 
ATOM     54  N   UNL A   1      45.342  28.915  30.254  1.00  0.00    -0.354 N 
ATOM     55  N   UNL A   1      42.486  29.523  29.923  1.00  0.00    -0.248 NA
ATOM     56  C   UNL A   1      40.686  30.992  30.156  1.00  0.00     0.031 C 
ATOM     57  C   UNL A   1      46.657  30.481  31.119  1.00  0.00     0.029 A 
ATOM     58  C   UNL A   1      45.354  30.211  30.735  1.00  0.00     0.049 A 
ATOM     59  H   UNL A   1      44.544  28.441  29.923  1.00  0.00     0.167 HD
ATOM     60  C   UNL A   1      42.945  30.728  30.436  1.00  0.00     0.074 A 
ATOM     61  C   UNL A   1      41.798  31.607  30.533  1.00  0.00     0.031 C 
ATOM     62  C   UNL A   1      44.205  31.076  30.796  1.00  0.00     0.037 A 
BRANCH  49  63
ATOM     63  C   UNL A   1      48.385  26.591  30.022  1.00  0.00     0.057 A 
ATOM     64  C   UNL A   1      48.796  25.839  31.131  1.00  0.00     0.134 A 
ATOM     65  C   UNL A   1      49.352  26.896  29.055  1.00  0.00     0.134 A 
ATOM     66  F   UNL A   1      47.923  25.529  32.102  1.00  0.00    -0.206 F 
ATOM     67  C   UNL A   1      50.123  25.440  31.293  1.00  0.00     0.040 A 
ATOM     68  C   UNL A   1      50.676  26.477  29.191  1.00  0.00     0.040 A 
ATOM     69  F   UNL A   1      49.026  27.608  27.965  1.00  0.00    -0.206 F 
ATOM     70  C   UNL A   1      51.067  25.755  30.318  1.00  0.00     0.006 A 
ENDBRANCH  49  63
BRANCH  50  71
ATOM     71  C   UNL A   1      38.764  29.081  29.063  1.00  0.00     0.057 A 
ATOM     72  C   UNL A   1      38.235  29.527  27.845  1.00  0.00     0.134 A 
ATOM     73  C   UNL A   1      37.893  29.007  30.155  1.00  0.00     0.134 A 
ATOM     74  F   UNL A   1      39.026  29.635  26.766  1.00  0.00    -0.206 F 
ATOM     75  C   UNL A   1      36.899  29.907  27.722  1.00  0.00     0.040 A 
ATOM     76  C   UNL A   1      36.547  29.362  30.041  1.00  0.00     0.040 A 
ATOM     77  F   UNL A   1      38.336  28.577  31.346  1.00  0.00    -0.206 F 
ATOM     78  C   UNL A   1      36.049  29.821  28.822  1.00  0.00     0.006 A 
ENDBRANCH  50  71
BRANCH  62  79
ATOM     79  C   UNL A   1      44.417  32.481  31.272  1.00  0.00     0.057 A 
ATOM     80  C   UNL A   1      44.706  33.528  30.388  1.00  0.00     0.134 A 
ATOM     81  C   UNL A   1      44.286  32.796  32.631  1.00  0.00     0.134 A 
ATOM     82  F   UNL A   1      44.855  33.287  29.077  1.00  0.00    -0.206 F 
ATOM     83  C   UNL A   1      44.877  34.835  30.842  1.00  0.00     0.040 A 
ATOM     84  C   UNL A   1      44.433  34.103  33.094  1.00  0.00     0.040 A 
ATOM     85  F   UNL A   1      44.002  31.838  33.527  1.00  0.00    -0.206 F 
ATOM     86  C   UNL A   1      44.735  35.127  32.198  1.00  0.00     0.006 A 
ENDBRANCH  62  79
ENDBRANCH  36  37
ENDBRANCH  28  31
ENDBRANCH  26  27
ENDBRANCH  25  26
ENDBRANCH  24  25
ENDBRANCH   1  24
TORSDOF 15
ENDMDL
