MODEL 1
REMARK VINA RESULT:     -10.4      0.000      0.000
REMARK SMILES CNc1nccc(-c2cc(C(=O)NCCCCNC(=O)c3ccc(-c4c5nc(c(-c6c(F)cccc6F)c6ccc([nH]6)c(-c6c(F)cccc6F)c6nc(c(-c7c(F)cccc7F)c7ccc4[nH]7)C=C6)C=C5)cc3)ccn2)n1
REMARK SMILES IDX 15 1 14 2 13 3 11 4 12 5 10 7 8 8 9 9 77 10 76 11 75 12 7 13
REMARK SMILES IDX 3 14 4 15 78 16 5 17 6 18 2 19 1 20 16 22 17 23 18 24 19 25
REMARK SMILES IDX 20 27 21 28 22 29 74 30 23 31 73 32 24 33 25 34 26 35 67 36
REMARK SMILES IDX 27 37 72 38 66 39 68 40 28 41 71 42 65 43 64 44 29 46 55 47
REMARK SMILES IDX 38 48 54 49 39 50 42 51 53 52 69 53 40 54 41 55 52 57 70 58
REMARK SMILES IDX 43 59 30 60 31 61 36 62 32 63 33 64 35 65 37 66 34 67 56 68
REMARK SMILES IDX 57 69 62 70 58 71 59 72 61 73 63 74 60 75 44 76 45 77 50 78
REMARK SMILES IDX 46 79 47 80 49 81 51 82 48 83
REMARK H PARENT 13 6 2 21 18 26 68 45 42 56
REMARK Flexibility Score: inf
ROOT
ATOM      1  C   UNL A   1      37.862  33.277  29.119  1.00  0.00     0.023 C 
ENDROOT
BRANCH   1   2
ATOM      2  C   UNL A   1      38.684  34.520  29.469  1.00  0.00     0.116 C 
BRANCH   2   3
ATOM      3  N   UNL A   1      39.579  34.242  30.575  1.00  0.00    -0.352 N 
ATOM      4  C   UNL A   1      39.357  33.964  31.901  1.00  0.00     0.251 C 
ATOM      5  O   UNL A   1      40.343  33.759  32.609  1.00  0.00    -0.269 OA
ATOM      6  H   UNL A   1      40.532  34.254  30.328  1.00  0.00     0.163 HD
BRANCH   4   7
ATOM      7  C   UNL A   1      38.000  33.828  32.502  1.00  0.00     0.043 A 
ATOM      8  C   UNL A   1      35.757  34.540  32.977  1.00  0.00     0.090 A 
ATOM      9  C   UNL A   1      37.049  34.840  32.551  1.00  0.00     0.044 A 
ATOM     10  N   UNL A   1      35.415  33.317  33.448  1.00  0.00    -0.255 NA
ATOM     11  C   UNL A   1      36.384  32.380  33.506  1.00  0.00     0.112 A 
ATOM     12  C   UNL A   1      37.667  32.577  33.029  1.00  0.00     0.034 A 
BRANCH   8  13
ATOM     13  C   UNL A   1      34.666  35.494  32.746  1.00  0.00     0.094 A 
ATOM     14  C   UNL A   1      33.123  36.403  31.313  1.00  0.00     0.222 A 
ATOM     15  N   UNL A   1      32.584  37.157  32.280  1.00  0.00    -0.222 NA
ATOM     16  N   UNL A   1      34.142  35.553  31.503  1.00  0.00    -0.211 NA
ATOM     17  C   UNL A   1      33.108  37.049  33.510  1.00  0.00     0.117 A 
ATOM     18  C   UNL A   1      34.160  36.226  33.804  1.00  0.00     0.051 A 
BRANCH  14  19
ATOM     19  N   UNL A   1      32.522  36.507  30.092  1.00  0.00    -0.357 N 
ATOM     20  C   UNL A   1      33.027  35.833  28.936  1.00  0.00     0.143 C 
ATOM     21  H   UNL A   1      31.715  37.064  30.005  1.00  0.00     0.163 HD
ENDBRANCH  14  19
ENDBRANCH   8  13
ENDBRANCH   4   7
ENDBRANCH   2   3
ENDBRANCH   1   2
BRANCH   1  22
ATOM     22  C   UNL A   1      36.357  33.536  29.004  1.00  0.00     0.023 C 
BRANCH  22  23
ATOM     23  C   UNL A   1      35.484  32.608  29.842  1.00  0.00     0.116 C 
BRANCH  23  24
ATOM     24  N   UNL A   1      34.618  31.754  29.045  1.00  0.00    -0.352 N 
ATOM     25  C   UNL A   1      34.929  30.580  28.400  1.00  0.00     0.251 C 
ATOM     26  H   UNL A   1      33.686  32.058  28.954  1.00  0.00     0.163 HD
ATOM     27  O   UNL A   1      34.108  30.027  27.688  1.00  0.00    -0.269 OA
BRANCH  25  28
ATOM     28  C   UNL A   1      36.289  30.018  28.545  1.00  0.00     0.039 A 
ATOM     29  C   UNL A   1      37.164  30.100  27.459  1.00  0.00     0.014 A 
ATOM     30  C   UNL A   1      36.706  29.442  29.747  1.00  0.00     0.014 A 
ATOM     31  C   UNL A   1      38.480  29.659  27.601  1.00  0.00     0.010 A 
ATOM     32  C   UNL A   1      38.035  29.070  29.910  1.00  0.00     0.010 A 
ATOM     33  C   UNL A   1      38.934  29.171  28.837  1.00  0.00    -0.014 A 
BRANCH  33  34
ATOM     34  C   UNL A   1      40.349  28.767  29.023  1.00  0.00     0.031 A 
ATOM     35  C   UNL A   1      41.344  29.733  29.599  1.00  0.00     0.074 A 
ATOM     36  C   UNL A   1      40.751  27.552  28.604  1.00  0.00     0.049 A 
ATOM     37  N   UNL A   1      42.625  29.570  29.810  1.00  0.00    -0.248 NA
ATOM     38  C   UNL A   1      40.841  31.068  29.953  1.00  0.00     0.031 C 
ATOM     39  C   UNL A   1      39.897  26.556  27.954  1.00  0.00     0.029 A 
ATOM     40  N   UNL A   1      41.985  26.954  28.650  1.00  0.00    -0.354 N 
ATOM     41  C   UNL A   1      43.083  30.786  30.301  1.00  0.00     0.074 A 
ATOM     42  C   UNL A   1      41.956  31.693  30.303  1.00  0.00     0.031 C 
ATOM     43  C   UNL A   1      40.629  25.465  27.678  1.00  0.00     0.029 A 
ATOM     44  C   UNL A   1      42.005  25.693  28.109  1.00  0.00     0.049 A 
ATOM     45  H   UNL A   1      42.780  27.388  29.035  1.00  0.00     0.167 HD
ATOM     46  C   UNL A   1      44.324  31.111  30.734  1.00  0.00     0.037 A 
ATOM     47  C   UNL A   1      43.019  24.816  27.975  1.00  0.00     0.037 A 
ATOM     48  C   UNL A   1      45.435  30.196  30.759  1.00  0.00     0.049 A 
ATOM     49  C   UNL A   1      44.377  25.179  28.503  1.00  0.00     0.074 A 
ATOM     50  C   UNL A   1      46.706  30.396  31.266  1.00  0.00     0.029 A 
ATOM     51  N   UNL A   1      45.406  28.907  30.245  1.00  0.00    -0.354 N 
ATOM     52  N   UNL A   1      44.773  26.296  29.065  1.00  0.00    -0.248 NA
ATOM     53  C   UNL A   1      45.426  24.156  28.394  1.00  0.00     0.031 C 
ATOM     54  C   UNL A   1      47.461  29.243  31.020  1.00  0.00     0.029 A 
ATOM     55  C   UNL A   1      46.645  28.309  30.401  1.00  0.00     0.049 A 
ATOM     56  H   UNL A   1      44.620  28.481  29.832  1.00  0.00     0.167 HD
ATOM     57  C   UNL A   1      46.107  26.106  29.392  1.00  0.00     0.074 A 
ATOM     58  C   UNL A   1      46.450  24.759  28.982  1.00  0.00     0.031 C 
ATOM     59  C   UNL A   1      46.972  26.969  29.980  1.00  0.00     0.037 A 
BRANCH  46  60
ATOM     60  C   UNL A   1      44.537  32.516  31.216  1.00  0.00     0.057 A 
ATOM     61  C   UNL A   1      44.301  32.887  32.547  1.00  0.00     0.134 A 
ATOM     62  C   UNL A   1      44.988  33.512  30.340  1.00  0.00     0.134 A 
ATOM     63  F   UNL A   1      43.857  31.987  33.436  1.00  0.00    -0.206 F 
ATOM     64  C   UNL A   1      44.467  34.205  32.979  1.00  0.00     0.040 A 
ATOM     65  C   UNL A   1      45.185  34.826  30.768  1.00  0.00     0.040 A 
ATOM     66  F   UNL A   1      45.239  33.225  29.054  1.00  0.00    -0.206 F 
ATOM     67  C   UNL A   1      44.914  35.178  32.088  1.00  0.00     0.006 A 
ENDBRANCH  46  60
BRANCH  47  68
ATOM     68  C   UNL A   1      42.767  23.499  27.341  1.00  0.00     0.057 A 
ATOM     69  C   UNL A   1      42.346  22.401  28.099  1.00  0.00     0.134 A 
ATOM     70  C   UNL A   1      42.909  23.316  25.961  1.00  0.00     0.134 A 
ATOM     71  F   UNL A   1      42.205  22.513  29.428  1.00  0.00    -0.206 F 
ATOM     72  C   UNL A   1      42.085  21.163  27.509  1.00  0.00     0.040 A 
ATOM     73  C   UNL A   1      42.631  22.090  25.354  1.00  0.00     0.040 A 
ATOM     74  F   UNL A   1      43.298  24.334  25.180  1.00  0.00    -0.206 F 
ATOM     75  C   UNL A   1      42.222  21.008  26.130  1.00  0.00     0.006 A 
ENDBRANCH  47  68
BRANCH  59  76
ATOM     76  C   UNL A   1      48.368  26.479  30.229  1.00  0.00     0.057 A 
ATOM     77  C   UNL A   1      48.706  25.778  31.394  1.00  0.00     0.134 A 
ATOM     78  C   UNL A   1      49.374  26.672  29.274  1.00  0.00     0.134 A 
ATOM     79  F   UNL A   1      47.791  25.573  32.353  1.00  0.00    -0.206 F 
ATOM     80  C   UNL A   1      50.001  25.302  31.608  1.00  0.00     0.040 A 
ATOM     81  C   UNL A   1      50.665  26.179  29.466  1.00  0.00     0.040 A 
ATOM     82  F   UNL A   1      49.113  27.328  28.133  1.00  0.00    -0.206 F 
ATOM     83  C   UNL A   1      50.983  25.497  30.637  1.00  0.00     0.006 A 
ENDBRANCH  59  76
ENDBRANCH  33  34
ENDBRANCH  25  28
ENDBRANCH  23  24
ENDBRANCH  22  23
ENDBRANCH   1  22
TORSDOF 13
ENDMDL
MODEL 2
REMARK VINA RESULT:     -10.3      4.804      7.689
REMARK SMILES CNc1nccc(-c2cc(C(=O)NCCCCNC(=O)c3ccc(-c4c5nc(c(-c6c(F)cccc6F)c6ccc([nH]6)c(-c6c(F)cccc6F)c6nc(c(-c7c(F)cccc7F)c7ccc4[nH]7)C=C6)C=C5)cc3)ccn2)n1
REMARK SMILES IDX 15 1 14 2 13 3 11 4 12 5 10 7 8 8 9 9 77 10 76 11 75 12 7 13
REMARK SMILES IDX 3 14 4 15 78 16 5 17 6 18 2 19 1 20 16 22 17 23 18 24 19 25
REMARK SMILES IDX 20 27 21 28 22 29 74 30 23 31 73 32 24 33 25 34 26 35 67 36
REMARK SMILES IDX 27 37 72 38 66 39 68 40 28 41 71 42 65 43 64 44 29 46 55 47
REMARK SMILES IDX 38 48 54 49 39 50 42 51 53 52 69 53 40 54 41 55 52 57 70 58
REMARK SMILES IDX 43 59 30 60 31 61 36 62 32 63 33 64 35 65 37 66 34 67 56 68
REMARK SMILES IDX 57 69 62 70 58 71 59 72 61 73 63 74 60 75 44 76 45 77 50 78
REMARK SMILES IDX 46 79 47 80 49 81 51 82 48 83
REMARK H PARENT 13 6 2 21 18 26 68 45 42 56
REMARK Flexibility Score: inf
ROOT
ATOM      1  C   UNL A   1      32.132  30.057  26.991  1.00  0.00     0.023 C 
ENDROOT
BRANCH   1   2
ATOM      2  C   UNL A   1      33.355  29.695  26.143  1.00  0.00     0.116 C 
BRANCH   2   3
ATOM      3  N   UNL A   1      33.741  28.316  26.371  1.00  0.00    -0.352 N 
ATOM      4  C   UNL A   1      33.465  27.152  25.699  1.00  0.00     0.251 C 
ATOM      5  O   UNL A   1      33.955  26.113  26.142  1.00  0.00    -0.269 OA
ATOM      6  H   UNL A   1      34.312  28.190  27.163  1.00  0.00     0.163 HD
BRANCH   4   7
ATOM      7  C   UNL A   1      32.676  27.093  24.437  1.00  0.00     0.043 A 
ATOM      8  C   UNL A   1      30.873  27.709  22.974  1.00  0.00     0.090 A 
ATOM      9  C   UNL A   1      31.430  27.683  24.251  1.00  0.00     0.044 A 
ATOM     10  N   UNL A   1      31.450  27.087  21.919  1.00  0.00    -0.255 NA
ATOM     11  C   UNL A   1      32.599  26.416  22.144  1.00  0.00     0.112 A 
ATOM     12  C   UNL A   1      33.253  26.410  23.363  1.00  0.00     0.034 A 
BRANCH   8  13
ATOM     13  C   UNL A   1      29.731  28.585  22.690  1.00  0.00     0.094 A 
ATOM     14  C   UNL A   1      28.898  30.453  21.651  1.00  0.00     0.222 A 
ATOM     15  N   UNL A   1      27.645  30.182  22.041  1.00  0.00    -0.222 NA
ATOM     16  N   UNL A   1      29.957  29.680  21.934  1.00  0.00    -0.211 NA
ATOM     17  C   UNL A   1      27.452  29.068  22.763  1.00  0.00     0.117 A 
ATOM     18  C   UNL A   1      28.468  28.224  23.120  1.00  0.00     0.051 A 
BRANCH  14  19
ATOM     19  N   UNL A   1      29.037  31.567  20.875  1.00  0.00    -0.357 N 
ATOM     20  C   UNL A   1      27.965  32.495  20.681  1.00  0.00     0.143 C 
ATOM     21  H   UNL A   1      29.901  31.736  20.434  1.00  0.00     0.163 HD
ENDBRANCH  14  19
ENDBRANCH   8  13
ENDBRANCH   4   7
ENDBRANCH   2   3
ENDBRANCH   1   2
BRANCH   1  22
ATOM     22  C   UNL A   1      31.699  31.520  26.870  1.00  0.00     0.023 C 
BRANCH  22  23
ATOM     23  C   UNL A   1      32.844  32.528  26.882  1.00  0.00     0.116 C 
BRANCH  23  24
ATOM     24  N   UNL A   1      32.462  33.828  27.409  1.00  0.00    -0.352 N 
ATOM     25  C   UNL A   1      33.028  34.533  28.447  1.00  0.00     0.251 C 
ATOM     26  H   UNL A   1      31.697  34.261  26.966  1.00  0.00     0.163 HD
ATOM     27  O   UNL A   1      32.528  35.576  28.833  1.00  0.00    -0.269 OA
BRANCH  25  28
ATOM     28  C   UNL A   1      34.225  33.986  29.120  1.00  0.00     0.039 A 
ATOM     29  C   UNL A   1      34.048  33.040  30.132  1.00  0.00     0.014 A 
ATOM     30  C   UNL A   1      35.509  34.380  28.737  1.00  0.00     0.014 A 
ATOM     31  C   UNL A   1      35.163  32.443  30.719  1.00  0.00     0.010 A 
ATOM     32  C   UNL A   1      36.617  33.732  29.270  1.00  0.00     0.010 A 
ATOM     33  C   UNL A   1      36.456  32.761  30.270  1.00  0.00    -0.014 A 
BRANCH  33  34
ATOM     34  C   UNL A   1      37.647  32.080  30.834  1.00  0.00     0.031 A 
ATOM     35  C   UNL A   1      38.221  32.523  32.148  1.00  0.00     0.074 A 
ATOM     36  C   UNL A   1      38.252  31.110  30.124  1.00  0.00     0.049 A 
ATOM     37  N   UNL A   1      39.271  32.070  32.785  1.00  0.00    -0.248 NA
ATOM     38  C   UNL A   1      37.550  33.646  32.820  1.00  0.00     0.031 C 
ATOM     39  C   UNL A   1      37.838  30.648  28.798  1.00  0.00     0.029 A 
ATOM     40  N   UNL A   1      39.356  30.347  30.413  1.00  0.00    -0.354 N 
ATOM     41  C   UNL A   1      39.396  32.863  33.918  1.00  0.00     0.074 A 
ATOM     42  C   UNL A   1      38.351  33.861  33.853  1.00  0.00     0.031 C 
ATOM     43  C   UNL A   1      38.666  29.670  28.396  1.00  0.00     0.029 A 
ATOM     44  C   UNL A   1      39.681  29.454  29.423  1.00  0.00     0.049 A 
ATOM     45  H   UNL A   1      39.866  30.433  31.250  1.00  0.00     0.167 HD
ATOM     46  C   UNL A   1      40.285  32.755  34.934  1.00  0.00     0.037 A 
ATOM     47  C   UNL A   1      40.684  28.558  29.351  1.00  0.00     0.037 A 
ATOM     48  C   UNL A   1      41.303  31.741  35.009  1.00  0.00     0.049 A 
ATOM     49  C   UNL A   1      41.632  28.423  30.508  1.00  0.00     0.074 A 
ATOM     50  C   UNL A   1      42.192  31.485  36.039  1.00  0.00     0.029 A 
ATOM     51  N   UNL A   1      41.573  30.819  34.008  1.00  0.00    -0.354 N 
ATOM     52  N   UNL A   1      41.674  29.109  31.625  1.00  0.00    -0.248 NA
ATOM     53  C   UNL A   1      42.662  27.381  30.403  1.00  0.00     0.031 C 
ATOM     54  C   UNL A   1      43.029  30.435  35.642  1.00  0.00     0.029 A 
ATOM     55  C   UNL A   1      42.632  30.008  34.385  1.00  0.00     0.049 A 
ATOM     56  H   UNL A   1      41.085  30.751  33.156  1.00  0.00     0.167 HD
ATOM     57  C   UNL A   1      42.719  28.572  32.363  1.00  0.00     0.074 A 
ATOM     58  C   UNL A   1      43.275  27.491  31.574  1.00  0.00     0.031 C 
ATOM     59  C   UNL A   1      43.178  28.941  33.584  1.00  0.00     0.037 A 
BRANCH  46  60
ATOM     60  C   UNL A   1      40.188  33.762  36.042  1.00  0.00     0.057 A 
ATOM     61  C   UNL A   1      39.445  33.515  37.205  1.00  0.00     0.134 A 
ATOM     62  C   UNL A   1      40.846  34.994  35.949  1.00  0.00     0.134 A 
ATOM     63  F   UNL A   1      38.779  32.361  37.355  1.00  0.00    -0.206 F 
ATOM     64  C   UNL A   1      39.329  34.472  38.216  1.00  0.00     0.040 A 
ATOM     65  C   UNL A   1      40.763  35.947  36.965  1.00  0.00     0.040 A 
ATOM     66  F   UNL A   1      41.579  35.294  34.866  1.00  0.00    -0.206 F 
ATOM     67  C   UNL A   1      39.993  35.691  38.098  1.00  0.00     0.006 A 
ENDBRANCH  46  60
BRANCH  47  68
ATOM     68  C   UNL A   1      40.812  27.700  28.148  1.00  0.00     0.057 A 
ATOM     69  C   UNL A   1      41.574  28.107  27.047  1.00  0.00     0.134 A 
ATOM     70  C   UNL A   1      40.204  26.441  28.083  1.00  0.00     0.134 A 
ATOM     71  F   UNL A   1      42.169  29.310  27.046  1.00  0.00    -0.206 F 
ATOM     72  C   UNL A   1      41.719  27.299  25.919  1.00  0.00     0.040 A 
ATOM     73  C   UNL A   1      40.358  25.612  26.971  1.00  0.00     0.040 A 
ATOM     74  F   UNL A   1      39.471  25.990  29.112  1.00  0.00    -0.206 F 
ATOM     75  C   UNL A   1      41.114  26.043  25.882  1.00  0.00     0.006 A 
ENDBRANCH  47  68
BRANCH  59  76
ATOM     76  C   UNL A   1      44.327  28.160  34.150  1.00  0.00     0.057 A 
ATOM     77  C   UNL A   1      44.127  26.993  34.898  1.00  0.00     0.134 A 
ATOM     78  C   UNL A   1      45.648  28.557  33.907  1.00  0.00     0.134 A 
ATOM     79  F   UNL A   1      42.886  26.568  35.177  1.00  0.00    -0.206 F 
ATOM     80  C   UNL A   1      45.202  26.257  35.401  1.00  0.00     0.040 A 
ATOM     81  C   UNL A   1      46.730  27.815  34.383  1.00  0.00     0.040 A 
ATOM     82  F   UNL A   1      45.907  29.661  33.191  1.00  0.00    -0.206 F 
ATOM     83  C   UNL A   1      46.509  26.664  35.136  1.00  0.00     0.006 A 
ENDBRANCH  59  76
ENDBRANCH  33  34
ENDBRANCH  25  28
ENDBRANCH  23  24
ENDBRANCH  22  23
ENDBRANCH   1  22
TORSDOF 13
ENDMDL
MODEL 3
REMARK VINA RESULT:     -10.3      4.399      9.395
REMARK SMILES CNc1nccc(-c2cc(C(=O)NCCCCNC(=O)c3ccc(-c4c5nc(c(-c6c(F)cccc6F)c6ccc([nH]6)c(-c6c(F)cccc6F)c6nc(c(-c7c(F)cccc7F)c7ccc4[nH]7)C=C6)C=C5)cc3)ccn2)n1
REMARK SMILES IDX 15 1 14 2 13 3 11 4 12 5 10 7 8 8 9 9 77 10 76 11 75 12 7 13
REMARK SMILES IDX 3 14 4 15 78 16 5 17 6 18 2 19 1 20 16 22 17 23 18 24 19 25
REMARK SMILES IDX 20 27 21 28 22 29 74 30 23 31 73 32 24 33 25 34 26 35 67 36
REMARK SMILES IDX 27 37 72 38 66 39 68 40 28 41 71 42 65 43 64 44 29 46 55 47
REMARK SMILES IDX 38 48 54 49 39 50 42 51 53 52 69 53 40 54 41 55 52 57 70 58
REMARK SMILES IDX 43 59 30 60 31 61 36 62 32 63 33 64 35 65 37 66 34 67 56 68
REMARK SMILES IDX 57 69 62 70 58 71 59 72 61 73 63 74 60 75 44 76 45 77 50 78
REMARK SMILES IDX 46 79 47 80 49 81 51 82 48 83
REMARK H PARENT 13 6 2 21 18 26 68 45 42 56
REMARK Flexibility Score: inf
ROOT
ATOM      1  C   UNL A   1      37.171  21.152  24.533  1.00  0.00     0.023 C 
ENDROOT
BRANCH   1   2
ATOM      2  C   UNL A   1      37.074  22.269  25.575  1.00  0.00     0.116 C 
BRANCH   2   3
ATOM      3  N   UNL A   1      35.972  22.021  26.484  1.00  0.00    -0.352 N 
ATOM      4  C   UNL A   1      34.634  22.321  26.424  1.00  0.00     0.251 C 
ATOM      5  O   UNL A   1      33.931  21.963  27.370  1.00  0.00    -0.269 OA
ATOM      6  H   UNL A   1      36.234  21.544  27.304  1.00  0.00     0.163 HD
BRANCH   4   7
ATOM      7  C   UNL A   1      33.986  22.982  25.257  1.00  0.00     0.043 A 
ATOM      8  C   UNL A   1      33.367  24.862  23.896  1.00  0.00     0.090 A 
ATOM      9  C   UNL A   1      33.828  24.356  25.110  1.00  0.00     0.044 A 
ATOM     10  N   UNL A   1      32.964  24.060  22.883  1.00  0.00    -0.255 NA
ATOM     11  C   UNL A   1      33.010  22.727  23.089  1.00  0.00     0.112 A 
ATOM     12  C   UNL A   1      33.528  22.149  24.233  1.00  0.00     0.034 A 
BRANCH   8  13
ATOM     13  C   UNL A   1      33.488  26.295  23.605  1.00  0.00     0.094 A 
ATOM     14  C   UNL A   1      33.737  28.441  24.374  1.00  0.00     0.222 A 
ATOM     15  N   UNL A   1      33.818  28.939  23.133  1.00  0.00    -0.222 NA
ATOM     16  N   UNL A   1      33.591  27.139  24.654  1.00  0.00    -0.211 NA
ATOM     17  C   UNL A   1      33.744  28.069  22.115  1.00  0.00     0.117 A 
ATOM     18  C   UNL A   1      33.577  26.722  22.293  1.00  0.00     0.051 A 
BRANCH  14  19
ATOM     19  N   UNL A   1      33.871  29.358  25.377  1.00  0.00    -0.357 N 
ATOM     20  C   UNL A   1      32.740  29.974  26.000  1.00  0.00     0.143 C 
ATOM     21  H   UNL A   1      34.775  29.603  25.679  1.00  0.00     0.163 HD
ENDBRANCH  14  19
ENDBRANCH   8  13
ENDBRANCH   4   7
ENDBRANCH   2   3
ENDBRANCH   1   2
BRANCH   1  22
ATOM     22  C   UNL A   1      37.963  19.928  25.001  1.00  0.00     0.023 C 
BRANCH  22  23
ATOM     23  C   UNL A   1      39.196  20.247  25.839  1.00  0.00     0.116 C 
BRANCH  23  24
ATOM     24  N   UNL A   1      40.171  19.169  25.866  1.00  0.00    -0.352 N 
ATOM     25  C   UNL A   1      41.520  19.238  26.125  1.00  0.00     0.251 C 
ATOM     26  H   UNL A   1      39.819  18.270  25.671  1.00  0.00     0.163 HD
ATOM     27  O   UNL A   1      42.224  18.249  26.014  1.00  0.00    -0.269 OA
BRANCH  25  28
ATOM     28  C   UNL A   1      42.115  20.539  26.496  1.00  0.00     0.039 A 
ATOM     29  C   UNL A   1      42.583  21.374  25.478  1.00  0.00     0.014 A 
ATOM     30  C   UNL A   1      42.186  20.944  27.831  1.00  0.00     0.014 A 
ATOM     31  C   UNL A   1      43.065  22.644  25.796  1.00  0.00     0.010 A 
ATOM     32  C   UNL A   1      42.599  22.235  28.139  1.00  0.00     0.010 A 
ATOM     33  C   UNL A   1      43.046  23.096  27.126  1.00  0.00    -0.014 A 
BRANCH  33  34
ATOM     34  C   UNL A   1      43.488  24.470  27.469  1.00  0.00     0.031 A 
ATOM     35  C   UNL A   1      42.482  25.512  27.867  1.00  0.00     0.074 A 
ATOM     36  C   UNL A   1      44.789  24.795  27.352  1.00  0.00     0.049 A 
ATOM     37  N   UNL A   1      42.675  26.769  28.174  1.00  0.00    -0.248 NA
ATOM     38  C   UNL A   1      41.072  25.096  27.890  1.00  0.00     0.031 C 
ATOM     39  C   UNL A   1      45.849  23.894  26.896  1.00  0.00     0.029 A 
ATOM     40  N   UNL A   1      45.439  25.979  27.593  1.00  0.00    -0.354 N 
ATOM     41  C   UNL A   1      41.411  27.298  28.406  1.00  0.00     0.074 A 
ATOM     42  C   UNL A   1      40.457  26.241  28.149  1.00  0.00     0.031 C 
ATOM     43  C   UNL A   1      47.018  24.553  26.906  1.00  0.00     0.029 A 
ATOM     44  C   UNL A   1      46.788  25.926  27.346  1.00  0.00     0.049 A 
ATOM     45  H   UNL A   1      44.981  26.790  27.912  1.00  0.00     0.167 HD
ATOM     46  C   UNL A   1      41.077  28.543  28.820  1.00  0.00     0.037 A 
ATOM     47  C   UNL A   1      47.735  26.876  27.463  1.00  0.00     0.037 A 
ATOM     48  C   UNL A   1      42.032  29.581  29.104  1.00  0.00     0.049 A 
ATOM     49  C   UNL A   1      47.351  28.238  27.967  1.00  0.00     0.074 A 
ATOM     50  C   UNL A   1      41.805  30.845  29.619  1.00  0.00     0.029 A 
ATOM     51  N   UNL A   1      43.399  29.476  28.889  1.00  0.00    -0.354 N 
ATOM     52  N   UNL A   1      46.163  28.695  28.286  1.00  0.00    -0.248 NA
ATOM     53  C   UNL A   1      48.436  29.212  28.141  1.00  0.00     0.031 C 
ATOM     54  C   UNL A   1      43.030  31.521  29.674  1.00  0.00     0.029 A 
ATOM     55  C   UNL A   1      44.025  30.661  29.237  1.00  0.00     0.049 A 
ATOM     56  H   UNL A   1      43.856  28.677  28.540  1.00  0.00     0.167 HD
ATOM     57  C   UNL A   1      46.359  29.999  28.716  1.00  0.00     0.074 A 
ATOM     58  C   UNL A   1      47.783  30.256  28.632  1.00  0.00     0.031 C 
ATOM     59  C   UNL A   1      45.443  30.904  29.141  1.00  0.00     0.037 A 
BRANCH  46  60
ATOM     60  C   UNL A   1      39.616  28.842  28.988  1.00  0.00     0.057 A 
ATOM     61  C   UNL A   1      38.966  28.693  30.221  1.00  0.00     0.134 A 
ATOM     62  C   UNL A   1      38.848  29.288  27.906  1.00  0.00     0.134 A 
ATOM     63  F   UNL A   1      39.639  28.258  31.297  1.00  0.00    -0.206 F 
ATOM     64  C   UNL A   1      37.598  28.938  30.362  1.00  0.00     0.040 A 
ATOM     65  C   UNL A   1      37.487  29.565  28.041  1.00  0.00     0.040 A 
ATOM     66  F   UNL A   1      39.407  29.459  26.699  1.00  0.00    -0.206 F 
ATOM     67  C   UNL A   1      36.855  29.379  29.269  1.00  0.00     0.006 A 
ENDBRANCH  46  60
BRANCH  47  68
ATOM     68  C   UNL A   1      49.142  26.551  27.125  1.00  0.00     0.057 A 
ATOM     69  C   UNL A   1      50.002  25.989  28.074  1.00  0.00     0.134 A 
ATOM     70  C   UNL A   1      49.650  26.763  25.838  1.00  0.00     0.134 A 
ATOM     71  F   UNL A   1      49.575  25.775  29.328  1.00  0.00    -0.206 F 
ATOM     72  C   UNL A   1      51.321  25.659  27.761  1.00  0.00     0.040 A 
ATOM     73  C   UNL A   1      50.960  26.418  25.504  1.00  0.00     0.040 A 
ATOM     74  F   UNL A   1      48.870  27.288  24.881  1.00  0.00    -0.206 F 
ATOM     75  C   UNL A   1      51.801  25.868  26.469  1.00  0.00     0.006 A 
ENDBRANCH  47  68
BRANCH  59  76
ATOM     76  C   UNL A   1      45.953  32.249  29.565  1.00  0.00     0.057 A 
ATOM     77  C   UNL A   1      46.377  32.497  30.876  1.00  0.00     0.134 A 
ATOM     78  C   UNL A   1      46.061  33.295  28.639  1.00  0.00     0.134 A 
ATOM     79  F   UNL A   1      46.287  31.541  31.813  1.00  0.00    -0.206 F 
ATOM     80  C   UNL A   1      46.875  33.745  31.257  1.00  0.00     0.040 A 
ATOM     81  C   UNL A   1      46.580  34.539  29.003  1.00  0.00     0.040 A 
ATOM     82  F   UNL A   1      45.679  33.120  27.366  1.00  0.00    -0.206 F 
ATOM     83  C   UNL A   1      46.984  34.768  30.316  1.00  0.00     0.006 A 
ENDBRANCH  59  76
ENDBRANCH  33  34
ENDBRANCH  25  28
ENDBRANCH  23  24
ENDBRANCH  22  23
ENDBRANCH   1  22
TORSDOF 13
ENDMDL
