MODEL 1
REMARK VINA RESULT:     -12.5      0.000      0.000
REMARK SMILES COc1ccc(-c2ccc(C(=O)NCc3ccc(C(=O)NCCCCNC(=O)c4ccc(-c5c6nc(c(-c7c(F)cccc7F)c7ccc([nH]7)c(-c7c(F)cccc7F)c7nc(c(-c8c(F)cccc8F)c8ccc5[nH]8)C=C7)C=C6)cc4)cc3)o2)c([N+](=O)[O-])c1
REMARK SMILES IDX 22 1 21 2 19 3 20 4 18 6 15 7 16 8 84 9 17 10 83 11 14 12
REMARK SMILES IDX 13 13 11 14 12 15 10 17 7 18 8 19 85 20 9 21 6 22 3 23 4 24
REMARK SMILES IDX 90 25 5 26 86 27 2 28 1 29 87 30 88 31 89 32 23 33 24 34
REMARK SMILES IDX 25 35 26 36 27 37 28 39 29 40 30 41 82 42 31 43 81 44 32 45
REMARK SMILES IDX 33 46 34 47 75 48 35 49 80 50 74 51 76 52 36 53 79 54 73 55
REMARK SMILES IDX 72 56 37 58 63 59 46 60 62 61 47 62 50 63 61 64 77 65 48 66
REMARK SMILES IDX 49 67 60 69 78 70 51 71 38 72 39 73 44 74 40 75 41 76 43 77
REMARK SMILES IDX 45 78 42 79 64 80 65 81 70 82 66 83 67 84 69 85 71 86 68 87
REMARK SMILES IDX 52 88 53 89 58 90 54 91 55 92 57 93 59 94 56 95
REMARK H PARENT 21 5 13 16 26 38 76 57 50 68
REMARK Flexibility Score: inf
ROOT
ATOM      1  C   UNL A   1      35.415  19.987  25.005  1.00  0.00     0.116 C 
ENDROOT
BRANCH   1   2
ATOM      2  N   UNL A   1      34.261  19.149  25.273  1.00  0.00    -0.352 N 
ATOM      3  C   UNL A   1      32.914  19.373  25.135  1.00  0.00     0.251 C 
ATOM      4  O   UNL A   1      32.151  18.446  25.408  1.00  0.00    -0.269 OA
ATOM      5  H   UNL A   1      34.487  18.255  25.618  1.00  0.00     0.163 HD
BRANCH   3   6
ATOM      6  C   UNL A   1      32.348  20.651  24.623  1.00  0.00     0.039 A 
ATOM      7  C   UNL A   1      31.355  23.053  23.494  1.00  0.00    -0.029 A 
ATOM      8  C   UNL A   1      31.862  22.034  22.676  1.00  0.00     0.006 A 
ATOM      9  C   UNL A   1      31.348  22.849  24.878  1.00  0.00     0.006 A 
ATOM     10  C   UNL A   1      32.357  20.850  23.236  1.00  0.00     0.014 A 
ATOM     11  C   UNL A   1      31.790  21.643  25.429  1.00  0.00     0.014 A 
BRANCH   7  12
ATOM     12  C   UNL A   1      30.857  24.351  22.906  1.00  0.00     0.152 C 
BRANCH  12  13
ATOM     13  N   UNL A   1      31.812  24.938  21.993  1.00  0.00    -0.345 N 
ATOM     14  C   UNL A   1      33.022  25.553  22.197  1.00  0.00     0.287 C 
ATOM     15  O   UNL A   1      33.657  25.822  21.174  1.00  0.00    -0.266 OA
ATOM     16  H   UNL A   1      31.543  24.887  21.046  1.00  0.00     0.164 HD
BRANCH  14  17
ATOM     17  C   UNL A   1      33.519  25.852  23.528  1.00  0.00     0.192 A 
ATOM     18  C   UNL A   1      33.761  27.188  25.276  1.00  0.00     0.142 A 
ATOM     19  C   UNL A   1      34.403  26.018  25.604  1.00  0.00     0.052 A 
ATOM     20  O   UNL A   1      33.211  27.093  24.038  1.00  0.00    -0.451 OA
ATOM     21  C   UNL A   1      34.223  25.158  24.495  1.00  0.00     0.057 A 
BRANCH  18  22
ATOM     22  C   UNL A   1      33.528  28.435  25.974  1.00  0.00     0.095 A 
ATOM     23  C   UNL A   1      33.257  30.940  27.252  1.00  0.00     0.125 A 
ATOM     24  C   UNL A   1      34.475  30.258  27.279  1.00  0.00     0.047 A 
ATOM     25  C   UNL A   1      32.171  30.384  26.581  1.00  0.00     0.132 A 
ATOM     26  C   UNL A   1      34.607  29.013  26.660  1.00  0.00     0.023 A 
ATOM     27  C   UNL A   1      32.313  29.136  25.949  1.00  0.00     0.284 A 
BRANCH  23  28
ATOM     28  O   UNL A   1      33.262  32.159  27.870  1.00  0.00    -0.497 OA
ATOM     29  C   UNL A   1      34.465  32.499  28.551  1.00  0.00     0.278 C 
ENDBRANCH  23  28
BRANCH  27  30
ATOM     30  N   UNL A   1      31.150  28.605  25.248  1.00  0.00     0.063 N 
ATOM     31  O   UNL A   1      30.615  27.579  25.689  1.00  0.00    -0.258 OA
ATOM     32  O   UNL A   1      30.750  29.243  24.263  1.00  0.00    -0.258 OA
ENDBRANCH  27  30
ENDBRANCH  18  22
ENDBRANCH  14  17
ENDBRANCH  12  13
ENDBRANCH   7  12
ENDBRANCH   3   6
ENDBRANCH   1   2
BRANCH   1  33
ATOM     33  C   UNL A   1      36.687  19.140  24.921  1.00  0.00     0.023 C 
BRANCH  33  34
ATOM     34  C   UNL A   1      37.956  19.946  24.628  1.00  0.00     0.023 C 
BRANCH  34  35
ATOM     35  C   UNL A   1      38.906  20.078  25.811  1.00  0.00     0.116 C 
BRANCH  35  36
ATOM     36  N   UNL A   1      40.029  19.155  25.752  1.00  0.00    -0.352 N 
ATOM     37  C   UNL A   1      41.358  19.426  25.991  1.00  0.00     0.251 C 
ATOM     38  H   UNL A   1      39.813  18.225  25.512  1.00  0.00     0.163 HD
ATOM     39  O   UNL A   1      42.216  18.577  25.810  1.00  0.00    -0.269 OA
BRANCH  37  40
ATOM     40  C   UNL A   1      41.729  20.786  26.428  1.00  0.00     0.039 A 
ATOM     41  C   UNL A   1      41.967  21.019  27.785  1.00  0.00     0.014 A 
ATOM     42  C   UNL A   1      41.901  21.805  25.488  1.00  0.00     0.014 A 
ATOM     43  C   UNL A   1      42.450  22.263  28.195  1.00  0.00     0.010 A 
ATOM     44  C   UNL A   1      42.437  23.021  25.890  1.00  0.00     0.010 A 
ATOM     45  C   UNL A   1      42.723  23.259  27.244  1.00  0.00    -0.014 A 
BRANCH  45  46
ATOM     46  C   UNL A   1      43.300  24.570  27.626  1.00  0.00     0.031 A 
ATOM     47  C   UNL A   1      42.392  25.662  28.113  1.00  0.00     0.074 A 
ATOM     48  C   UNL A   1      44.610  24.811  27.430  1.00  0.00     0.049 A 
ATOM     49  N   UNL A   1      42.652  26.927  28.314  1.00  0.00    -0.248 NA
ATOM     50  C   UNL A   1      40.995  25.283  28.376  1.00  0.00     0.031 C 
ATOM     51  C   UNL A   1      45.588  23.840  26.936  1.00  0.00     0.029 A 
ATOM     52  N   UNL A   1      45.340  25.961  27.598  1.00  0.00    -0.354 N 
ATOM     53  C   UNL A   1      41.447  27.502  28.694  1.00  0.00     0.074 A 
ATOM     54  C   UNL A   1      40.449  26.455  28.665  1.00  0.00     0.031 C 
ATOM     55  C   UNL A   1      46.789  24.435  26.843  1.00  0.00     0.029 A 
ATOM     56  C   UNL A   1      46.657  25.837  27.228  1.00  0.00     0.049 A 
ATOM     57  H   UNL A   1      44.955  26.797  27.950  1.00  0.00     0.167 HD
ATOM     58  C   UNL A   1      41.199  28.784  29.045  1.00  0.00     0.037 A 
ATOM     59  C   UNL A   1      47.641  26.756  27.185  1.00  0.00     0.037 A 
ATOM     60  C   UNL A   1      42.202  29.813  29.110  1.00  0.00     0.049 A 
ATOM     61  C   UNL A   1      47.341  28.173  27.590  1.00  0.00     0.074 A 
ATOM     62  C   UNL A   1      42.062  31.130  29.507  1.00  0.00     0.029 A 
ATOM     63  N   UNL A   1      43.536  29.632  28.776  1.00  0.00    -0.354 N 
ATOM     64  N   UNL A   1      46.205  28.697  27.982  1.00  0.00    -0.248 NA
ATOM     65  C   UNL A   1      48.459  29.127  27.546  1.00  0.00     0.031 C 
ATOM     66  C   UNL A   1      43.308  31.756  29.388  1.00  0.00     0.029 A 
ATOM     67  C   UNL A   1      44.229  30.818  28.951  1.00  0.00     0.049 A 
ATOM     68  H   UNL A   1      43.931  28.787  28.462  1.00  0.00     0.167 HD
ATOM     69  C   UNL A   1      46.478  30.028  28.265  1.00  0.00     0.074 A 
ATOM     70  C   UNL A   1      47.887  30.235  27.998  1.00  0.00     0.031 C 
ATOM     71  C   UNL A   1      45.637  30.993  28.708  1.00  0.00     0.037 A 
BRANCH  58  72
ATOM     72  C   UNL A   1      39.785  29.146  29.387  1.00  0.00     0.057 A 
ATOM     73  C   UNL A   1      39.300  29.066  30.699  1.00  0.00     0.134 A 
ATOM     74  C   UNL A   1      38.905  29.603  28.398  1.00  0.00     0.134 A 
ATOM     75  F   UNL A   1      40.089  28.621  31.689  1.00  0.00    -0.206 F 
ATOM     76  C   UNL A   1      37.983  29.406  31.011  1.00  0.00     0.040 A 
ATOM     77  C   UNL A   1      37.593  29.969  28.702  1.00  0.00     0.040 A 
ATOM     78  F   UNL A   1      39.308  29.707  27.122  1.00  0.00    -0.206 F 
ATOM     79  C   UNL A   1      37.127  29.865  30.011  1.00  0.00     0.006 A 
ENDBRANCH  58  72
BRANCH  59  80
ATOM     80  C   UNL A   1      49.005  26.363  26.754  1.00  0.00     0.057 A 
ATOM     81  C   UNL A   1      49.408  26.514  25.423  1.00  0.00     0.134 A 
ATOM     82  C   UNL A   1      49.934  25.830  27.655  1.00  0.00     0.134 A 
ATOM     83  F   UNL A   1      48.554  27.003  24.511  1.00  0.00    -0.206 F 
ATOM     84  C   UNL A   1      50.681  26.132  24.996  1.00  0.00     0.040 A 
ATOM     85  C   UNL A   1      51.218  25.464  27.247  1.00  0.00     0.040 A 
ATOM     86  F   UNL A   1      49.610  25.667  28.946  1.00  0.00    -0.206 F 
ATOM     87  C   UNL A   1      51.591  25.609  25.912  1.00  0.00     0.006 A 
ENDBRANCH  59  80
BRANCH  71  88
ATOM     88  C   UNL A   1      46.221  32.343  28.991  1.00  0.00     0.057 A 
ATOM     89  C   UNL A   1      46.247  33.353  28.023  1.00  0.00     0.134 A 
ATOM     90  C   UNL A   1      46.694  32.655  30.272  1.00  0.00     0.134 A 
ATOM     91  F   UNL A   1      45.818  33.112  26.775  1.00  0.00    -0.206 F 
ATOM     92  C   UNL A   1      46.730  34.629  28.320  1.00  0.00     0.040 A 
ATOM     93  C   UNL A   1      47.161  33.931  30.585  1.00  0.00     0.040 A 
ATOM     94  F   UNL A   1      46.688  31.730  31.243  1.00  0.00    -0.206 F 
ATOM     95  C   UNL A   1      47.180  34.922  29.607  1.00  0.00     0.006 A 
ENDBRANCH  71  88
ENDBRANCH  45  46
ENDBRANCH  37  40
ENDBRANCH  35  36
ENDBRANCH  34  35
ENDBRANCH  33  34
ENDBRANCH   1  33
TORSDOF 17
ENDMDL
MODEL 2
REMARK VINA RESULT:     -12.3      2.318      6.788
REMARK SMILES COc1ccc(-c2ccc(C(=O)NCc3ccc(C(=O)NCCCCNC(=O)c4ccc(-c5c6nc(c(-c7c(F)cccc7F)c7ccc([nH]7)c(-c7c(F)cccc7F)c7nc(c(-c8c(F)cccc8F)c8ccc5[nH]8)C=C7)C=C6)cc4)cc3)o2)c([N+](=O)[O-])c1
REMARK SMILES IDX 22 1 21 2 19 3 20 4 18 6 15 7 16 8 84 9 17 10 83 11 14 12
REMARK SMILES IDX 13 13 11 14 12 15 10 17 7 18 8 19 85 20 9 21 6 22 3 23 4 24
REMARK SMILES IDX 90 25 5 26 86 27 2 28 1 29 87 30 88 31 89 32 23 33 24 34
REMARK SMILES IDX 25 35 26 36 27 37 28 39 29 40 30 41 82 42 31 43 81 44 32 45
REMARK SMILES IDX 33 46 34 47 75 48 35 49 80 50 74 51 76 52 36 53 79 54 73 55
REMARK SMILES IDX 72 56 37 58 63 59 46 60 62 61 47 62 50 63 61 64 77 65 48 66
REMARK SMILES IDX 49 67 60 69 78 70 51 71 38 72 39 73 44 74 40 75 41 76 43 77
REMARK SMILES IDX 45 78 42 79 64 80 65 81 70 82 66 83 67 84 69 85 71 86 68 87
REMARK SMILES IDX 52 88 53 89 58 90 54 91 55 92 57 93 59 94 56 95
REMARK H PARENT 21 5 13 16 26 38 76 57 50 68
REMARK Flexibility Score: inf
ROOT
ATOM      1  C   UNL A   1      35.088  21.009  26.052  1.00  0.00     0.116 C 
ENDROOT
BRANCH   1   2
ATOM      2  N   UNL A   1      34.070  19.987  25.904  1.00  0.00    -0.352 N 
ATOM      3  C   UNL A   1      32.811  20.020  25.359  1.00  0.00     0.251 C 
ATOM      4  O   UNL A   1      32.173  18.968  25.334  1.00  0.00    -0.269 OA
ATOM      5  H   UNL A   1      34.331  19.107  26.260  1.00  0.00     0.163 HD
BRANCH   3   6
ATOM      6  C   UNL A   1      32.215  21.244  24.755  1.00  0.00     0.039 A 
ATOM      7  C   UNL A   1      31.192  23.550  23.465  1.00  0.00    -0.029 A 
ATOM      8  C   UNL A   1      31.914  22.589  22.745  1.00  0.00     0.006 A 
ATOM      9  C   UNL A   1      30.987  23.336  24.833  1.00  0.00     0.006 A 
ATOM     10  C   UNL A   1      32.424  21.452  23.385  1.00  0.00     0.014 A 
ATOM     11  C   UNL A   1      31.447  22.173  25.456  1.00  0.00     0.014 A 
BRANCH   7  12
ATOM     12  C   UNL A   1      30.674  24.800  22.797  1.00  0.00     0.152 C 
BRANCH  12  13
ATOM     13  N   UNL A   1      31.655  25.396  21.918  1.00  0.00    -0.345 N 
ATOM     14  C   UNL A   1      32.895  25.936  22.155  1.00  0.00     0.287 C 
ATOM     15  O   UNL A   1      33.541  26.238  21.149  1.00  0.00    -0.266 OA
ATOM     16  H   UNL A   1      31.383  25.419  20.972  1.00  0.00     0.164 HD
BRANCH  14  17
ATOM     17  C   UNL A   1      33.407  26.126  23.501  1.00  0.00     0.192 A 
ATOM     18  C   UNL A   1      33.758  27.350  25.311  1.00  0.00     0.142 A 
ATOM     19  C   UNL A   1      34.288  26.113  25.584  1.00  0.00     0.052 A 
ATOM     20  O   UNL A   1      33.209  27.365  24.068  1.00  0.00    -0.451 OA
ATOM     21  C   UNL A   1      34.039  25.326  24.435  1.00  0.00     0.057 A 
BRANCH  18  22
ATOM     22  C   UNL A   1      33.634  28.579  26.067  1.00  0.00     0.095 A 
ATOM     23  C   UNL A   1      33.576  31.042  27.452  1.00  0.00     0.125 A 
ATOM     24  C   UNL A   1      34.750  30.290  27.391  1.00  0.00     0.047 A 
ATOM     25  C   UNL A   1      32.426  30.577  26.816  1.00  0.00     0.132 A 
ATOM     26  C   UNL A   1      34.777  29.066  26.718  1.00  0.00     0.023 A 
ATOM     27  C   UNL A   1      32.463  29.350  26.130  1.00  0.00     0.284 A 
BRANCH  23  28
ATOM     28  O   UNL A   1      33.683  32.232  28.114  1.00  0.00    -0.497 OA
ATOM     29  C   UNL A   1      32.879  33.292  27.607  1.00  0.00     0.278 C 
ENDBRANCH  23  28
BRANCH  27  30
ATOM     30  N   UNL A   1      31.238  28.916  25.470  1.00  0.00     0.063 N 
ATOM     31  O   UNL A   1      30.693  27.876  25.864  1.00  0.00    -0.258 OA
ATOM     32  O   UNL A   1      30.800  29.645  24.567  1.00  0.00    -0.258 OA
ENDBRANCH  27  30
ENDBRANCH  18  22
ENDBRANCH  14  17
ENDBRANCH  12  13
ENDBRANCH   7  12
ENDBRANCH   3   6
ENDBRANCH   1   2
BRANCH   1  33
ATOM     33  C   UNL A   1      35.892  21.161  24.759  1.00  0.00     0.023 C 
BRANCH  33  34
ATOM     34  C   UNL A   1      36.368  22.590  24.482  1.00  0.00     0.023 C 
BRANCH  34  35
ATOM     35  C   UNL A   1      37.232  23.191  25.583  1.00  0.00     0.116 C 
BRANCH  35  36
ATOM     36  N   UNL A   1      38.293  22.302  26.031  1.00  0.00    -0.352 N 
ATOM     37  C   UNL A   1      39.464  22.640  26.671  1.00  0.00     0.251 C 
ATOM     38  H   UNL A   1      38.157  21.343  25.856  1.00  0.00     0.163 HD
ATOM     39  O   UNL A   1      40.319  21.800  26.906  1.00  0.00    -0.269 OA
BRANCH  37  40
ATOM     40  C   UNL A   1      39.686  24.055  27.026  1.00  0.00     0.039 A 
ATOM     41  C   UNL A   1      39.418  24.475  28.332  1.00  0.00     0.014 A 
ATOM     42  C   UNL A   1      40.217  24.942  26.087  1.00  0.00     0.014 A 
ATOM     43  C   UNL A   1      39.750  25.774  28.718  1.00  0.00     0.010 A 
ATOM     44  C   UNL A   1      40.601  26.214  26.489  1.00  0.00     0.010 A 
ATOM     45  C   UNL A   1      40.379  26.639  27.809  1.00  0.00    -0.014 A 
BRANCH  45  46
ATOM     46  C   UNL A   1      40.811  28.003  28.196  1.00  0.00     0.031 A 
ATOM     47  C   UNL A   1      42.270  28.354  28.157  1.00  0.00     0.074 A 
ATOM     48  C   UNL A   1      39.913  28.880  28.684  1.00  0.00     0.049 A 
ATOM     49  N   UNL A   1      42.881  29.409  28.629  1.00  0.00    -0.248 NA
ATOM     50  C   UNL A   1      43.164  27.367  27.530  1.00  0.00     0.031 C 
ATOM     51  C   UNL A   1      38.473  28.646  28.799  1.00  0.00     0.029 A 
ATOM     52  N   UNL A   1      40.087  30.138  29.204  1.00  0.00    -0.354 N 
ATOM     53  C   UNL A   1      44.232  29.198  28.388  1.00  0.00     0.074 A 
ATOM     54  C   UNL A   1      44.355  27.902  27.757  1.00  0.00     0.031 C 
ATOM     55  C   UNL A   1      37.895  29.725  29.352  1.00  0.00     0.029 A 
ATOM     56  C   UNL A   1      38.927  30.708  29.669  1.00  0.00     0.049 A 
ATOM     57  H   UNL A   1      40.962  30.590  29.240  1.00  0.00     0.167 HD
ATOM     58  C   UNL A   1      45.274  30.017  28.660  1.00  0.00     0.037 A 
ATOM     59  C   UNL A   1      38.723  31.880  30.299  1.00  0.00     0.037 A 
ATOM     60  C   UNL A   1      45.143  31.321  29.252  1.00  0.00     0.049 A 
ATOM     61  C   UNL A   1      39.897  32.777  30.581  1.00  0.00     0.074 A 
ATOM     62  C   UNL A   1      46.133  32.250  29.518  1.00  0.00     0.029 A 
ATOM     63  N   UNL A   1      43.943  31.881  29.662  1.00  0.00    -0.354 N 
ATOM     64  N   UNL A   1      41.166  32.583  30.316  1.00  0.00    -0.248 NA
ATOM     65  C   UNL A   1      39.612  34.055  31.250  1.00  0.00     0.031 C 
ATOM     66  C   UNL A   1      45.535  33.365  30.115  1.00  0.00     0.029 A 
ATOM     67  C   UNL A   1      44.169  33.143  30.186  1.00  0.00     0.049 A 
ATOM     68  H   UNL A   1      43.063  31.448  29.591  1.00  0.00     0.167 HD
ATOM     69  C   UNL A   1      41.825  33.725  30.752  1.00  0.00     0.074 A 
ATOM     70  C   UNL A   1      40.816  34.608  31.301  1.00  0.00     0.031 C 
ATOM     71  C   UNL A   1      43.146  34.017  30.700  1.00  0.00     0.037 A 
BRANCH  58  72
ATOM     72  C   UNL A   1      46.647  29.524  28.318  1.00  0.00     0.057 A 
ATOM     73  C   UNL A   1      47.431  28.823  29.243  1.00  0.00     0.134 A 
ATOM     74  C   UNL A   1      47.183  29.730  27.040  1.00  0.00     0.134 A 
ATOM     75  F   UNL A   1      46.982  28.607  30.489  1.00  0.00    -0.206 F 
ATOM     76  C   UNL A   1      48.709  28.365  28.918  1.00  0.00     0.040 A 
ATOM     77  C   UNL A   1      48.449  29.255  26.695  1.00  0.00     0.040 A 
ATOM     78  F   UNL A   1      46.482  30.390  26.105  1.00  0.00    -0.206 F 
ATOM     79  C   UNL A   1      49.219  28.576  27.638  1.00  0.00     0.006 A 
ENDBRANCH  58  72
BRANCH  59  80
ATOM     80  C   UNL A   1      37.351  32.282  30.696  1.00  0.00     0.057 A 
ATOM     81  C   UNL A   1      36.602  33.156  29.902  1.00  0.00     0.134 A 
ATOM     82  C   UNL A   1      36.759  31.807  31.873  1.00  0.00     0.134 A 
ATOM     83  F   UNL A   1      37.124  33.657  28.773  1.00  0.00    -0.206 F 
ATOM     84  C   UNL A   1      35.317  33.559  30.270  1.00  0.00     0.040 A 
ATOM     85  C   UNL A   1      35.467  32.185  32.243  1.00  0.00     0.040 A 
ATOM     86  F   UNL A   1      37.424  30.961  32.672  1.00  0.00    -0.206 F 
ATOM     87  C   UNL A   1      34.746  33.069  31.442  1.00  0.00     0.006 A 
ENDBRANCH  59  80
BRANCH  71  88
ATOM     88  C   UNL A   1      43.577  35.364  31.193  1.00  0.00     0.057 A 
ATOM     89  C   UNL A   1      43.906  35.589  32.534  1.00  0.00     0.134 A 
ATOM     90  C   UNL A   1      43.735  36.428  30.296  1.00  0.00     0.134 A 
ATOM     91  F   UNL A   1      43.764  34.612  33.442  1.00  0.00    -0.206 F 
ATOM     92  C   UNL A   1      44.372  36.831  32.968  1.00  0.00     0.040 A 
ATOM     93  C   UNL A   1      44.219  37.668  30.713  1.00  0.00     0.040 A 
ATOM     94  F   UNL A   1      43.444  36.271  28.996  1.00  0.00    -0.206 F 
ATOM     95  C   UNL A   1      44.539  37.871  32.054  1.00  0.00     0.006 A 
ENDBRANCH  71  88
ENDBRANCH  45  46
ENDBRANCH  37  40
ENDBRANCH  35  36
ENDBRANCH  34  35
ENDBRANCH  33  34
ENDBRANCH   1  33
TORSDOF 17
ENDMDL
MODEL 3
REMARK VINA RESULT:     -12.2      5.299     10.924
REMARK SMILES COc1ccc(-c2ccc(C(=O)NCc3ccc(C(=O)NCCCCNC(=O)c4ccc(-c5c6nc(c(-c7c(F)cccc7F)c7ccc([nH]7)c(-c7c(F)cccc7F)c7nc(c(-c8c(F)cccc8F)c8ccc5[nH]8)C=C7)C=C6)cc4)cc3)o2)c([N+](=O)[O-])c1
REMARK SMILES IDX 22 1 21 2 19 3 20 4 18 6 15 7 16 8 84 9 17 10 83 11 14 12
REMARK SMILES IDX 13 13 11 14 12 15 10 17 7 18 8 19 85 20 9 21 6 22 3 23 4 24
REMARK SMILES IDX 90 25 5 26 86 27 2 28 1 29 87 30 88 31 89 32 23 33 24 34
REMARK SMILES IDX 25 35 26 36 27 37 28 39 29 40 30 41 82 42 31 43 81 44 32 45
REMARK SMILES IDX 33 46 34 47 75 48 35 49 80 50 74 51 76 52 36 53 79 54 73 55
REMARK SMILES IDX 72 56 37 58 63 59 46 60 62 61 47 62 50 63 61 64 77 65 48 66
REMARK SMILES IDX 49 67 60 69 78 70 51 71 38 72 39 73 44 74 40 75 41 76 43 77
REMARK SMILES IDX 45 78 42 79 64 80 65 81 70 82 66 83 67 84 69 85 71 86 68 87
REMARK SMILES IDX 52 88 53 89 58 90 54 91 55 92 57 93 59 94 56 95
REMARK H PARENT 21 5 13 16 26 38 76 57 50 68
REMARK Flexibility Score: inf
ROOT
ATOM      1  C   UNL A   1      33.981  32.173  27.923  1.00  0.00     0.116 C 
ENDROOT
BRANCH   1   2
ATOM      2  N   UNL A   1      35.011  31.163  28.079  1.00  0.00    -0.352 N 
ATOM      3  C   UNL A   1      35.081  29.856  27.667  1.00  0.00     0.251 C 
ATOM      4  O   UNL A   1      36.117  29.236  27.911  1.00  0.00    -0.269 OA
ATOM      5  H   UNL A   1      35.805  31.473  28.571  1.00  0.00     0.163 HD
BRANCH   3   6
ATOM      6  C   UNL A   1      33.997  29.182  26.899  1.00  0.00     0.039 A 
ATOM      7  C   UNL A   1      31.895  27.809  25.587  1.00  0.00    -0.029 A 
ATOM      8  C   UNL A   1      31.959  27.850  26.986  1.00  0.00     0.006 A 
ATOM      9  C   UNL A   1      32.892  28.468  24.859  1.00  0.00     0.006 A 
ATOM     10  C   UNL A   1      33.001  28.525  27.633  1.00  0.00     0.014 A 
ATOM     11  C   UNL A   1      33.899  29.188  25.508  1.00  0.00     0.014 A 
BRANCH   7  12
ATOM     12  C   UNL A   1      30.801  27.049  24.877  1.00  0.00     0.152 C 
BRANCH  12  13
ATOM     13  N   UNL A   1      31.271  26.422  23.662  1.00  0.00    -0.345 N 
ATOM     14  C   UNL A   1      31.787  25.174  23.411  1.00  0.00     0.287 C 
ATOM     15  O   UNL A   1      31.964  24.905  22.221  1.00  0.00    -0.266 OA
ATOM     16  H   UNL A   1      31.210  26.997  22.865  1.00  0.00     0.164 HD
BRANCH  14  17
ATOM     17  C   UNL A   1      32.090  24.238  24.479  1.00  0.00     0.192 A 
ATOM     18  C   UNL A   1      32.744  22.260  25.226  1.00  0.00     0.142 A 
ATOM     19  C   UNL A   1      32.497  23.021  26.342  1.00  0.00     0.052 A 
ATOM     20  O   UNL A   1      32.520  22.987  24.100  1.00  0.00    -0.451 OA
ATOM     21  C   UNL A   1      32.104  24.292  25.861  1.00  0.00     0.057 A 
BRANCH  18  22
ATOM     22  C   UNL A   1      33.216  20.907  25.017  1.00  0.00     0.095 A 
ATOM     23  C   UNL A   1      33.995  18.251  24.450  1.00  0.00     0.125 A 
ATOM     24  C   UNL A   1      32.644  18.590  24.539  1.00  0.00     0.047 A 
ATOM     25  C   UNL A   1      34.966  19.233  24.633  1.00  0.00     0.132 A 
ATOM     26  C   UNL A   1      32.258  19.900  24.833  1.00  0.00     0.023 A 
ATOM     27  C   UNL A   1      34.570  20.553  24.917  1.00  0.00     0.284 A 
BRANCH  23  28
ATOM     28  O   UNL A   1      34.246  16.946  24.132  1.00  0.00    -0.497 OA
ATOM     29  C   UNL A   1      33.357  15.992  24.704  1.00  0.00     0.278 C 
ENDBRANCH  23  28
BRANCH  27  30
ATOM     30  N   UNL A   1      35.625  21.545  25.086  1.00  0.00     0.063 N 
ATOM     31  O   UNL A   1      36.057  21.757  26.226  1.00  0.00    -0.258 OA
ATOM     32  O   UNL A   1      36.046  22.095  24.057  1.00  0.00    -0.258 OA
ENDBRANCH  27  30
ENDBRANCH  18  22
ENDBRANCH  14  17
ENDBRANCH  12  13
ENDBRANCH   7  12
ENDBRANCH   3   6
ENDBRANCH   1   2
BRANCH   1  33
ATOM     33  C   UNL A   1      34.328  33.425  28.733  1.00  0.00     0.023 C 
BRANCH  33  34
ATOM     34  C   UNL A   1      33.165  34.409  28.892  1.00  0.00     0.023 C 
BRANCH  34  35
ATOM     35  C   UNL A   1      33.552  35.748  29.506  1.00  0.00     0.116 C 
BRANCH  35  36
ATOM     36  N   UNL A   1      32.596  36.225  30.494  1.00  0.00    -0.352 N 
ATOM     37  C   UNL A   1      32.590  35.982  31.849  1.00  0.00     0.251 C 
ATOM     38  H   UNL A   1      31.866  36.790  30.152  1.00  0.00     0.163 HD
ATOM     39  O   UNL A   1      31.669  36.364  32.553  1.00  0.00    -0.269 OA
BRANCH  37  40
ATOM     40  C   UNL A   1      33.704  35.204  32.427  1.00  0.00     0.039 A 
ATOM     41  C   UNL A   1      33.462  33.898  32.863  1.00  0.00     0.014 A 
ATOM     42  C   UNL A   1      34.990  35.746  32.476  1.00  0.00     0.014 A 
ATOM     43  C   UNL A   1      34.531  33.106  33.285  1.00  0.00     0.010 A 
ATOM     44  C   UNL A   1      36.059  34.937  32.839  1.00  0.00     0.010 A 
ATOM     45  C   UNL A   1      35.841  33.609  33.239  1.00  0.00    -0.014 A 
BRANCH  45  46
ATOM     46  C   UNL A   1      37.012  32.781  33.613  1.00  0.00     0.031 A 
ATOM     47  C   UNL A   1      37.742  33.069  34.893  1.00  0.00     0.074 A 
ATOM     48  C   UNL A   1      37.481  31.854  32.756  1.00  0.00     0.049 A 
ATOM     49  N   UNL A   1      38.888  32.604  35.315  1.00  0.00    -0.248 NA
ATOM     50  C   UNL A   1      37.109  34.037  35.803  1.00  0.00     0.031 C 
ATOM     51  C   UNL A   1      36.876  31.502  31.470  1.00  0.00     0.029 A 
ATOM     52  N   UNL A   1      38.595  31.057  32.827  1.00  0.00    -0.354 N 
ATOM     53  C   UNL A   1      39.131  33.247  36.521  1.00  0.00     0.074 A 
ATOM     54  C   UNL A   1      38.030  34.157  36.748  1.00  0.00     0.031 C 
ATOM     55  C   UNL A   1      37.625  30.560  30.875  1.00  0.00     0.029 A 
ATOM     56  C   UNL A   1      38.784  30.272  31.716  1.00  0.00     0.049 A 
ATOM     57  H   UNL A   1      39.203  31.049  33.603  1.00  0.00     0.167 HD
ATOM     58  C   UNL A   1      40.174  33.084  37.368  1.00  0.00     0.037 A 
ATOM     59  C   UNL A   1      39.788  29.432  31.402  1.00  0.00     0.037 A 
ATOM     60  C   UNL A   1      41.247  32.150  37.156  1.00  0.00     0.049 A 
ATOM     61  C   UNL A   1      40.931  29.260  32.364  1.00  0.00     0.074 A 
ATOM     62  C   UNL A   1      42.322  31.870  37.980  1.00  0.00     0.029 A 
ATOM     63  N   UNL A   1      41.373  31.336  36.040  1.00  0.00    -0.354 N 
ATOM     64  N   UNL A   1      41.133  29.847  33.519  1.00  0.00    -0.248 NA
ATOM     65  C   UNL A   1      41.987  28.312  31.980  1.00  0.00     0.031 C 
ATOM     66  C   UNL A   1      43.115  30.905  37.351  1.00  0.00     0.029 A 
ATOM     67  C   UNL A   1      42.513  30.559  36.152  1.00  0.00     0.049 A 
ATOM     68  H   UNL A   1      40.746  31.314  35.283  1.00  0.00     0.167 HD
ATOM     69  C   UNL A   1      42.315  29.315  34.015  1.00  0.00     0.074 A 
ATOM     70  C   UNL A   1      42.789  28.359  33.035  1.00  0.00     0.031 C 
ATOM     71  C   UNL A   1      42.950  29.592  35.179  1.00  0.00     0.037 A 
BRANCH  58  72
ATOM     72  C   UNL A   1      40.203  33.936  38.600  1.00  0.00     0.057 A 
ATOM     73  C   UNL A   1      39.559  33.545  39.781  1.00  0.00     0.134 A 
ATOM     74  C   UNL A   1      40.904  35.148  38.615  1.00  0.00     0.134 A 
ATOM     75  F   UNL A   1      38.858  32.403  39.827  1.00  0.00    -0.206 F 
ATOM     76  C   UNL A   1      39.592  34.342  40.927  1.00  0.00     0.040 A 
ATOM     77  C   UNL A   1      40.965  35.941  39.762  1.00  0.00     0.040 A 
ATOM     78  F   UNL A   1      41.547  35.577  37.518  1.00  0.00    -0.206 F 
ATOM     79  C   UNL A   1      40.302  35.542  40.920  1.00  0.00     0.006 A 
ENDBRANCH  58  72
BRANCH  59  80
ATOM     80  C   UNL A   1      39.754  28.677  30.125  1.00  0.00     0.057 A 
ATOM     81  C   UNL A   1      40.335  29.201  28.966  1.00  0.00     0.134 A 
ATOM     82  C   UNL A   1      39.141  27.421  30.031  1.00  0.00     0.134 A 
ATOM     83  F   UNL A   1      40.921  30.408  28.992  1.00  0.00    -0.206 F 
ATOM     84  C   UNL A   1      40.295  28.513  27.752  1.00  0.00     0.040 A 
ATOM     85  C   UNL A   1      39.112  26.712  28.829  1.00  0.00     0.040 A 
ATOM     86  F   UNL A   1      38.572  26.863  31.109  1.00  0.00    -0.206 F 
ATOM     87  C   UNL A   1      39.685  27.262  27.684  1.00  0.00     0.006 A 
ENDBRANCH  59  80
BRANCH  71  88
ATOM     88  C   UNL A   1      44.192  28.815  35.490  1.00  0.00     0.057 A 
ATOM     89  C   UNL A   1      44.149  27.602  36.187  1.00  0.00     0.134 A 
ATOM     90  C   UNL A   1      45.437  29.252  35.019  1.00  0.00     0.134 A 
ATOM     91  F   UNL A   1      42.988  27.138  36.673  1.00  0.00    -0.206 F 
ATOM     92  C   UNL A   1      45.305  26.853  36.411  1.00  0.00     0.040 A 
ATOM     93  C   UNL A   1      46.596  28.502  35.219  1.00  0.00     0.040 A 
ATOM     94  F   UNL A   1      45.541  30.403  34.338  1.00  0.00    -0.206 F 
ATOM     95  C   UNL A   1      46.531  27.298  35.917  1.00  0.00     0.006 A 
ENDBRANCH  71  88
ENDBRANCH  45  46
ENDBRANCH  37  40
ENDBRANCH  35  36
ENDBRANCH  34  35
ENDBRANCH  33  34
ENDBRANCH   1  33
TORSDOF 17
ENDMDL
