MODEL 1
REMARK VINA RESULT:     -12.4      0.000      0.000
REMARK SMILES C/C(=N\[NH+]=C1\NC(=O)[C@H](CC(=O)NCCCCNC(=O)c2ccc(-c3c4nc(c(-c5c(F)cccc5F)c5ccc([nH]5)c(-c5c(F)cccc5F)c5nc(c(-c6c(F)cccc6F)c6ccc3[nH]6)C=C5)C=C4)cc2)S1)c1ccc([N+](=O)[O-])cc1
REMARK SMILES IDX 14 1 13 2 11 3 12 4 10 6 9 7 4 8 5 9 6 11 75 12 7 13 8 15
REMARK SMILES IDX 3 16 1 17 2 18 76 19 77 20 84 21 78 22 83 23 79 24 80 25
REMARK SMILES IDX 81 26 82 27 15 28 16 29 17 30 18 31 19 32 20 34 21 35 22 36
REMARK SMILES IDX 74 37 23 38 73 39 24 40 25 41 26 42 67 43 27 44 72 45 66 46
REMARK SMILES IDX 68 47 28 48 71 49 65 50 64 51 29 53 55 54 38 55 54 56 39 57
REMARK SMILES IDX 42 58 53 59 69 60 40 61 41 62 52 64 70 65 43 66 30 67 31 68
REMARK SMILES IDX 36 69 32 70 33 71 35 72 37 73 34 74 56 75 57 76 62 77 58 78
REMARK SMILES IDX 59 79 61 80 63 81 60 82 44 83 45 84 50 85 46 86 47 87 49 88
REMARK SMILES IDX 51 89 48 90
REMARK H PARENT 13 5 4 10 6 14 18 33 68 52 42 63
REMARK Flexibility Score: inf
ROOT
ATOM      1  C   UNL A   1      33.032  28.868  23.939  1.00  0.00     0.116 C 
ENDROOT
BRANCH   1   2
ATOM      2  N   UNL A   1      31.899  28.768  23.034  1.00  0.00    -0.356 N 
ATOM      3  C   UNL A   1      31.039  27.732  22.812  1.00  0.00     0.221 C 
ATOM      4  O   UNL A   1      30.155  27.857  21.965  1.00  0.00    -0.275 OA
ATOM      5  H   UNL A   1      31.726  29.573  22.496  1.00  0.00     0.163 HD
BRANCH   3   6
ATOM      6  C   UNL A   1      31.197  26.440  23.581  1.00  0.00     0.127 C 
BRANCH   6   7
ATOM      7  C   UNL A   1      31.784  25.352  22.695  1.00  0.00     0.183 C 
ATOM      8  N   UNL A   1      34.399  22.860  24.031  1.00  0.00    -0.142 N 
ATOM      9  C   UNL A   1      33.566  23.787  23.707  1.00  0.00     0.337 C 
ATOM     10  H   UNL A   1      35.352  23.050  24.189  1.00  0.00     0.343 HD
ATOM     11  N   UNL A   1      34.068  24.929  23.198  1.00  0.00    -0.202 N 
ATOM     12  S   UNL A   1      31.831  23.750  23.585  1.00  0.00    -0.020 SA
ATOM     13  C   UNL A   1      33.236  25.605  22.363  1.00  0.00     0.322 C 
ATOM     14  H   UNL A   1      34.973  25.251  23.414  1.00  0.00     0.316 HD
ATOM     15  O   UNL A   1      33.633  26.277  21.422  1.00  0.00    -0.246 OA
BRANCH   8  16
ATOM     16  N   UNL A   1      33.875  21.579  24.145  1.00  0.00    -0.090 NA
ATOM     17  C   UNL A   1      36.198  21.018  24.884  1.00  0.00     0.071 C 
ATOM     18  C   UNL A   1      34.723  20.708  24.629  1.00  0.00     0.088 C 
BRANCH  18  19
ATOM     19  C   UNL A   1      34.254  19.311  24.900  1.00  0.00    -0.000 A 
ATOM     20  C   UNL A   1      35.030  18.226  24.461  1.00  0.00     0.017 A 
ATOM     21  C   UNL A   1      33.037  19.062  25.551  1.00  0.00     0.017 A 
ATOM     22  C   UNL A   1      34.588  16.912  24.653  1.00  0.00     0.086 A 
ATOM     23  C   UNL A   1      32.584  17.753  25.739  1.00  0.00     0.086 A 
ATOM     24  C   UNL A   1      33.358  16.682  25.283  1.00  0.00     0.269 A 
BRANCH  24  25
ATOM     25  N   UNL A   1      32.866  15.311  25.457  1.00  0.00     0.062 N 
ATOM     26  O   UNL A   1      33.689  14.389  25.378  1.00  0.00    -0.258 OA
ATOM     27  O   UNL A   1      31.655  15.159  25.668  1.00  0.00    -0.258 OA
ENDBRANCH  24  25
ENDBRANCH  18  19
ENDBRANCH   8  16
ENDBRANCH   6   7
ENDBRANCH   3   6
ENDBRANCH   1   2
BRANCH   1  28
ATOM     28  C   UNL A   1      32.663  29.544  25.262  1.00  0.00     0.023 C 
BRANCH  28  29
ATOM     29  C   UNL A   1      32.657  28.619  26.472  1.00  0.00     0.023 C 
BRANCH  29  30
ATOM     30  C   UNL A   1      33.822  28.835  27.423  1.00  0.00     0.116 C 
BRANCH  30  31
ATOM     31  N   UNL A   1      33.862  30.188  27.964  1.00  0.00    -0.352 N 
ATOM     32  C   UNL A   1      34.883  30.821  28.633  1.00  0.00     0.251 C 
ATOM     33  H   UNL A   1      33.045  30.722  27.833  1.00  0.00     0.163 HD
ATOM     34  O   UNL A   1      34.707  31.904  29.167  1.00  0.00    -0.269 OA
BRANCH  32  35
ATOM     35  C   UNL A   1      36.193  30.146  28.720  1.00  0.00     0.039 A 
ATOM     36  C   UNL A   1      37.050  30.177  27.618  1.00  0.00     0.014 A 
ATOM     37  C   UNL A   1      36.595  29.555  29.921  1.00  0.00     0.014 A 
ATOM     38  C   UNL A   1      38.349  29.688  27.749  1.00  0.00     0.010 A 
ATOM     39  C   UNL A   1      37.913  29.154  30.075  1.00  0.00     0.010 A 
ATOM     40  C   UNL A   1      38.803  29.218  28.993  1.00  0.00    -0.014 A 
BRANCH  40  41
ATOM     41  C   UNL A   1      40.207  28.785  29.197  1.00  0.00     0.031 A 
ATOM     42  C   UNL A   1      41.200  29.743  29.793  1.00  0.00     0.074 A 
ATOM     43  C   UNL A   1      40.607  27.577  28.756  1.00  0.00     0.049 A 
ATOM     44  N   UNL A   1      42.493  29.612  29.933  1.00  0.00    -0.248 NA
ATOM     45  C   UNL A   1      40.672  31.036  30.258  1.00  0.00     0.031 C 
ATOM     46  C   UNL A   1      39.748  26.581  28.111  1.00  0.00     0.029 A 
ATOM     47  N   UNL A   1      41.845  26.987  28.770  1.00  0.00    -0.354 N 
ATOM     48  C   UNL A   1      42.934  30.812  30.476  1.00  0.00     0.074 A 
ATOM     49  C   UNL A   1      41.781  31.677  30.590  1.00  0.00     0.031 C 
ATOM     50  C   UNL A   1      40.481  25.497  27.809  1.00  0.00     0.029 A 
ATOM     51  C   UNL A   1      41.865  25.736  28.202  1.00  0.00     0.049 A 
ATOM     52  H   UNL A   1      42.644  27.420  29.151  1.00  0.00     0.167 HD
ATOM     53  C   UNL A   1      44.184  31.152  30.869  1.00  0.00     0.037 A 
ATOM     54  C   UNL A   1      42.891  24.883  28.012  1.00  0.00     0.037 A 
ATOM     55  C   UNL A   1      45.319  30.272  30.792  1.00  0.00     0.049 A 
ATOM     56  C   UNL A   1      44.268  25.281  28.463  1.00  0.00     0.074 A 
ATOM     57  C   UNL A   1      46.611  30.492  31.235  1.00  0.00     0.029 A 
ATOM     58  N   UNL A   1      45.294  29.002  30.238  1.00  0.00    -0.354 N 
ATOM     59  N   UNL A   1      44.659  26.393  29.038  1.00  0.00    -0.248 NA
ATOM     60  C   UNL A   1      45.346  24.308  28.239  1.00  0.00     0.031 C 
ATOM     61  C   UNL A   1      47.377  29.367  30.914  1.00  0.00     0.029 A 
ATOM     62  C   UNL A   1      46.554  28.432  30.308  1.00  0.00     0.049 A 
ATOM     63  H   UNL A   1      44.498  28.569  29.851  1.00  0.00     0.167 HD
ATOM     64  C   UNL A   1      46.021  26.245  29.264  1.00  0.00     0.074 A 
ATOM     65  C   UNL A   1      46.386  24.930  28.777  1.00  0.00     0.031 C 
ATOM     66  C   UNL A   1      46.892  27.119  29.823  1.00  0.00     0.037 A 
BRANCH  53  67
ATOM     67  C   UNL A   1      44.380  32.530  31.426  1.00  0.00     0.057 A 
ATOM     68  C   UNL A   1      44.729  33.614  30.610  1.00  0.00     0.134 A 
ATOM     69  C   UNL A   1      44.199  32.782  32.792  1.00  0.00     0.134 A 
ATOM     70  F   UNL A   1      44.932  33.437  29.295  1.00  0.00    -0.206 F 
ATOM     71  C   UNL A   1      44.918  34.894  31.134  1.00  0.00     0.040 A 
ATOM     72  C   UNL A   1      44.358  34.062  33.324  1.00  0.00     0.040 A 
ATOM     73  F   UNL A   1      43.861  31.790  33.629  1.00  0.00    -0.206 F 
ATOM     74  C   UNL A   1      44.726  35.121  32.495  1.00  0.00     0.006 A 
ENDBRANCH  53  67
BRANCH  54  75
ATOM     75  C   UNL A   1      42.651  23.561  27.382  1.00  0.00     0.057 A 
ATOM     76  C   UNL A   1      42.237  22.465  28.149  1.00  0.00     0.134 A 
ATOM     77  C   UNL A   1      42.830  23.358  26.009  1.00  0.00     0.134 A 
ATOM     78  F   UNL A   1      42.067  22.594  29.473  1.00  0.00    -0.206 F 
ATOM     79  C   UNL A   1      42.029  21.209  27.576  1.00  0.00     0.040 A 
ATOM     80  C   UNL A   1      42.603  22.113  25.419  1.00  0.00     0.040 A 
ATOM     81  F   UNL A   1      43.217  24.371  25.219  1.00  0.00    -0.206 F 
ATOM     82  C   UNL A   1      42.207  21.032  26.206  1.00  0.00     0.006 A 
ENDBRANCH  54  75
BRANCH  66  83
ATOM     83  C   UNL A   1      48.317  26.674  29.961  1.00  0.00     0.057 A 
ATOM     84  C   UNL A   1      48.753  25.937  31.069  1.00  0.00     0.134 A 
ATOM     85  C   UNL A   1      49.250  26.942  28.951  1.00  0.00     0.134 A 
ATOM     86  F   UNL A   1      47.910  25.661  32.076  1.00  0.00    -0.206 F 
ATOM     87  C   UNL A   1      50.071  25.493  31.174  1.00  0.00     0.040 A 
ATOM     88  C   UNL A   1      50.564  26.483  29.034  1.00  0.00     0.040 A 
ATOM     89  F   UNL A   1      48.892  27.637  27.861  1.00  0.00    -0.206 F 
ATOM     90  C   UNL A   1      50.979  25.759  30.149  1.00  0.00     0.006 A 
ENDBRANCH  66  83
ENDBRANCH  40  41
ENDBRANCH  32  35
ENDBRANCH  30  31
ENDBRANCH  29  30
ENDBRANCH  28  29
ENDBRANCH   1  28
TORSDOF 15
ENDMDL
MODEL 2
REMARK VINA RESULT:     -12.3      2.575      8.761
REMARK SMILES C/C(=N\[NH+]=C1\NC(=O)[C@H](CC(=O)NCCCCNC(=O)c2ccc(-c3c4nc(c(-c5c(F)cccc5F)c5ccc([nH]5)c(-c5c(F)cccc5F)c5nc(c(-c6c(F)cccc6F)c6ccc3[nH]6)C=C5)C=C4)cc2)S1)c1ccc([N+](=O)[O-])cc1
REMARK SMILES IDX 14 1 13 2 11 3 12 4 10 6 9 7 4 8 5 9 6 11 75 12 7 13 8 15
REMARK SMILES IDX 3 16 1 17 2 18 76 19 77 20 84 21 78 22 83 23 79 24 80 25
REMARK SMILES IDX 81 26 82 27 15 28 16 29 17 30 18 31 19 32 20 34 21 35 22 36
REMARK SMILES IDX 74 37 23 38 73 39 24 40 25 41 26 42 67 43 27 44 72 45 66 46
REMARK SMILES IDX 68 47 28 48 71 49 65 50 64 51 29 53 55 54 38 55 54 56 39 57
REMARK SMILES IDX 42 58 53 59 69 60 40 61 41 62 52 64 70 65 43 66 30 67 31 68
REMARK SMILES IDX 36 69 32 70 33 71 35 72 37 73 34 74 56 75 57 76 62 77 58 78
REMARK SMILES IDX 59 79 61 80 63 81 60 82 44 83 45 84 50 85 46 86 47 87 49 88
REMARK SMILES IDX 51 89 48 90
REMARK H PARENT 13 5 4 10 6 14 18 33 68 52 42 63
REMARK Flexibility Score: inf
ROOT
ATOM      1  C   UNL A   1      34.980  22.516  25.073  1.00  0.00     0.116 C 
ENDROOT
BRANCH   1   2
ATOM      2  N   UNL A   1      34.015  21.464  25.348  1.00  0.00    -0.356 N 
ATOM      3  C   UNL A   1      32.729  21.316  24.917  1.00  0.00     0.221 C 
ATOM      4  O   UNL A   1      32.075  20.348  25.304  1.00  0.00    -0.275 OA
ATOM      5  H   UNL A   1      34.341  20.748  25.939  1.00  0.00     0.163 HD
BRANCH   3   6
ATOM      6  C   UNL A   1      32.115  22.349  24.000  1.00  0.00     0.127 C 
BRANCH   6   7
ATOM      7  C   UNL A   1      31.095  23.195  24.747  1.00  0.00     0.183 C 
ATOM      8  N   UNL A   1      31.574  26.990  25.199  1.00  0.00    -0.142 N 
ATOM      9  C   UNL A   1      31.571  25.715  25.020  1.00  0.00     0.337 C 
ATOM     10  H   UNL A   1      32.190  27.425  25.833  1.00  0.00     0.343 HD
ATOM     11  N   UNL A   1      32.124  24.948  25.981  1.00  0.00    -0.202 N 
ATOM     12  S   UNL A   1      30.749  24.746  23.832  1.00  0.00    -0.020 SA
ATOM     13  C   UNL A   1      31.622  23.689  26.074  1.00  0.00     0.322 C 
ATOM     14  H   UNL A   1      32.839  25.276  26.572  1.00  0.00     0.316 HD
ATOM     15  O   UNL A   1      31.553  23.073  27.129  1.00  0.00    -0.246 OA
BRANCH   8  16
ATOM     16  N   UNL A   1      30.660  27.716  24.447  1.00  0.00    -0.090 NA
ATOM     17  C   UNL A   1      32.012  29.667  25.233  1.00  0.00     0.071 C 
ATOM     18  C   UNL A   1      30.917  28.998  24.403  1.00  0.00     0.088 C 
BRANCH  18  19
ATOM     19  C   UNL A   1      30.067  29.881  23.541  1.00  0.00    -0.000 A 
ATOM     20  C   UNL A   1      29.933  29.585  22.175  1.00  0.00     0.017 A 
ATOM     21  C   UNL A   1      29.431  31.017  24.061  1.00  0.00     0.017 A 
ATOM     22  C   UNL A   1      29.189  30.424  21.337  1.00  0.00     0.086 A 
ATOM     23  C   UNL A   1      28.694  31.864  23.230  1.00  0.00     0.086 A 
ATOM     24  C   UNL A   1      28.581  31.568  21.868  1.00  0.00     0.269 A 
BRANCH  24  25
ATOM     25  N   UNL A   1      27.829  32.475  20.993  1.00  0.00     0.062 N 
ATOM     26  O   UNL A   1      27.392  32.019  19.929  1.00  0.00    -0.258 OA
ATOM     27  O   UNL A   1      27.683  33.647  21.371  1.00  0.00    -0.258 OA
ENDBRANCH  24  25
ENDBRANCH  18  19
ENDBRANCH   8  16
ENDBRANCH   6   7
ENDBRANCH   3   6
ENDBRANCH   1   2
BRANCH   1  28
ATOM     28  C   UNL A   1      36.237  21.988  24.379  1.00  0.00     0.023 C 
BRANCH  28  29
ATOM     29  C   UNL A   1      36.963  20.879  25.128  1.00  0.00     0.023 C 
BRANCH  29  30
ATOM     30  C   UNL A   1      38.422  21.181  25.421  1.00  0.00     0.116 C 
BRANCH  30  31
ATOM     31  N   UNL A   1      39.242  19.977  25.493  1.00  0.00    -0.352 N 
ATOM     32  C   UNL A   1      40.543  19.843  25.918  1.00  0.00     0.251 C 
ATOM     33  H   UNL A   1      38.804  19.147  25.196  1.00  0.00     0.163 HD
ATOM     34  O   UNL A   1      41.146  18.792  25.768  1.00  0.00    -0.269 OA
BRANCH  32  35
ATOM     35  C   UNL A   1      41.208  21.008  26.534  1.00  0.00     0.039 A 
ATOM     36  C   UNL A   1      41.865  21.928  25.715  1.00  0.00     0.014 A 
ATOM     37  C   UNL A   1      41.107  21.220  27.911  1.00  0.00     0.014 A 
ATOM     38  C   UNL A   1      42.350  23.112  26.271  1.00  0.00     0.010 A 
ATOM     39  C   UNL A   1      41.507  22.436  28.444  1.00  0.00     0.010 A 
ATOM     40  C   UNL A   1      42.130  23.394  27.630  1.00  0.00    -0.014 A 
BRANCH  40  41
ATOM     41  C   UNL A   1      42.540  24.686  28.233  1.00  0.00     0.031 A 
ATOM     42  C   UNL A   1      41.518  25.768  28.436  1.00  0.00     0.074 A 
ATOM     43  C   UNL A   1      43.839  24.917  28.503  1.00  0.00     0.049 A 
ATOM     44  N   UNL A   1      41.688  27.006  28.822  1.00  0.00    -0.248 NA
ATOM     45  C   UNL A   1      40.120  25.421  28.128  1.00  0.00     0.031 C 
ATOM     46  C   UNL A   1      44.933  23.965  28.296  1.00  0.00     0.029 A 
ATOM     47  N   UNL A   1      44.462  26.037  28.992  1.00  0.00    -0.354 N 
ATOM     48  C   UNL A   1      40.429  27.589  28.776  1.00  0.00     0.074 A 
ATOM     49  C   UNL A   1      39.513  26.589  28.275  1.00  0.00     0.031 C 
ATOM     50  C   UNL A   1      46.089  24.533  28.677  1.00  0.00     0.029 A 
ATOM     51  C   UNL A   1      45.824  25.899  29.114  1.00  0.00     0.049 A 
ATOM     52  H   UNL A   1      43.980  26.860  29.235  1.00  0.00     0.167 HD
ATOM     53  C   UNL A   1      40.065  28.840  29.143  1.00  0.00     0.037 A 
ATOM     54  C   UNL A   1      46.755  26.783  29.523  1.00  0.00     0.037 A 
ATOM     55  C   UNL A   1      40.972  29.818  29.680  1.00  0.00     0.049 A 
ATOM     56  C   UNL A   1      46.324  28.164  29.932  1.00  0.00     0.074 A 
ATOM     57  C   UNL A   1      40.691  31.086  30.155  1.00  0.00     0.029 A 
ATOM     58  N   UNL A   1      42.340  29.632  29.815  1.00  0.00    -0.354 N 
ATOM     59  N   UNL A   1      45.120  28.682  29.948  1.00  0.00    -0.248 NA
ATOM     60  C   UNL A   1      47.381  29.083  30.379  1.00  0.00     0.031 C 
ATOM     61  C   UNL A   1      41.895  31.682  30.544  1.00  0.00     0.029 A 
ATOM     62  C   UNL A   1      42.920  30.771  30.347  1.00  0.00     0.049 A 
ATOM     63  H   UNL A   1      42.826  28.812  29.568  1.00  0.00     0.167 HD
ATOM     64  C   UNL A   1      45.270  29.977  30.426  1.00  0.00     0.074 A 
ATOM     65  C   UNL A   1      46.680  30.161  30.702  1.00  0.00     0.031 C 
ATOM     66  C   UNL A   1      44.325  30.929  30.619  1.00  0.00     0.037 A 
BRANCH  53  67
ATOM     67  C   UNL A   1      38.621  29.212  28.984  1.00  0.00     0.057 A 
ATOM     68  C   UNL A   1      37.719  29.143  30.055  1.00  0.00     0.134 A 
ATOM     69  C   UNL A   1      38.129  29.664  27.753  1.00  0.00     0.134 A 
ATOM     70  F   UNL A   1      38.123  28.704  31.256  1.00  0.00    -0.206 F 
ATOM     71  C   UNL A   1      36.374  29.483  29.901  1.00  0.00     0.040 A 
ATOM     72  C   UNL A   1      36.793  30.033  27.593  1.00  0.00     0.040 A 
ATOM     73  F   UNL A   1      38.939  29.757  26.688  1.00  0.00    -0.206 F 
ATOM     74  C   UNL A   1      35.910  29.936  28.668  1.00  0.00     0.006 A 
ENDBRANCH  53  67
BRANCH  54  75
ATOM     75  C   UNL A   1      48.183  26.385  29.585  1.00  0.00     0.057 A 
ATOM     76  C   UNL A   1      48.725  25.836  30.754  1.00  0.00     0.134 A 
ATOM     77  C   UNL A   1      49.037  26.541  28.488  1.00  0.00     0.134 A 
ATOM     78  F   UNL A   1      47.959  25.679  31.843  1.00  0.00    -0.206 F 
ATOM     79  C   UNL A   1      50.071  25.476  30.836  1.00  0.00     0.040 A 
ATOM     80  C   UNL A   1      50.381  26.164  28.549  1.00  0.00     0.040 A 
ATOM     81  F   UNL A   1      48.577  27.053  27.337  1.00  0.00    -0.206 F 
ATOM     82  C   UNL A   1      50.902  25.636  29.729  1.00  0.00     0.006 A 
ENDBRANCH  54  75
BRANCH  66  83
ATOM     83  C   UNL A   1      44.781  32.245  31.176  1.00  0.00     0.057 A 
ATOM     84  C   UNL A   1      45.113  33.320  30.343  1.00  0.00     0.134 A 
ATOM     85  C   UNL A   1      44.838  32.452  32.560  1.00  0.00     0.134 A 
ATOM     86  F   UNL A   1      45.091  33.179  29.009  1.00  0.00    -0.206 F 
ATOM     87  C   UNL A   1      45.500  34.553  30.868  1.00  0.00     0.040 A 
ATOM     88  C   UNL A   1      45.201  33.687  33.096  1.00  0.00     0.040 A 
ATOM     89  F   UNL A   1      44.525  31.462  33.410  1.00  0.00    -0.206 F 
ATOM     90  C   UNL A   1      45.536  34.741  32.249  1.00  0.00     0.006 A 
ENDBRANCH  66  83
ENDBRANCH  40  41
ENDBRANCH  32  35
ENDBRANCH  30  31
ENDBRANCH  29  30
ENDBRANCH  28  29
ENDBRANCH   1  28
TORSDOF 15
ENDMDL
MODEL 3
REMARK VINA RESULT:     -12.2      3.527      5.002
REMARK SMILES C/C(=N\[NH+]=C1\NC(=O)[C@H](CC(=O)NCCCCNC(=O)c2ccc(-c3c4nc(c(-c5c(F)cccc5F)c5ccc([nH]5)c(-c5c(F)cccc5F)c5nc(c(-c6c(F)cccc6F)c6ccc3[nH]6)C=C5)C=C4)cc2)S1)c1ccc([N+](=O)[O-])cc1
REMARK SMILES IDX 14 1 13 2 11 3 12 4 10 6 9 7 4 8 5 9 6 11 75 12 7 13 8 15
REMARK SMILES IDX 3 16 1 17 2 18 76 19 77 20 84 21 78 22 83 23 79 24 80 25
REMARK SMILES IDX 81 26 82 27 15 28 16 29 17 30 18 31 19 32 20 34 21 35 22 36
REMARK SMILES IDX 74 37 23 38 73 39 24 40 25 41 26 42 67 43 27 44 72 45 66 46
REMARK SMILES IDX 68 47 28 48 71 49 65 50 64 51 29 53 55 54 38 55 54 56 39 57
REMARK SMILES IDX 42 58 53 59 69 60 40 61 41 62 52 64 70 65 43 66 30 67 31 68
REMARK SMILES IDX 36 69 32 70 33 71 35 72 37 73 34 74 56 75 57 76 62 77 58 78
REMARK SMILES IDX 59 79 61 80 63 81 60 82 44 83 45 84 50 85 46 86 47 87 49 88
REMARK SMILES IDX 51 89 48 90
REMARK H PARENT 13 5 4 10 6 14 18 33 68 52 42 63
REMARK Flexibility Score: inf
ROOT
ATOM      1  C   UNL A   1      32.080  29.798  25.427  1.00  0.00     0.116 C 
ENDROOT
BRANCH   1   2
ATOM      2  N   UNL A   1      31.173  29.997  24.308  1.00  0.00    -0.356 N 
ATOM      3  C   UNL A   1      30.464  29.089  23.577  1.00  0.00     0.221 C 
ATOM      4  O   UNL A   1      29.770  29.483  22.642  1.00  0.00    -0.275 OA
ATOM      5  H   UNL A   1      31.052  30.935  24.036  1.00  0.00     0.163 HD
BRANCH   3   6
ATOM      6  C   UNL A   1      30.562  27.616  23.903  1.00  0.00     0.127 C 
BRANCH   6   7
ATOM      7  C   UNL A   1      31.514  26.914  22.946  1.00  0.00     0.183 C 
ATOM      8  N   UNL A   1      34.303  24.587  24.229  1.00  0.00    -0.142 N 
ATOM      9  C   UNL A   1      33.368  25.427  23.947  1.00  0.00     0.337 C 
ATOM     10  H   UNL A   1      35.151  24.871  24.641  1.00  0.00     0.343 HD
ATOM     11  N   UNL A   1      33.706  26.728  23.848  1.00  0.00    -0.202 N 
ATOM     12  S   UNL A   1      31.731  25.157  23.425  1.00  0.00    -0.020 SA
ATOM     13  C   UNL A   1      32.917  27.468  23.025  1.00  0.00     0.322 C 
ATOM     14  H   UNL A   1      34.469  27.114  24.335  1.00  0.00     0.316 HD
ATOM     15  O   UNL A   1      33.331  28.424  22.384  1.00  0.00    -0.246 OA
BRANCH   8  16
ATOM     16  N   UNL A   1      34.046  23.259  23.918  1.00  0.00    -0.090 NA
ATOM     17  C   UNL A   1      35.426  22.825  25.959  1.00  0.00     0.071 C 
ATOM     18  C   UNL A   1      34.524  22.413  24.795  1.00  0.00     0.088 C 
BRANCH  18  19
ATOM     19  C   UNL A   1      34.228  20.953  24.633  1.00  0.00    -0.000 A 
ATOM     20  C   UNL A   1      35.256  20.017  24.825  1.00  0.00     0.017 A 
ATOM     21  C   UNL A   1      32.954  20.503  24.260  1.00  0.00     0.017 A 
ATOM     22  C   UNL A   1      35.020  18.652  24.626  1.00  0.00     0.086 A 
ATOM     23  C   UNL A   1      32.711  19.143  24.051  1.00  0.00     0.086 A 
ATOM     24  C   UNL A   1      33.748  18.222  24.229  1.00  0.00     0.269 A 
BRANCH  24  25
ATOM     25  N   UNL A   1      33.497  16.797  23.982  1.00  0.00     0.062 N 
ATOM     26  O   UNL A   1      32.780  16.190  24.789  1.00  0.00    -0.258 OA
ATOM     27  O   UNL A   1      34.022  16.287  22.982  1.00  0.00    -0.258 OA
ENDBRANCH  24  25
ENDBRANCH  18  19
ENDBRANCH   8  16
ENDBRANCH   6   7
ENDBRANCH   3   6
ENDBRANCH   1   2
BRANCH   1  28
ATOM     28  C   UNL A   1      31.590  30.481  26.705  1.00  0.00     0.023 C 
BRANCH  28  29
ATOM     29  C   UNL A   1      31.511  32.000  26.627  1.00  0.00     0.023 C 
BRANCH  29  30
ATOM     30  C   UNL A   1      32.699  32.715  27.247  1.00  0.00     0.116 C 
BRANCH  30  31
ATOM     31  N   UNL A   1      32.417  34.112  27.553  1.00  0.00    -0.352 N 
ATOM     32  C   UNL A   1      32.976  34.915  28.520  1.00  0.00     0.251 C 
ATOM     33  H   UNL A   1      31.730  34.539  26.991  1.00  0.00     0.163 HD
ATOM     34  O   UNL A   1      32.519  36.022  28.757  1.00  0.00    -0.269 OA
BRANCH  32  35
ATOM     35  C   UNL A   1      34.125  34.397  29.287  1.00  0.00     0.039 A 
ATOM     36  C   UNL A   1      33.891  33.667  30.454  1.00  0.00     0.014 A 
ATOM     37  C   UNL A   1      35.423  34.572  28.802  1.00  0.00     0.014 A 
ATOM     38  C   UNL A   1      34.961  33.037  31.091  1.00  0.00     0.010 A 
ATOM     39  C   UNL A   1      36.469  33.871  29.382  1.00  0.00     0.010 A 
ATOM     40  C   UNL A   1      36.248  33.095  30.530  1.00  0.00    -0.014 A 
BRANCH  40  41
ATOM     41  C   UNL A   1      37.389  32.354  31.121  1.00  0.00     0.031 A 
ATOM     42  C   UNL A   1      38.005  32.840  32.403  1.00  0.00     0.074 A 
ATOM     43  C   UNL A   1      37.929  31.314  30.458  1.00  0.00     0.049 A 
ATOM     44  N   UNL A   1      39.083  32.420  33.014  1.00  0.00    -0.248 NA
ATOM     45  C   UNL A   1      37.341  33.974  33.066  1.00  0.00     0.031 C 
ATOM     46  C   UNL A   1      37.454  30.784  29.177  1.00  0.00     0.029 A 
ATOM     47  N   UNL A   1      39.010  30.526  30.762  1.00  0.00    -0.354 N 
ATOM     48  C   UNL A   1      39.238  33.254  34.113  1.00  0.00     0.074 A 
ATOM     49  C   UNL A   1      38.178  34.236  34.057  1.00  0.00     0.031 C 
ATOM     50  C   UNL A   1      38.227  29.746  28.817  1.00  0.00     0.029 A 
ATOM     51  C   UNL A   1      39.273  29.564  29.817  1.00  0.00     0.049 A 
ATOM     52  H   UNL A   1      39.546  30.639  31.580  1.00  0.00     0.167 HD
ATOM     53  C   UNL A   1      40.167  33.191  35.095  1.00  0.00     0.037 A 
ATOM     54  C   UNL A   1      40.256  28.644  29.762  1.00  0.00     0.037 A 
ATOM     55  C   UNL A   1      41.194  32.187  35.169  1.00  0.00     0.049 A 
ATOM     56  C   UNL A   1      41.271  28.590  30.868  1.00  0.00     0.074 A 
ATOM     57  C   UNL A   1      42.136  31.988  36.163  1.00  0.00     0.029 A 
ATOM     58  N   UNL A   1      41.411  31.211  34.208  1.00  0.00    -0.354 N 
ATOM     59  N   UNL A   1      41.367  29.341  31.938  1.00  0.00    -0.248 NA
ATOM     60  C   UNL A   1      42.315  27.561  30.760  1.00  0.00     0.031 C 
ATOM     61  C   UNL A   1      42.946  30.912  35.785  1.00  0.00     0.029 A 
ATOM     62  C   UNL A   1      42.484  30.418  34.575  1.00  0.00     0.049 A 
ATOM     63  H   UNL A   1      40.880  31.098  33.386  1.00  0.00     0.167 HD
ATOM     64  C   UNL A   1      42.465  28.864  32.641  1.00  0.00     0.074 A 
ATOM     65  C   UNL A   1      42.994  27.748  31.883  1.00  0.00     0.031 C 
ATOM     66  C   UNL A   1      42.989  29.309  33.808  1.00  0.00     0.037 A 
BRANCH  53  67
ATOM     67  C   UNL A   1      40.103  34.232  36.173  1.00  0.00     0.057 A 
ATOM     68  C   UNL A   1      40.726  35.479  36.033  1.00  0.00     0.134 A 
ATOM     69  C   UNL A   1      39.394  33.993  37.357  1.00  0.00     0.134 A 
ATOM     70  F   UNL A   1      41.434  35.765  34.930  1.00  0.00    -0.206 F 
ATOM     71  C   UNL A   1      40.670  36.442  37.042  1.00  0.00     0.040 A 
ATOM     72  C   UNL A   1      39.307  34.957  38.362  1.00  0.00     0.040 A 
ATOM     73  F   UNL A   1      38.772  32.821  37.554  1.00  0.00    -0.206 F 
ATOM     74  C   UNL A   1      39.952  36.183  38.208  1.00  0.00     0.006 A 
ENDBRANCH  53  67
BRANCH  54  75
ATOM     75  C   UNL A   1      40.316  27.688  28.628  1.00  0.00     0.057 A 
ATOM     76  C   UNL A   1      39.620  26.474  28.675  1.00  0.00     0.134 A 
ATOM     77  C   UNL A   1      41.068  27.958  27.479  1.00  0.00     0.134 A 
ATOM     78  F   UNL A   1      38.898  26.152  29.758  1.00  0.00    -0.206 F 
ATOM     79  C   UNL A   1      39.683  25.554  27.627  1.00  0.00     0.040 A 
ATOM     80  C   UNL A   1      41.122  27.057  26.414  1.00  0.00     0.040 A 
ATOM     81  F   UNL A   1      41.751  29.107  27.370  1.00  0.00    -0.206 F 
ATOM     82  C   UNL A   1      40.433  25.847  26.490  1.00  0.00     0.006 A 
ENDBRANCH  54  75
BRANCH  66  83
ATOM     83  C   UNL A   1      44.179  28.575  34.350  1.00  0.00     0.057 A 
ATOM     84  C   UNL A   1      45.487  28.989  34.073  1.00  0.00     0.134 A 
ATOM     85  C   UNL A   1      44.012  27.473  35.199  1.00  0.00     0.134 A 
ATOM     86  F   UNL A   1      45.713  30.029  33.255  1.00  0.00    -0.206 F 
ATOM     87  C   UNL A   1      46.590  28.324  34.610  1.00  0.00     0.040 A 
ATOM     88  C   UNL A   1      45.106  26.815  35.761  1.00  0.00     0.040 A 
ATOM     89  F   UNL A   1      42.783  27.032  35.508  1.00  0.00    -0.206 F 
ATOM     90  C   UNL A   1      46.399  27.238  35.464  1.00  0.00     0.006 A 
ENDBRANCH  66  83
ENDBRANCH  40  41
ENDBRANCH  32  35
ENDBRANCH  30  31
ENDBRANCH  29  30
ENDBRANCH  28  29
ENDBRANCH   1  28
TORSDOF 15
ENDMDL
