MODEL 1
REMARK VINA RESULT:     -11.6      0.000      0.000
REMARK SMILES C[C@H](O)[C@@H](NC(=O)c1ccc(Cl)c(S(C)(=O)=O)c1)C(=O)NCCCCNC(=O)c1ccc(-c2c3nc(c(-c4c(F)cccc4F)c4ccc([nH]4)c(-c4c(F)cccc4F)c4nc(c(-c5c(F)cccc5F)c5ccc2[nH]5)C=C4)C=C3)cc1
REMARK SMILES IDX 23 1 22 2 21 3 19 4 20 5 4 7 2 8 1 9 3 10 5 12 6 13 7 15
REMARK SMILES IDX 8 16 9 17 18 18 10 19 13 20 11 21 12 22 14 23 15 24 16 25
REMARK SMILES IDX 17 26 24 27 25 28 26 29 27 30 28 32 29 33 30 34 82 35 31 36
REMARK SMILES IDX 81 37 32 38 33 39 34 40 75 41 35 42 80 43 74 44 76 45 36 46
REMARK SMILES IDX 79 47 73 48 72 49 37 51 63 52 46 53 62 54 47 55 50 56 61 57
REMARK SMILES IDX 77 58 48 59 49 60 60 62 78 63 51 64 38 65 39 66 44 67 40 68
REMARK SMILES IDX 41 69 43 70 45 71 42 72 64 73 65 74 70 75 66 76 67 77 69 78
REMARK SMILES IDX 71 79 68 80 52 81 53 82 58 83 54 84 55 85 57 86 59 87 56 88
REMARK H PARENT 21 6 3 11 5 14 26 31 76 50 50 61
REMARK Flexibility Score: inf
ROOT
ATOM      1  C   UNL A   1      36.838  21.413  24.338  1.00  0.00     0.023 C 
ENDROOT
BRANCH   1   2
ATOM      2  C   UNL A   1      36.358  22.461  25.340  1.00  0.00     0.116 C 
BRANCH   2   3
ATOM      3  N   UNL A   1      35.718  21.821  26.472  1.00  0.00    -0.354 N 
ATOM      4  C   UNL A   1      34.417  21.815  26.859  1.00  0.00     0.245 C 
ATOM      5  O   UNL A   1      34.161  21.332  27.966  1.00  0.00    -0.273 OA
ATOM      6  H   UNL A   1      36.325  21.307  27.053  1.00  0.00     0.163 HD
BRANCH   4   7
ATOM      7  C   UNL A   1      33.307  22.473  26.026  1.00  0.00     0.200 C 
BRANCH   7   8
ATOM      8  C   UNL A   1      32.771  21.458  24.986  1.00  0.00     0.143 C 
ATOM      9  C   UNL A   1      32.462  22.068  23.624  1.00  0.00     0.041 C 
BRANCH   8  10
ATOM     10  O   UNL A   1      31.572  20.869  25.516  1.00  0.00    -0.391 OA
ATOM     11  H   UNL A   1      31.591  20.914  26.485  1.00  0.00     0.211 HD
ENDBRANCH   8  10
ENDBRANCH   7   8
BRANCH   7  12
ATOM     12  N   UNL A   1      32.156  23.033  26.766  1.00  0.00    -0.338 N 
ATOM     13  C   UNL A   1      31.389  24.140  26.534  1.00  0.00     0.252 C 
ATOM     14  H   UNL A   1      31.897  22.518  27.565  1.00  0.00     0.164 HD
ATOM     15  O   UNL A   1      30.295  24.267  27.075  1.00  0.00    -0.269 OA
BRANCH  13  16
ATOM     16  C   UNL A   1      31.943  25.284  25.793  1.00  0.00     0.041 A 
ATOM     17  C   UNL A   1      33.247  25.737  25.955  1.00  0.00     0.015 A 
ATOM     18  C   UNL A   1      31.073  25.940  24.918  1.00  0.00     0.035 A 
ATOM     19  C   UNL A   1      33.655  26.896  25.284  1.00  0.00     0.023 A 
ATOM     20  C   UNL A   1      31.483  27.100  24.246  1.00  0.00     0.086 A 
ATOM     21  C   UNL A   1      32.777  27.588  24.431  1.00  0.00     0.059 A 
ATOM     22  Cl  UNL A   1      33.419  28.979  23.645  1.00  0.00    -0.083 Cl
BRANCH  20  23
ATOM     23  S   UNL A   1      30.252  27.919  23.265  1.00  0.00     0.177 S 
ATOM     24  C   UNL A   1      28.755  27.050  23.636  1.00  0.00     0.164 C 
ATOM     25  O   UNL A   1      30.120  29.266  23.809  1.00  0.00    -0.224 OA
ATOM     26  O   UNL A   1      30.563  27.766  21.864  1.00  0.00    -0.224 OA
ENDBRANCH  20  23
ENDBRANCH  13  16
ENDBRANCH   7  12
ENDBRANCH   4   7
ENDBRANCH   2   3
ENDBRANCH   1   2
BRANCH   1  27
ATOM     27  C   UNL A   1      37.594  20.241  24.971  1.00  0.00     0.023 C 
BRANCH  27  28
ATOM     28  C   UNL A   1      38.898  20.624  25.663  1.00  0.00     0.116 C 
BRANCH  28  29
ATOM     29  N   UNL A   1      39.841  19.517  25.725  1.00  0.00    -0.352 N 
ATOM     30  C   UNL A   1      41.168  19.567  26.081  1.00  0.00     0.251 C 
ATOM     31  H   UNL A   1      39.487  18.630  25.483  1.00  0.00     0.163 HD
ATOM     32  O   UNL A   1      41.896  18.587  25.967  1.00  0.00    -0.269 OA
BRANCH  30  33
ATOM     33  C   UNL A   1      41.705  20.848  26.575  1.00  0.00     0.039 A 
ATOM     34  C   UNL A   1      42.252  21.763  25.677  1.00  0.00     0.014 A 
ATOM     35  C   UNL A   1      41.567  21.169  27.926  1.00  0.00     0.014 A 
ATOM     36  C   UNL A   1      42.599  23.039  26.128  1.00  0.00     0.010 A 
ATOM     37  C   UNL A   1      41.845  22.458  28.359  1.00  0.00     0.010 A 
ATOM     38  C   UNL A   1      42.361  23.408  27.464  1.00  0.00    -0.014 A 
BRANCH  38  39
ATOM     39  C   UNL A   1      42.638  24.777  27.965  1.00  0.00     0.031 A 
ATOM     40  C   UNL A   1      44.028  25.139  28.409  1.00  0.00     0.074 A 
ATOM     41  C   UNL A   1      41.629  25.658  28.111  1.00  0.00     0.049 A 
ATOM     42  N   UNL A   1      44.451  26.222  29.010  1.00  0.00    -0.248 NA
ATOM     43  C   UNL A   1      45.077  24.135  28.170  1.00  0.00     0.031 C 
ATOM     44  C   UNL A   1      40.229  25.414  27.757  1.00  0.00     0.029 A 
ATOM     45  N   UNL A   1      41.625  26.933  28.620  1.00  0.00    -0.354 N 
ATOM     46  C   UNL A   1      45.805  26.016  29.243  1.00  0.00     0.074 A 
ATOM     47  C   UNL A   1      46.124  24.691  28.761  1.00  0.00     0.031 C 
ATOM     48  C   UNL A   1      39.507  26.509  28.044  1.00  0.00     0.029 A 
ATOM     49  C   UNL A   1      40.380  27.514  28.641  1.00  0.00     0.049 A 
ATOM     50  H   UNL A   1      42.437  27.387  28.940  1.00  0.00     0.167 HD
ATOM     51  C   UNL A   1      46.706  26.865  29.792  1.00  0.00     0.037 A 
ATOM     52  C   UNL A   1      39.987  28.715  29.104  1.00  0.00     0.037 A 
ATOM     53  C   UNL A   1      46.391  28.194  30.245  1.00  0.00     0.049 A 
ATOM     54  C   UNL A   1      41.007  29.639  29.712  1.00  0.00     0.074 A 
ATOM     55  C   UNL A   1      47.242  29.147  30.778  1.00  0.00     0.029 A 
ATOM     56  N   UNL A   1      45.126  28.758  30.210  1.00  0.00    -0.354 N 
ATOM     57  N   UNL A   1      42.293  29.451  29.885  1.00  0.00    -0.248 NA
ATOM     58  C   UNL A   1      40.522  30.945  30.185  1.00  0.00     0.031 C 
ATOM     59  C   UNL A   1      46.485  30.280  31.090  1.00  0.00     0.029 A 
ATOM     60  C   UNL A   1      45.173  30.047  30.713  1.00  0.00     0.049 A 
ATOM     61  H   UNL A   1      44.316  28.310  29.876  1.00  0.00     0.167 HD
ATOM     62  C   UNL A   1      42.776  30.626  30.446  1.00  0.00     0.074 A 
ATOM     63  C   UNL A   1      41.647  31.521  30.586  1.00  0.00     0.031 C 
ATOM     64  C   UNL A   1      44.044  30.936  30.809  1.00  0.00     0.037 A 
BRANCH  51  65
ATOM     65  C   UNL A   1      48.121  26.385  29.916  1.00  0.00     0.057 A 
ATOM     66  C   UNL A   1      49.057  26.583  28.894  1.00  0.00     0.134 A 
ATOM     67  C   UNL A   1      48.564  25.748  31.084  1.00  0.00     0.134 A 
ATOM     68  F   UNL A   1      48.694  27.176  27.746  1.00  0.00    -0.206 F 
ATOM     69  C   UNL A   1      50.376  26.143  29.015  1.00  0.00     0.040 A 
ATOM     70  C   UNL A   1      49.887  25.328  31.227  1.00  0.00     0.040 A 
ATOM     71  F   UNL A   1      47.721  25.532  32.105  1.00  0.00    -0.206 F 
ATOM     72  C   UNL A   1      50.795  25.520  30.188  1.00  0.00     0.006 A 
ENDBRANCH  51  65
BRANCH  52  73
ATOM     73  C   UNL A   1      38.567  29.133  28.990  1.00  0.00     0.057 A 
ATOM     74  C   UNL A   1      38.063  29.636  27.784  1.00  0.00     0.134 A 
ATOM     75  C   UNL A   1      37.688  29.058  30.075  1.00  0.00     0.134 A 
ATOM     76  F   UNL A   1      38.863  29.750  26.714  1.00  0.00    -0.206 F 
ATOM     77  C   UNL A   1      36.742  30.071  27.668  1.00  0.00     0.040 A 
ATOM     78  C   UNL A   1      36.357  29.466  29.967  1.00  0.00     0.040 A 
ATOM     79  F   UNL A   1      38.107  28.578  31.255  1.00  0.00    -0.206 F 
ATOM     80  C   UNL A   1      35.884  29.983  28.761  1.00  0.00     0.006 A 
ENDBRANCH  52  73
BRANCH  64  81
ATOM     81  C   UNL A   1      44.297  32.321  31.325  1.00  0.00     0.057 A 
ATOM     82  C   UNL A   1      44.575  33.392  30.468  1.00  0.00     0.134 A 
ATOM     83  C   UNL A   1      44.197  32.592  32.695  1.00  0.00     0.134 A 
ATOM     84  F   UNL A   1      44.696  33.194  29.147  1.00  0.00    -0.206 F 
ATOM     85  C   UNL A   1      44.754  34.686  30.959  1.00  0.00     0.040 A 
ATOM     86  C   UNL A   1      44.352  33.885  33.195  1.00  0.00     0.040 A 
ATOM     87  F   UNL A   1      43.926  31.609  33.566  1.00  0.00    -0.206 F 
ATOM     88  C   UNL A   1      44.633  34.937  32.326  1.00  0.00     0.006 A 
ENDBRANCH  64  81
ENDBRANCH  38  39
ENDBRANCH  30  33
ENDBRANCH  28  29
ENDBRANCH  27  28
ENDBRANCH   1  27
TORSDOF 16
ENDMDL
MODEL 2
REMARK VINA RESULT:     -11.6      0.382      6.070
REMARK SMILES C[C@H](O)[C@@H](NC(=O)c1ccc(Cl)c(S(C)(=O)=O)c1)C(=O)NCCCCNC(=O)c1ccc(-c2c3nc(c(-c4c(F)cccc4F)c4ccc([nH]4)c(-c4c(F)cccc4F)c4nc(c(-c5c(F)cccc5F)c5ccc2[nH]5)C=C4)C=C3)cc1
REMARK SMILES IDX 23 1 22 2 21 3 19 4 20 5 4 7 2 8 1 9 3 10 5 12 6 13 7 15
REMARK SMILES IDX 8 16 9 17 18 18 10 19 13 20 11 21 12 22 14 23 15 24 16 25
REMARK SMILES IDX 17 26 24 27 25 28 26 29 27 30 28 32 29 33 30 34 82 35 31 36
REMARK SMILES IDX 81 37 32 38 33 39 34 40 75 41 35 42 80 43 74 44 76 45 36 46
REMARK SMILES IDX 79 47 73 48 72 49 37 51 63 52 46 53 62 54 47 55 50 56 61 57
REMARK SMILES IDX 77 58 48 59 49 60 60 62 78 63 51 64 38 65 39 66 44 67 40 68
REMARK SMILES IDX 41 69 43 70 45 71 42 72 64 73 65 74 70 75 66 76 67 77 69 78
REMARK SMILES IDX 71 79 68 80 52 81 53 82 58 83 54 84 55 85 57 86 59 87 56 88
REMARK H PARENT 21 6 3 11 5 14 26 31 76 50 50 61
REMARK Flexibility Score: inf
ROOT
ATOM      1  C   UNL A   1      36.772  22.203  24.443  1.00  0.00     0.023 C 
ENDROOT
BRANCH   1   2
ATOM      2  C   UNL A   1      36.234  23.011  25.622  1.00  0.00     0.116 C 
BRANCH   2   3
ATOM      3  N   UNL A   1      35.593  22.136  26.583  1.00  0.00    -0.354 N 
ATOM      4  C   UNL A   1      34.276  21.924  26.838  1.00  0.00     0.245 C 
ATOM      5  O   UNL A   1      33.996  21.250  27.833  1.00  0.00    -0.273 OA
ATOM      6  H   UNL A   1      36.211  21.610  27.139  1.00  0.00     0.163 HD
BRANCH   4   7
ATOM      7  C   UNL A   1      33.162  22.574  26.004  1.00  0.00     0.200 C 
BRANCH   7   8
ATOM      8  C   UNL A   1      32.663  21.571  24.934  1.00  0.00     0.143 C 
ATOM      9  C   UNL A   1      31.999  22.226  23.730  1.00  0.00     0.041 C 
BRANCH   8  10
ATOM     10  O   UNL A   1      31.723  20.682  25.560  1.00  0.00    -0.391 OA
ATOM     11  H   UNL A   1      32.022  20.478  26.461  1.00  0.00     0.211 HD
ENDBRANCH   8  10
ENDBRANCH   7   8
BRANCH   7  12
ATOM     12  N   UNL A   1      31.987  23.088  26.742  1.00  0.00    -0.338 N 
ATOM     13  C   UNL A   1      31.217  24.200  26.544  1.00  0.00     0.252 C 
ATOM     14  H   UNL A   1      31.713  22.533  27.508  1.00  0.00     0.164 HD
ATOM     15  O   UNL A   1      30.108  24.292  27.062  1.00  0.00    -0.269 OA
BRANCH  13  16
ATOM     16  C   UNL A   1      31.779  25.382  25.873  1.00  0.00     0.041 A 
ATOM     17  C   UNL A   1      33.044  25.887  26.152  1.00  0.00     0.015 A 
ATOM     18  C   UNL A   1      30.956  26.020  24.940  1.00  0.00     0.035 A 
ATOM     19  C   UNL A   1      33.453  27.077  25.538  1.00  0.00     0.023 A 
ATOM     20  C   UNL A   1      31.368  27.211  24.326  1.00  0.00     0.086 A 
ATOM     21  C   UNL A   1      32.620  27.749  24.628  1.00  0.00     0.059 A 
ATOM     22  Cl  UNL A   1      33.262  29.184  23.924  1.00  0.00    -0.083 Cl
BRANCH  20  23
ATOM     23  S   UNL A   1      30.187  27.997  23.261  1.00  0.00     0.177 S 
ATOM     24  C   UNL A   1      28.671  27.147  23.593  1.00  0.00     0.164 C 
ATOM     25  O   UNL A   1      30.037  29.363  23.749  1.00  0.00    -0.224 OA
ATOM     26  O   UNL A   1      30.562  27.793  21.882  1.00  0.00    -0.224 OA
ENDBRANCH  20  23
ENDBRANCH  13  16
ENDBRANCH   7  12
ENDBRANCH   4   7
ENDBRANCH   2   3
ENDBRANCH   1   2
BRANCH   1  27
ATOM     27  C   UNL A   1      37.483  20.907  24.845  1.00  0.00     0.023 C 
BRANCH  27  28
ATOM     28  C   UNL A   1      38.766  21.106  25.644  1.00  0.00     0.116 C 
BRANCH  28  29
ATOM     29  N   UNL A   1      39.627  19.933  25.617  1.00  0.00    -0.352 N 
ATOM     30  C   UNL A   1      40.954  19.860  25.972  1.00  0.00     0.251 C 
ATOM     31  H   UNL A   1      39.212  19.095  25.309  1.00  0.00     0.163 HD
ATOM     32  O   UNL A   1      41.610  18.843  25.779  1.00  0.00    -0.269 OA
BRANCH  30  33
ATOM     33  C   UNL A   1      41.580  21.057  26.562  1.00  0.00     0.039 A 
ATOM     34  C   UNL A   1      42.120  22.038  25.731  1.00  0.00     0.014 A 
ATOM     35  C   UNL A   1      41.533  21.239  27.944  1.00  0.00     0.014 A 
ATOM     36  C   UNL A   1      42.555  23.243  26.291  1.00  0.00     0.010 A 
ATOM     37  C   UNL A   1      41.898  22.462  28.491  1.00  0.00     0.010 A 
ATOM     38  C   UNL A   1      42.410  23.477  27.669  1.00  0.00    -0.014 A 
BRANCH  38  39
ATOM     39  C   UNL A   1      42.782  24.773  28.291  1.00  0.00     0.031 A 
ATOM     40  C   UNL A   1      41.733  25.831  28.487  1.00  0.00     0.074 A 
ATOM     41  C   UNL A   1      44.070  25.032  28.586  1.00  0.00     0.049 A 
ATOM     42  N   UNL A   1      41.872  27.075  28.871  1.00  0.00    -0.248 NA
ATOM     43  C   UNL A   1      40.345  25.447  28.181  1.00  0.00     0.031 C 
ATOM     44  C   UNL A   1      45.189  24.104  28.405  1.00  0.00     0.029 A 
ATOM     45  N   UNL A   1      44.660  26.168  29.084  1.00  0.00    -0.354 N 
ATOM     46  C   UNL A   1      40.597  27.625  28.827  1.00  0.00     0.074 A 
ATOM     47  C   UNL A   1      39.706  26.597  28.337  1.00  0.00     0.031 C 
ATOM     48  C   UNL A   1      46.324  24.702  28.800  1.00  0.00     0.029 A 
ATOM     49  C   UNL A   1      46.023  26.066  29.221  1.00  0.00     0.049 A 
ATOM     50  H   UNL A   1      44.154  26.978  29.320  1.00  0.00     0.167 HD
ATOM     51  C   UNL A   1      40.201  28.871  29.183  1.00  0.00     0.037 A 
ATOM     52  C   UNL A   1      46.928  26.976  29.627  1.00  0.00     0.037 A 
ATOM     53  C   UNL A   1      41.086  29.882  29.696  1.00  0.00     0.049 A 
ATOM     54  C   UNL A   1      46.464  28.354  30.015  1.00  0.00     0.074 A 
ATOM     55  C   UNL A   1      40.776  31.162  30.124  1.00  0.00     0.029 A 
ATOM     56  N   UNL A   1      42.453  29.724  29.859  1.00  0.00    -0.354 N 
ATOM     57  N   UNL A   1      45.249  28.848  30.012  1.00  0.00    -0.248 NA
ATOM     58  C   UNL A   1      47.495  29.300  30.466  1.00  0.00     0.031 C 
ATOM     59  C   UNL A   1      41.961  31.787  30.521  1.00  0.00     0.029 A 
ATOM     60  C   UNL A   1      43.001  30.884  30.379  1.00  0.00     0.049 A 
ATOM     61  H   UNL A   1      42.958  28.908  29.638  1.00  0.00     0.167 HD
ATOM     62  C   UNL A   1      45.365  30.143  30.499  1.00  0.00     0.074 A 
ATOM     63  C   UNL A   1      46.766  30.361  30.785  1.00  0.00     0.031 C 
ATOM     64  C   UNL A   1      44.395  31.068  30.694  1.00  0.00     0.037 A 
BRANCH  51  65
ATOM     65  C   UNL A   1      38.745  29.199  29.042  1.00  0.00     0.057 A 
ATOM     66  C   UNL A   1      38.189  29.564  27.809  1.00  0.00     0.134 A 
ATOM     67  C   UNL A   1      37.880  29.116  30.142  1.00  0.00     0.134 A 
ATOM     68  F   UNL A   1      38.965  29.673  26.721  1.00  0.00    -0.206 F 
ATOM     69  C   UNL A   1      36.832  29.860  27.679  1.00  0.00     0.040 A 
ATOM     70  C   UNL A   1      36.516  29.384  30.018  1.00  0.00     0.040 A 
ATOM     71  F   UNL A   1      38.345  28.766  31.351  1.00  0.00    -0.206 F 
ATOM     72  C   UNL A   1      35.990  29.763  28.784  1.00  0.00     0.006 A 
ENDBRANCH  51  65
BRANCH  52  73
ATOM     73  C   UNL A   1      48.365  26.614  29.717  1.00  0.00     0.057 A 
ATOM     74  C   UNL A   1      49.232  26.850  28.643  1.00  0.00     0.134 A 
ATOM     75  C   UNL A   1      48.902  26.014  30.861  1.00  0.00     0.134 A 
ATOM     76  F   UNL A   1      48.771  27.405  27.513  1.00  0.00    -0.206 F 
ATOM     77  C   UNL A   1      50.577  26.480  28.694  1.00  0.00     0.040 A 
ATOM     78  C   UNL A   1      50.252  25.661  30.935  1.00  0.00     0.040 A 
ATOM     79  F   UNL A   1      48.126  25.769  31.927  1.00  0.00    -0.206 F 
ATOM     80  C   UNL A   1      51.091  25.886  29.845  1.00  0.00     0.006 A 
ENDBRANCH  52  73
BRANCH  64  81
ATOM     81  C   UNL A   1      44.796  32.374  31.310  1.00  0.00     0.057 A 
ATOM     82  C   UNL A   1      45.160  33.480  30.533  1.00  0.00     0.134 A 
ATOM     83  C   UNL A   1      44.754  32.541  32.700  1.00  0.00     0.134 A 
ATOM     84  F   UNL A   1      45.231  33.379  29.197  1.00  0.00    -0.206 F 
ATOM     85  C   UNL A   1      45.477  34.706  31.119  1.00  0.00     0.040 A 
ATOM     86  C   UNL A   1      45.048  33.767  33.296  1.00  0.00     0.040 A 
ATOM     87  F   UNL A   1      44.406  31.520  33.497  1.00  0.00    -0.206 F 
ATOM     88  C   UNL A   1      45.412  34.854  32.504  1.00  0.00     0.006 A 
ENDBRANCH  64  81
ENDBRANCH  38  39
ENDBRANCH  30  33
ENDBRANCH  28  29
ENDBRANCH  27  28
ENDBRANCH   1  27
TORSDOF 16
ENDMDL
MODEL 3
REMARK VINA RESULT:     -11.5      1.549      6.384
REMARK SMILES C[C@H](O)[C@@H](NC(=O)c1ccc(Cl)c(S(C)(=O)=O)c1)C(=O)NCCCCNC(=O)c1ccc(-c2c3nc(c(-c4c(F)cccc4F)c4ccc([nH]4)c(-c4c(F)cccc4F)c4nc(c(-c5c(F)cccc5F)c5ccc2[nH]5)C=C4)C=C3)cc1
REMARK SMILES IDX 23 1 22 2 21 3 19 4 20 5 4 7 2 8 1 9 3 10 5 12 6 13 7 15
REMARK SMILES IDX 8 16 9 17 18 18 10 19 13 20 11 21 12 22 14 23 15 24 16 25
REMARK SMILES IDX 17 26 24 27 25 28 26 29 27 30 28 32 29 33 30 34 82 35 31 36
REMARK SMILES IDX 81 37 32 38 33 39 34 40 75 41 35 42 80 43 74 44 76 45 36 46
REMARK SMILES IDX 79 47 73 48 72 49 37 51 63 52 46 53 62 54 47 55 50 56 61 57
REMARK SMILES IDX 77 58 48 59 49 60 60 62 78 63 51 64 38 65 39 66 44 67 40 68
REMARK SMILES IDX 41 69 43 70 45 71 42 72 64 73 65 74 70 75 66 76 67 77 69 78
REMARK SMILES IDX 71 79 68 80 52 81 53 82 58 83 54 84 55 85 57 86 59 87 56 88
REMARK H PARENT 21 6 3 11 5 14 26 31 76 50 50 61
REMARK Flexibility Score: inf
ROOT
ATOM      1  C   UNL A   1      37.398  21.808  24.273  1.00  0.00     0.023 C 
ENDROOT
BRANCH   1   2
ATOM      2  C   UNL A   1      35.956  22.216  24.564  1.00  0.00     0.116 C 
BRANCH   2   3
ATOM      3  N   UNL A   1      35.618  21.928  25.942  1.00  0.00    -0.354 N 
ATOM      4  C   UNL A   1      34.468  21.451  26.485  1.00  0.00     0.245 C 
ATOM      5  O   UNL A   1      34.381  21.458  27.716  1.00  0.00    -0.273 OA
ATOM      6  H   UNL A   1      36.338  22.104  26.590  1.00  0.00     0.163 HD
BRANCH   4   7
ATOM      7  C   UNL A   1      33.270  21.019  25.626  1.00  0.00     0.200 C 
BRANCH   7   8
ATOM      8  C   UNL A   1      33.316  19.486  25.408  1.00  0.00     0.143 C 
ATOM      9  C   UNL A   1      32.462  18.999  24.244  1.00  0.00     0.041 C 
BRANCH   8  10
ATOM     10  O   UNL A   1      32.865  18.851  26.615  1.00  0.00    -0.391 OA
ATOM     11  H   UNL A   1      33.625  18.677  27.193  1.00  0.00     0.211 HD
ENDBRANCH   8  10
ENDBRANCH   7   8
BRANCH   7  12
ATOM     12  N   UNL A   1      31.925  21.379  26.124  1.00  0.00    -0.338 N 
ATOM     13  C   UNL A   1      31.155  22.489  25.916  1.00  0.00     0.252 C 
ATOM     14  H   UNL A   1      31.512  20.700  26.706  1.00  0.00     0.164 HD
ATOM     15  O   UNL A   1      29.952  22.469  26.156  1.00  0.00    -0.269 OA
BRANCH  13  16
ATOM     16  C   UNL A   1      31.785  23.778  25.589  1.00  0.00     0.041 A 
ATOM     17  C   UNL A   1      31.959  24.797  26.518  1.00  0.00     0.015 A 
ATOM     18  C   UNL A   1      32.183  23.959  24.262  1.00  0.00     0.035 A 
ATOM     19  C   UNL A   1      32.474  26.027  26.092  1.00  0.00     0.023 A 
ATOM     20  C   UNL A   1      32.700  25.191  23.837  1.00  0.00     0.086 A 
ATOM     21  C   UNL A   1      32.842  26.235  24.752  1.00  0.00     0.059 A 
ATOM     22  Cl  UNL A   1      33.491  27.785  24.372  1.00  0.00    -0.083 Cl
BRANCH  20  23
ATOM     23  S   UNL A   1      33.048  25.343  22.104  1.00  0.00     0.177 S 
ATOM     24  C   UNL A   1      31.597  26.108  21.437  1.00  0.00     0.164 C 
ATOM     25  O   UNL A   1      34.140  26.302  21.986  1.00  0.00    -0.224 OA
ATOM     26  O   UNL A   1      33.212  24.033  21.522  1.00  0.00    -0.224 OA
ENDBRANCH  20  23
ENDBRANCH  13  16
ENDBRANCH   7  12
ENDBRANCH   4   7
ENDBRANCH   2   3
ENDBRANCH   1   2
BRANCH   1  27
ATOM     27  C   UNL A   1      37.852  20.543  25.009  1.00  0.00     0.023 C 
BRANCH  27  28
ATOM     28  C   UNL A   1      39.100  20.720  25.867  1.00  0.00     0.116 C 
BRANCH  28  29
ATOM     29  N   UNL A   1      39.964  19.548  25.840  1.00  0.00    -0.352 N 
ATOM     30  C   UNL A   1      41.319  19.502  26.068  1.00  0.00     0.251 C 
ATOM     31  H   UNL A   1      39.527  18.690  25.634  1.00  0.00     0.163 HD
ATOM     32  O   UNL A   1      41.961  18.474  25.886  1.00  0.00    -0.269 OA
BRANCH  30  33
ATOM     33  C   UNL A   1      41.991  20.740  26.507  1.00  0.00     0.039 A 
ATOM     34  C   UNL A   1      42.437  21.659  25.559  1.00  0.00     0.014 A 
ATOM     35  C   UNL A   1      42.079  21.019  27.871  1.00  0.00     0.014 A 
ATOM     36  C   UNL A   1      42.914  22.902  25.986  1.00  0.00     0.010 A 
ATOM     37  C   UNL A   1      42.485  22.278  28.290  1.00  0.00     0.010 A 
ATOM     38  C   UNL A   1      42.904  23.234  27.352  1.00  0.00    -0.014 A 
BRANCH  38  39
ATOM     39  C   UNL A   1      43.325  24.570  27.841  1.00  0.00     0.031 A 
ATOM     40  C   UNL A   1      42.284  25.606  28.160  1.00  0.00     0.074 A 
ATOM     41  C   UNL A   1      44.634  24.884  27.903  1.00  0.00     0.049 A 
ATOM     42  N   UNL A   1      42.436  26.872  28.456  1.00  0.00    -0.248 NA
ATOM     43  C   UNL A   1      40.880  25.165  28.110  1.00  0.00     0.031 C 
ATOM     44  C   UNL A   1      45.741  23.981  27.580  1.00  0.00     0.029 A 
ATOM     45  N   UNL A   1      45.254  26.061  28.240  1.00  0.00    -0.354 N 
ATOM     46  C   UNL A   1      41.152  27.381  28.601  1.00  0.00     0.074 A 
ATOM     47  C   UNL A   1      40.232  26.302  28.317  1.00  0.00     0.031 C 
ATOM     48  C   UNL A   1      46.902  24.632  27.749  1.00  0.00     0.029 A 
ATOM     49  C   UNL A   1      46.624  26.008  28.151  1.00  0.00     0.049 A 
ATOM     50  H   UNL A   1      44.763  26.867  28.519  1.00  0.00     0.167 HD
ATOM     51  C   UNL A   1      40.774  28.631  28.959  1.00  0.00     0.037 A 
ATOM     52  C   UNL A   1      47.548  26.965  28.355  1.00  0.00     0.037 A 
ATOM     53  C   UNL A   1      41.692  29.694  29.268  1.00  0.00     0.049 A 
ATOM     54  C   UNL A   1      47.102  28.346  28.750  1.00  0.00     0.074 A 
ATOM     55  C   UNL A   1      41.409  30.985  29.681  1.00  0.00     0.029 A 
ATOM     56  N   UNL A   1      43.072  29.586  29.206  1.00  0.00    -0.354 N 
ATOM     57  N   UNL A   1      45.887  28.803  28.928  1.00  0.00    -0.248 NA
ATOM     58  C   UNL A   1      48.158  29.345  28.976  1.00  0.00     0.031 C 
ATOM     59  C   UNL A   1      42.618  31.666  29.843  1.00  0.00     0.029 A 
ATOM     60  C   UNL A   1      43.654  30.787  29.571  1.00  0.00     0.049 A 
ATOM     61  H   UNL A   1      43.564  28.775  28.942  1.00  0.00     0.167 HD
ATOM     62  C   UNL A   1      46.032  30.125  29.327  1.00  0.00     0.074 A 
ATOM     63  C   UNL A   1      47.452  30.400  29.363  1.00  0.00     0.031 C 
ATOM     64  C   UNL A   1      45.073  31.029  29.638  1.00  0.00     0.037 A 
BRANCH  51  65
ATOM     65  C   UNL A   1      39.303  28.908  29.050  1.00  0.00     0.057 A 
ATOM     66  C   UNL A   1      38.599  28.755  30.252  1.00  0.00     0.134 A 
ATOM     67  C   UNL A   1      38.587  29.367  27.936  1.00  0.00     0.134 A 
ATOM     68  F   UNL A   1      39.223  28.308  31.352  1.00  0.00    -0.206 F 
ATOM     69  C   UNL A   1      37.232  29.022  30.336  1.00  0.00     0.040 A 
ATOM     70  C   UNL A   1      37.226  29.663  28.015  1.00  0.00     0.040 A 
ATOM     71  F   UNL A   1      39.201  29.542  26.756  1.00  0.00    -0.206 F 
ATOM     72  C   UNL A   1      36.544  29.485  29.218  1.00  0.00     0.006 A 
ENDBRANCH  51  65
BRANCH  52  73
ATOM     73  C   UNL A   1      48.993  26.651  28.219  1.00  0.00     0.057 A 
ATOM     74  C   UNL A   1      49.754  26.282  29.335  1.00  0.00     0.134 A 
ATOM     75  C   UNL A   1      49.650  26.725  26.986  1.00  0.00     0.134 A 
ATOM     76  F   UNL A   1      49.184  26.211  30.546  1.00  0.00    -0.206 F 
ATOM     77  C   UNL A   1      51.122  26.021  29.235  1.00  0.00     0.040 A 
ATOM     78  C   UNL A   1      51.013  26.444  26.867  1.00  0.00     0.040 A 
ATOM     79  F   UNL A   1      48.976  27.065  25.878  1.00  0.00    -0.206 F 
ATOM     80  C   UNL A   1      51.754  26.099  27.996  1.00  0.00     0.006 A 
ENDBRANCH  52  73
BRANCH  64  81
ATOM     81  C   UNL A   1      45.521  32.377  30.116  1.00  0.00     0.057 A 
ATOM     82  C   UNL A   1      45.694  33.455  29.239  1.00  0.00     0.134 A 
ATOM     83  C   UNL A   1      45.718  32.613  31.482  1.00  0.00     0.134 A 
ATOM     84  F   UNL A   1      45.532  33.290  27.917  1.00  0.00    -0.206 F 
ATOM     85  C   UNL A   1      46.058  34.719  29.706  1.00  0.00     0.040 A 
ATOM     86  C   UNL A   1      46.060  33.876  31.963  1.00  0.00     0.040 A 
ATOM     87  F   UNL A   1      45.560  31.622  32.373  1.00  0.00    -0.206 F 
ATOM     88  C   UNL A   1      46.232  34.934  31.073  1.00  0.00     0.006 A 
ENDBRANCH  64  81
ENDBRANCH  38  39
ENDBRANCH  30  33
ENDBRANCH  28  29
ENDBRANCH  27  28
ENDBRANCH   1  27
TORSDOF 16
ENDMDL
