MODEL 1
REMARK VINA RESULT:     -12.4      0.000      0.000
REMARK SMILES O=C(CCC(=O)/[NH+]=C1\S[C@H]2CS(=O)(=O)C[C@@H]2N1c1ccc(Oc2ccccc2)cc1)NCCCCNC(=O)c1ccc(-c2c3nc(c(-c4c(F)cccc4F)c4ccc([nH]4)c(-c4c(F)cccc4F)c4nc(c(-c5c(F)cccc5F)c5ccc2[nH]5)C=C4)C=C3)cc1
REMARK SMILES IDX 32 1 31 2 2 3 1 4 3 6 4 7 5 8 6 9 7 10 8 11 9 13 17 14 10 15
REMARK SMILES IDX 16 16 11 17 15 18 12 19 13 20 14 21 18 22 19 23 30 24 20 25
REMARK SMILES IDX 29 26 21 27 22 28 23 29 24 30 28 31 25 32 27 33 26 34 33 35
REMARK SMILES IDX 34 36 35 37 36 38 37 39 38 41 39 42 40 43 92 44 41 45 91 46
REMARK SMILES IDX 42 47 43 48 44 49 85 50 45 51 90 52 84 53 86 54 46 55 89 56
REMARK SMILES IDX 83 57 82 58 47 60 73 61 56 62 72 63 57 64 60 65 71 66 87 67
REMARK SMILES IDX 58 68 59 69 70 71 88 72 61 73 48 74 49 75 54 76 50 77 51 78
REMARK SMILES IDX 53 79 55 80 52 81 74 82 75 83 80 84 76 85 77 86 79 87 81 88
REMARK SMILES IDX 78 89 62 90 63 91 68 92 64 93 65 94 67 95 69 96 66 97
REMARK H PARENT 31 5 7 12 36 40 86 59 60 70
REMARK Flexibility Score: inf
ROOT
ATOM      1  C   UNL A   1      32.110  29.746  25.790  1.00  0.00     0.116 C 
ENDROOT
BRANCH   1   2
ATOM      2  N   UNL A   1      31.577  28.538  26.396  1.00  0.00    -0.356 N 
ATOM      3  C   UNL A   1      31.444  27.283  25.894  1.00  0.00     0.220 C 
ATOM      4  O   UNL A   1      31.031  26.391  26.638  1.00  0.00    -0.275 OA
ATOM      5  H   UNL A   1      31.261  28.647  27.322  1.00  0.00     0.163 HD
BRANCH   3   6
ATOM      6  C   UNL A   1      31.797  26.992  24.461  1.00  0.00     0.112 C 
BRANCH   6   7
ATOM      7  C   UNL A   1      33.186  26.448  24.154  1.00  0.00     0.138 C 
BRANCH   7   8
ATOM      8  C   UNL A   1      34.201  26.066  25.230  1.00  0.00     0.308 C 
ATOM      9  O   UNL A   1      34.405  26.858  26.150  1.00  0.00    -0.247 OA
ATOM     10  N   UNL A   1      34.895  24.893  25.156  1.00  0.00    -0.204 N 
ATOM     11  C   UNL A   1      34.337  23.737  25.280  1.00  0.00     0.319 C 
ATOM     12  H   UNL A   1      35.866  24.931  25.000  1.00  0.00     0.316 HD
ATOM     13  S   UNL A   1      32.578  23.481  25.472  1.00  0.00    -0.029 SA
ATOM     14  N   UNL A   1      34.982  22.498  25.183  1.00  0.00    -0.217 N 
ATOM     15  C   UNL A   1      32.799  21.693  25.463  1.00  0.00     0.120 C 
ATOM     16  C   UNL A   1      34.089  21.472  24.660  1.00  0.00     0.212 C 
ATOM     17  C   UNL A   1      31.783  20.797  24.809  1.00  0.00     0.156 C 
ATOM     18  C   UNL A   1      34.376  19.997  24.834  1.00  0.00     0.188 C 
ATOM     19  S   UNL A   1      32.733  19.275  24.655  1.00  0.00     0.155 S 
ATOM     20  O   UNL A   1      32.473  18.457  25.825  1.00  0.00    -0.229 OA
ATOM     21  O   UNL A   1      32.586  18.772  23.311  1.00  0.00    -0.229 OA
BRANCH  14  22
ATOM     22  C   UNL A   1      36.343  22.300  25.415  1.00  0.00     0.128 A 
ATOM     23  C   UNL A   1      37.111  23.152  26.221  1.00  0.00     0.056 A 
ATOM     24  C   UNL A   1      36.989  21.178  24.863  1.00  0.00     0.056 A 
ATOM     25  C   UNL A   1      38.457  22.870  26.484  1.00  0.00     0.051 A 
ATOM     26  C   UNL A   1      38.330  20.886  25.130  1.00  0.00     0.051 A 
ATOM     27  C   UNL A   1      39.060  21.726  25.956  1.00  0.00     0.127 A 
BRANCH  27  28
ATOM     28  O   UNL A   1      40.305  21.428  26.442  1.00  0.00    -0.457 OA
BRANCH  28  29
ATOM     29  C   UNL A   1      41.204  22.426  26.748  1.00  0.00     0.127 A 
ATOM     30  C   UNL A   1      42.193  22.662  25.788  1.00  0.00     0.047 A 
ATOM     31  C   UNL A   1      41.333  22.959  28.031  1.00  0.00     0.047 A 
ATOM     32  C   UNL A   1      43.339  23.381  26.121  1.00  0.00     0.004 A 
ATOM     33  C   UNL A   1      42.467  23.713  28.352  1.00  0.00     0.004 A 
ATOM     34  C   UNL A   1      43.479  23.901  27.407  1.00  0.00     0.000 A 
ENDBRANCH  28  29
ENDBRANCH  27  28
ENDBRANCH  14  22
ENDBRANCH   7   8
ENDBRANCH   6   7
ENDBRANCH   3   6
ENDBRANCH   1   2
BRANCH   1  35
ATOM     35  C   UNL A   1      31.051  30.788  25.426  1.00  0.00     0.023 C 
BRANCH  35  36
ATOM     36  C   UNL A   1      31.039  32.045  26.295  1.00  0.00     0.023 C 
BRANCH  36  37
ATOM     37  C   UNL A   1      32.372  32.452  26.906  1.00  0.00     0.116 C 
BRANCH  37  38
ATOM     38  N   UNL A   1      32.345  33.798  27.441  1.00  0.00    -0.352 N 
ATOM     39  C   UNL A   1      33.124  34.392  28.402  1.00  0.00     0.251 C 
ATOM     40  H   UNL A   1      31.655  34.381  27.052  1.00  0.00     0.163 HD
ATOM     41  O   UNL A   1      32.781  35.494  28.830  1.00  0.00    -0.269 OA
BRANCH  39  42
ATOM     42  C   UNL A   1      34.349  33.751  28.952  1.00  0.00     0.039 A 
ATOM     43  C   UNL A   1      34.180  32.657  29.812  1.00  0.00     0.014 A 
ATOM     44  C   UNL A   1      35.642  34.225  28.708  1.00  0.00     0.014 A 
ATOM     45  C   UNL A   1      35.288  32.014  30.375  1.00  0.00     0.010 A 
ATOM     46  C   UNL A   1      36.753  33.549  29.223  1.00  0.00     0.010 A 
ATOM     47  C   UNL A   1      36.587  32.441  30.068  1.00  0.00    -0.014 A 
BRANCH  47  48
ATOM     48  C   UNL A   1      37.767  31.743  30.644  1.00  0.00     0.031 A 
ATOM     49  C   UNL A   1      38.191  32.011  32.047  1.00  0.00     0.074 A 
ATOM     50  C   UNL A   1      38.474  30.868  29.906  1.00  0.00     0.049 A 
ATOM     51  N   UNL A   1      39.139  31.431  32.735  1.00  0.00    -0.248 NA
ATOM     52  C   UNL A   1      37.466  33.065  32.769  1.00  0.00     0.031 C 
ATOM     53  C   UNL A   1      38.158  30.549  28.530  1.00  0.00     0.029 A 
ATOM     54  N   UNL A   1      39.575  30.094  30.171  1.00  0.00    -0.354 N 
ATOM     55  C   UNL A   1      39.109  32.031  33.981  1.00  0.00     0.074 A 
ATOM     56  C   UNL A   1      38.103  33.070  33.929  1.00  0.00     0.031 C 
ATOM     57  C   UNL A   1      39.021  29.644  28.057  1.00  0.00     0.029 A 
ATOM     58  C   UNL A   1      39.971  29.319  29.103  1.00  0.00     0.049 A 
ATOM     59  H   UNL A   1      40.038  30.091  31.040  1.00  0.00     0.167 HD
ATOM     60  C   UNL A   1      39.840  31.714  35.075  1.00  0.00     0.037 A 
ATOM     61  C   UNL A   1      40.970  28.429  28.970  1.00  0.00     0.037 A 
ATOM     62  C   UNL A   1      40.861  30.698  35.096  1.00  0.00     0.049 A 
ATOM     63  C   UNL A   1      41.805  28.139  30.177  1.00  0.00     0.074 A 
ATOM     64  C   UNL A   1      41.638  30.280  36.162  1.00  0.00     0.029 A 
ATOM     65  N   UNL A   1      41.266  29.955  33.993  1.00  0.00    -0.354 N 
ATOM     66  N   UNL A   1      41.704  28.646  31.381  1.00  0.00    -0.248 NA
ATOM     67  C   UNL A   1      42.869  27.140  30.023  1.00  0.00     0.031 C 
ATOM     68  C   UNL A   1      42.553  29.331  35.690  1.00  0.00     0.029 A 
ATOM     69  C   UNL A   1      42.310  29.112  34.342  1.00  0.00     0.049 A 
ATOM     70  H   UNL A   1      40.869  30.019  33.094  1.00  0.00     0.167 HD
ATOM     71  C   UNL A   1      42.672  28.012  32.141  1.00  0.00     0.074 A 
ATOM     72  C   UNL A   1      43.335  27.066  31.262  1.00  0.00     0.031 C 
ATOM     73  C   UNL A   1      42.980  28.197  33.448  1.00  0.00     0.037 A 
BRANCH  60  74
ATOM     74  C   UNL A   1      39.558  32.513  36.310  1.00  0.00     0.057 A 
ATOM     75  C   UNL A   1      38.548  32.148  37.213  1.00  0.00     0.134 A 
ATOM     76  C   UNL A   1      40.266  33.690  36.573  1.00  0.00     0.134 A 
ATOM     77  F   UNL A   1      37.816  31.043  37.004  1.00  0.00    -0.206 F 
ATOM     78  C   UNL A   1      38.222  32.950  38.306  1.00  0.00     0.040 A 
ATOM     79  C   UNL A   1      39.968  34.486  37.681  1.00  0.00     0.040 A 
ATOM     80  F   UNL A   1      41.241  34.100  35.748  1.00  0.00    -0.206 F 
ATOM     81  C   UNL A   1      38.936  34.124  38.543  1.00  0.00     0.006 A 
ENDBRANCH  60  74
BRANCH  61  82
ATOM     82  C   UNL A   1      41.181  27.715  27.683  1.00  0.00     0.057 A 
ATOM     83  C   UNL A   1      40.409  26.598  27.339  1.00  0.00     0.134 A 
ATOM     84  C   UNL A   1      42.140  28.138  26.755  1.00  0.00     0.134 A 
ATOM     85  F   UNL A   1      39.479  26.134  28.186  1.00  0.00    -0.206 F 
ATOM     86  C   UNL A   1      40.597  25.919  26.133  1.00  0.00     0.040 A 
ATOM     87  C   UNL A   1      42.323  27.483  25.534  1.00  0.00     0.040 A 
ATOM     88  F   UNL A   1      42.906  29.210  27.012  1.00  0.00    -0.206 F 
ATOM     89  C   UNL A   1      41.553  26.364  25.223  1.00  0.00     0.006 A 
ENDBRANCH  61  82
BRANCH  73  90
ATOM     90  C   UNL A   1      44.086  27.345  33.993  1.00  0.00     0.057 A 
ATOM     91  C   UNL A   1      45.428  27.738  33.914  1.00  0.00     0.134 A 
ATOM     92  C   UNL A   1      43.806  26.110  34.591  1.00  0.00     0.134 A 
ATOM     93  F   UNL A   1      45.765  28.899  33.332  1.00  0.00    -0.206 F 
ATOM     94  C   UNL A   1      46.456  26.916  34.378  1.00  0.00     0.040 A 
ATOM     95  C   UNL A   1      44.822  25.296  35.089  1.00  0.00     0.040 A 
ATOM     96  F   UNL A   1      42.541  25.676  34.699  1.00  0.00    -0.206 F 
ATOM     97  C   UNL A   1      46.152  25.693  34.972  1.00  0.00     0.006 A 
ENDBRANCH  73  90
ENDBRANCH  47  48
ENDBRANCH  39  42
ENDBRANCH  37  38
ENDBRANCH  36  37
ENDBRANCH  35  36
ENDBRANCH   1  35
TORSDOF 16
ENDMDL
MODEL 2
REMARK VINA RESULT:     -11.5      1.654      6.115
REMARK SMILES O=C(CCC(=O)/[NH+]=C1\S[C@H]2CS(=O)(=O)C[C@@H]2N1c1ccc(Oc2ccccc2)cc1)NCCCCNC(=O)c1ccc(-c2c3nc(c(-c4c(F)cccc4F)c4ccc([nH]4)c(-c4c(F)cccc4F)c4nc(c(-c5c(F)cccc5F)c5ccc2[nH]5)C=C4)C=C3)cc1
REMARK SMILES IDX 32 1 31 2 2 3 1 4 3 6 4 7 5 8 6 9 7 10 8 11 9 13 17 14 10 15
REMARK SMILES IDX 16 16 11 17 15 18 12 19 13 20 14 21 18 22 19 23 30 24 20 25
REMARK SMILES IDX 29 26 21 27 22 28 23 29 24 30 28 31 25 32 27 33 26 34 33 35
REMARK SMILES IDX 34 36 35 37 36 38 37 39 38 41 39 42 40 43 92 44 41 45 91 46
REMARK SMILES IDX 42 47 43 48 44 49 85 50 45 51 90 52 84 53 86 54 46 55 89 56
REMARK SMILES IDX 83 57 82 58 47 60 73 61 56 62 72 63 57 64 60 65 71 66 87 67
REMARK SMILES IDX 58 68 59 69 70 71 88 72 61 73 48 74 49 75 54 76 50 77 51 78
REMARK SMILES IDX 53 79 55 80 52 81 74 82 75 83 80 84 76 85 77 86 79 87 81 88
REMARK SMILES IDX 78 89 62 90 63 91 68 92 64 93 65 94 67 95 69 96 66 97
REMARK H PARENT 31 5 7 12 36 40 86 59 60 70
REMARK Flexibility Score: inf
ROOT
ATOM      1  C   UNL A   1      31.310  28.411  24.994  1.00  0.00     0.116 C 
ENDROOT
BRANCH   1   2
ATOM      2  N   UNL A   1      30.745  28.081  23.697  1.00  0.00    -0.356 N 
ATOM      3  C   UNL A   1      31.313  27.506  22.607  1.00  0.00     0.220 C 
ATOM      4  O   UNL A   1      30.599  27.249  21.635  1.00  0.00    -0.275 OA
ATOM      5  H   UNL A   1      29.793  28.312  23.593  1.00  0.00     0.163 HD
BRANCH   3   6
ATOM      6  C   UNL A   1      32.784  27.186  22.591  1.00  0.00     0.112 C 
BRANCH   6   7
ATOM      7  C   UNL A   1      33.238  25.844  23.149  1.00  0.00     0.138 C 
BRANCH   7   8
ATOM      8  C   UNL A   1      34.158  25.700  24.359  1.00  0.00     0.308 C 
ATOM      9  O   UNL A   1      34.211  26.626  25.168  1.00  0.00    -0.247 OA
ATOM     10  N   UNL A   1      34.935  24.589  24.523  1.00  0.00    -0.204 N 
ATOM     11  C   UNL A   1      34.447  23.419  24.762  1.00  0.00     0.319 C 
ATOM     12  H   UNL A   1      35.912  24.686  24.455  1.00  0.00     0.316 HD
ATOM     13  S   UNL A   1      32.699  23.049  24.824  1.00  0.00    -0.029 SA
ATOM     14  N   UNL A   1      35.181  22.237  24.909  1.00  0.00    -0.217 N 
ATOM     15  C   UNL A   1      33.042  21.301  25.097  1.00  0.00     0.120 C 
ATOM     16  C   UNL A   1      34.421  21.078  24.460  1.00  0.00     0.212 C 
ATOM     17  C   UNL A   1      32.163  20.242  24.488  1.00  0.00     0.156 C 
ATOM     18  C   UNL A   1      34.788  19.670  24.874  1.00  0.00     0.188 C 
ATOM     19  S   UNL A   1      33.226  18.797  24.649  1.00  0.00     0.155 S 
ATOM     20  O   UNL A   1      32.900  18.131  25.897  1.00  0.00    -0.229 OA
ATOM     21  O   UNL A   1      33.255  18.102  23.385  1.00  0.00    -0.229 OA
BRANCH  14  22
ATOM     22  C   UNL A   1      36.521  22.186  25.294  1.00  0.00     0.128 A 
ATOM     23  C   UNL A   1      37.134  23.189  26.058  1.00  0.00     0.056 A 
ATOM     24  C   UNL A   1      37.305  21.067  24.951  1.00  0.00     0.056 A 
ATOM     25  C   UNL A   1      38.461  23.057  26.484  1.00  0.00     0.051 A 
ATOM     26  C   UNL A   1      38.627  20.926  25.380  1.00  0.00     0.051 A 
ATOM     27  C   UNL A   1      39.200  21.917  26.163  1.00  0.00     0.127 A 
BRANCH  27  28
ATOM     28  O   UNL A   1      40.405  21.786  26.800  1.00  0.00    -0.457 OA
BRANCH  28  29
ATOM     29  C   UNL A   1      41.549  21.481  26.096  1.00  0.00     0.127 A 
ATOM     30  C   UNL A   1      41.898  20.128  26.069  1.00  0.00     0.047 A 
ATOM     31  C   UNL A   1      42.472  22.450  25.699  1.00  0.00     0.047 A 
ATOM     32  C   UNL A   1      43.185  19.740  25.701  1.00  0.00     0.004 A 
ATOM     33  C   UNL A   1      43.751  22.056  25.293  1.00  0.00     0.004 A 
ATOM     34  C   UNL A   1      44.114  20.707  25.319  1.00  0.00     0.000 A 
ENDBRANCH  28  29
ENDBRANCH  27  28
ENDBRANCH  14  22
ENDBRANCH   7   8
ENDBRANCH   6   7
ENDBRANCH   3   6
ENDBRANCH   1   2
BRANCH   1  35
ATOM     35  C   UNL A   1      32.112  29.713  25.019  1.00  0.00     0.023 C 
BRANCH  35  36
ATOM     36  C   UNL A   1      31.509  30.841  25.855  1.00  0.00     0.023 C 
BRANCH  36  37
ATOM     37  C   UNL A   1      32.343  31.324  27.033  1.00  0.00     0.116 C 
BRANCH  37  38
ATOM     38  N   UNL A   1      32.206  32.749  27.257  1.00  0.00    -0.352 N 
ATOM     39  C   UNL A   1      32.986  33.617  27.978  1.00  0.00     0.251 C 
ATOM     40  H   UNL A   1      31.426  33.160  26.821  1.00  0.00     0.163 HD
ATOM     41  O   UNL A   1      32.555  34.752  28.185  1.00  0.00    -0.269 OA
BRANCH  39  42
ATOM     42  C   UNL A   1      34.314  33.236  28.529  1.00  0.00     0.039 A 
ATOM     43  C   UNL A   1      34.337  32.420  29.668  1.00  0.00     0.014 A 
ATOM     44  C   UNL A   1      35.526  33.705  28.010  1.00  0.00     0.014 A 
ATOM     45  C   UNL A   1      35.551  32.033  30.245  1.00  0.00     0.010 A 
ATOM     46  C   UNL A   1      36.742  33.273  28.550  1.00  0.00     0.010 A 
ATOM     47  C   UNL A   1      36.766  32.438  29.678  1.00  0.00    -0.014 A 
BRANCH  47  48
ATOM     48  C   UNL A   1      38.059  32.007  30.275  1.00  0.00     0.031 A 
ATOM     49  C   UNL A   1      38.868  30.936  29.628  1.00  0.00     0.074 A 
ATOM     50  C   UNL A   1      38.511  32.569  31.411  1.00  0.00     0.049 A 
ATOM     51  N   UNL A   1      40.053  30.498  29.962  1.00  0.00    -0.248 NA
ATOM     52  C   UNL A   1      38.273  30.267  28.464  1.00  0.00     0.031 C 
ATOM     53  C   UNL A   1      37.795  33.603  32.126  1.00  0.00     0.029 A 
ATOM     54  N   UNL A   1      39.640  32.379  32.164  1.00  0.00    -0.354 N 
ATOM     55  C   UNL A   1      40.360  29.519  29.035  1.00  0.00     0.074 A 
ATOM     56  C   UNL A   1      39.206  29.374  28.173  1.00  0.00     0.031 C 
ATOM     57  C   UNL A   1      38.486  33.977  33.208  1.00  0.00     0.029 A 
ATOM     58  C   UNL A   1      39.705  33.195  33.272  1.00  0.00     0.049 A 
ATOM     59  H   UNL A   1      40.338  31.722  31.936  1.00  0.00     0.167 HD
ATOM     60  C   UNL A   1      41.516  28.829  28.905  1.00  0.00     0.037 A 
ATOM     61  C   UNL A   1      40.641  33.326  34.229  1.00  0.00     0.037 A 
ATOM     62  C   UNL A   1      42.641  28.965  29.794  1.00  0.00     0.049 A 
ATOM     63  C   UNL A   1      41.886  32.508  34.097  1.00  0.00     0.074 A 
ATOM     64  C   UNL A   1      43.870  28.333  29.731  1.00  0.00     0.029 A 
ATOM     65  N   UNL A   1      42.665  29.770  30.927  1.00  0.00    -0.354 N 
ATOM     66  N   UNL A   1      42.205  31.652  33.158  1.00  0.00    -0.248 NA
ATOM     67  C   UNL A   1      42.911  32.688  35.132  1.00  0.00     0.031 C 
ATOM     68  C   UNL A   1      44.613  28.708  30.857  1.00  0.00     0.029 A 
ATOM     69  C   UNL A   1      43.873  29.620  31.594  1.00  0.00     0.049 A 
ATOM     70  H   UNL A   1      41.933  30.362  31.214  1.00  0.00     0.167 HD
ATOM     71  C   UNL A   1      43.479  31.207  33.468  1.00  0.00     0.074 A 
ATOM     72  C   UNL A   1      43.880  31.908  34.674  1.00  0.00     0.031 C 
ATOM     73  C   UNL A   1      44.245  30.302  32.811  1.00  0.00     0.037 A 
BRANCH  60  74
ATOM     74  C   UNL A   1      41.578  27.856  27.768  1.00  0.00     0.057 A 
ATOM     75  C   UNL A   1      42.093  28.215  26.513  1.00  0.00     0.134 A 
ATOM     76  C   UNL A   1      41.068  26.562  27.911  1.00  0.00     0.134 A 
ATOM     77  F   UNL A   1      42.574  29.450  26.303  1.00  0.00    -0.206 F 
ATOM     78  C   UNL A   1      42.054  27.337  25.430  1.00  0.00     0.040 A 
ATOM     79  C   UNL A   1      41.052  25.664  26.842  1.00  0.00     0.040 A 
ATOM     80  F   UNL A   1      40.556  26.155  29.082  1.00  0.00    -0.206 F 
ATOM     81  C   UNL A   1      41.533  26.055  25.595  1.00  0.00     0.006 A 
ENDBRANCH  60  74
BRANCH  61  82
ATOM     82  C   UNL A   1      40.461  34.304  35.334  1.00  0.00     0.057 A 
ATOM     83  C   UNL A   1      39.776  33.956  36.505  1.00  0.00     0.134 A 
ATOM     84  C   UNL A   1      40.982  35.602  35.261  1.00  0.00     0.134 A 
ATOM     85  F   UNL A   1      39.243  32.733  36.636  1.00  0.00    -0.206 F 
ATOM     86  C   UNL A   1      39.600  34.866  37.551  1.00  0.00     0.040 A 
ATOM     87  C   UNL A   1      40.835  36.514  36.309  1.00  0.00     0.040 A 
ATOM     88  F   UNL A   1      41.663  35.999  34.175  1.00  0.00    -0.206 F 
ATOM     89  C   UNL A   1      40.134  36.149  37.457  1.00  0.00     0.006 A 
ENDBRANCH  61  82
BRANCH  73  90
ATOM     90  C   UNL A   1      45.598  30.033  33.396  1.00  0.00     0.057 A 
ATOM     91  C   UNL A   1      45.803  29.028  34.351  1.00  0.00     0.134 A 
ATOM     92  C   UNL A   1      46.706  30.798  33.011  1.00  0.00     0.134 A 
ATOM     93  F   UNL A   1      44.778  28.276  34.778  1.00  0.00    -0.206 F 
ATOM     94  C   UNL A   1      47.056  28.817  34.928  1.00  0.00     0.040 A 
ATOM     95  C   UNL A   1      47.970  30.574  33.557  1.00  0.00     0.040 A 
ATOM     96  F   UNL A   1      46.578  31.775  32.100  1.00  0.00    -0.206 F 
ATOM     97  C   UNL A   1      48.144  29.589  34.526  1.00  0.00     0.006 A 
ENDBRANCH  73  90
ENDBRANCH  47  48
ENDBRANCH  39  42
ENDBRANCH  37  38
ENDBRANCH  36  37
ENDBRANCH  35  36
ENDBRANCH   1  35
TORSDOF 16
ENDMDL
MODEL 3
REMARK VINA RESULT:     -11.0      6.643     11.550
REMARK SMILES O=C(CCC(=O)/[NH+]=C1\S[C@H]2CS(=O)(=O)C[C@@H]2N1c1ccc(Oc2ccccc2)cc1)NCCCCNC(=O)c1ccc(-c2c3nc(c(-c4c(F)cccc4F)c4ccc([nH]4)c(-c4c(F)cccc4F)c4nc(c(-c5c(F)cccc5F)c5ccc2[nH]5)C=C4)C=C3)cc1
REMARK SMILES IDX 32 1 31 2 2 3 1 4 3 6 4 7 5 8 6 9 7 10 8 11 9 13 17 14 10 15
REMARK SMILES IDX 16 16 11 17 15 18 12 19 13 20 14 21 18 22 19 23 30 24 20 25
REMARK SMILES IDX 29 26 21 27 22 28 23 29 24 30 28 31 25 32 27 33 26 34 33 35
REMARK SMILES IDX 34 36 35 37 36 38 37 39 38 41 39 42 40 43 92 44 41 45 91 46
REMARK SMILES IDX 42 47 43 48 44 49 85 50 45 51 90 52 84 53 86 54 46 55 89 56
REMARK SMILES IDX 83 57 82 58 47 60 73 61 56 62 72 63 57 64 60 65 71 66 87 67
REMARK SMILES IDX 58 68 59 69 70 71 88 72 61 73 48 74 49 75 54 76 50 77 51 78
REMARK SMILES IDX 53 79 55 80 52 81 74 82 75 83 80 84 76 85 77 86 79 87 81 88
REMARK SMILES IDX 78 89 62 90 63 91 68 92 64 93 65 94 67 95 69 96 66 97
REMARK H PARENT 31 5 7 12 36 40 86 59 60 70
REMARK Flexibility Score: inf
ROOT
ATOM      1  C   UNL A   1      39.830  28.577  29.209  1.00  0.00     0.116 C 
ENDROOT
BRANCH   1   2
ATOM      2  N   UNL A   1      39.961  28.233  30.613  1.00  0.00    -0.356 N 
ATOM      3  C   UNL A   1      39.820  28.997  31.727  1.00  0.00     0.220 C 
ATOM      4  O   UNL A   1      39.903  28.452  32.830  1.00  0.00    -0.275 OA
ATOM      5  H   UNL A   1      40.190  27.290  30.785  1.00  0.00     0.163 HD
BRANCH   3   6
ATOM      6  C   UNL A   1      39.565  30.475  31.612  1.00  0.00     0.112 C 
BRANCH   6   7
ATOM      7  C   UNL A   1      38.132  30.974  31.741  1.00  0.00     0.138 C 
BRANCH   7   8
ATOM      8  C   UNL A   1      36.910  30.143  31.355  1.00  0.00     0.308 C 
ATOM      9  O   UNL A   1      36.619  29.171  32.052  1.00  0.00    -0.247 OA
ATOM     10  N   UNL A   1      36.177  30.445  30.243  1.00  0.00    -0.204 N 
ATOM     11  C   UNL A   1      35.473  31.520  30.136  1.00  0.00     0.319 C 
ATOM     12  H   UNL A   1      36.188  29.813  29.489  1.00  0.00     0.316 HD
ATOM     13  S   UNL A   1      35.416  32.816  31.367  1.00  0.00    -0.029 SA
ATOM     14  N   UNL A   1      34.727  31.905  29.017  1.00  0.00    -0.217 N 
ATOM     15  C   UNL A   1      34.334  33.809  30.324  1.00  0.00     0.120 C 
ATOM     16  C   UNL A   1      34.660  33.356  28.893  1.00  0.00     0.212 C 
ATOM     17  C   UNL A   1      34.466  35.308  30.289  1.00  0.00     0.156 C 
ATOM     18  C   UNL A   1      33.609  34.040  28.048  1.00  0.00     0.188 C 
ATOM     19  S   UNL A   1      33.555  35.686  28.782  1.00  0.00     0.155 S 
ATOM     20  O   UNL A   1      32.178  35.971  29.144  1.00  0.00    -0.229 OA
ATOM     21  O   UNL A   1      34.345  36.585  27.977  1.00  0.00    -0.229 OA
BRANCH  14  22
ATOM     22  C   UNL A   1      34.234  31.020  28.057  1.00  0.00     0.128 A 
ATOM     23  C   UNL A   1      32.982  31.176  27.447  1.00  0.00     0.056 A 
ATOM     24  C   UNL A   1      35.029  29.937  27.633  1.00  0.00     0.056 A 
ATOM     25  C   UNL A   1      32.563  30.303  26.435  1.00  0.00     0.051 A 
ATOM     26  C   UNL A   1      34.621  29.069  26.618  1.00  0.00     0.051 A 
ATOM     27  C   UNL A   1      33.392  29.263  26.006  1.00  0.00     0.127 A 
BRANCH  27  28
ATOM     28  O   UNL A   1      32.987  28.604  24.876  1.00  0.00    -0.457 OA
BRANCH  28  29
ATOM     29  C   UNL A   1      31.704  28.114  24.762  1.00  0.00     0.127 A 
ATOM     30  C   UNL A   1      31.444  26.937  25.470  1.00  0.00     0.047 A 
ATOM     31  C   UNL A   1      30.811  28.556  23.786  1.00  0.00     0.047 A 
ATOM     32  C   UNL A   1      30.323  26.167  25.167  1.00  0.00     0.004 A 
ATOM     33  C   UNL A   1      29.666  27.802  23.510  1.00  0.00     0.004 A 
ATOM     34  C   UNL A   1      29.437  26.598  24.181  1.00  0.00     0.000 A 
ENDBRANCH  28  29
ENDBRANCH  27  28
ENDBRANCH  14  22
ENDBRANCH   7   8
ENDBRANCH   6   7
ENDBRANCH   3   6
ENDBRANCH   1   2
BRANCH   1  35
ATOM     35  C   UNL A   1      39.154  27.502  28.356  1.00  0.00     0.023 C 
BRANCH  35  36
ATOM     36  C   UNL A   1      39.837  26.135  28.356  1.00  0.00     0.023 C 
BRANCH  36  37
ATOM     37  C   UNL A   1      39.648  25.289  27.106  1.00  0.00     0.116 C 
BRANCH  37  38
ATOM     38  N   UNL A   1      40.358  24.029  27.181  1.00  0.00    -0.352 N 
ATOM     39  C   UNL A   1      41.695  23.749  27.047  1.00  0.00     0.251 C 
ATOM     40  H   UNL A   1      39.789  23.247  27.358  1.00  0.00     0.163 HD
ATOM     41  O   UNL A   1      42.036  22.570  26.955  1.00  0.00    -0.269 OA
BRANCH  39  42
ATOM     42  C   UNL A   1      42.736  24.810  26.991  1.00  0.00     0.039 A 
ATOM     43  C   UNL A   1      43.089  25.310  25.731  1.00  0.00     0.014 A 
ATOM     44  C   UNL A   1      43.420  25.277  28.119  1.00  0.00     0.014 A 
ATOM     45  C   UNL A   1      44.069  26.300  25.604  1.00  0.00     0.010 A 
ATOM     46  C   UNL A   1      44.358  26.307  28.001  1.00  0.00     0.010 A 
ATOM     47  C   UNL A   1      44.698  26.824  26.742  1.00  0.00    -0.014 A 
BRANCH  47  48
ATOM     48  C   UNL A   1      45.722  27.895  26.612  1.00  0.00     0.031 A 
ATOM     49  C   UNL A   1      45.327  29.330  26.687  1.00  0.00     0.074 A 
ATOM     50  C   UNL A   1      47.017  27.586  26.415  1.00  0.00     0.049 A 
ATOM     51  N   UNL A   1      46.096  30.386  26.680  1.00  0.00    -0.248 NA
ATOM     52  C   UNL A   1      43.890  29.617  26.775  1.00  0.00     0.031 C 
ATOM     53  C   UNL A   1      47.503  26.226  26.311  1.00  0.00     0.029 A 
ATOM     54  N   UNL A   1      48.149  28.345  26.269  1.00  0.00    -0.354 N 
ATOM     55  C   UNL A   1      45.239  31.466  26.789  1.00  0.00     0.074 A 
ATOM     56  C   UNL A   1      43.890  30.941  26.782  1.00  0.00     0.031 C 
ATOM     57  C   UNL A   1      48.828  26.224  26.128  1.00  0.00     0.029 A 
ATOM     58  C   UNL A   1      49.292  27.597  26.093  1.00  0.00     0.049 A 
ATOM     59  H   UNL A   1      48.147  29.329  26.289  1.00  0.00     0.167 HD
ATOM     60  C   UNL A   1      45.560  32.775  26.912  1.00  0.00     0.037 A 
ATOM     61  C   UNL A   1      50.579  27.958  25.939  1.00  0.00     0.037 A 
ATOM     62  C   UNL A   1      46.909  33.281  26.883  1.00  0.00     0.049 A 
ATOM     63  C   UNL A   1      50.904  29.416  26.019  1.00  0.00     0.074 A 
ATOM     64  C   UNL A   1      47.343  34.586  27.030  1.00  0.00     0.029 A 
ATOM     65  N   UNL A   1      48.043  32.506  26.667  1.00  0.00    -0.354 N 
ATOM     66  N   UNL A   1      50.091  30.424  26.219  1.00  0.00    -0.248 NA
ATOM     67  C   UNL A   1      52.316  29.789  25.882  1.00  0.00     0.031 C 
ATOM     68  C   UNL A   1      48.730  34.609  26.841  1.00  0.00     0.029 A 
ATOM     69  C   UNL A   1      49.172  33.311  26.635  1.00  0.00     0.049 A 
ATOM     70  H   UNL A   1      48.045  31.528  26.553  1.00  0.00     0.167 HD
ATOM     71  C   UNL A   1      50.891  31.553  26.259  1.00  0.00     0.074 A 
ATOM     72  C   UNL A   1      52.258  31.098  26.085  1.00  0.00     0.031 C 
ATOM     73  C   UNL A   1      50.524  32.846  26.429  1.00  0.00     0.037 A 
BRANCH  60  74
ATOM     74  C   UNL A   1      44.412  33.725  27.060  1.00  0.00     0.057 A 
ATOM     75  C   UNL A   1      43.836  34.368  25.954  1.00  0.00     0.134 A 
ATOM     76  C   UNL A   1      43.911  34.044  28.326  1.00  0.00     0.134 A 
ATOM     77  F   UNL A   1      44.289  34.125  24.714  1.00  0.00    -0.206 F 
ATOM     78  C   UNL A   1      42.837  35.328  26.107  1.00  0.00     0.040 A 
ATOM     79  C   UNL A   1      42.889  34.981  28.489  1.00  0.00     0.040 A 
ATOM     80  F   UNL A   1      44.419  33.470  29.427  1.00  0.00    -0.206 F 
ATOM     81  C   UNL A   1      42.359  35.636  27.380  1.00  0.00     0.006 A 
ENDBRANCH  60  74
BRANCH  61  82
ATOM     82  C   UNL A   1      51.638  26.929  25.766  1.00  0.00     0.057 A 
ATOM     83  C   UNL A   1      52.219  26.294  26.870  1.00  0.00     0.134 A 
ATOM     84  C   UNL A   1      52.083  26.537  24.496  1.00  0.00     0.134 A 
ATOM     85  F   UNL A   1      51.846  26.629  28.114  1.00  0.00    -0.206 F 
ATOM     86  C   UNL A   1      53.215  25.325  26.721  1.00  0.00     0.040 A 
ATOM     87  C   UNL A   1      53.060  25.552  24.331  1.00  0.00     0.040 A 
ATOM     88  F   UNL A   1      51.559  27.093  23.393  1.00  0.00    -0.206 F 
ATOM     89  C   UNL A   1      53.635  24.948  25.447  1.00  0.00     0.006 A 
ENDBRANCH  61  82
BRANCH  73  90
ATOM     90  C   UNL A   1      51.634  33.853  26.435  1.00  0.00     0.057 A 
ATOM     91  C   UNL A   1      52.062  34.488  25.262  1.00  0.00     0.134 A 
ATOM     92  C   UNL A   1      52.294  34.180  27.627  1.00  0.00     0.134 A 
ATOM     93  F   UNL A   1      51.487  34.201  24.084  1.00  0.00    -0.206 F 
ATOM     94  C   UNL A   1      53.130  35.386  25.267  1.00  0.00     0.040 A 
ATOM     95  C   UNL A   1      53.340  35.101  27.649  1.00  0.00     0.040 A 
ATOM     96  F   UNL A   1      51.932  33.608  28.785  1.00  0.00    -0.206 F 
ATOM     97  C   UNL A   1      53.768  35.698  26.466  1.00  0.00     0.006 A 
ENDBRANCH  73  90
ENDBRANCH  47  48
ENDBRANCH  39  42
ENDBRANCH  37  38
ENDBRANCH  36  37
ENDBRANCH  35  36
ENDBRANCH   1  35
TORSDOF 16
ENDMDL
