MODEL 1
REMARK VINA RESULT:     -11.7      0.000      0.000
REMARK SMILES C[C@@H]1[C@@H](C(=O)NCCCCNC(=O)c2ccc(-c3c4nc(c(-c5c(F)cccc5F)c5ccc([nH]5)c(-c5c(F)cccc5F)c5nc(c(-c6c(F)cccc6F)c6ccc3[nH]6)C=C5)C=C4)cc2)CC[N@@H+]1[C@@H](C)c1ccc(F)cc1
REMARK SMILES IDX 8 1 7 2 6 3 4 4 5 5 3 7 1 8 2 9 70 10 68 11 69 12 71 14
REMARK SMILES IDX 72 15 73 16 74 17 79 18 75 19 78 20 76 21 77 22 9 23 10 24
REMARK SMILES IDX 11 25 12 26 13 28 14 29 15 30 67 31 16 32 66 33 17 34 18 35
REMARK SMILES IDX 19 36 60 37 20 38 65 39 59 40 61 41 21 42 64 43 58 44 57 45
REMARK SMILES IDX 22 47 48 48 31 49 47 50 32 51 35 52 46 53 62 54 33 55 34 56
REMARK SMILES IDX 45 58 63 59 36 60 23 61 24 62 29 63 25 64 26 65 28 66 30 67
REMARK SMILES IDX 27 68 49 69 50 70 55 71 51 72 52 73 54 74 56 75 53 76 37 77
REMARK SMILES IDX 38 78 43 79 39 80 40 81 42 82 44 83 41 84
REMARK H PARENT 6 6 70 13 11 27 61 46 35 57
REMARK Flexibility Score: inf
ROOT
ATOM      1  C   UNL A   1      36.496  20.104  25.000  1.00  0.00     0.023 C 
ENDROOT
BRANCH   1   2
ATOM      2  C   UNL A   1      36.095  21.509  25.424  1.00  0.00     0.116 C 
BRANCH   2   3
ATOM      3  N   UNL A   1      35.335  21.561  26.656  1.00  0.00    -0.356 N 
ATOM      4  C   UNL A   1      34.029  21.918  26.848  1.00  0.00     0.229 C 
ATOM      5  O   UNL A   1      33.593  21.839  27.997  1.00  0.00    -0.275 OA
ATOM      6  H   UNL A   1      35.827  21.302  27.469  1.00  0.00     0.163 HD
BRANCH   4   7
ATOM      7  C   UNL A   1      33.218  22.489  25.682  1.00  0.00     0.142 C 
ATOM      8  C   UNL A   1      33.848  24.247  23.993  1.00  0.00     0.076 C 
ATOM      9  C   UNL A   1      33.476  24.006  25.459  1.00  0.00     0.194 C 
ATOM     10  N   UNL A   1      32.281  24.680  25.997  1.00  0.00    -0.326 N 
ATOM     11  C   UNL A   1      31.708  22.439  25.875  1.00  0.00     0.081 C 
ATOM     12  C   UNL A   1      31.409  23.705  26.629  1.00  0.00     0.264 C 
ATOM     13  H   UNL A   1      32.714  25.316  26.667  1.00  0.00     0.348 HD
BRANCH  10  14
ATOM     14  C   UNL A   1      31.639  25.839  25.379  1.00  0.00     0.212 C 
ATOM     15  C   UNL A   1      30.102  25.798  25.456  1.00  0.00     0.081 C 
BRANCH  14  16
ATOM     16  C   UNL A   1      32.225  27.140  25.970  1.00  0.00     0.009 A 
ATOM     17  C   UNL A   1      33.525  27.599  25.676  1.00  0.00     0.013 A 
ATOM     18  C   UNL A   1      31.405  27.955  26.777  1.00  0.00     0.013 A 
ATOM     19  C   UNL A   1      33.985  28.823  26.166  1.00  0.00     0.040 A 
ATOM     20  C   UNL A   1      31.865  29.183  27.262  1.00  0.00     0.040 A 
ATOM     21  C   UNL A   1      33.151  29.604  26.952  1.00  0.00     0.123 A 
ATOM     22  F   UNL A   1      33.591  30.785  27.406  1.00  0.00    -0.207 F 
ENDBRANCH  14  16
ENDBRANCH  10  14
ENDBRANCH   4   7
ENDBRANCH   2   3
ENDBRANCH   1   2
BRANCH   1  23
ATOM     23  C   UNL A   1      37.971  19.920  24.654  1.00  0.00     0.023 C 
BRANCH  23  24
ATOM     24  C   UNL A   1      38.953  20.195  25.788  1.00  0.00     0.116 C 
BRANCH  24  25
ATOM     25  N   UNL A   1      40.040  19.230  25.849  1.00  0.00    -0.352 N 
ATOM     26  C   UNL A   1      41.376  19.421  26.121  1.00  0.00     0.251 C 
ATOM     27  H   UNL A   1      39.781  18.298  25.669  1.00  0.00     0.163 HD
ATOM     28  O   UNL A   1      42.170  18.500  25.979  1.00  0.00    -0.269 OA
BRANCH  26  29
ATOM     29  C   UNL A   1      41.857  20.751  26.553  1.00  0.00     0.039 A 
ATOM     30  C   UNL A   1      42.248  21.679  25.583  1.00  0.00     0.014 A 
ATOM     31  C   UNL A   1      41.911  21.088  27.907  1.00  0.00     0.014 A 
ATOM     32  C   UNL A   1      42.614  22.971  25.970  1.00  0.00     0.010 A 
ATOM     33  C   UNL A   1      42.180  22.400  28.282  1.00  0.00     0.010 A 
ATOM     34  C   UNL A   1      42.542  23.355  27.320  1.00  0.00    -0.014 A 
BRANCH  34  35
ATOM     35  C   UNL A   1      42.856  24.742  27.750  1.00  0.00     0.031 A 
ATOM     36  C   UNL A   1      44.287  25.160  27.957  1.00  0.00     0.074 A 
ATOM     37  C   UNL A   1      41.859  25.607  28.020  1.00  0.00     0.049 A 
ATOM     38  N   UNL A   1      44.764  26.295  28.403  1.00  0.00    -0.248 NA
ATOM     39  C   UNL A   1      45.319  24.156  27.652  1.00  0.00     0.031 C 
ATOM     40  C   UNL A   1      40.428  25.314  27.905  1.00  0.00     0.029 A 
ATOM     41  N   UNL A   1      41.895  26.908  28.457  1.00  0.00    -0.354 N 
ATOM     42  C   UNL A   1      46.143  26.133  28.446  1.00  0.00     0.074 A 
ATOM     43  C   UNL A   1      46.422  24.772  28.046  1.00  0.00     0.031 C 
ATOM     44  C   UNL A   1      39.726  26.410  28.235  1.00  0.00     0.029 A 
ATOM     45  C   UNL A   1      40.653  27.468  28.625  1.00  0.00     0.049 A 
ATOM     46  H   UNL A   1      42.734  27.392  28.633  1.00  0.00     0.167 HD
ATOM     47  C   UNL A   1      47.094  27.043  28.764  1.00  0.00     0.037 A 
ATOM     48  C   UNL A   1      40.299  28.697  29.052  1.00  0.00     0.037 A 
ATOM     49  C   UNL A   1      46.815  28.404  29.143  1.00  0.00     0.049 A 
ATOM     50  C   UNL A   1      41.373  29.686  29.414  1.00  0.00     0.074 A 
ATOM     51  C   UNL A   1      47.710  29.418  29.435  1.00  0.00     0.029 A 
ATOM     52  N   UNL A   1      45.543  28.938  29.286  1.00  0.00    -0.354 N 
ATOM     53  N   UNL A   1      42.675  29.540  29.388  1.00  0.00    -0.248 NA
ATOM     54  C   UNL A   1      40.926  31.014  29.857  1.00  0.00     0.031 C 
ATOM     55  C   UNL A   1      46.979  30.552  29.804  1.00  0.00     0.029 A 
ATOM     56  C   UNL A   1      45.630  30.262  29.682  1.00  0.00     0.049 A 
ATOM     57  H   UNL A   1      44.703  28.448  29.129  1.00  0.00     0.167 HD
ATOM     58  C   UNL A   1      43.204  30.767  29.773  1.00  0.00     0.074 A 
ATOM     59  C   UNL A   1      42.079  31.646  30.017  1.00  0.00     0.031 C 
ATOM     60  C   UNL A   1      44.502  31.131  29.908  1.00  0.00     0.037 A 
BRANCH  47  61
ATOM     61  C   UNL A   1      48.527  26.591  28.713  1.00  0.00     0.057 A 
ATOM     62  C   UNL A   1      49.316  26.760  27.568  1.00  0.00     0.134 A 
ATOM     63  C   UNL A   1      49.130  25.997  29.829  1.00  0.00     0.134 A 
ATOM     64  F   UNL A   1      48.799  27.312  26.460  1.00  0.00    -0.206 F 
ATOM     65  C   UNL A   1      50.642  26.322  27.521  1.00  0.00     0.040 A 
ATOM     66  C   UNL A   1      50.463  25.584  29.805  1.00  0.00     0.040 A 
ATOM     67  F   UNL A   1      48.435  25.810  30.961  1.00  0.00    -0.206 F 
ATOM     68  C   UNL A   1      51.221  25.738  28.645  1.00  0.00     0.006 A 
ENDBRANCH  47  61
BRANCH  48  69
ATOM     69  C   UNL A   1      38.864  29.072  29.134  1.00  0.00     0.057 A 
ATOM     70  C   UNL A   1      38.180  29.557  28.012  1.00  0.00     0.134 A 
ATOM     71  C   UNL A   1      38.144  28.968  30.330  1.00  0.00     0.134 A 
ATOM     72  F   UNL A   1      38.819  29.696  26.841  1.00  0.00    -0.206 F 
ATOM     73  C   UNL A   1      36.841  29.946  28.082  1.00  0.00     0.040 A 
ATOM     74  C   UNL A   1      36.798  29.328  30.408  1.00  0.00     0.040 A 
ATOM     75  F   UNL A   1      38.737  28.503  31.440  1.00  0.00    -0.206 F 
ATOM     76  C   UNL A   1      36.145  29.827  29.282  1.00  0.00     0.006 A 
ENDBRANCH  48  69
BRANCH  60  77
ATOM     77  C   UNL A   1      44.782  32.558  30.286  1.00  0.00     0.057 A 
ATOM     78  C   UNL A   1      44.951  32.958  31.618  1.00  0.00     0.134 A 
ATOM     79  C   UNL A   1      44.922  33.538  29.295  1.00  0.00     0.134 A 
ATOM     80  F   UNL A   1      44.819  32.072  32.616  1.00  0.00    -0.206 F 
ATOM     81  C   UNL A   1      45.223  34.286  31.952  1.00  0.00     0.040 A 
ATOM     82  C   UNL A   1      45.225  34.863  29.613  1.00  0.00     0.040 A 
ATOM     83  F   UNL A   1      44.783  33.222  27.999  1.00  0.00    -0.206 F 
ATOM     84  C   UNL A   1      45.368  35.241  30.947  1.00  0.00     0.006 A 
ENDBRANCH  60  77
ENDBRANCH  34  35
ENDBRANCH  26  29
ENDBRANCH  24  25
ENDBRANCH  23  24
ENDBRANCH   1  23
TORSDOF 13
ENDMDL
MODEL 2
REMARK VINA RESULT:     -11.6      3.153      8.172
REMARK SMILES C[C@@H]1[C@@H](C(=O)NCCCCNC(=O)c2ccc(-c3c4nc(c(-c5c(F)cccc5F)c5ccc([nH]5)c(-c5c(F)cccc5F)c5nc(c(-c6c(F)cccc6F)c6ccc3[nH]6)C=C5)C=C4)cc2)CC[N@@H+]1[C@@H](C)c1ccc(F)cc1
REMARK SMILES IDX 8 1 7 2 6 3 4 4 5 5 3 7 1 8 2 9 70 10 68 11 69 12 71 14
REMARK SMILES IDX 72 15 73 16 74 17 79 18 75 19 78 20 76 21 77 22 9 23 10 24
REMARK SMILES IDX 11 25 12 26 13 28 14 29 15 30 67 31 16 32 66 33 17 34 18 35
REMARK SMILES IDX 19 36 60 37 20 38 65 39 59 40 61 41 21 42 64 43 58 44 57 45
REMARK SMILES IDX 22 47 48 48 31 49 47 50 32 51 35 52 46 53 62 54 33 55 34 56
REMARK SMILES IDX 45 58 63 59 36 60 23 61 24 62 29 63 25 64 26 65 28 66 30 67
REMARK SMILES IDX 27 68 49 69 50 70 55 71 51 72 52 73 54 74 56 75 53 76 37 77
REMARK SMILES IDX 38 78 43 79 39 80 40 81 42 82 44 83 41 84
REMARK H PARENT 6 6 70 13 11 27 61 46 35 57
REMARK Flexibility Score: inf
ROOT
ATOM      1  C   UNL A   1      32.474  29.922  26.835  1.00  0.00     0.023 C 
ENDROOT
BRANCH   1   2
ATOM      2  C   UNL A   1      31.984  29.815  25.399  1.00  0.00     0.116 C 
BRANCH   2   3
ATOM      3  N   UNL A   1      33.044  29.694  24.420  1.00  0.00    -0.356 N 
ATOM      4  C   UNL A   1      33.320  28.657  23.572  1.00  0.00     0.229 C 
ATOM      5  O   UNL A   1      34.261  28.812  22.792  1.00  0.00    -0.275 OA
ATOM      6  H   UNL A   1      33.649  30.468  24.354  1.00  0.00     0.163 HD
BRANCH   4   7
ATOM      7  C   UNL A   1      32.543  27.345  23.698  1.00  0.00     0.142 C 
ATOM      8  C   UNL A   1      32.272  25.821  25.685  1.00  0.00     0.076 C 
ATOM      9  C   UNL A   1      33.255  26.313  24.619  1.00  0.00     0.194 C 
ATOM     10  N   UNL A   1      33.844  25.323  23.700  1.00  0.00    -0.326 N 
ATOM     11  C   UNL A   1      32.390  26.570  22.396  1.00  0.00     0.081 C 
ATOM     12  C   UNL A   1      33.650  25.752  22.326  1.00  0.00     0.264 C 
ATOM     13  H   UNL A   1      34.821  25.359  23.991  1.00  0.00     0.348 HD
BRANCH  10  14
ATOM     14  C   UNL A   1      33.869  23.882  23.945  1.00  0.00     0.212 C 
ATOM     15  C   UNL A   1      33.396  23.050  22.740  1.00  0.00     0.081 C 
BRANCH  14  16
ATOM     16  C   UNL A   1      35.270  23.460  24.441  1.00  0.00     0.009 A 
ATOM     17  C   UNL A   1      35.943  24.117  25.491  1.00  0.00     0.013 A 
ATOM     18  C   UNL A   1      35.877  22.317  23.882  1.00  0.00     0.013 A 
ATOM     19  C   UNL A   1      37.172  23.651  25.963  1.00  0.00     0.040 A 
ATOM     20  C   UNL A   1      37.105  21.848  24.360  1.00  0.00     0.040 A 
ATOM     21  C   UNL A   1      37.740  22.520  25.395  1.00  0.00     0.123 A 
ATOM     22  F   UNL A   1      38.910  22.066  25.862  1.00  0.00    -0.207 F 
ENDBRANCH  14  16
ENDBRANCH  10  14
ENDBRANCH   4   7
ENDBRANCH   2   3
ENDBRANCH   1   2
BRANCH   1  23
ATOM     23  C   UNL A   1      33.472  28.851  27.269  1.00  0.00     0.023 C 
BRANCH  23  24
ATOM     24  C   UNL A   1      34.892  29.341  27.532  1.00  0.00     0.116 C 
BRANCH  24  25
ATOM     25  N   UNL A   1      35.002  30.150  28.737  1.00  0.00    -0.352 N 
ATOM     26  C   UNL A   1      36.075  30.335  29.580  1.00  0.00     0.251 C 
ATOM     27  H   UNL A   1      34.186  30.639  28.988  1.00  0.00     0.163 HD
ATOM     28  O   UNL A   1      35.930  30.940  30.634  1.00  0.00    -0.269 OA
BRANCH  26  29
ATOM     29  C   UNL A   1      37.396  29.772  29.226  1.00  0.00     0.039 A 
ATOM     30  C   UNL A   1      37.834  29.851  27.901  1.00  0.00     0.014 A 
ATOM     31  C   UNL A   1      38.206  29.181  30.197  1.00  0.00     0.014 A 
ATOM     32  C   UNL A   1      39.118  29.410  27.570  1.00  0.00     0.010 A 
ATOM     33  C   UNL A   1      39.517  28.834  29.887  1.00  0.00     0.010 A 
ATOM     34  C   UNL A   1      39.986  28.938  28.569  1.00  0.00    -0.014 A 
BRANCH  34  35
ATOM     35  C   UNL A   1      41.380  28.531  28.256  1.00  0.00     0.031 A 
ATOM     36  C   UNL A   1      41.690  27.095  27.930  1.00  0.00     0.074 A 
ATOM     37  C   UNL A   1      42.379  29.433  28.331  1.00  0.00     0.049 A 
ATOM     38  N   UNL A   1      42.847  26.525  27.706  1.00  0.00    -0.248 NA
ATOM     39  C   UNL A   1      40.548  26.168  27.879  1.00  0.00     0.031 C 
ATOM     40  C   UNL A   1      42.221  30.846  28.683  1.00  0.00     0.029 A 
ATOM     41  N   UNL A   1      43.729  29.292  28.126  1.00  0.00    -0.354 N 
ATOM     42  C   UNL A   1      42.573  25.178  27.506  1.00  0.00     0.074 A 
ATOM     43  C   UNL A   1      41.150  25.004  27.699  1.00  0.00     0.031 C 
ATOM     44  C   UNL A   1      43.421  31.447  28.641  1.00  0.00     0.029 A 
ATOM     45  C   UNL A   1      44.438  30.456  28.302  1.00  0.00     0.049 A 
ATOM     46  H   UNL A   1      44.149  28.437  27.875  1.00  0.00     0.167 HD
ATOM     47  C   UNL A   1      43.423  24.181  27.165  1.00  0.00     0.037 A 
ATOM     48  C   UNL A   1      45.760  30.696  28.207  1.00  0.00     0.037 A 
ATOM     49  C   UNL A   1      44.836  24.361  26.953  1.00  0.00     0.049 A 
ATOM     50  C   UNL A   1      46.687  29.569  27.842  1.00  0.00     0.074 A 
ATOM     51  C   UNL A   1      45.774  23.425  26.556  1.00  0.00     0.029 A 
ATOM     52  N   UNL A   1      45.512  25.559  27.126  1.00  0.00    -0.354 N 
ATOM     53  N   UNL A   1      46.405  28.314  27.591  1.00  0.00    -0.248 NA
ATOM     54  C   UNL A   1      48.116  29.896  27.737  1.00  0.00     0.031 C 
ATOM     55  C   UNL A   1      47.028  24.045  26.537  1.00  0.00     0.029 A 
ATOM     56  C   UNL A   1      46.860  25.381  26.863  1.00  0.00     0.049 A 
ATOM     57  H   UNL A   1      45.096  26.410  27.395  1.00  0.00     0.167 HD
ATOM     58  C   UNL A   1      47.613  27.710  27.263  1.00  0.00     0.074 A 
ATOM     59  C   UNL A   1      48.628  28.740  27.337  1.00  0.00     0.031 C 
ATOM     60  C   UNL A   1      47.858  26.420  26.927  1.00  0.00     0.037 A 
BRANCH  47  61
ATOM     61  C   UNL A   1      42.842  22.805  26.999  1.00  0.00     0.057 A 
ATOM     62  C   UNL A   1      42.453  22.027  28.099  1.00  0.00     0.134 A 
ATOM     63  C   UNL A   1      42.651  22.257  25.725  1.00  0.00     0.134 A 
ATOM     64  F   UNL A   1      42.619  22.485  29.349  1.00  0.00    -0.206 F 
ATOM     65  C   UNL A   1      41.930  20.742  27.938  1.00  0.00     0.040 A 
ATOM     66  C   UNL A   1      42.099  20.987  25.549  1.00  0.00     0.040 A 
ATOM     67  F   UNL A   1      42.994  22.948  24.627  1.00  0.00    -0.206 F 
ATOM     68  C   UNL A   1      41.746  20.222  26.660  1.00  0.00     0.006 A 
ENDBRANCH  47  61
BRANCH  48  69
ATOM     69  C   UNL A   1      46.287  32.067  28.434  1.00  0.00     0.057 A 
ATOM     70  C   UNL A   1      46.769  32.454  29.690  1.00  0.00     0.134 A 
ATOM     71  C   UNL A   1      46.313  33.023  27.412  1.00  0.00     0.134 A 
ATOM     72  F   UNL A   1      46.755  31.588  30.715  1.00  0.00    -0.206 F 
ATOM     73  C   UNL A   1      47.236  33.748  29.929  1.00  0.00     0.040 A 
ATOM     74  C   UNL A   1      46.802  34.312  27.629  1.00  0.00     0.040 A 
ATOM     75  F   UNL A   1      45.874  32.713  26.183  1.00  0.00    -0.206 F 
ATOM     76  C   UNL A   1      47.258  34.680  28.894  1.00  0.00     0.006 A 
ENDBRANCH  48  69
BRANCH  60  77
ATOM     77  C   UNL A   1      49.269  26.059  26.560  1.00  0.00     0.057 A 
ATOM     78  C   UNL A   1      49.789  26.287  25.279  1.00  0.00     0.134 A 
ATOM     79  C   UNL A   1      50.131  25.509  27.517  1.00  0.00     0.134 A 
ATOM     80  F   UNL A   1      49.014  26.800  24.312  1.00  0.00    -0.206 F 
ATOM     81  C   UNL A   1      51.107  25.956  24.957  1.00  0.00     0.040 A 
ATOM     82  C   UNL A   1      51.459  25.202  27.217  1.00  0.00     0.040 A 
ATOM     83  F   UNL A   1      49.701  25.273  28.766  1.00  0.00    -0.206 F 
ATOM     84  C   UNL A   1      51.947  25.419  25.931  1.00  0.00     0.006 A 
ENDBRANCH  60  77
ENDBRANCH  34  35
ENDBRANCH  26  29
ENDBRANCH  24  25
ENDBRANCH  23  24
ENDBRANCH   1  23
TORSDOF 13
ENDMDL
MODEL 3
REMARK VINA RESULT:     -11.6      2.766      7.797
REMARK SMILES C[C@@H]1[C@@H](C(=O)NCCCCNC(=O)c2ccc(-c3c4nc(c(-c5c(F)cccc5F)c5ccc([nH]5)c(-c5c(F)cccc5F)c5nc(c(-c6c(F)cccc6F)c6ccc3[nH]6)C=C5)C=C4)cc2)CC[N@@H+]1[C@@H](C)c1ccc(F)cc1
REMARK SMILES IDX 8 1 7 2 6 3 4 4 5 5 3 7 1 8 2 9 70 10 68 11 69 12 71 14
REMARK SMILES IDX 72 15 73 16 74 17 79 18 75 19 78 20 76 21 77 22 9 23 10 24
REMARK SMILES IDX 11 25 12 26 13 28 14 29 15 30 67 31 16 32 66 33 17 34 18 35
REMARK SMILES IDX 19 36 60 37 20 38 65 39 59 40 61 41 21 42 64 43 58 44 57 45
REMARK SMILES IDX 22 47 48 48 31 49 47 50 32 51 35 52 46 53 62 54 33 55 34 56
REMARK SMILES IDX 45 58 63 59 36 60 23 61 24 62 29 63 25 64 26 65 28 66 30 67
REMARK SMILES IDX 27 68 49 69 50 70 55 71 51 72 52 73 54 74 56 75 53 76 37 77
REMARK SMILES IDX 38 78 43 79 39 80 40 81 42 82 44 83 41 84
REMARK H PARENT 6 6 70 13 11 27 61 46 35 57
REMARK Flexibility Score: inf
ROOT
ATOM      1  C   UNL A   1      32.362  29.485  25.245  1.00  0.00     0.023 C 
ENDROOT
BRANCH   1   2
ATOM      2  C   UNL A   1      31.714  28.935  23.983  1.00  0.00     0.116 C 
BRANCH   2   3
ATOM      3  N   UNL A   1      32.659  28.473  22.987  1.00  0.00    -0.356 N 
ATOM      4  C   UNL A   1      32.903  27.198  22.556  1.00  0.00     0.229 C 
ATOM      5  O   UNL A   1      33.734  27.064  21.658  1.00  0.00    -0.275 OA
ATOM      6  H   UNL A   1      33.200  29.175  22.559  1.00  0.00     0.163 HD
BRANCH   4   7
ATOM      7  C   UNL A   1      32.234  26.016  23.263  1.00  0.00     0.142 C 
ATOM      8  C   UNL A   1      32.289  25.353  25.692  1.00  0.00     0.076 C 
ATOM      9  C   UNL A   1      33.112  25.425  24.402  1.00  0.00     0.194 C 
ATOM     10  N   UNL A   1      33.658  24.172  23.851  1.00  0.00    -0.326 N 
ATOM     11  C   UNL A   1      31.988  24.803  22.375  1.00  0.00     0.081 C 
ATOM     12  C   UNL A   1      33.284  24.044  22.453  1.00  0.00     0.264 C 
ATOM     13  H   UNL A   1      34.657  24.334  23.979  1.00  0.00     0.348 HD
BRANCH  10  14
ATOM     14  C   UNL A   1      33.807  22.931  24.612  1.00  0.00     0.212 C 
ATOM     15  C   UNL A   1      33.258  21.696  23.877  1.00  0.00     0.081 C 
BRANCH  14  16
ATOM     16  C   UNL A   1      35.280  22.756  25.044  1.00  0.00     0.009 A 
ATOM     17  C   UNL A   1      36.065  21.650  24.660  1.00  0.00     0.013 A 
ATOM     18  C   UNL A   1      35.901  23.780  25.787  1.00  0.00     0.013 A 
ATOM     19  C   UNL A   1      37.417  21.572  25.003  1.00  0.00     0.040 A 
ATOM     20  C   UNL A   1      37.256  23.703  26.125  1.00  0.00     0.040 A 
ATOM     21  C   UNL A   1      38.000  22.600  25.730  1.00  0.00     0.123 A 
ATOM     22  F   UNL A   1      39.300  22.529  26.043  1.00  0.00    -0.207 F 
ENDBRANCH  14  16
ENDBRANCH  10  14
ENDBRANCH   4   7
ENDBRANCH   2   3
ENDBRANCH   1   2
BRANCH   1  23
ATOM     23  C   UNL A   1      33.645  28.784  25.682  1.00  0.00     0.023 C 
BRANCH  23  24
ATOM     24  C   UNL A   1      33.883  28.726  27.187  1.00  0.00     0.116 C 
BRANCH  24  25
ATOM     25  N   UNL A   1      33.872  30.037  27.819  1.00  0.00    -0.352 N 
ATOM     26  C   UNL A   1      34.857  30.682  28.530  1.00  0.00     0.251 C 
ATOM     27  H   UNL A   1      33.030  30.538  27.723  1.00  0.00     0.163 HD
ATOM     28  O   UNL A   1      34.607  31.727  29.117  1.00  0.00    -0.269 OA
BRANCH  26  29
ATOM     29  C   UNL A   1      36.211  30.094  28.614  1.00  0.00     0.039 A 
ATOM     30  C   UNL A   1      37.055  30.173  27.502  1.00  0.00     0.014 A 
ATOM     31  C   UNL A   1      36.654  29.479  29.787  1.00  0.00     0.014 A 
ATOM     32  C   UNL A   1      38.368  29.707  27.597  1.00  0.00     0.010 A 
ATOM     33  C   UNL A   1      37.988  29.107  29.911  1.00  0.00     0.010 A 
ATOM     34  C   UNL A   1      38.859  29.210  28.816  1.00  0.00    -0.014 A 
BRANCH  34  35
ATOM     35  C   UNL A   1      40.273  28.775  28.964  1.00  0.00     0.031 A 
ATOM     36  C   UNL A   1      41.301  29.730  29.508  1.00  0.00     0.074 A 
ATOM     37  C   UNL A   1      40.648  27.549  28.549  1.00  0.00     0.049 A 
ATOM     38  N   UNL A   1      42.593  29.570  29.641  1.00  0.00    -0.248 NA
ATOM     39  C   UNL A   1      40.815  31.054  29.929  1.00  0.00     0.031 C 
ATOM     40  C   UNL A   1      39.760  26.544  27.960  1.00  0.00     0.029 A 
ATOM     41  N   UNL A   1      41.879  26.942  28.549  1.00  0.00    -0.354 N 
ATOM     42  C   UNL A   1      43.072  30.774  30.143  1.00  0.00     0.074 A 
ATOM     43  C   UNL A   1      41.945  31.675  30.228  1.00  0.00     0.031 C 
ATOM     44  C   UNL A   1      40.469  25.438  27.683  1.00  0.00     0.029 A 
ATOM     45  C   UNL A   1      41.867  25.669  28.033  1.00  0.00     0.049 A 
ATOM     46  H   UNL A   1      42.694  27.379  28.887  1.00  0.00     0.167 HD
ATOM     47  C   UNL A   1      44.332  31.092  30.525  1.00  0.00     0.037 A 
ATOM     48  C   UNL A   1      42.871  24.788  27.857  1.00  0.00     0.037 A 
ATOM     49  C   UNL A   1      45.449  30.186  30.458  1.00  0.00     0.049 A 
ATOM     50  C   UNL A   1      44.265  25.170  28.275  1.00  0.00     0.074 A 
ATOM     51  C   UNL A   1      46.754  30.396  30.868  1.00  0.00     0.029 A 
ATOM     52  N   UNL A   1      45.392  28.900  29.944  1.00  0.00    -0.354 N 
ATOM     53  N   UNL A   1      44.692  26.288  28.809  1.00  0.00    -0.248 NA
ATOM     54  C   UNL A   1      45.315  24.161  28.073  1.00  0.00     0.031 C 
ATOM     55  C   UNL A   1      47.498  29.253  30.555  1.00  0.00     0.029 A 
ATOM     56  C   UNL A   1      46.643  28.310  30.009  1.00  0.00     0.049 A 
ATOM     57  H   UNL A   1      44.581  28.468  29.588  1.00  0.00     0.167 HD
ATOM     58  C   UNL A   1      46.050  26.105  29.042  1.00  0.00     0.074 A 
ATOM     59  C   UNL A   1      46.371  24.764  28.600  1.00  0.00     0.031 C 
ATOM     60  C   UNL A   1      46.947  26.968  29.577  1.00  0.00     0.037 A 
BRANCH  47  61
ATOM     61  C   UNL A   1      44.564  32.481  31.050  1.00  0.00     0.057 A 
ATOM     62  C   UNL A   1      44.930  33.540  30.209  1.00  0.00     0.134 A 
ATOM     63  C   UNL A   1      44.402  32.767  32.412  1.00  0.00     0.134 A 
ATOM     64  F   UNL A   1      45.113  33.334  28.896  1.00  0.00    -0.206 F 
ATOM     65  C   UNL A   1      45.161  34.824  30.706  1.00  0.00     0.040 A 
ATOM     66  C   UNL A   1      44.599  34.054  32.917  1.00  0.00     0.040 A 
ATOM     67  F   UNL A   1      44.046  31.803  33.274  1.00  0.00    -0.206 F 
ATOM     68  C   UNL A   1      44.988  35.085  32.064  1.00  0.00     0.006 A 
ENDBRANCH  47  61
BRANCH  48  69
ATOM     69  C   UNL A   1      42.593  23.446  27.283  1.00  0.00     0.057 A 
ATOM     70  C   UNL A   1      42.192  22.381  28.099  1.00  0.00     0.134 A 
ATOM     71  C   UNL A   1      42.731  23.190  25.913  1.00  0.00     0.134 A 
ATOM     72  F   UNL A   1      42.059  22.559  29.422  1.00  0.00    -0.206 F 
ATOM     73  C   UNL A   1      41.960  21.107  27.579  1.00  0.00     0.040 A 
ATOM     74  C   UNL A   1      42.476  21.928  25.376  1.00  0.00     0.040 A 
ATOM     75  F   UNL A   1      43.103  24.169  25.075  1.00  0.00    -0.206 F 
ATOM     76  C   UNL A   1      42.097  20.879  26.212  1.00  0.00     0.006 A 
ENDBRANCH  48  69
BRANCH  60  77
ATOM     77  C   UNL A   1      48.352  26.473  29.767  1.00  0.00     0.057 A 
ATOM     78  C   UNL A   1      49.346  26.658  28.797  1.00  0.00     0.134 A 
ATOM     79  C   UNL A   1      48.723  25.834  30.957  1.00  0.00     0.134 A 
ATOM     80  F   UNL A   1      49.056  27.252  27.630  1.00  0.00    -0.206 F 
ATOM     81  C   UNL A   1      50.651  26.202  28.994  1.00  0.00     0.040 A 
ATOM     82  C   UNL A   1      50.031  25.401  31.179  1.00  0.00     0.040 A 
ATOM     83  F   UNL A   1      47.823  25.633  31.932  1.00  0.00    -0.206 F 
ATOM     84  C   UNL A   1      50.998  25.579  30.191  1.00  0.00     0.006 A 
ENDBRANCH  60  77
ENDBRANCH  34  35
ENDBRANCH  26  29
ENDBRANCH  24  25
ENDBRANCH  23  24
ENDBRANCH   1  23
TORSDOF 13
ENDMDL
