MODEL 1
REMARK VINA RESULT:     -11.8      0.000      0.000
REMARK SMILES O=C(NCCCCNC(=O)[C@H]1CC[C@@H](CNC(=O)c2ccc(CO)cc2)O1)c1ccc(-c2c3nc(c(-c4c(F)cccc4F)c4ccc([nH]4)c(-c4c(F)cccc4F)c4nc(c(-c5c(F)cccc5F)c5ccc2[nH]5)C=C4)C=C3)cc1
REMARK SMILES IDX 7 1 6 2 5 3 4 4 3 5 1 6 2 7 28 9 29 10 81 11 30 12 80 13
REMARK SMILES IDX 31 14 32 15 33 16 74 17 34 18 79 19 73 20 75 21 35 22 78 23
REMARK SMILES IDX 72 24 71 25 36 27 62 28 45 29 61 30 46 31 49 32 60 33 76 34
REMARK SMILES IDX 47 35 48 36 59 38 77 39 50 40 37 41 38 42 43 43 39 44 40 45
REMARK SMILES IDX 42 46 44 47 41 48 63 49 64 50 69 51 65 52 66 53 68 54 70 55
REMARK SMILES IDX 67 56 51 57 52 58 57 59 53 60 54 61 56 62 58 63 55 64 8 65
REMARK SMILES IDX 9 66 10 68 11 69 12 70 27 71 13 72 14 73 15 74 16 75 17 76
REMARK SMILES IDX 18 78 19 79 20 80 26 81 21 82 25 83 22 84 23 85 24 86
REMARK H PARENT 3 8 75 26 49 37 8 67 16 77 24 87
REMARK Flexibility Score: inf
ROOT
ATOM      1  C   UNL A   1      32.313  29.452  26.655  1.00  0.00     0.116 C 
ENDROOT
BRANCH   1   2
ATOM      2  C   UNL A   1      31.628  30.497  25.779  1.00  0.00     0.023 C 
BRANCH   2   3
ATOM      3  C   UNL A   1      31.425  31.865  26.434  1.00  0.00     0.023 C 
BRANCH   3   4
ATOM      4  C   UNL A   1      32.634  32.414  27.182  1.00  0.00     0.116 C 
BRANCH   4   5
ATOM      5  N   UNL A   1      32.469  33.805  27.574  1.00  0.00    -0.352 N 
ATOM      6  O   UNL A   1      32.774  35.663  28.814  1.00  0.00    -0.269 OA
ATOM      7  C   UNL A   1      33.163  34.540  28.503  1.00  0.00     0.251 C 
ATOM      8  H   UNL A   1      31.753  34.291  27.105  1.00  0.00     0.163 HD
BRANCH   7   9
ATOM      9  C   UNL A   1      34.363  33.970  29.150  1.00  0.00     0.039 A 
ATOM     10  C   UNL A   1      35.645  34.384  28.777  1.00  0.00     0.014 A 
ATOM     11  C   UNL A   1      34.196  33.012  30.154  1.00  0.00     0.014 A 
ATOM     12  C   UNL A   1      36.760  33.742  29.306  1.00  0.00     0.010 A 
ATOM     13  C   UNL A   1      35.319  32.426  30.740  1.00  0.00     0.010 A 
ATOM     14  C   UNL A   1      36.609  32.762  30.298  1.00  0.00    -0.014 A 
BRANCH  14  15
ATOM     15  C   UNL A   1      37.802  32.119  30.902  1.00  0.00     0.031 A 
ATOM     16  C   UNL A   1      38.542  31.034  30.173  1.00  0.00     0.074 A 
ATOM     17  C   UNL A   1      38.203  32.502  32.130  1.00  0.00     0.049 A 
ATOM     18  N   UNL A   1      39.550  30.304  30.578  1.00  0.00    -0.248 NA
ATOM     19  C   UNL A   1      38.083  30.723  28.811  1.00  0.00     0.031 C 
ATOM     20  C   UNL A   1      37.567  33.545  32.935  1.00  0.00     0.029 A 
ATOM     21  N   UNL A   1      39.230  32.051  32.916  1.00  0.00    -0.354 N 
ATOM     22  C   UNL A   1      39.831  29.431  29.535  1.00  0.00     0.074 A 
ATOM     23  C   UNL A   1      38.870  29.705  28.488  1.00  0.00     0.031 C 
ATOM     24  C   UNL A   1      38.225  33.663  34.098  1.00  0.00     0.029 A 
ATOM     25  C   UNL A   1      39.285  32.662  34.145  1.00  0.00     0.049 A 
ATOM     26  H   UNL A   1      39.868  31.357  32.629  1.00  0.00     0.167 HD
ATOM     27  C   UNL A   1      40.804  28.491  29.458  1.00  0.00     0.037 A 
ATOM     28  C   UNL A   1      40.074  32.421  35.208  1.00  0.00     0.037 A 
ATOM     29  C   UNL A   1      41.758  28.227  30.506  1.00  0.00     0.049 A 
ATOM     30  C   UNL A   1      41.113  31.341  35.119  1.00  0.00     0.074 A 
ATOM     31  C   UNL A   1      42.803  27.319  30.514  1.00  0.00     0.029 A 
ATOM     32  N   UNL A   1      41.773  28.862  31.740  1.00  0.00    -0.354 N 
ATOM     33  N   UNL A   1      41.390  30.543  34.117  1.00  0.00    -0.248 NA
ATOM     34  C   UNL A   1      41.949  31.129  36.308  1.00  0.00     0.031 C 
ATOM     35  C   UNL A   1      43.413  27.364  31.771  1.00  0.00     0.029 A 
ATOM     36  C   UNL A   1      42.791  28.346  32.527  1.00  0.00     0.049 A 
ATOM     37  H   UNL A   1      41.152  29.574  32.017  1.00  0.00     0.167 HD
ATOM     38  C   UNL A   1      42.452  29.755  34.541  1.00  0.00     0.074 A 
ATOM     39  C   UNL A   1      42.770  30.174  35.890  1.00  0.00     0.031 C 
ATOM     40  C   UNL A   1      43.106  28.779  33.866  1.00  0.00     0.037 A 
BRANCH  27  41
ATOM     41  C   UNL A   1      40.863  27.654  28.210  1.00  0.00     0.057 A 
ATOM     42  C   UNL A   1      41.618  28.033  27.092  1.00  0.00     0.134 A 
ATOM     43  C   UNL A   1      40.165  26.442  28.133  1.00  0.00     0.134 A 
ATOM     44  F   UNL A   1      42.304  29.186  27.093  1.00  0.00    -0.206 F 
ATOM     45  C   UNL A   1      41.647  27.256  25.932  1.00  0.00     0.040 A 
ATOM     46  C   UNL A   1      40.210  25.641  26.990  1.00  0.00     0.040 A 
ATOM     47  F   UNL A   1      39.430  26.010  29.169  1.00  0.00    -0.206 F 
ATOM     48  C   UNL A   1      40.945  26.054  25.880  1.00  0.00     0.006 A 
ENDBRANCH  27  41
BRANCH  28  49
ATOM     49  C   UNL A   1      39.895  33.222  36.443  1.00  0.00     0.057 A 
ATOM     50  C   UNL A   1      40.620  34.398  36.655  1.00  0.00     0.134 A 
ATOM     51  C   UNL A   1      38.965  32.850  37.422  1.00  0.00     0.134 A 
ATOM     52  F   UNL A   1      41.534  34.798  35.758  1.00  0.00    -0.206 F 
ATOM     53  C   UNL A   1      40.433  35.175  37.800  1.00  0.00     0.040 A 
ATOM     54  C   UNL A   1      38.749  33.631  38.559  1.00  0.00     0.040 A 
ATOM     55  F   UNL A   1      38.229  31.739  37.272  1.00  0.00    -0.206 F 
ATOM     56  C   UNL A   1      39.488  34.796  38.751  1.00  0.00     0.006 A 
ENDBRANCH  28  49
BRANCH  40  57
ATOM     57  C   UNL A   1      44.272  28.128  34.552  1.00  0.00     0.057 A 
ATOM     58  C   UNL A   1      45.567  28.657  34.485  1.00  0.00     0.134 A 
ATOM     59  C   UNL A   1      44.081  26.985  35.340  1.00  0.00     0.134 A 
ATOM     60  F   UNL A   1      45.821  29.742  33.736  1.00  0.00    -0.206 F 
ATOM     61  C   UNL A   1      46.633  28.065  35.166  1.00  0.00     0.040 A 
ATOM     62  C   UNL A   1      45.131  26.401  36.047  1.00  0.00     0.040 A 
ATOM     63  F   UNL A   1      42.865  26.431  35.452  1.00  0.00    -0.206 F 
ATOM     64  C   UNL A   1      46.413  26.939  35.958  1.00  0.00     0.006 A 
ENDBRANCH  40  57
ENDBRANCH  14  15
ENDBRANCH   7   9
ENDBRANCH   4   5
ENDBRANCH   3   4
ENDBRANCH   2   3
ENDBRANCH   1   2
BRANCH   1  65
ATOM     65  N   UNL A   1      32.946  28.414  25.867  1.00  0.00    -0.354 N 
ATOM     66  C   UNL A   1      32.386  27.388  25.162  1.00  0.00     0.249 C 
ATOM     67  H   UNL A   1      33.929  28.455  25.834  1.00  0.00     0.163 HD
ATOM     68  O   UNL A   1      33.154  26.618  24.580  1.00  0.00    -0.272 OA
BRANCH  66  69
ATOM     69  C   UNL A   1      30.853  27.216  25.122  1.00  0.00     0.207 C 
ATOM     70  C   UNL A   1      30.267  27.765  23.833  1.00  0.00     0.045 C 
ATOM     71  O   UNL A   1      30.495  25.825  25.173  1.00  0.00    -0.363 OA
ATOM     72  C   UNL A   1      30.309  26.571  22.916  1.00  0.00     0.037 C 
ATOM     73  C   UNL A   1      30.031  25.416  23.866  1.00  0.00     0.138 C 
BRANCH  73  74
ATOM     74  C   UNL A   1      30.702  24.095  23.472  1.00  0.00     0.148 C 
BRANCH  74  75
ATOM     75  N   UNL A   1      31.883  24.267  22.634  1.00  0.00    -0.349 N 
ATOM     76  C   UNL A   1      33.013  23.485  22.579  1.00  0.00     0.251 C 
ATOM     77  H   UNL A   1      31.870  25.044  22.030  1.00  0.00     0.163 HD
ATOM     78  O   UNL A   1      34.023  23.905  22.022  1.00  0.00    -0.269 OA
BRANCH  76  79
ATOM     79  C   UNL A   1      33.022  22.140  23.199  1.00  0.00     0.039 A 
ATOM     80  C   UNL A   1      33.845  21.906  24.302  1.00  0.00     0.014 A 
ATOM     81  C   UNL A   1      32.255  21.099  22.666  1.00  0.00     0.014 A 
ATOM     82  C   UNL A   1      33.841  20.651  24.917  1.00  0.00     0.007 A 
ATOM     83  C   UNL A   1      32.243  19.850  23.289  1.00  0.00     0.007 A 
ATOM     84  C   UNL A   1      33.018  19.622  24.433  1.00  0.00    -0.023 A 
BRANCH  84  85
ATOM     85  C   UNL A   1      32.992  18.284  25.123  1.00  0.00     0.191 C 
BRANCH  85  86
ATOM     86  O   UNL A   1      32.578  18.420  26.475  1.00  0.00    -0.392 OA
ATOM     87  H   UNL A   1      32.335  19.343  26.647  1.00  0.00     0.211 HD
ENDBRANCH  85  86
ENDBRANCH  84  85
ENDBRANCH  76  79
ENDBRANCH  74  75
ENDBRANCH  73  74
ENDBRANCH  66  69
ENDBRANCH   1  65
TORSDOF 16
ENDMDL
MODEL 2
REMARK VINA RESULT:     -11.7      1.228      2.088
REMARK SMILES O=C(NCCCCNC(=O)[C@H]1CC[C@@H](CNC(=O)c2ccc(CO)cc2)O1)c1ccc(-c2c3nc(c(-c4c(F)cccc4F)c4ccc([nH]4)c(-c4c(F)cccc4F)c4nc(c(-c5c(F)cccc5F)c5ccc2[nH]5)C=C4)C=C3)cc1
REMARK SMILES IDX 7 1 6 2 5 3 4 4 3 5 1 6 2 7 28 9 29 10 81 11 30 12 80 13
REMARK SMILES IDX 31 14 32 15 33 16 74 17 34 18 79 19 73 20 75 21 35 22 78 23
REMARK SMILES IDX 72 24 71 25 36 27 62 28 45 29 61 30 46 31 49 32 60 33 76 34
REMARK SMILES IDX 47 35 48 36 59 38 77 39 50 40 37 41 38 42 43 43 39 44 40 45
REMARK SMILES IDX 42 46 44 47 41 48 63 49 64 50 69 51 65 52 66 53 68 54 70 55
REMARK SMILES IDX 67 56 51 57 52 58 57 59 53 60 54 61 56 62 58 63 55 64 8 65
REMARK SMILES IDX 9 66 10 68 11 69 12 70 27 71 13 72 14 73 15 74 16 75 17 76
REMARK SMILES IDX 18 78 19 79 20 80 26 81 21 82 25 83 22 84 23 85 24 86
REMARK H PARENT 3 8 75 26 49 37 8 67 16 77 24 87
REMARK Flexibility Score: inf
ROOT
ATOM      1  C   UNL A   1      32.472  29.851  26.718  1.00  0.00     0.116 C 
ENDROOT
BRANCH   1   2
ATOM      2  C   UNL A   1      31.469  30.724  25.968  1.00  0.00     0.023 C 
BRANCH   2   3
ATOM      3  C   UNL A   1      31.297  32.140  26.522  1.00  0.00     0.023 C 
BRANCH   3   4
ATOM      4  C   UNL A   1      32.518  32.716  27.228  1.00  0.00     0.116 C 
BRANCH   4   5
ATOM      5  N   UNL A   1      32.339  34.107  27.617  1.00  0.00    -0.352 N 
ATOM      6  O   UNL A   1      32.616  35.967  28.859  1.00  0.00    -0.269 OA
ATOM      7  C   UNL A   1      33.016  34.846  28.555  1.00  0.00     0.251 C 
ATOM      8  H   UNL A   1      31.628  34.588  27.137  1.00  0.00     0.163 HD
BRANCH   7   9
ATOM      9  C   UNL A   1      34.210  34.284  29.220  1.00  0.00     0.039 A 
ATOM     10  C   UNL A   1      35.494  34.544  28.732  1.00  0.00     0.014 A 
ATOM     11  C   UNL A   1      34.037  33.490  30.357  1.00  0.00     0.014 A 
ATOM     12  C   UNL A   1      36.591  33.900  29.294  1.00  0.00     0.010 A 
ATOM     13  C   UNL A   1      35.149  32.908  30.968  1.00  0.00     0.010 A 
ATOM     14  C   UNL A   1      36.431  33.082  30.422  1.00  0.00    -0.014 A 
BRANCH  14  15
ATOM     15  C   UNL A   1      37.611  32.442  31.055  1.00  0.00     0.031 A 
ATOM     16  C   UNL A   1      38.347  31.332  30.361  1.00  0.00     0.074 A 
ATOM     17  C   UNL A   1      38.002  32.850  32.277  1.00  0.00     0.049 A 
ATOM     18  N   UNL A   1      39.342  30.601  30.795  1.00  0.00    -0.248 NA
ATOM     19  C   UNL A   1      37.900  30.992  29.002  1.00  0.00     0.031 C 
ATOM     20  C   UNL A   1      37.369  33.920  33.050  1.00  0.00     0.029 A 
ATOM     21  N   UNL A   1      39.016  32.408  33.086  1.00  0.00    -0.354 N 
ATOM     22  C   UNL A   1      39.626  29.700  29.776  1.00  0.00     0.074 A 
ATOM     23  C   UNL A   1      38.679  29.958  28.712  1.00  0.00     0.031 C 
ATOM     24  C   UNL A   1      38.015  34.059  34.216  1.00  0.00     0.029 A 
ATOM     25  C   UNL A   1      39.063  33.048  34.300  1.00  0.00     0.049 A 
ATOM     26  H   UNL A   1      39.649  31.701  32.823  1.00  0.00     0.167 HD
ATOM     27  C   UNL A   1      40.590  28.748  29.734  1.00  0.00     0.037 A 
ATOM     28  C   UNL A   1      39.839  32.826  35.377  1.00  0.00     0.037 A 
ATOM     29  C   UNL A   1      41.529  28.500  30.799  1.00  0.00     0.049 A 
ATOM     30  C   UNL A   1      40.866  31.733  35.327  1.00  0.00     0.074 A 
ATOM     31  C   UNL A   1      42.564  27.582  30.840  1.00  0.00     0.029 A 
ATOM     32  N   UNL A   1      41.537  29.165  32.017  1.00  0.00    -0.354 N 
ATOM     33  N   UNL A   1      41.146  30.908  34.347  1.00  0.00    -0.248 NA
ATOM     34  C   UNL A   1      41.687  31.542  36.530  1.00  0.00     0.031 C 
ATOM     35  C   UNL A   1      43.160  27.651  32.103  1.00  0.00     0.029 A 
ATOM     36  C   UNL A   1      42.541  28.658  32.827  1.00  0.00     0.049 A 
ATOM     37  H   UNL A   1      40.921  29.890  32.269  1.00  0.00     0.167 HD
ATOM     38  C   UNL A   1      42.194  30.120  34.802  1.00  0.00     0.074 A 
ATOM     39  C   UNL A   1      42.503  30.568  36.144  1.00  0.00     0.031 C 
ATOM     40  C   UNL A   1      42.846  29.120  34.159  1.00  0.00     0.037 A 
BRANCH  27  41
ATOM     41  C   UNL A   1      40.653  27.881  28.508  1.00  0.00     0.057 A 
ATOM     42  C   UNL A   1      41.397  28.241  27.375  1.00  0.00     0.134 A 
ATOM     43  C   UNL A   1      39.971  26.657  28.465  1.00  0.00     0.134 A 
ATOM     44  F   UNL A   1      42.067  29.403  27.343  1.00  0.00    -0.206 F 
ATOM     45  C   UNL A   1      41.431  27.435  26.235  1.00  0.00     0.040 A 
ATOM     46  C   UNL A   1      40.021  25.829  27.343  1.00  0.00     0.040 A 
ATOM     47  F   UNL A   1      39.248  26.243  29.516  1.00  0.00    -0.206 F 
ATOM     48  C   UNL A   1      40.745  26.222  26.218  1.00  0.00     0.006 A 
ENDBRANCH  27  41
BRANCH  28  49
ATOM     49  C   UNL A   1      39.654  33.659  36.591  1.00  0.00     0.057 A 
ATOM     50  C   UNL A   1      38.771  33.276  37.604  1.00  0.00     0.134 A 
ATOM     51  C   UNL A   1      40.387  34.837  36.782  1.00  0.00     0.134 A 
ATOM     52  F   UNL A   1      38.032  32.164  37.471  1.00  0.00    -0.206 F 
ATOM     53  C   UNL A   1      38.615  34.038  38.763  1.00  0.00     0.040 A 
ATOM     54  C   UNL A   1      40.262  35.595  37.947  1.00  0.00     0.040 A 
ATOM     55  F   UNL A   1      41.260  35.252  35.851  1.00  0.00    -0.206 F 
ATOM     56  C   UNL A   1      39.370  35.196  38.940  1.00  0.00     0.006 A 
ENDBRANCH  28  49
BRANCH  40  57
ATOM     57  C   UNL A   1      43.997  28.475  34.874  1.00  0.00     0.057 A 
ATOM     58  C   UNL A   1      43.844  27.311  35.637  1.00  0.00     0.134 A 
ATOM     59  C   UNL A   1      45.291  28.998  34.745  1.00  0.00     0.134 A 
ATOM     60  F   UNL A   1      42.629  26.767  35.812  1.00  0.00    -0.206 F 
ATOM     61  C   UNL A   1      44.934  26.698  36.258  1.00  0.00     0.040 A 
ATOM     62  C   UNL A   1      46.392  28.380  35.338  1.00  0.00     0.040 A 
ATOM     63  F   UNL A   1      45.508  30.107  34.023  1.00  0.00    -0.206 F 
ATOM     64  C   UNL A   1      46.214  27.228  36.101  1.00  0.00     0.006 A 
ENDBRANCH  40  57
ENDBRANCH  14  15
ENDBRANCH   7   9
ENDBRANCH   4   5
ENDBRANCH   3   4
ENDBRANCH   2   3
ENDBRANCH   1   2
BRANCH   1  65
ATOM     65  N   UNL A   1      31.902  28.574  27.097  1.00  0.00    -0.354 N 
ATOM     66  C   UNL A   1      31.435  27.559  26.314  1.00  0.00     0.249 C 
ATOM     67  H   UNL A   1      31.844  28.414  28.067  1.00  0.00     0.163 HD
ATOM     68  O   UNL A   1      30.977  26.568  26.888  1.00  0.00    -0.272 OA
BRANCH  66  69
ATOM     69  C   UNL A   1      31.477  27.678  24.776  1.00  0.00     0.207 C 
ATOM     70  C   UNL A   1      32.860  27.361  24.234  1.00  0.00     0.045 C 
ATOM     71  O   UNL A   1      30.576  26.740  24.167  1.00  0.00    -0.363 OA
ATOM     72  C   UNL A   1      32.791  25.875  24.001  1.00  0.00     0.037 C 
ATOM     73  C   UNL A   1      31.349  25.677  23.564  1.00  0.00     0.138 C 
BRANCH  73  74
ATOM     74  C   UNL A   1      30.749  24.320  23.952  1.00  0.00     0.148 C 
BRANCH  74  75
ATOM     75  N   UNL A   1      30.368  24.231  25.357  1.00  0.00    -0.349 N 
ATOM     76  C   UNL A   1      30.925  23.454  26.346  1.00  0.00     0.251 C 
ATOM     77  H   UNL A   1      29.614  24.799  25.632  1.00  0.00     0.163 HD
ATOM     78  O   UNL A   1      30.329  23.291  27.406  1.00  0.00    -0.269 OA
BRANCH  76  79
ATOM     79  C   UNL A   1      32.239  22.803  26.134  1.00  0.00     0.039 A 
ATOM     80  C   UNL A   1      32.283  21.542  25.535  1.00  0.00     0.014 A 
ATOM     81  C   UNL A   1      33.420  23.414  26.566  1.00  0.00     0.014 A 
ATOM     82  C   UNL A   1      33.516  20.929  25.299  1.00  0.00     0.007 A 
ATOM     83  C   UNL A   1      34.652  22.804  26.319  1.00  0.00     0.007 A 
ATOM     84  C   UNL A   1      34.711  21.568  25.663  1.00  0.00    -0.023 A 
BRANCH  84  85
ATOM     85  C   UNL A   1      36.038  20.918  25.373  1.00  0.00     0.191 C 
BRANCH  85  86
ATOM     86  O   UNL A   1      35.867  19.551  25.028  1.00  0.00    -0.392 OA
ATOM     87  H   UNL A   1      34.977  19.417  24.666  1.00  0.00     0.211 HD
ENDBRANCH  85  86
ENDBRANCH  84  85
ENDBRANCH  76  79
ENDBRANCH  74  75
ENDBRANCH  73  74
ENDBRANCH  66  69
ENDBRANCH   1  65
TORSDOF 16
ENDMDL
MODEL 3
REMARK VINA RESULT:     -11.6      4.800     10.252
REMARK SMILES O=C(NCCCCNC(=O)[C@H]1CC[C@@H](CNC(=O)c2ccc(CO)cc2)O1)c1ccc(-c2c3nc(c(-c4c(F)cccc4F)c4ccc([nH]4)c(-c4c(F)cccc4F)c4nc(c(-c5c(F)cccc5F)c5ccc2[nH]5)C=C4)C=C3)cc1
REMARK SMILES IDX 7 1 6 2 5 3 4 4 3 5 1 6 2 7 28 9 29 10 81 11 30 12 80 13
REMARK SMILES IDX 31 14 32 15 33 16 74 17 34 18 79 19 73 20 75 21 35 22 78 23
REMARK SMILES IDX 72 24 71 25 36 27 62 28 45 29 61 30 46 31 49 32 60 33 76 34
REMARK SMILES IDX 47 35 48 36 59 38 77 39 50 40 37 41 38 42 43 43 39 44 40 45
REMARK SMILES IDX 42 46 44 47 41 48 63 49 64 50 69 51 65 52 66 53 68 54 70 55
REMARK SMILES IDX 67 56 51 57 52 58 57 59 53 60 54 61 56 62 58 63 55 64 8 65
REMARK SMILES IDX 9 66 10 68 11 69 12 70 27 71 13 72 14 73 15 74 16 75 17 76
REMARK SMILES IDX 18 78 19 79 20 80 26 81 21 82 25 83 22 84 23 85 24 86
REMARK H PARENT 3 8 75 26 49 37 8 67 16 77 24 87
REMARK Flexibility Score: inf
ROOT
ATOM      1  C   UNL A   1      35.062  19.995  25.001  1.00  0.00     0.116 C 
ENDROOT
BRANCH   1   2
ATOM      2  C   UNL A   1      36.444  20.643  25.023  1.00  0.00     0.023 C 
BRANCH   2   3
ATOM      3  C   UNL A   1      37.621  19.666  24.988  1.00  0.00     0.023 C 
BRANCH   3   4
ATOM      4  C   UNL A   1      38.918  20.187  25.594  1.00  0.00     0.116 C 
BRANCH   4   5
ATOM      5  N   UNL A   1      39.923  19.146  25.752  1.00  0.00    -0.352 N 
ATOM      6  O   UNL A   1      41.987  18.273  25.996  1.00  0.00    -0.269 OA
ATOM      7  C   UNL A   1      41.256  19.258  26.064  1.00  0.00     0.251 C 
ATOM      8  H   UNL A   1      39.600  18.227  25.614  1.00  0.00     0.163 HD
BRANCH   7   9
ATOM      9  C   UNL A   1      41.816  20.567  26.456  1.00  0.00     0.039 A 
ATOM     10  C   UNL A   1      41.918  20.933  27.801  1.00  0.00     0.014 A 
ATOM     11  C   UNL A   1      42.256  21.438  25.455  1.00  0.00     0.014 A 
ATOM     12  C   UNL A   1      42.327  22.218  28.140  1.00  0.00     0.010 A 
ATOM     13  C   UNL A   1      42.741  22.700  25.803  1.00  0.00     0.010 A 
ATOM     14  C   UNL A   1      42.750  23.113  27.145  1.00  0.00    -0.014 A 
BRANCH  14  15
ATOM     15  C   UNL A   1      43.239  24.464  27.513  1.00  0.00     0.031 A 
ATOM     16  C   UNL A   1      42.283  25.534  27.956  1.00  0.00     0.074 A 
ATOM     17  C   UNL A   1      44.556  24.731  27.422  1.00  0.00     0.049 A 
ATOM     18  N   UNL A   1      42.519  26.791  28.235  1.00  0.00    -0.248 NA
ATOM     19  C   UNL A   1      40.872  25.141  28.095  1.00  0.00     0.031 C 
ATOM     20  C   UNL A   1      45.583  23.775  27.007  1.00  0.00     0.029 A 
ATOM     21  N   UNL A   1      45.253  25.888  27.660  1.00  0.00    -0.354 N 
ATOM     22  C   UNL A   1      41.287  27.346  28.559  1.00  0.00     0.074 A 
ATOM     23  C   UNL A   1      40.302  26.295  28.416  1.00  0.00     0.031 C 
ATOM     24  C   UNL A   1      46.780  24.378  27.030  1.00  0.00     0.029 A 
ATOM     25  C   UNL A   1      46.596  25.779  27.398  1.00  0.00     0.049 A 
ATOM     26  H   UNL A   1      44.832  26.716  27.987  1.00  0.00     0.167 HD
ATOM     27  C   UNL A   1      41.007  28.615  28.943  1.00  0.00     0.037 A 
ATOM     28  C   UNL A   1      47.570  26.708  27.415  1.00  0.00     0.037 A 
ATOM     29  C   UNL A   1      41.996  29.654  29.084  1.00  0.00     0.049 A 
ATOM     30  C   UNL A   1      47.229  28.119  27.795  1.00  0.00     0.074 A 
ATOM     31  C   UNL A   1      41.820  30.963  29.498  1.00  0.00     0.029 A 
ATOM     32  N   UNL A   1      43.346  29.505  28.799  1.00  0.00    -0.354 N 
ATOM     33  N   UNL A   1      46.067  28.625  28.129  1.00  0.00    -0.248 NA
ATOM     34  C   UNL A   1      48.333  29.087  27.802  1.00  0.00     0.031 C 
ATOM     35  C   UNL A   1      43.051  31.620  29.409  1.00  0.00     0.029 A 
ATOM     36  C   UNL A   1      44.010  30.705  29.002  1.00  0.00     0.049 A 
ATOM     37  H   UNL A   1      43.771  28.670  28.497  1.00  0.00     0.167 HD
ATOM     38  C   UNL A   1      46.304  29.963  28.416  1.00  0.00     0.074 A 
ATOM     39  C   UNL A   1      47.721  30.188  28.220  1.00  0.00     0.031 C 
ATOM     40  C   UNL A   1      45.424  30.915  28.813  1.00  0.00     0.037 A 
BRANCH  27  41
ATOM     41  C   UNL A   1      39.567  28.958  29.204  1.00  0.00     0.057 A 
ATOM     42  C   UNL A   1      38.987  28.829  30.473  1.00  0.00     0.134 A 
ATOM     43  C   UNL A   1      38.752  29.442  28.172  1.00  0.00     0.134 A 
ATOM     44  F   UNL A   1      39.706  28.364  31.506  1.00  0.00    -0.206 F 
ATOM     45  C   UNL A   1      37.642  29.132  30.698  1.00  0.00     0.040 A 
ATOM     46  C   UNL A   1      37.414  29.777  28.390  1.00  0.00     0.040 A 
ATOM     47  F   UNL A   1      39.242  29.601  26.933  1.00  0.00    -0.206 F 
ATOM     48  C   UNL A   1      36.852  29.612  29.654  1.00  0.00     0.006 A 
ENDBRANCH  27  41
BRANCH  28  49
ATOM     49  C   UNL A   1      48.954  26.318  27.050  1.00  0.00     0.057 A 
ATOM     50  C   UNL A   1      49.406  26.403  25.730  1.00  0.00     0.134 A 
ATOM     51  C   UNL A   1      49.867  25.888  28.021  1.00  0.00     0.134 A 
ATOM     52  F   UNL A   1      48.572  26.795  24.755  1.00  0.00    -0.206 F 
ATOM     53  C   UNL A   1      50.716  26.068  25.385  1.00  0.00     0.040 A 
ATOM     54  C   UNL A   1      51.188  25.576  27.694  1.00  0.00     0.040 A 
ATOM     55  F   UNL A   1      49.498  25.797  29.307  1.00  0.00    -0.206 F 
ATOM     56  C   UNL A   1      51.613  25.662  26.371  1.00  0.00     0.006 A 
ENDBRANCH  28  49
BRANCH  40  57
ATOM     57  C   UNL A   1      45.974  32.278  29.120  1.00  0.00     0.057 A 
ATOM     58  C   UNL A   1      46.515  32.600  30.370  1.00  0.00     0.134 A 
ATOM     59  C   UNL A   1      46.013  33.264  28.124  1.00  0.00     0.134 A 
ATOM     60  F   UNL A   1      46.495  31.706  31.371  1.00  0.00    -0.206 F 
ATOM     61  C   UNL A   1      47.062  33.859  30.625  1.00  0.00     0.040 A 
ATOM     62  C   UNL A   1      46.582  34.515  28.358  1.00  0.00     0.040 A 
ATOM     63  F   UNL A   1      45.517  33.018  26.903  1.00  0.00    -0.206 F 
ATOM     64  C   UNL A   1      47.106  34.817  29.613  1.00  0.00     0.006 A 
ENDBRANCH  40  57
ENDBRANCH  14  15
ENDBRANCH   7   9
ENDBRANCH   4   5
ENDBRANCH   3   4
ENDBRANCH   2   3
ENDBRANCH   1   2
BRANCH   1  65
ATOM     65  N   UNL A   1      34.048  20.864  25.563  1.00  0.00    -0.354 N 
ATOM     66  C   UNL A   1      33.450  21.969  25.029  1.00  0.00     0.249 C 
ATOM     67  H   UNL A   1      33.742  20.621  26.468  1.00  0.00     0.163 HD
ATOM     68  O   UNL A   1      32.616  22.552  25.727  1.00  0.00    -0.272 OA
BRANCH  66  69
ATOM     69  C   UNL A   1      33.830  22.453  23.615  1.00  0.00     0.207 C 
ATOM     70  C   UNL A   1      32.597  22.674  22.755  1.00  0.00     0.045 C 
ATOM     71  O   UNL A   1      34.516  23.714  23.674  1.00  0.00    -0.363 OA
ATOM     72  C   UNL A   1      32.256  24.114  23.030  1.00  0.00     0.037 C 
ATOM     73  C   UNL A   1      33.627  24.751  23.201  1.00  0.00     0.138 C 
BRANCH  73  74
ATOM     74  C   UNL A   1      33.658  25.938  24.170  1.00  0.00     0.148 C 
BRANCH  74  75
ATOM     75  N   UNL A   1      32.882  25.721  25.386  1.00  0.00    -0.349 N 
ATOM     76  C   UNL A   1      31.764  26.395  25.817  1.00  0.00     0.251 C 
ATOM     77  H   UNL A   1      33.201  25.000  25.973  1.00  0.00     0.163 HD
ATOM     78  O   UNL A   1      31.385  26.274  26.978  1.00  0.00    -0.269 OA
BRANCH  76  79
ATOM     79  C   UNL A   1      31.018  27.277  24.889  1.00  0.00     0.039 A 
ATOM     80  C   UNL A   1      29.962  26.744  24.147  1.00  0.00     0.014 A 
ATOM     81  C   UNL A   1      31.388  28.614  24.716  1.00  0.00     0.014 A 
ATOM     82  C   UNL A   1      29.229  27.569  23.290  1.00  0.00     0.007 A 
ATOM     83  C   UNL A   1      30.647  29.440  23.869  1.00  0.00     0.007 A 
ATOM     84  C   UNL A   1      29.548  28.930  23.167  1.00  0.00    -0.023 A 
BRANCH  84  85
ATOM     85  C   UNL A   1      28.730  29.822  22.271  1.00  0.00     0.191 C 
BRANCH  85  86
ATOM     86  O   UNL A   1      29.529  30.361  21.228  1.00  0.00    -0.392 OA
ATOM     87  H   UNL A   1      29.142  31.197  20.924  1.00  0.00     0.211 HD
ENDBRANCH  85  86
ENDBRANCH  84  85
ENDBRANCH  76  79
ENDBRANCH  74  75
ENDBRANCH  73  74
ENDBRANCH  66  69
ENDBRANCH   1  65
TORSDOF 16
ENDMDL
