MODEL 1
REMARK VINA RESULT:     -12.7      0.000      0.000
REMARK SMILES CN(C)c1ccc(CCC(=O)N2C[C@@H](C(=O)NCCCCNC(=O)c3ccc(-c4c5nc(c(-c6c(F)cccc6F)c6ccc([nH]6)c(-c6c(F)cccc6F)c6nc(c(-c7c(F)cccc7F)c7ccc4[nH]7)C=C6)C=C5)cc3)[C@H](c3cccnc3)C2)cc1
REMARK SMILES IDX 18 1 17 2 15 3 16 4 14 6 12 7 13 8 86 9 79 10 10 11 11 12
REMARK SMILES IDX 9 13 8 14 7 15 4 16 5 17 88 18 6 19 87 20 2 21 1 22 3 23
REMARK SMILES IDX 80 24 81 25 85 26 82 27 84 28 83 29 19 30 20 31 21 32 22 33
REMARK SMILES IDX 23 34 24 36 25 37 26 38 78 39 27 40 77 41 28 42 29 43 30 44
REMARK SMILES IDX 71 45 31 46 76 47 70 48 72 49 32 50 75 51 69 52 68 53 33 55
REMARK SMILES IDX 59 56 42 57 58 58 43 59 46 60 57 61 73 62 44 63 45 64 56 66
REMARK SMILES IDX 74 67 47 68 34 69 35 70 40 71 36 72 37 73 39 74 41 75 38 76
REMARK SMILES IDX 60 77 61 78 66 79 62 80 63 81 65 82 67 83 64 84 48 85 49 86
REMARK SMILES IDX 54 87 50 88 51 89 53 90 55 91 52 92
REMARK H PARENT 17 5 22 35 72 54 46 65
REMARK Flexibility Score: inf
ROOT
ATOM      1  C   UNL A   1      36.571  21.812  25.576  1.00  0.00     0.116 C 
ENDROOT
BRANCH   1   2
ATOM      2  N   UNL A   1      35.591  21.827  26.644  1.00  0.00    -0.356 N 
ATOM      3  C   UNL A   1      34.358  22.382  26.746  1.00  0.00     0.225 C 
ATOM      4  O   UNL A   1      33.886  22.559  27.873  1.00  0.00    -0.275 OA
ATOM      5  H   UNL A   1      35.876  21.339  27.450  1.00  0.00     0.163 HD
BRANCH   3   6
ATOM      6  C   UNL A   1      33.531  22.750  25.551  1.00  0.00     0.107 C 
ATOM      7  N   UNL A   1      32.134  24.462  24.813  1.00  0.00    -0.341 N 
ATOM      8  C   UNL A   1      33.298  24.215  25.578  1.00  0.00     0.133 C 
ATOM      9  C   UNL A   1      31.334  23.235  24.672  1.00  0.00     0.128 C 
ATOM     10  C   UNL A   1      32.168  22.084  25.333  1.00  0.00     0.054 C 
BRANCH   7  11
ATOM     11  C   UNL A   1      31.776  25.755  24.490  1.00  0.00     0.222 C 
ATOM     12  O   UNL A   1      32.581  26.543  23.994  1.00  0.00    -0.275 OA
BRANCH  11  13
ATOM     13  C   UNL A   1      30.350  26.222  24.911  1.00  0.00     0.105 C 
BRANCH  13  14
ATOM     14  C   UNL A   1      29.208  26.398  23.873  1.00  0.00     0.045 C 
BRANCH  14  15
ATOM     15  C   UNL A   1      28.930  27.767  23.255  1.00  0.00    -0.047 A 
ATOM     16  C   UNL A   1      28.428  30.470  22.404  1.00  0.00     0.036 A 
ATOM     17  C   UNL A   1      27.411  29.665  22.932  1.00  0.00     0.026 A 
ATOM     18  C   UNL A   1      29.684  29.871  22.239  1.00  0.00     0.026 A 
ATOM     19  C   UNL A   1      27.651  28.339  23.345  1.00  0.00     0.006 A 
ATOM     20  C   UNL A   1      29.929  28.534  22.632  1.00  0.00     0.006 A 
BRANCH  16  21
ATOM     21  N   UNL A   1      28.146  31.786  22.016  1.00  0.00    -0.378 N 
ATOM     22  C   UNL A   1      28.092  31.987  20.573  1.00  0.00     0.143 C 
ATOM     23  C   UNL A   1      28.780  32.886  22.747  1.00  0.00     0.143 C 
ENDBRANCH  16  21
ENDBRANCH  14  15
ENDBRANCH  13  14
ENDBRANCH  11  13
ENDBRANCH   7  11
BRANCH  10  24
ATOM     24  C   UNL A   1      32.511  20.784  24.620  1.00  0.00    -0.024 A 
ATOM     25  C   UNL A   1      32.311  20.724  23.223  1.00  0.00     0.007 A 
ATOM     26  C   UNL A   1      32.767  19.581  25.257  1.00  0.00     0.115 A 
ATOM     27  C   UNL A   1      32.216  19.503  22.571  1.00  0.00     0.020 A 
ATOM     28  N   UNL A   1      32.743  18.378  24.632  1.00  0.00    -0.264 NA
ATOM     29  C   UNL A   1      32.426  18.364  23.317  1.00  0.00     0.111 A 
ENDBRANCH  10  24
ENDBRANCH   3   6
ENDBRANCH   1   2
BRANCH   1  30
ATOM     30  C   UNL A   1      36.443  20.498  24.806  1.00  0.00     0.023 C 
BRANCH  30  31
ATOM     31  C   UNL A   1      37.678  19.591  24.916  1.00  0.00     0.023 C 
BRANCH  31  32
ATOM     32  C   UNL A   1      38.871  20.208  25.643  1.00  0.00     0.116 C 
BRANCH  32  33
ATOM     33  N   UNL A   1      39.993  19.288  25.744  1.00  0.00    -0.352 N 
ATOM     34  C   UNL A   1      41.304  19.515  26.085  1.00  0.00     0.251 C 
ATOM     35  H   UNL A   1      39.778  18.350  25.532  1.00  0.00     0.163 HD
ATOM     36  O   UNL A   1      42.130  18.624  25.931  1.00  0.00    -0.269 OA
BRANCH  34  37
ATOM     37  C   UNL A   1      41.729  20.829  26.615  1.00  0.00     0.039 A 
ATOM     38  C   UNL A   1      42.237  21.777  25.720  1.00  0.00     0.014 A 
ATOM     39  C   UNL A   1      41.663  21.123  27.978  1.00  0.00     0.014 A 
ATOM     40  C   UNL A   1      42.613  23.039  26.184  1.00  0.00     0.010 A 
ATOM     41  C   UNL A   1      41.969  22.407  28.429  1.00  0.00     0.010 A 
ATOM     42  C   UNL A   1      42.445  23.380  27.536  1.00  0.00    -0.014 A 
BRANCH  42  43
ATOM     43  C   UNL A   1      42.744  24.751  28.026  1.00  0.00     0.031 A 
ATOM     44  C   UNL A   1      44.146  25.137  28.413  1.00  0.00     0.074 A 
ATOM     45  C   UNL A   1      41.738  25.634  28.183  1.00  0.00     0.049 A 
ATOM     46  N   UNL A   1      44.582  26.261  28.922  1.00  0.00    -0.248 NA
ATOM     47  C   UNL A   1      45.190  24.118  28.224  1.00  0.00     0.031 C 
ATOM     48  C   UNL A   1      40.328  25.371  27.886  1.00  0.00     0.029 A 
ATOM     49  N   UNL A   1      41.744  26.927  28.644  1.00  0.00    -0.354 N 
ATOM     50  C   UNL A   1      45.945  26.081  29.126  1.00  0.00     0.074 A 
ATOM     51  C   UNL A   1      46.253  24.722  28.734  1.00  0.00     0.031 C 
ATOM     52  C   UNL A   1      39.611  26.474  28.151  1.00  0.00     0.029 A 
ATOM     53  C   UNL A   1      40.498  27.506  28.678  1.00  0.00     0.049 A 
ATOM     54  H   UNL A   1      42.564  27.396  28.924  1.00  0.00     0.167 HD
ATOM     55  C   UNL A   1      46.860  26.972  29.578  1.00  0.00     0.037 A 
ATOM     56  C   UNL A   1      40.110  28.725  29.099  1.00  0.00     0.037 A 
ATOM     57  C   UNL A   1      46.554  28.329  29.954  1.00  0.00     0.049 A 
ATOM     58  C   UNL A   1      41.142  29.688  29.618  1.00  0.00     0.074 A 
ATOM     59  C   UNL A   1      47.423  29.324  30.368  1.00  0.00     0.029 A 
ATOM     60  N   UNL A   1      45.281  28.880  29.966  1.00  0.00    -0.354 N 
ATOM     61  N   UNL A   1      42.437  29.526  29.739  1.00  0.00    -0.248 NA
ATOM     62  C   UNL A   1      40.658  31.005  30.053  1.00  0.00     0.031 C 
ATOM     63  C   UNL A   1      46.669  30.458  30.686  1.00  0.00     0.029 A 
ATOM     64  C   UNL A   1      45.338  30.191  30.409  1.00  0.00     0.049 A 
ATOM     65  H   UNL A   1      44.460  28.409  29.699  1.00  0.00     0.167 HD
ATOM     66  C   UNL A   1      42.926  30.729  30.234  1.00  0.00     0.074 A 
ATOM     67  C   UNL A   1      41.790  31.615  30.376  1.00  0.00     0.031 C 
ATOM     68  C   UNL A   1      44.202  31.068  30.542  1.00  0.00     0.037 A 
BRANCH  55  69
ATOM     69  C   UNL A   1      48.284  26.507  29.697  1.00  0.00     0.057 A 
ATOM     70  C   UNL A   1      48.760  25.868  30.849  1.00  0.00     0.134 A 
ATOM     71  C   UNL A   1      49.178  26.660  28.629  1.00  0.00     0.134 A 
ATOM     72  F   UNL A   1      47.960  25.697  31.912  1.00  0.00    -0.206 F 
ATOM     73  C   UNL A   1      50.081  25.425  30.948  1.00  0.00     0.040 A 
ATOM     74  C   UNL A   1      50.492  26.194  28.704  1.00  0.00     0.040 A 
ATOM     75  F   UNL A   1      48.787  27.253  27.491  1.00  0.00    -0.206 F 
ATOM     76  C   UNL A   1      50.949  25.581  29.869  1.00  0.00     0.006 A 
ENDBRANCH  55  69
BRANCH  56  77
ATOM     77  C   UNL A   1      38.676  29.112  29.037  1.00  0.00     0.057 A 
ATOM     78  C   UNL A   1      38.111  29.604  27.856  1.00  0.00     0.134 A 
ATOM     79  C   UNL A   1      37.843  29.011  30.158  1.00  0.00     0.134 A 
ATOM     80  F   UNL A   1      38.863  29.743  26.754  1.00  0.00    -0.206 F 
ATOM     81  C   UNL A   1      36.775  30.006  27.796  1.00  0.00     0.040 A 
ATOM     82  C   UNL A   1      36.498  29.381  30.104  1.00  0.00     0.040 A 
ATOM     83  F   UNL A   1      38.321  28.539  31.318  1.00  0.00    -0.206 F 
ATOM     84  C   UNL A   1      35.963  29.889  28.922  1.00  0.00     0.006 A 
ENDBRANCH  56  77
BRANCH  68  85
ATOM     85  C   UNL A   1      44.446  32.469  31.027  1.00  0.00     0.057 A 
ATOM     86  C   UNL A   1      44.452  32.794  32.389  1.00  0.00     0.134 A 
ATOM     87  C   UNL A   1      44.715  33.499  30.116  1.00  0.00     0.134 A 
ATOM     88  F   UNL A   1      44.188  31.858  33.314  1.00  0.00    -0.206 F 
ATOM     89  C   UNL A   1      44.691  34.098  32.827  1.00  0.00     0.040 A 
ATOM     90  C   UNL A   1      44.986  34.800  30.543  1.00  0.00     0.040 A 
ATOM     91  F   UNL A   1      44.734  33.256  28.797  1.00  0.00    -0.206 F 
ATOM     92  C   UNL A   1      44.968  35.104  31.902  1.00  0.00     0.006 A 
ENDBRANCH  68  85
ENDBRANCH  42  43
ENDBRANCH  34  37
ENDBRANCH  32  33
ENDBRANCH  31  32
ENDBRANCH  30  31
ENDBRANCH   1  30
TORSDOF 17
ENDMDL
MODEL 2
REMARK VINA RESULT:     -12.5      1.203      5.941
REMARK SMILES CN(C)c1ccc(CCC(=O)N2C[C@@H](C(=O)NCCCCNC(=O)c3ccc(-c4c5nc(c(-c6c(F)cccc6F)c6ccc([nH]6)c(-c6c(F)cccc6F)c6nc(c(-c7c(F)cccc7F)c7ccc4[nH]7)C=C6)C=C5)cc3)[C@H](c3cccnc3)C2)cc1
REMARK SMILES IDX 18 1 17 2 15 3 16 4 14 6 12 7 13 8 86 9 79 10 10 11 11 12
REMARK SMILES IDX 9 13 8 14 7 15 4 16 5 17 88 18 6 19 87 20 2 21 1 22 3 23
REMARK SMILES IDX 80 24 81 25 85 26 82 27 84 28 83 29 19 30 20 31 21 32 22 33
REMARK SMILES IDX 23 34 24 36 25 37 26 38 78 39 27 40 77 41 28 42 29 43 30 44
REMARK SMILES IDX 71 45 31 46 76 47 70 48 72 49 32 50 75 51 69 52 68 53 33 55
REMARK SMILES IDX 59 56 42 57 58 58 43 59 46 60 57 61 73 62 44 63 45 64 56 66
REMARK SMILES IDX 74 67 47 68 34 69 35 70 40 71 36 72 37 73 39 74 41 75 38 76
REMARK SMILES IDX 60 77 61 78 66 79 62 80 63 81 65 82 67 83 64 84 48 85 49 86
REMARK SMILES IDX 54 87 50 88 51 89 53 90 55 91 52 92
REMARK H PARENT 17 5 22 35 72 54 46 65
REMARK Flexibility Score: inf
ROOT
ATOM      1  C   UNL A   1      36.816  21.906  25.467  1.00  0.00     0.116 C 
ENDROOT
BRANCH   1   2
ATOM      2  N   UNL A   1      35.836  21.970  26.533  1.00  0.00    -0.356 N 
ATOM      3  C   UNL A   1      34.554  22.408  26.572  1.00  0.00     0.225 C 
ATOM      4  O   UNL A   1      34.062  22.690  27.669  1.00  0.00    -0.275 OA
ATOM      5  H   UNL A   1      36.166  21.629  27.395  1.00  0.00     0.163 HD
BRANCH   3   6
ATOM      6  C   UNL A   1      33.697  22.523  25.346  1.00  0.00     0.107 C 
ATOM      7  N   UNL A   1      32.262  24.041  24.315  1.00  0.00    -0.341 N 
ATOM      8  C   UNL A   1      33.445  23.961  25.087  1.00  0.00     0.133 C 
ATOM      9  C   UNL A   1      31.476  22.803  24.439  1.00  0.00     0.128 C 
ATOM     10  C   UNL A   1      32.338  21.815  25.296  1.00  0.00     0.054 C 
BRANCH   7  11
ATOM     11  C   UNL A   1      31.881  25.240  23.749  1.00  0.00     0.222 C 
ATOM     12  O   UNL A   1      32.417  25.672  22.730  1.00  0.00    -0.275 OA
BRANCH  11  13
ATOM     13  C   UNL A   1      30.841  26.095  24.535  1.00  0.00     0.105 C 
BRANCH  13  14
ATOM     14  C   UNL A   1      29.462  26.468  23.926  1.00  0.00     0.045 C 
BRANCH  14  15
ATOM     15  C   UNL A   1      29.272  27.798  23.200  1.00  0.00    -0.047 A 
ATOM     16  C   UNL A   1      28.940  30.451  22.135  1.00  0.00     0.036 A 
ATOM     17  C   UNL A   1      27.872  29.752  22.710  1.00  0.00     0.026 A 
ATOM     18  C   UNL A   1      30.159  29.767  22.032  1.00  0.00     0.026 A 
ATOM     19  C   UNL A   1      28.029  28.450  23.228  1.00  0.00     0.006 A 
ATOM     20  C   UNL A   1      30.320  28.453  22.531  1.00  0.00     0.006 A 
BRANCH  16  21
ATOM     21  N   UNL A   1      28.741  31.747  21.642  1.00  0.00    -0.378 N 
ATOM     22  C   UNL A   1      28.438  32.738  22.667  1.00  0.00     0.143 C 
ATOM     23  C   UNL A   1      27.979  31.918  20.403  1.00  0.00     0.143 C 
ENDBRANCH  16  21
ENDBRANCH  14  15
ENDBRANCH  13  14
ENDBRANCH  11  13
ENDBRANCH   7  11
BRANCH  10  24
ATOM     24  C   UNL A   1      32.684  20.402  24.849  1.00  0.00    -0.024 A 
ATOM     25  C   UNL A   1      32.484  20.071  23.491  1.00  0.00     0.007 A 
ATOM     26  C   UNL A   1      32.943  19.345  25.707  1.00  0.00     0.115 A 
ATOM     27  C   UNL A   1      32.391  18.747  23.087  1.00  0.00     0.020 A 
ATOM     28  N   UNL A   1      32.921  18.044  25.327  1.00  0.00    -0.264 NA
ATOM     29  C   UNL A   1      32.604  17.774  24.040  1.00  0.00     0.111 A 
ENDBRANCH  10  24
ENDBRANCH   3   6
ENDBRANCH   1   2
BRANCH   1  30
ATOM     30  C   UNL A   1      36.618  20.605  24.691  1.00  0.00     0.023 C 
BRANCH  30  31
ATOM     31  C   UNL A   1      37.718  19.561  24.939  1.00  0.00     0.023 C 
BRANCH  31  32
ATOM     32  C   UNL A   1      38.946  20.080  25.687  1.00  0.00     0.116 C 
BRANCH  32  33
ATOM     33  N   UNL A   1      39.987  19.072  25.806  1.00  0.00    -0.352 N 
ATOM     34  C   UNL A   1      41.328  19.203  26.072  1.00  0.00     0.251 C 
ATOM     35  H   UNL A   1      39.682  18.145  25.673  1.00  0.00     0.163 HD
ATOM     36  O   UNL A   1      42.066  18.234  25.948  1.00  0.00    -0.269 OA
BRANCH  34  37
ATOM     37  C   UNL A   1      41.892  20.507  26.485  1.00  0.00     0.039 A 
ATOM     38  C   UNL A   1      42.386  21.365  25.497  1.00  0.00     0.014 A 
ATOM     39  C   UNL A   1      41.965  20.878  27.830  1.00  0.00     0.014 A 
ATOM     40  C   UNL A   1      42.891  22.617  25.851  1.00  0.00     0.010 A 
ATOM     41  C   UNL A   1      42.402  22.157  28.176  1.00  0.00     0.010 A 
ATOM     42  C   UNL A   1      42.866  23.042  27.190  1.00  0.00    -0.014 A 
BRANCH  42  43
ATOM     43  C   UNL A   1      43.305  24.410  27.571  1.00  0.00     0.031 A 
ATOM     44  C   UNL A   1      42.296  25.461  27.945  1.00  0.00     0.074 A 
ATOM     45  C   UNL A   1      44.614  24.726  27.519  1.00  0.00     0.049 A 
ATOM     46  N   UNL A   1      42.487  26.722  28.240  1.00  0.00    -0.248 NA
ATOM     47  C   UNL A   1      40.885  25.046  27.970  1.00  0.00     0.031 C 
ATOM     48  C   UNL A   1      45.690  23.811  27.131  1.00  0.00     0.029 A 
ATOM     49  N   UNL A   1      45.262  25.906  27.782  1.00  0.00    -0.354 N 
ATOM     50  C   UNL A   1      41.224  27.253  28.471  1.00  0.00     0.074 A 
ATOM     51  C   UNL A   1      40.271  26.190  28.232  1.00  0.00     0.031 C 
ATOM     52  C   UNL A   1      46.863  24.458  27.201  1.00  0.00     0.029 A 
ATOM     53  C   UNL A   1      46.623  25.843  27.596  1.00  0.00     0.049 A 
ATOM     54  H   UNL A   1      44.797  26.723  28.077  1.00  0.00     0.167 HD
ATOM     55  C   UNL A   1      40.889  28.505  28.868  1.00  0.00     0.037 A 
ATOM     56  C   UNL A   1      47.569  26.793  27.716  1.00  0.00     0.037 A 
ATOM     57  C   UNL A   1      41.841  29.557  29.119  1.00  0.00     0.049 A 
ATOM     58  C   UNL A   1      47.169  28.181  28.135  1.00  0.00     0.074 A 
ATOM     59  C   UNL A   1      41.602  30.841  29.579  1.00  0.00     0.029 A 
ATOM     60  N   UNL A   1      43.211  29.450  28.927  1.00  0.00    -0.354 N 
ATOM     61  N   UNL A   1      45.977  28.649  28.417  1.00  0.00    -0.248 NA
ATOM     62  C   UNL A   1      48.248  29.172  28.257  1.00  0.00     0.031 C 
ATOM     63  C   UNL A   1      42.821  31.528  29.611  1.00  0.00     0.029 A 
ATOM     64  C   UNL A   1      43.826  30.653  29.231  1.00  0.00     0.049 A 
ATOM     65  H   UNL A   1      43.676  28.639  28.621  1.00  0.00     0.167 HD
ATOM     66  C   UNL A   1      46.167  29.977  28.780  1.00  0.00     0.074 A 
ATOM     67  C   UNL A   1      47.588  30.236  28.695  1.00  0.00     0.031 C 
ATOM     68  C   UNL A   1      45.244  30.899  29.150  1.00  0.00     0.037 A 
BRANCH  55  69
ATOM     69  C   UNL A   1      39.430  28.809  29.049  1.00  0.00     0.057 A 
ATOM     70  C   UNL A   1      38.791  28.662  30.288  1.00  0.00     0.134 A 
ATOM     71  C   UNL A   1      38.662  29.298  27.983  1.00  0.00     0.134 A 
ATOM     72  F   UNL A   1      39.463  28.189  31.348  1.00  0.00    -0.206 F 
ATOM     73  C   UNL A   1      37.436  28.960  30.452  1.00  0.00     0.040 A 
ATOM     74  C   UNL A   1      37.316  29.629  28.143  1.00  0.00     0.040 A 
ATOM     75  F   UNL A   1      39.212  29.474  26.772  1.00  0.00    -0.206 F 
ATOM     76  C   UNL A   1      36.697  29.453  29.379  1.00  0.00     0.006 A 
ENDBRANCH  55  69
BRANCH  56  77
ATOM     77  C   UNL A   1      48.993  26.464  27.446  1.00  0.00     0.057 A 
ATOM     78  C   UNL A   1      49.513  26.515  26.148  1.00  0.00     0.134 A 
ATOM     79  C   UNL A   1      49.863  26.081  28.475  1.00  0.00     0.134 A 
ATOM     80  F   UNL A   1      48.724  26.856  25.118  1.00  0.00    -0.206 F 
ATOM     81  C   UNL A   1      50.839  26.173  25.877  1.00  0.00     0.040 A 
ATOM     82  C   UNL A   1      51.198  25.765  28.222  1.00  0.00     0.040 A 
ATOM     83  F   UNL A   1      49.428  26.021  29.742  1.00  0.00    -0.206 F 
ATOM     84  C   UNL A   1      51.687  25.802  26.918  1.00  0.00     0.006 A 
ENDBRANCH  56  77
BRANCH  68  85
ATOM     85  C   UNL A   1      45.745  32.263  29.530  1.00  0.00     0.057 A 
ATOM     86  C   UNL A   1      46.141  32.573  30.837  1.00  0.00     0.134 A 
ATOM     87  C   UNL A   1      45.868  33.270  28.563  1.00  0.00     0.134 A 
ATOM     88  F   UNL A   1      46.036  31.658  31.814  1.00  0.00    -0.206 F 
ATOM     89  C   UNL A   1      46.615  33.841  31.175  1.00  0.00     0.040 A 
ATOM     90  C   UNL A   1      46.370  34.533  28.882  1.00  0.00     0.040 A 
ATOM     91  F   UNL A   1      45.516  33.039  27.289  1.00  0.00    -0.206 F 
ATOM     92  C   UNL A   1      46.739  34.823  30.194  1.00  0.00     0.006 A 
ENDBRANCH  68  85
ENDBRANCH  42  43
ENDBRANCH  34  37
ENDBRANCH  32  33
ENDBRANCH  31  32
ENDBRANCH  30  31
ENDBRANCH   1  30
TORSDOF 17
ENDMDL
MODEL 3
REMARK VINA RESULT:     -12.4      1.825      6.371
REMARK SMILES CN(C)c1ccc(CCC(=O)N2C[C@@H](C(=O)NCCCCNC(=O)c3ccc(-c4c5nc(c(-c6c(F)cccc6F)c6ccc([nH]6)c(-c6c(F)cccc6F)c6nc(c(-c7c(F)cccc7F)c7ccc4[nH]7)C=C6)C=C5)cc3)[C@H](c3cccnc3)C2)cc1
REMARK SMILES IDX 18 1 17 2 15 3 16 4 14 6 12 7 13 8 86 9 79 10 10 11 11 12
REMARK SMILES IDX 9 13 8 14 7 15 4 16 5 17 88 18 6 19 87 20 2 21 1 22 3 23
REMARK SMILES IDX 80 24 81 25 85 26 82 27 84 28 83 29 19 30 20 31 21 32 22 33
REMARK SMILES IDX 23 34 24 36 25 37 26 38 78 39 27 40 77 41 28 42 29 43 30 44
REMARK SMILES IDX 71 45 31 46 76 47 70 48 72 49 32 50 75 51 69 52 68 53 33 55
REMARK SMILES IDX 59 56 42 57 58 58 43 59 46 60 57 61 73 62 44 63 45 64 56 66
REMARK SMILES IDX 74 67 47 68 34 69 35 70 40 71 36 72 37 73 39 74 41 75 38 76
REMARK SMILES IDX 60 77 61 78 66 79 62 80 63 81 65 82 67 83 64 84 48 85 49 86
REMARK SMILES IDX 54 87 50 88 51 89 53 90 55 91 52 92
REMARK H PARENT 17 5 22 35 72 54 46 65
REMARK Flexibility Score: inf
ROOT
ATOM      1  C   UNL A   1      36.985  21.903  25.622  1.00  0.00     0.116 C 
ENDROOT
BRANCH   1   2
ATOM      2  N   UNL A   1      35.828  22.144  26.461  1.00  0.00    -0.356 N 
ATOM      3  C   UNL A   1      34.583  22.609  26.192  1.00  0.00     0.225 C 
ATOM      4  O   UNL A   1      33.910  23.060  27.123  1.00  0.00    -0.275 OA
ATOM      5  H   UNL A   1      35.974  21.927  27.410  1.00  0.00     0.163 HD
BRANCH   3   6
ATOM      6  C   UNL A   1      33.976  22.559  24.820  1.00  0.00     0.107 C 
ATOM      7  N   UNL A   1      33.017  23.985  23.248  1.00  0.00    -0.341 N 
ATOM      8  C   UNL A   1      34.022  23.924  24.242  1.00  0.00     0.133 C 
ATOM      9  C   UNL A   1      32.020  22.921  23.451  1.00  0.00     0.128 C 
ATOM     10  C   UNL A   1      32.544  22.044  24.639  1.00  0.00     0.054 C 
BRANCH   7  11
ATOM     11  C   UNL A   1      32.947  25.067  22.395  1.00  0.00     0.222 C 
ATOM     12  O   UNL A   1      33.960  25.587  21.928  1.00  0.00    -0.275 OA
BRANCH  11  13
ATOM     13  C   UNL A   1      31.540  25.695  22.160  1.00  0.00     0.105 C 
BRANCH  13  14
ATOM     14  C   UNL A   1      30.674  26.223  23.336  1.00  0.00     0.045 C 
BRANCH  14  15
ATOM     15  C   UNL A   1      31.197  27.337  24.242  1.00  0.00    -0.047 A 
ATOM     16  C   UNL A   1      31.869  29.451  26.074  1.00  0.00     0.036 A 
ATOM     17  C   UNL A   1      31.246  29.713  24.848  1.00  0.00     0.026 A 
ATOM     18  C   UNL A   1      32.220  28.119  26.332  1.00  0.00     0.026 A 
ATOM     19  C   UNL A   1      30.919  28.681  23.944  1.00  0.00     0.006 A 
ATOM     20  C   UNL A   1      31.914  27.080  25.422  1.00  0.00     0.006 A 
BRANCH  16  21
ATOM     21  N   UNL A   1      32.166  30.508  26.945  1.00  0.00    -0.378 N 
ATOM     22  C   UNL A   1      31.444  31.742  26.659  1.00  0.00     0.143 C 
ATOM     23  C   UNL A   1      33.558  30.712  27.353  1.00  0.00     0.143 C 
ENDBRANCH  16  21
ENDBRANCH  14  15
ENDBRANCH  13  14
ENDBRANCH  11  13
ENDBRANCH   7  11
BRANCH  10  24
ATOM     24  C   UNL A   1      32.712  20.534  24.553  1.00  0.00    -0.024 A 
ATOM     25  C   UNL A   1      32.545  19.921  23.293  1.00  0.00     0.007 A 
ATOM     26  C   UNL A   1      32.771  19.685  25.647  1.00  0.00     0.115 A 
ATOM     27  C   UNL A   1      32.289  18.561  23.191  1.00  0.00     0.020 A 
ATOM     28  N   UNL A   1      32.588  18.344  25.570  1.00  0.00    -0.264 NA
ATOM     29  C   UNL A   1      32.309  17.821  24.353  1.00  0.00     0.111 A 
ENDBRANCH  10  24
ENDBRANCH   3   6
ENDBRANCH   1   2
BRANCH   1  30
ATOM     30  C   UNL A   1      36.772  20.603  24.848  1.00  0.00     0.023 C 
BRANCH  30  31
ATOM     31  C   UNL A   1      37.933  19.605  24.981  1.00  0.00     0.023 C 
BRANCH  31  32
ATOM     32  C   UNL A   1      39.148  20.123  25.749  1.00  0.00     0.116 C 
BRANCH  32  33
ATOM     33  N   UNL A   1      40.201  19.126  25.855  1.00  0.00    -0.352 N 
ATOM     34  C   UNL A   1      41.543  19.271  26.111  1.00  0.00     0.251 C 
ATOM     35  H   UNL A   1      39.905  18.196  25.720  1.00  0.00     0.163 HD
ATOM     36  O   UNL A   1      42.290  18.311  25.977  1.00  0.00    -0.269 OA
BRANCH  34  37
ATOM     37  C   UNL A   1      42.095  20.579  26.526  1.00  0.00     0.039 A 
ATOM     38  C   UNL A   1      42.627  21.421  25.543  1.00  0.00     0.014 A 
ATOM     39  C   UNL A   1      42.121  20.969  27.866  1.00  0.00     0.014 A 
ATOM     40  C   UNL A   1      43.123  22.677  25.898  1.00  0.00     0.010 A 
ATOM     41  C   UNL A   1      42.549  22.252  28.210  1.00  0.00     0.010 A 
ATOM     42  C   UNL A   1      43.052  23.121  27.229  1.00  0.00    -0.014 A 
BRANCH  42  43
ATOM     43  C   UNL A   1      43.481  24.494  27.606  1.00  0.00     0.031 A 
ATOM     44  C   UNL A   1      42.464  25.540  27.971  1.00  0.00     0.074 A 
ATOM     45  C   UNL A   1      44.788  24.816  27.559  1.00  0.00     0.049 A 
ATOM     46  N   UNL A   1      42.646  26.804  28.261  1.00  0.00    -0.248 NA
ATOM     47  C   UNL A   1      41.055  25.118  27.991  1.00  0.00     0.031 C 
ATOM     48  C   UNL A   1      45.871  23.906  27.179  1.00  0.00     0.029 A 
ATOM     49  N   UNL A   1      45.428  26.002  27.819  1.00  0.00    -0.354 N 
ATOM     50  C   UNL A   1      41.380  27.329  28.484  1.00  0.00     0.074 A 
ATOM     51  C   UNL A   1      40.434  26.259  28.245  1.00  0.00     0.031 C 
ATOM     52  C   UNL A   1      47.041  24.560  27.252  1.00  0.00     0.029 A 
ATOM     53  C   UNL A   1      46.790  25.945  27.640  1.00  0.00     0.049 A 
ATOM     54  H   UNL A   1      44.957  26.817  28.108  1.00  0.00     0.167 HD
ATOM     55  C   UNL A   1      41.036  28.580  28.874  1.00  0.00     0.037 A 
ATOM     56  C   UNL A   1      47.730  26.902  27.760  1.00  0.00     0.037 A 
ATOM     57  C   UNL A   1      41.980  29.638  29.125  1.00  0.00     0.049 A 
ATOM     58  C   UNL A   1      47.321  28.290  28.171  1.00  0.00     0.074 A 
ATOM     59  C   UNL A   1      41.732  30.923  29.578  1.00  0.00     0.029 A 
ATOM     60  N   UNL A   1      43.351  29.539  28.940  1.00  0.00    -0.354 N 
ATOM     61  N   UNL A   1      46.125  28.752  28.445  1.00  0.00    -0.248 NA
ATOM     62  C   UNL A   1      48.393  29.286  28.294  1.00  0.00     0.031 C 
ATOM     63  C   UNL A   1      42.947  31.617  29.612  1.00  0.00     0.029 A 
ATOM     64  C   UNL A   1      43.959  30.747  29.241  1.00  0.00     0.049 A 
ATOM     65  H   UNL A   1      43.823  28.729  28.639  1.00  0.00     0.167 HD
ATOM     66  C   UNL A   1      46.305  30.082  28.803  1.00  0.00     0.074 A 
ATOM     67  C   UNL A   1      47.726  30.348  28.724  1.00  0.00     0.031 C 
ATOM     68  C   UNL A   1      45.376  31.000  29.165  1.00  0.00     0.037 A 
BRANCH  55  69
ATOM     69  C   UNL A   1      39.574  28.877  29.048  1.00  0.00     0.057 A 
ATOM     70  C   UNL A   1      38.772  29.299  27.979  1.00  0.00     0.134 A 
ATOM     71  C   UNL A   1      38.950  28.697  30.289  1.00  0.00     0.134 A 
ATOM     72  F   UNL A   1      39.306  29.500  26.765  1.00  0.00    -0.206 F 
ATOM     73  C   UNL A   1      37.410  29.560  28.145  1.00  0.00     0.040 A 
ATOM     74  C   UNL A   1      37.583  28.925  30.461  1.00  0.00     0.040 A 
ATOM     75  F   UNL A   1      39.655  28.286  31.354  1.00  0.00    -0.206 F 
ATOM     76  C   UNL A   1      36.810  29.366  29.388  1.00  0.00     0.006 A 
ENDBRANCH  55  69
BRANCH  56  77
ATOM     77  C   UNL A   1      49.157  26.580  27.498  1.00  0.00     0.057 A 
ATOM     78  C   UNL A   1      49.975  26.051  28.503  1.00  0.00     0.134 A 
ATOM     79  C   UNL A   1      49.740  26.803  26.244  1.00  0.00     0.134 A 
ATOM     80  F   UNL A   1      49.480  25.833  29.731  1.00  0.00    -0.206 F 
ATOM     81  C   UNL A   1      51.326  25.779  28.280  1.00  0.00     0.040 A 
ATOM     82  C   UNL A   1      51.081  26.509  25.999  1.00  0.00     0.040 A 
ATOM     83  F   UNL A   1      49.008  27.300  25.236  1.00  0.00    -0.206 F 
ATOM     84  C   UNL A   1      51.881  26.003  27.022  1.00  0.00     0.006 A 
ENDBRANCH  56  77
BRANCH  68  85
ATOM     85  C   UNL A   1      45.867  32.369  29.542  1.00  0.00     0.057 A 
ATOM     86  C   UNL A   1      45.975  33.405  28.606  1.00  0.00     0.134 A 
ATOM     87  C   UNL A   1      46.203  32.662  30.871  1.00  0.00     0.134 A 
ATOM     88  F   UNL A   1      45.682  33.187  27.314  1.00  0.00    -0.206 F 
ATOM     89  C   UNL A   1      46.423  34.675  28.971  1.00  0.00     0.040 A 
ATOM     90  C   UNL A   1      46.623  33.937  31.254  1.00  0.00     0.040 A 
ATOM     91  F   UNL A   1      46.115  31.720  31.821  1.00  0.00    -0.206 F 
ATOM     92  C   UNL A   1      46.740  34.947  30.301  1.00  0.00     0.006 A 
ENDBRANCH  68  85
ENDBRANCH  42  43
ENDBRANCH  34  37
ENDBRANCH  32  33
ENDBRANCH  31  32
ENDBRANCH  30  31
ENDBRANCH   1  30
TORSDOF 17
ENDMDL
