MODEL 1
REMARK VINA RESULT:     -11.7      0.000      0.000
REMARK SMILES O=C(NCCCCNC(=O)[C@@H]1C[C@@H]1C(=O)Nc1cc(F)ccc1F)c1ccc(-c2c3nc(c(-c4c(F)cccc4F)c4ccc([nH]4)c(-c4c(F)cccc4F)c4nc(c(-c5c(F)cccc5F)c5ccc2[nH]5)C=C4)C=C3)cc1
REMARK SMILES IDX 5 1 4 2 3 3 1 4 2 5 25 7 26 8 78 9 27 10 77 11 28 12 29 13
REMARK SMILES IDX 30 14 71 15 31 16 76 17 70 18 72 19 32 20 75 21 69 22 68 23
REMARK SMILES IDX 33 25 59 26 42 27 58 28 43 29 46 30 57 31 73 32 44 33 45 34
REMARK SMILES IDX 56 36 74 37 47 38 34 39 35 40 40 41 36 42 37 43 39 44 41 45
REMARK SMILES IDX 38 46 60 47 61 48 66 49 62 50 63 51 65 52 67 53 64 54 48 55
REMARK SMILES IDX 49 56 54 57 50 58 51 59 53 60 55 61 52 62 6 63 7 64 8 65
REMARK SMILES IDX 9 66 10 68 11 69 12 70 13 71 14 72 15 73 16 74 17 76 18 77
REMARK SMILES IDX 23 78 19 79 22 80 24 81 20 82 21 83
REMARK H PARENT 3 6 72 24 46 35 8 67 16 75
REMARK Flexibility Score: inf
ROOT
ATOM      1  C   UNL A   1      37.834  19.747  25.001  1.00  0.00     0.023 C 
ENDROOT
BRANCH   1   2
ATOM      2  C   UNL A   1      39.124  20.144  25.702  1.00  0.00     0.116 C 
BRANCH   2   3
ATOM      3  N   UNL A   1      40.112  19.073  25.753  1.00  0.00    -0.352 N 
ATOM      4  O   UNL A   1      42.188  18.182  25.906  1.00  0.00    -0.269 OA
ATOM      5  C   UNL A   1      41.463  19.165  26.010  1.00  0.00     0.251 C 
ATOM      6  H   UNL A   1      39.770  18.167  25.583  1.00  0.00     0.163 HD
BRANCH   5   7
ATOM      7  C   UNL A   1      42.035  20.479  26.377  1.00  0.00     0.039 A 
ATOM      8  C   UNL A   1      42.181  20.821  27.721  1.00  0.00     0.014 A 
ATOM      9  C   UNL A   1      42.370  21.397  25.377  1.00  0.00     0.014 A 
ATOM     10  C   UNL A   1      42.469  22.132  28.065  1.00  0.00     0.010 A 
ATOM     11  C   UNL A   1      42.785  22.686  25.731  1.00  0.00     0.010 A 
ATOM     12  C   UNL A   1      42.802  23.076  27.078  1.00  0.00    -0.014 A 
BRANCH  12  13
ATOM     13  C   UNL A   1      43.237  24.427  27.519  1.00  0.00     0.031 A 
ATOM     14  C   UNL A   1      44.674  24.866  27.451  1.00  0.00     0.074 A 
ATOM     15  C   UNL A   1      42.284  25.295  27.917  1.00  0.00     0.049 A 
ATOM     16  N   UNL A   1      45.186  26.040  27.727  1.00  0.00    -0.248 NA
ATOM     17  C   UNL A   1      45.666  23.865  27.033  1.00  0.00     0.031 C 
ATOM     18  C   UNL A   1      40.858  24.974  28.047  1.00  0.00     0.029 A 
ATOM     19  N   UNL A   1      42.354  26.622  28.249  1.00  0.00    -0.354 N 
ATOM     20  C   UNL A   1      46.555  25.921  27.519  1.00  0.00     0.074 A 
ATOM     21  C   UNL A   1      46.800  24.548  27.133  1.00  0.00     0.031 C 
ATOM     22  C   UNL A   1      40.183  26.087  28.359  1.00  0.00     0.029 A 
ATOM     23  C   UNL A   1      41.130  27.179  28.534  1.00  0.00     0.049 A 
ATOM     24  H   UNL A   1      43.198  27.128  28.279  1.00  0.00     0.167 HD
ATOM     25  C   UNL A   1      47.513  26.875  27.626  1.00  0.00     0.037 A 
ATOM     26  C   UNL A   1      40.803  28.426  28.918  1.00  0.00     0.037 A 
ATOM     27  C   UNL A   1      47.259  28.241  28.014  1.00  0.00     0.049 A 
ATOM     28  C   UNL A   1      41.890  29.449  29.054  1.00  0.00     0.074 A 
ATOM     29  C   UNL A   1      48.164  29.282  28.147  1.00  0.00     0.029 A 
ATOM     30  N   UNL A   1      46.012  28.758  28.332  1.00  0.00    -0.354 N 
ATOM     31  N   UNL A   1      43.175  29.324  28.829  1.00  0.00    -0.248 NA
ATOM     32  C   UNL A   1      41.481  30.786  29.499  1.00  0.00     0.031 C 
ATOM     33  C   UNL A   1      47.471  30.414  28.591  1.00  0.00     0.029 A 
ATOM     34  C   UNL A   1      46.127  30.097  28.678  1.00  0.00     0.049 A 
ATOM     35  H   UNL A   1      45.169  28.250  28.315  1.00  0.00     0.167 HD
ATOM     36  C   UNL A   1      43.728  30.568  29.092  1.00  0.00     0.074 A 
ATOM     37  C   UNL A   1      42.631  31.442  29.457  1.00  0.00     0.031 C 
ATOM     38  C   UNL A   1      45.026  30.952  29.047  1.00  0.00     0.037 A 
BRANCH  25  39
ATOM     39  C   UNL A   1      48.932  26.478  27.328  1.00  0.00     0.057 A 
ATOM     40  C   UNL A   1      49.790  25.996  28.326  1.00  0.00     0.134 A 
ATOM     41  C   UNL A   1      49.429  26.512  26.018  1.00  0.00     0.134 A 
ATOM     42  F   UNL A   1      49.383  25.943  29.604  1.00  0.00    -0.206 F 
ATOM     43  C   UNL A   1      51.091  25.579  28.036  1.00  0.00     0.040 A 
ATOM     44  C   UNL A   1      50.718  26.075  25.711  1.00  0.00     0.040 A 
ATOM     45  F   UNL A   1      48.660  26.954  25.010  1.00  0.00    -0.206 F 
ATOM     46  C   UNL A   1      51.556  25.609  26.722  1.00  0.00     0.006 A 
ENDBRANCH  25  39
BRANCH  26  47
ATOM     47  C   UNL A   1      39.389  28.756  29.229  1.00  0.00     0.057 A 
ATOM     48  C   UNL A   1      38.526  29.271  28.256  1.00  0.00     0.134 A 
ATOM     49  C   UNL A   1      38.870  28.571  30.518  1.00  0.00     0.134 A 
ATOM     50  F   UNL A   1      38.965  29.484  27.007  1.00  0.00    -0.206 F 
ATOM     51  C   UNL A   1      37.207  29.614  28.558  1.00  0.00     0.040 A 
ATOM     52  C   UNL A   1      37.546  28.876  30.826  1.00  0.00     0.040 A 
ATOM     53  F   UNL A   1      39.643  28.070  31.493  1.00  0.00    -0.206 F 
ATOM     54  C   UNL A   1      36.713  29.411  29.845  1.00  0.00     0.006 A 
ENDBRANCH  26  47
BRANCH  38  55
ATOM     55  C   UNL A   1      45.317  32.387  29.379  1.00  0.00     0.057 A 
ATOM     56  C   UNL A   1      45.633  32.797  30.681  1.00  0.00     0.134 A 
ATOM     57  C   UNL A   1      45.271  33.373  28.385  1.00  0.00     0.134 A 
ATOM     58  F   UNL A   1      45.677  31.905  31.683  1.00  0.00    -0.206 F 
ATOM     59  C   UNL A   1      45.852  34.140  30.991  1.00  0.00     0.040 A 
ATOM     60  C   UNL A   1      45.521  34.715  28.677  1.00  0.00     0.040 A 
ATOM     61  F   UNL A   1      44.984  33.050  27.116  1.00  0.00    -0.206 F 
ATOM     62  C   UNL A   1      45.801  35.102  29.986  1.00  0.00     0.006 A 
ENDBRANCH  38  55
ENDBRANCH  12  13
ENDBRANCH   5   7
ENDBRANCH   2   3
ENDBRANCH   1   2
BRANCH   1  63
ATOM     63  C   UNL A   1      36.737  20.809  25.031  1.00  0.00     0.023 C 
BRANCH  63  64
ATOM     64  C   UNL A   1      37.126  22.132  24.367  1.00  0.00     0.116 C 
BRANCH  64  65
ATOM     65  N   UNL A   1      36.386  23.249  24.928  1.00  0.00    -0.356 N 
ATOM     66  C   UNL A   1      35.250  23.835  24.441  1.00  0.00     0.223 C 
ATOM     67  H   UNL A   1      36.747  23.631  25.761  1.00  0.00     0.163 HD
ATOM     68  O   UNL A   1      34.754  24.822  24.975  1.00  0.00    -0.275 OA
BRANCH  66  69
ATOM     69  C   UNL A   1      34.652  23.235  23.229  1.00  0.00     0.091 C 
ATOM     70  C   UNL A   1      33.254  23.514  22.761  1.00  0.00     0.028 C 
ATOM     71  C   UNL A   1      33.583  22.167  23.372  1.00  0.00     0.092 C 
BRANCH  71  72
ATOM     72  C   UNL A   1      32.899  21.828  24.651  1.00  0.00     0.228 C 
ATOM     73  O   UNL A   1      32.588  22.712  25.442  1.00  0.00    -0.274 OA
ATOM     74  N   UNL A   1      32.560  20.513  24.879  1.00  0.00    -0.323 N 
ATOM     75  H   UNL A   1      31.835  20.379  25.531  1.00  0.00     0.170 HD
BRANCH  74  76
ATOM     76  C   UNL A   1      33.088  19.328  24.325  1.00  0.00     0.080 A 
ATOM     77  C   UNL A   1      34.046  18.540  24.964  1.00  0.00     0.068 A 
ATOM     78  C   UNL A   1      32.568  18.875  23.105  1.00  0.00     0.146 A 
ATOM     79  C   UNL A   1      34.509  17.373  24.361  1.00  0.00     0.125 A 
ATOM     80  C   UNL A   1      33.037  17.708  22.498  1.00  0.00     0.044 A 
ATOM     81  F   UNL A   1      31.611  19.582  22.486  1.00  0.00    -0.205 F 
ATOM     82  F   UNL A   1      35.428  16.632  24.995  1.00  0.00    -0.207 F 
ATOM     83  C   UNL A   1      34.024  16.955  23.129  1.00  0.00     0.042 A 
ENDBRANCH  74  76
ENDBRANCH  71  72
ENDBRANCH  66  69
ENDBRANCH  64  65
ENDBRANCH  63  64
ENDBRANCH   1  63
TORSDOF 13
ENDMDL
MODEL 2
REMARK VINA RESULT:     -11.7      5.962     10.809
REMARK SMILES O=C(NCCCCNC(=O)[C@@H]1C[C@@H]1C(=O)Nc1cc(F)ccc1F)c1ccc(-c2c3nc(c(-c4c(F)cccc4F)c4ccc([nH]4)c(-c4c(F)cccc4F)c4nc(c(-c5c(F)cccc5F)c5ccc2[nH]5)C=C4)C=C3)cc1
REMARK SMILES IDX 5 1 4 2 3 3 1 4 2 5 25 7 26 8 78 9 27 10 77 11 28 12 29 13
REMARK SMILES IDX 30 14 71 15 31 16 76 17 70 18 72 19 32 20 75 21 69 22 68 23
REMARK SMILES IDX 33 25 59 26 42 27 58 28 43 29 46 30 57 31 73 32 44 33 45 34
REMARK SMILES IDX 56 36 74 37 47 38 34 39 35 40 40 41 36 42 37 43 39 44 41 45
REMARK SMILES IDX 38 46 60 47 61 48 66 49 62 50 63 51 65 52 67 53 64 54 48 55
REMARK SMILES IDX 49 56 54 57 50 58 51 59 53 60 55 61 52 62 6 63 7 64 8 65
REMARK SMILES IDX 9 66 10 68 11 69 12 70 13 71 14 72 15 73 16 74 17 76 18 77
REMARK SMILES IDX 23 78 19 79 22 80 24 81 20 82 21 83
REMARK H PARENT 3 6 72 24 46 35 8 67 16 75
REMARK Flexibility Score: inf
ROOT
ATOM      1  C   UNL A   1      31.528  32.092  26.761  1.00  0.00     0.023 C 
ENDROOT
BRANCH   1   2
ATOM      2  C   UNL A   1      32.722  32.899  27.248  1.00  0.00     0.116 C 
BRANCH   2   3
ATOM      3  N   UNL A   1      32.380  34.258  27.653  1.00  0.00    -0.352 N 
ATOM      4  O   UNL A   1      32.504  36.129  28.921  1.00  0.00    -0.269 OA
ATOM      5  C   UNL A   1      32.980  35.041  28.615  1.00  0.00     0.251 C 
ATOM      6  H   UNL A   1      31.623  34.668  27.176  1.00  0.00     0.163 HD
BRANCH   5   7
ATOM      7  C   UNL A   1      34.187  34.534  29.302  1.00  0.00     0.039 A 
ATOM      8  C   UNL A   1      35.444  34.730  28.731  1.00  0.00     0.014 A 
ATOM      9  C   UNL A   1      34.060  33.808  30.490  1.00  0.00     0.014 A 
ATOM     10  C   UNL A   1      36.537  34.041  29.231  1.00  0.00     0.010 A 
ATOM     11  C   UNL A   1      35.191  33.218  31.066  1.00  0.00     0.010 A 
ATOM     12  C   UNL A   1      36.434  33.298  30.421  1.00  0.00    -0.014 A 
BRANCH  12  13
ATOM     13  C   UNL A   1      37.672  32.697  30.982  1.00  0.00     0.031 A 
ATOM     14  C   UNL A   1      38.271  33.167  32.278  1.00  0.00     0.074 A 
ATOM     15  C   UNL A   1      38.214  31.649  30.328  1.00  0.00     0.049 A 
ATOM     16  N   UNL A   1      39.301  32.683  32.928  1.00  0.00    -0.248 NA
ATOM     17  C   UNL A   1      37.648  34.329  32.928  1.00  0.00     0.031 C 
ATOM     18  C   UNL A   1      37.733  31.120  29.047  1.00  0.00     0.029 A 
ATOM     19  N   UNL A   1      39.253  30.820  30.658  1.00  0.00    -0.354 N 
ATOM     20  C   UNL A   1      39.453  33.479  34.057  1.00  0.00     0.074 A 
ATOM     21  C   UNL A   1      38.433  34.503  33.985  1.00  0.00     0.031 C 
ATOM     22  C   UNL A   1      38.426  30.018  28.737  1.00  0.00     0.029 A 
ATOM     23  C   UNL A   1      39.453  29.809  29.748  1.00  0.00     0.049 A 
ATOM     24  H   UNL A   1      39.802  30.936  31.467  1.00  0.00     0.167 HD
ATOM     25  C   UNL A   1      40.351  33.355  35.066  1.00  0.00     0.037 A 
ATOM     26  C   UNL A   1      40.376  28.831  29.715  1.00  0.00     0.037 A 
ATOM     27  C   UNL A   1      41.366  32.332  35.128  1.00  0.00     0.049 A 
ATOM     28  C   UNL A   1      41.372  28.738  30.832  1.00  0.00     0.074 A 
ATOM     29  C   UNL A   1      42.319  32.121  36.111  1.00  0.00     0.029 A 
ATOM     30  N   UNL A   1      41.562  31.349  34.170  1.00  0.00    -0.354 N 
ATOM     31  N   UNL A   1      41.483  29.485  31.903  1.00  0.00    -0.248 NA
ATOM     32  C   UNL A   1      42.371  27.668  30.734  1.00  0.00     0.031 C 
ATOM     33  C   UNL A   1      43.120  31.041  35.724  1.00  0.00     0.029 A 
ATOM     34  C   UNL A   1      42.631  30.541  34.530  1.00  0.00     0.049 A 
ATOM     35  H   UNL A   1      41.022  31.239  33.354  1.00  0.00     0.167 HD
ATOM     36  C   UNL A   1      42.556  28.968  32.614  1.00  0.00     0.074 A 
ATOM     37  C   UNL A   1      43.036  27.822  31.869  1.00  0.00     0.031 C 
ATOM     38  C   UNL A   1      43.103  29.407  33.773  1.00  0.00     0.037 A 
BRANCH  25  39
ATOM     39  C   UNL A   1      40.287  34.354  36.187  1.00  0.00     0.057 A 
ATOM     40  C   UNL A   1      41.022  35.546  36.157  1.00  0.00     0.134 A 
ATOM     41  C   UNL A   1      39.428  34.157  37.278  1.00  0.00     0.134 A 
ATOM     42  F   UNL A   1      41.869  35.798  35.147  1.00  0.00    -0.206 F 
ATOM     43  C   UNL A   1      40.920  36.496  37.176  1.00  0.00     0.040 A 
ATOM     44  C   UNL A   1      39.298  35.110  38.290  1.00  0.00     0.040 A 
ATOM     45  F   UNL A   1      38.687  33.043  37.368  1.00  0.00    -0.206 F 
ATOM     46  C   UNL A   1      40.048  36.284  38.242  1.00  0.00     0.006 A 
ENDBRANCH  25  39
BRANCH  26  47
ATOM     47  C   UNL A   1      40.413  27.888  28.568  1.00  0.00     0.057 A 
ATOM     48  C   UNL A   1      39.740  26.663  28.604  1.00  0.00     0.134 A 
ATOM     49  C   UNL A   1      41.137  28.191  27.407  1.00  0.00     0.134 A 
ATOM     50  F   UNL A   1      39.041  26.307  29.693  1.00  0.00    -0.206 F 
ATOM     51  C   UNL A   1      39.805  25.762  27.540  1.00  0.00     0.040 A 
ATOM     52  C   UNL A   1      41.181  27.318  26.321  1.00  0.00     0.040 A 
ATOM     53  F   UNL A   1      41.795  29.356  27.303  1.00  0.00    -0.206 F 
ATOM     54  C   UNL A   1      40.523  26.092  26.392  1.00  0.00     0.006 A 
ENDBRANCH  26  47
BRANCH  38  55
ATOM     55  C   UNL A   1      44.265  28.624  34.310  1.00  0.00     0.057 A 
ATOM     56  C   UNL A   1      45.590  28.947  33.985  1.00  0.00     0.134 A 
ATOM     57  C   UNL A   1      44.058  27.526  35.155  1.00  0.00     0.134 A 
ATOM     58  F   UNL A   1      45.858  29.978  33.167  1.00  0.00    -0.206 F 
ATOM     59  C   UNL A   1      46.662  28.184  34.447  1.00  0.00     0.040 A 
ATOM     60  C   UNL A   1      45.125  26.774  35.650  1.00  0.00     0.040 A 
ATOM     61  F   UNL A   1      42.816  27.166  35.513  1.00  0.00    -0.206 F 
ATOM     62  C   UNL A   1      46.430  27.096  35.286  1.00  0.00     0.006 A 
ENDBRANCH  38  55
ENDBRANCH  12  13
ENDBRANCH   5   7
ENDBRANCH   2   3
ENDBRANCH   1   2
BRANCH   1  63
ATOM     63  C   UNL A   1      31.719  30.577  26.806  1.00  0.00     0.023 C 
BRANCH  63  64
ATOM     64  C   UNL A   1      32.020  29.942  25.447  1.00  0.00     0.116 C 
BRANCH  64  65
ATOM     65  N   UNL A   1      33.103  28.978  25.537  1.00  0.00    -0.356 N 
ATOM     66  C   UNL A   1      33.034  27.672  25.942  1.00  0.00     0.223 C 
ATOM     67  H   UNL A   1      33.995  29.304  25.275  1.00  0.00     0.163 HD
ATOM     68  O   UNL A   1      34.039  26.974  26.038  1.00  0.00    -0.275 OA
BRANCH  66  69
ATOM     69  C   UNL A   1      31.695  27.141  26.274  1.00  0.00     0.091 C 
ATOM     70  C   UNL A   1      31.327  25.690  26.191  1.00  0.00     0.028 C 
ATOM     71  C   UNL A   1      30.783  26.660  25.161  1.00  0.00     0.092 C 
BRANCH  71  72
ATOM     72  C   UNL A   1      31.216  26.449  23.751  1.00  0.00     0.228 C 
ATOM     73  O   UNL A   1      32.171  25.725  23.496  1.00  0.00    -0.274 OA
ATOM     74  N   UNL A   1      30.469  27.027  22.748  1.00  0.00    -0.323 N 
ATOM     75  H   UNL A   1      30.563  26.604  21.865  1.00  0.00     0.170 HD
BRANCH  74  76
ATOM     76  C   UNL A   1      29.589  28.130  22.789  1.00  0.00     0.080 A 
ATOM     77  C   UNL A   1      29.942  29.411  22.364  1.00  0.00     0.068 A 
ATOM     78  C   UNL A   1      28.268  27.911  23.203  1.00  0.00     0.146 A 
ATOM     79  C   UNL A   1      29.013  30.448  22.420  1.00  0.00     0.125 A 
ATOM     80  C   UNL A   1      27.339  28.953  23.264  1.00  0.00     0.044 A 
ATOM     81  F   UNL A   1      27.881  26.681  23.573  1.00  0.00    -0.205 F 
ATOM     82  F   UNL A   1      29.375  31.669  22.004  1.00  0.00    -0.207 F 
ATOM     83  C   UNL A   1      27.719  30.235  22.876  1.00  0.00     0.042 A 
ENDBRANCH  74  76
ENDBRANCH  71  72
ENDBRANCH  66  69
ENDBRANCH  64  65
ENDBRANCH  63  64
ENDBRANCH   1  63
TORSDOF 13
ENDMDL
MODEL 3
REMARK VINA RESULT:     -11.7      0.133      1.626
REMARK SMILES O=C(NCCCCNC(=O)[C@@H]1C[C@@H]1C(=O)Nc1cc(F)ccc1F)c1ccc(-c2c3nc(c(-c4c(F)cccc4F)c4ccc([nH]4)c(-c4c(F)cccc4F)c4nc(c(-c5c(F)cccc5F)c5ccc2[nH]5)C=C4)C=C3)cc1
REMARK SMILES IDX 5 1 4 2 3 3 1 4 2 5 25 7 26 8 78 9 27 10 77 11 28 12 29 13
REMARK SMILES IDX 30 14 71 15 31 16 76 17 70 18 72 19 32 20 75 21 69 22 68 23
REMARK SMILES IDX 33 25 59 26 42 27 58 28 43 29 46 30 57 31 73 32 44 33 45 34
REMARK SMILES IDX 56 36 74 37 47 38 34 39 35 40 40 41 36 42 37 43 39 44 41 45
REMARK SMILES IDX 38 46 60 47 61 48 66 49 62 50 63 51 65 52 67 53 64 54 48 55
REMARK SMILES IDX 49 56 54 57 50 58 51 59 53 60 55 61 52 62 6 63 7 64 8 65
REMARK SMILES IDX 9 66 10 68 11 69 12 70 13 71 14 72 15 73 16 74 17 76 18 77
REMARK SMILES IDX 23 78 19 79 22 80 24 81 20 82 21 83
REMARK H PARENT 3 6 72 24 46 35 8 67 16 75
REMARK Flexibility Score: inf
ROOT
ATOM      1  C   UNL A   1      37.826  19.780  24.991  1.00  0.00     0.023 C 
ENDROOT
BRANCH   1   2
ATOM      2  C   UNL A   1      39.099  20.138  25.743  1.00  0.00     0.116 C 
BRANCH   2   3
ATOM      3  N   UNL A   1      40.076  19.056  25.783  1.00  0.00    -0.352 N 
ATOM      4  O   UNL A   1      42.143  18.142  25.910  1.00  0.00    -0.269 OA
ATOM      5  C   UNL A   1      41.431  19.133  26.022  1.00  0.00     0.251 C 
ATOM      6  H   UNL A   1      39.721  18.153  25.617  1.00  0.00     0.163 HD
BRANCH   5   7
ATOM      7  C   UNL A   1      42.022  20.440  26.380  1.00  0.00     0.039 A 
ATOM      8  C   UNL A   1      42.197  20.779  27.722  1.00  0.00     0.014 A 
ATOM      9  C   UNL A   1      42.347  21.358  25.376  1.00  0.00     0.014 A 
ATOM     10  C   UNL A   1      42.503  22.087  28.062  1.00  0.00     0.010 A 
ATOM     11  C   UNL A   1      42.781  22.642  25.724  1.00  0.00     0.010 A 
ATOM     12  C   UNL A   1      42.827  23.030  27.071  1.00  0.00    -0.014 A 
BRANCH  12  13
ATOM     13  C   UNL A   1      43.284  24.376  27.506  1.00  0.00     0.031 A 
ATOM     14  C   UNL A   1      44.724  24.797  27.421  1.00  0.00     0.074 A 
ATOM     15  C   UNL A   1      42.345  25.255  27.914  1.00  0.00     0.049 A 
ATOM     16  N   UNL A   1      45.254  25.965  27.689  1.00  0.00    -0.248 NA
ATOM     17  C   UNL A   1      45.700  23.784  26.992  1.00  0.00     0.031 C 
ATOM     18  C   UNL A   1      40.918  24.951  28.059  1.00  0.00     0.029 A 
ATOM     19  N   UNL A   1      42.435  26.582  28.243  1.00  0.00    -0.354 N 
ATOM     20  C   UNL A   1      46.618  25.830  27.466  1.00  0.00     0.074 A 
ATOM     21  C   UNL A   1      46.843  24.453  27.078  1.00  0.00     0.031 C 
ATOM     22  C   UNL A   1      40.259  26.072  28.378  1.00  0.00     0.029 A 
ATOM     23  C   UNL A   1      41.221  27.153  28.542  1.00  0.00     0.049 A 
ATOM     24  H   UNL A   1      43.286  27.078  28.263  1.00  0.00     0.167 HD
ATOM     25  C   UNL A   1      47.589  26.772  27.561  1.00  0.00     0.037 A 
ATOM     26  C   UNL A   1      40.913  28.404  28.928  1.00  0.00     0.037 A 
ATOM     27  C   UNL A   1      47.356  28.141  27.950  1.00  0.00     0.049 A 
ATOM     28  C   UNL A   1      42.014  29.414  29.051  1.00  0.00     0.074 A 
ATOM     29  C   UNL A   1      48.275  29.172  28.072  1.00  0.00     0.029 A 
ATOM     30  N   UNL A   1      46.119  28.673  28.283  1.00  0.00    -0.354 N 
ATOM     31  N   UNL A   1      43.295  29.273  28.811  1.00  0.00    -0.248 NA
ATOM     32  C   UNL A   1      41.626  30.757  29.499  1.00  0.00     0.031 C 
ATOM     33  C   UNL A   1      47.601  30.312  28.523  1.00  0.00     0.029 A 
ATOM     34  C   UNL A   1      46.254  30.011  28.626  1.00  0.00     0.049 A 
ATOM     35  H   UNL A   1      45.270  28.175  28.275  1.00  0.00     0.167 HD
ATOM     36  C   UNL A   1      43.865  30.511  29.067  1.00  0.00     0.074 A 
ATOM     37  C   UNL A   1      42.783  31.399  29.443  1.00  0.00     0.031 C 
ATOM     38  C   UNL A   1      45.168  30.880  29.006  1.00  0.00     0.037 A 
BRANCH  25  39
ATOM     39  C   UNL A   1      49.000  26.358  27.247  1.00  0.00     0.057 A 
ATOM     40  C   UNL A   1      49.534  26.475  25.957  1.00  0.00     0.134 A 
ATOM     41  C   UNL A   1      49.857  25.901  28.257  1.00  0.00     0.134 A 
ATOM     42  F   UNL A   1      48.769  26.899  24.940  1.00  0.00    -0.206 F 
ATOM     43  C   UNL A   1      50.861  26.138  25.680  1.00  0.00     0.040 A 
ATOM     44  C   UNL A   1      51.192  25.585  27.999  1.00  0.00     0.040 A 
ATOM     45  F   UNL A   1      49.416  25.772  29.518  1.00  0.00    -0.206 F 
ATOM     46  C   UNL A   1      51.698  25.700  26.705  1.00  0.00     0.006 A 
ENDBRANCH  25  39
BRANCH  26  47
ATOM     47  C   UNL A   1      39.507  28.752  29.255  1.00  0.00     0.057 A 
ATOM     48  C   UNL A   1      38.986  28.569  30.540  1.00  0.00     0.134 A 
ATOM     49  C   UNL A   1      38.646  29.271  28.278  1.00  0.00     0.134 A 
ATOM     50  F   UNL A   1      39.755  28.062  31.515  1.00  0.00    -0.206 F 
ATOM     51  C   UNL A   1      37.654  28.863  30.836  1.00  0.00     0.040 A 
ATOM     52  C   UNL A   1      37.324  29.604  28.569  1.00  0.00     0.040 A 
ATOM     53  F   UNL A   1      39.087  29.483  27.029  1.00  0.00    -0.206 F 
ATOM     54  C   UNL A   1      36.821  29.388  29.850  1.00  0.00     0.006 A 
ENDBRANCH  26  47
BRANCH  38  55
ATOM     55  C   UNL A   1      45.479  32.311  29.334  1.00  0.00     0.057 A 
ATOM     56  C   UNL A   1      45.436  33.320  28.362  1.00  0.00     0.134 A 
ATOM     57  C   UNL A   1      45.837  32.685  30.635  1.00  0.00     0.134 A 
ATOM     58  F   UNL A   1      45.117  33.027  27.091  1.00  0.00    -0.206 F 
ATOM     59  C   UNL A   1      45.776  34.639  28.662  1.00  0.00     0.040 A 
ATOM     60  C   UNL A   1      46.148  34.008  30.956  1.00  0.00     0.040 A 
ATOM     61  F   UNL A   1      45.890  31.772  31.616  1.00  0.00    -0.206 F 
ATOM     62  C   UNL A   1      46.129  34.986  29.965  1.00  0.00     0.006 A 
ENDBRANCH  38  55
ENDBRANCH  12  13
ENDBRANCH   5   7
ENDBRANCH   2   3
ENDBRANCH   1   2
BRANCH   1  63
ATOM     63  C   UNL A   1      36.723  20.834  25.063  1.00  0.00     0.023 C 
BRANCH  63  64
ATOM     64  C   UNL A   1      37.027  22.115  24.283  1.00  0.00     0.116 C 
BRANCH  64  65
ATOM     65  N   UNL A   1      36.308  23.254  24.826  1.00  0.00    -0.356 N 
ATOM     66  C   UNL A   1      35.182  23.852  24.328  1.00  0.00     0.223 C 
ATOM     67  H   UNL A   1      36.675  23.643  25.653  1.00  0.00     0.163 HD
ATOM     68  O   UNL A   1      34.705  24.857  24.846  1.00  0.00    -0.275 OA
BRANCH  66  69
ATOM     69  C   UNL A   1      34.574  23.245  23.126  1.00  0.00     0.091 C 
ATOM     70  C   UNL A   1      33.173  23.522  22.667  1.00  0.00     0.028 C 
ATOM     71  C   UNL A   1      33.505  22.178  23.285  1.00  0.00     0.092 C 
BRANCH  71  72
ATOM     72  C   UNL A   1      32.830  21.851  24.573  1.00  0.00     0.228 C 
ATOM     73  O   UNL A   1      32.508  22.742  25.350  1.00  0.00    -0.274 OA
ATOM     74  N   UNL A   1      32.513  20.534  24.824  1.00  0.00    -0.323 N 
ATOM     75  H   UNL A   1      31.792  20.400  25.480  1.00  0.00     0.170 HD
BRANCH  74  76
ATOM     76  C   UNL A   1      33.058  19.348  24.287  1.00  0.00     0.080 A 
ATOM     77  C   UNL A   1      34.024  18.582  24.940  1.00  0.00     0.068 A 
ATOM     78  C   UNL A   1      32.547  18.872  23.072  1.00  0.00     0.146 A 
ATOM     79  C   UNL A   1      34.504  17.412  24.354  1.00  0.00     0.125 A 
ATOM     80  C   UNL A   1      33.034  17.703  22.482  1.00  0.00     0.044 A 
ATOM     81  F   UNL A   1      31.584  19.559  22.440  1.00  0.00    -0.205 F 
ATOM     82  F   UNL A   1      35.429  16.692  25.001  1.00  0.00    -0.207 F 
ATOM     83  C   UNL A   1      34.028  16.971  23.126  1.00  0.00     0.042 A 
ENDBRANCH  74  76
ENDBRANCH  71  72
ENDBRANCH  66  69
ENDBRANCH  64  65
ENDBRANCH  63  64
ENDBRANCH   1  63
TORSDOF 13
ENDMDL
