MODEL 1
REMARK VINA RESULT:     -12.8      0.000      0.000
REMARK SMILES Cc1c(CC(=O)NCCCCNC(=O)c2ccc(-c3c4nc(c(-c5c(F)cccc5F)c5ccc([nH]5)c(-c5c(F)cccc5F)c5nc(c(-c6c(F)cccc6F)c6ccc3[nH]6)C=C5)C=C4)cc2)c2cc(O)ccc2n1C(=O)c1ccc(Cl)cc1
REMARK SMILES IDX 9 1 8 2 7 3 5 4 6 5 4 7 3 8 1 9 2 10 76 11 69 12 75 13 70 14
REMARK SMILES IDX 74 15 71 16 73 17 77 18 78 19 79 20 80 21 85 22 81 23 84 24
REMARK SMILES IDX 82 25 83 26 72 27 10 29 11 30 12 31 13 32 14 34 15 35 16 36
REMARK SMILES IDX 68 37 17 38 67 39 18 40 19 41 20 42 61 43 21 44 66 45 60 46
REMARK SMILES IDX 62 47 22 48 65 49 59 50 58 51 23 53 49 54 32 55 48 56 33 57
REMARK SMILES IDX 36 58 47 59 63 60 34 61 35 62 46 64 64 65 37 66 24 67 25 68
REMARK SMILES IDX 30 69 26 70 27 71 29 72 31 73 28 74 50 75 51 76 56 77 52 78
REMARK SMILES IDX 53 79 55 80 57 81 54 82 38 83 39 84 44 85 40 86 41 87 43 88
REMARK SMILES IDX 45 89 42 90
REMARK H PARENT 7 6 72 28 12 33 62 52 36 63
REMARK Flexibility Score: inf
ROOT
ATOM      1  C   UNL A   1      31.455  27.807  26.564  1.00  0.00     0.023 C 
ENDROOT
BRANCH   1   2
ATOM      2  C   UNL A   1      31.159  26.470  25.889  1.00  0.00     0.116 C 
BRANCH   2   3
ATOM      3  N   UNL A   1      31.150  25.376  26.837  1.00  0.00    -0.356 N 
ATOM      4  C   UNL A   1      31.273  24.038  26.588  1.00  0.00     0.224 C 
ATOM      5  O   UNL A   1      31.255  23.264  27.547  1.00  0.00    -0.275 OA
ATOM      6  H   UNL A   1      31.039  25.628  27.782  1.00  0.00     0.163 HD
BRANCH   4   7
ATOM      7  C   UNL A   1      31.493  23.544  25.166  1.00  0.00     0.138 C 
BRANCH   7   8
ATOM      8  C   UNL A   1      32.835  22.900  24.955  1.00  0.00    -0.009 A 
ATOM      9  C   UNL A   1      34.393  24.984  25.025  1.00  0.00     0.065 C 
ATOM     10  C   UNL A   1      34.074  23.526  24.891  1.00  0.00     0.028 A 
ATOM     11  N   UNL A   1      35.056  22.563  24.614  1.00  0.00    -0.280 N 
ATOM     12  C   UNL A   1      33.067  21.500  24.828  1.00  0.00     0.008 A 
ATOM     13  C   UNL A   1      34.446  21.300  24.702  1.00  0.00     0.057 A 
ATOM     14  C   UNL A   1      32.203  20.381  24.844  1.00  0.00     0.056 A 
ATOM     15  C   UNL A   1      34.968  19.988  24.681  1.00  0.00     0.031 A 
ATOM     16  C   UNL A   1      32.730  19.099  24.747  1.00  0.00     0.116 A 
ATOM     17  C   UNL A   1      34.095  18.896  24.682  1.00  0.00     0.048 A 
BRANCH  11  18
ATOM     18  C   UNL A   1      36.420  22.836  24.303  1.00  0.00     0.262 C 
ATOM     19  O   UNL A   1      36.718  23.155  23.150  1.00  0.00    -0.268 OA
BRANCH  18  20
ATOM     20  C   UNL A   1      37.541  22.778  25.252  1.00  0.00     0.040 A 
ATOM     21  C   UNL A   1      37.895  23.892  26.020  1.00  0.00     0.015 A 
ATOM     22  C   UNL A   1      38.253  21.577  25.362  1.00  0.00     0.015 A 
ATOM     23  C   UNL A   1      39.021  23.824  26.844  1.00  0.00     0.021 A 
ATOM     24  C   UNL A   1      39.372  21.514  26.190  1.00  0.00     0.021 A 
ATOM     25  C   UNL A   1      39.761  22.641  26.915  1.00  0.00     0.041 A 
ATOM     26  Cl  UNL A   1      41.177  22.577  27.889  1.00  0.00    -0.084 Cl
ENDBRANCH  18  20
ENDBRANCH  11  18
BRANCH  16  27
ATOM     27  O   UNL A   1      31.855  18.052  24.737  1.00  0.00    -0.508 OA
ATOM     28  H   UNL A   1      31.140  18.035  25.342  1.00  0.00     0.293 HD
ENDBRANCH  16  27
ENDBRANCH   7   8
ENDBRANCH   4   7
ENDBRANCH   2   3
ENDBRANCH   1   2
BRANCH   1  29
ATOM     29  C   UNL A   1      32.948  28.137  26.695  1.00  0.00     0.023 C 
BRANCH  29  30
ATOM     30  C   UNL A   1      33.370  29.453  26.035  1.00  0.00     0.116 C 
BRANCH  30  31
ATOM     31  N   UNL A   1      33.371  30.573  26.955  1.00  0.00    -0.352 N 
ATOM     32  C   UNL A   1      34.292  31.141  27.786  1.00  0.00     0.251 C 
ATOM     33  H   UNL A   1      32.501  31.033  26.987  1.00  0.00     0.163 HD
ATOM     34  O   UNL A   1      33.920  32.148  28.395  1.00  0.00    -0.269 OA
BRANCH  32  35
ATOM     35  C   UNL A   1      35.672  30.632  28.023  1.00  0.00     0.039 A 
ATOM     36  C   UNL A   1      36.109  29.326  27.798  1.00  0.00     0.014 A 
ATOM     37  C   UNL A   1      36.589  31.560  28.552  1.00  0.00     0.014 A 
ATOM     38  C   UNL A   1      37.405  28.943  28.131  1.00  0.00     0.010 A 
ATOM     39  C   UNL A   1      37.889  31.185  28.879  1.00  0.00     0.010 A 
ATOM     40  C   UNL A   1      38.286  29.863  28.699  1.00  0.00    -0.014 A 
BRANCH  40  41
ATOM     41  C   UNL A   1      39.620  29.391  29.058  1.00  0.00     0.031 A 
ATOM     42  C   UNL A   1      39.884  29.141  30.506  1.00  0.00     0.074 A 
ATOM     43  C   UNL A   1      40.561  29.088  28.143  1.00  0.00     0.049 A 
ATOM     44  N   UNL A   1      40.813  29.649  31.253  1.00  0.00    -0.248 NA
ATOM     45  C   UNL A   1      38.977  28.229  31.217  1.00  0.00     0.031 C 
ATOM     46  C   UNL A   1      40.411  29.009  26.689  1.00  0.00     0.029 A 
ATOM     47  N   UNL A   1      41.847  28.681  28.350  1.00  0.00    -0.354 N 
ATOM     48  C   UNL A   1      40.712  29.009  32.489  1.00  0.00     0.074 A 
ATOM     49  C   UNL A   1      39.514  28.211  32.439  1.00  0.00     0.031 C 
ATOM     50  C   UNL A   1      41.487  28.381  26.168  1.00  0.00     0.029 A 
ATOM     51  C   UNL A   1      42.447  28.129  27.231  1.00  0.00     0.049 A 
ATOM     52  H   UNL A   1      42.306  28.772  29.216  1.00  0.00     0.167 HD
ATOM     53  C   UNL A   1      41.710  29.050  33.416  1.00  0.00     0.037 A 
ATOM     54  C   UNL A   1      43.622  27.457  27.183  1.00  0.00     0.037 A 
ATOM     55  C   UNL A   1      42.624  30.134  33.186  1.00  0.00     0.049 A 
ATOM     56  C   UNL A   1      44.404  27.802  28.392  1.00  0.00     0.074 A 
ATOM     57  C   UNL A   1      42.517  31.510  33.127  1.00  0.00     0.029 A 
ATOM     58  N   UNL A   1      43.873  29.847  32.695  1.00  0.00    -0.354 N 
ATOM     59  N   UNL A   1      44.975  28.956  28.593  1.00  0.00    -0.248 NA
ATOM     60  C   UNL A   1      44.244  26.974  29.578  1.00  0.00     0.031 C 
ATOM     61  C   UNL A   1      43.483  31.918  32.161  1.00  0.00     0.029 A 
ATOM     62  C   UNL A   1      44.122  30.764  31.709  1.00  0.00     0.049 A 
ATOM     63  H   UNL A   1      44.471  29.125  32.994  1.00  0.00     0.167 HD
ATOM     64  C   UNL A   1      44.857  29.176  29.956  1.00  0.00     0.074 A 
ATOM     65  C   UNL A   1      44.512  27.877  30.522  1.00  0.00     0.031 C 
ATOM     66  C   UNL A   1      44.772  30.441  30.463  1.00  0.00     0.037 A 
BRANCH  53  67
ATOM     67  C   UNL A   1      42.040  27.924  34.364  1.00  0.00     0.057 A 
ATOM     68  C   UNL A   1      42.833  26.815  34.007  1.00  0.00     0.134 A 
ATOM     69  C   UNL A   1      41.829  28.089  35.746  1.00  0.00     0.134 A 
ATOM     70  F   UNL A   1      43.188  26.574  32.738  1.00  0.00    -0.206 F 
ATOM     71  C   UNL A   1      43.392  25.948  34.952  1.00  0.00     0.040 A 
ATOM     72  C   UNL A   1      42.425  27.257  36.703  1.00  0.00     0.040 A 
ATOM     73  F   UNL A   1      41.105  29.117  36.214  1.00  0.00    -0.206 F 
ATOM     74  C   UNL A   1      43.216  26.187  36.307  1.00  0.00     0.006 A 
ENDBRANCH  53  67
BRANCH  54  75
ATOM     75  C   UNL A   1      44.028  26.387  26.248  1.00  0.00     0.057 A 
ATOM     76  C   UNL A   1      43.232  25.245  26.051  1.00  0.00     0.134 A 
ATOM     77  C   UNL A   1      45.316  26.343  25.698  1.00  0.00     0.134 A 
ATOM     78  F   UNL A   1      42.019  25.139  26.611  1.00  0.00    -0.206 F 
ATOM     79  C   UNL A   1      43.681  24.130  25.338  1.00  0.00     0.040 A 
ATOM     80  C   UNL A   1      45.785  25.227  24.995  1.00  0.00     0.040 A 
ATOM     81  F   UNL A   1      46.169  27.361  25.876  1.00  0.00    -0.206 F 
ATOM     82  C   UNL A   1      44.967  24.114  24.816  1.00  0.00     0.006 A 
ENDBRANCH  54  75
BRANCH  66  83
ATOM     83  C   UNL A   1      45.088  31.583  29.543  1.00  0.00     0.057 A 
ATOM     84  C   UNL A   1      46.299  32.266  29.691  1.00  0.00     0.134 A 
ATOM     85  C   UNL A   1      44.175  32.099  28.610  1.00  0.00     0.134 A 
ATOM     86  F   UNL A   1      47.192  31.870  30.613  1.00  0.00    -0.206 F 
ATOM     87  C   UNL A   1      46.603  33.397  28.929  1.00  0.00     0.040 A 
ATOM     88  C   UNL A   1      44.482  33.208  27.817  1.00  0.00     0.040 A 
ATOM     89  F   UNL A   1      42.947  31.580  28.481  1.00  0.00    -0.206 F 
ATOM     90  C   UNL A   1      45.700  33.862  27.978  1.00  0.00     0.006 A 
ENDBRANCH  66  83
ENDBRANCH  40  41
ENDBRANCH  32  35
ENDBRANCH  30  31
ENDBRANCH  29  30
ENDBRANCH   1  29
TORSDOF 15
ENDMDL
MODEL 2
REMARK VINA RESULT:     -12.7      2.455      6.087
REMARK SMILES Cc1c(CC(=O)NCCCCNC(=O)c2ccc(-c3c4nc(c(-c5c(F)cccc5F)c5ccc([nH]5)c(-c5c(F)cccc5F)c5nc(c(-c6c(F)cccc6F)c6ccc3[nH]6)C=C5)C=C4)cc2)c2cc(O)ccc2n1C(=O)c1ccc(Cl)cc1
REMARK SMILES IDX 9 1 8 2 7 3 5 4 6 5 4 7 3 8 1 9 2 10 76 11 69 12 75 13 70 14
REMARK SMILES IDX 74 15 71 16 73 17 77 18 78 19 79 20 80 21 85 22 81 23 84 24
REMARK SMILES IDX 82 25 83 26 72 27 10 29 11 30 12 31 13 32 14 34 15 35 16 36
REMARK SMILES IDX 68 37 17 38 67 39 18 40 19 41 20 42 61 43 21 44 66 45 60 46
REMARK SMILES IDX 62 47 22 48 65 49 59 50 58 51 23 53 49 54 32 55 48 56 33 57
REMARK SMILES IDX 36 58 47 59 63 60 34 61 35 62 46 64 64 65 37 66 24 67 25 68
REMARK SMILES IDX 30 69 26 70 27 71 29 72 31 73 28 74 50 75 51 76 56 77 52 78
REMARK SMILES IDX 53 79 55 80 57 81 54 82 38 83 39 84 44 85 40 86 41 87 43 88
REMARK SMILES IDX 45 89 42 90
REMARK H PARENT 7 6 72 28 12 33 62 52 36 63
REMARK Flexibility Score: inf
ROOT
ATOM      1  C   UNL A   1      32.505  28.249  27.370  1.00  0.00     0.023 C 
ENDROOT
BRANCH   1   2
ATOM      2  C   UNL A   1      31.329  28.191  26.399  1.00  0.00     0.116 C 
BRANCH   2   3
ATOM      3  N   UNL A   1      31.646  28.805  25.128  1.00  0.00    -0.356 N 
ATOM      4  C   UNL A   1      31.479  28.289  23.873  1.00  0.00     0.224 C 
ATOM      5  O   UNL A   1      31.801  28.987  22.910  1.00  0.00    -0.275 OA
ATOM      6  H   UNL A   1      32.033  29.708  25.172  1.00  0.00     0.163 HD
BRANCH   4   7
ATOM      7  C   UNL A   1      30.848  26.917  23.690  1.00  0.00     0.138 C 
BRANCH   7   8
ATOM      8  C   UNL A   1      31.782  25.781  24.005  1.00  0.00    -0.009 A 
ATOM      9  C   UNL A   1      33.761  26.316  22.401  1.00  0.00     0.065 C 
ATOM     10  C   UNL A   1      33.027  25.528  23.443  1.00  0.00     0.028 A 
ATOM     11  N   UNL A   1      33.529  24.329  23.972  1.00  0.00    -0.280 N 
ATOM     12  C   UNL A   1      31.555  24.777  24.989  1.00  0.00     0.008 A 
ATOM     13  C   UNL A   1      32.675  23.938  25.017  1.00  0.00     0.057 A 
ATOM     14  C   UNL A   1      30.488  24.537  25.885  1.00  0.00     0.056 A 
ATOM     15  C   UNL A   1      32.769  22.921  25.992  1.00  0.00     0.031 A 
ATOM     16  C   UNL A   1      30.566  23.484  26.789  1.00  0.00     0.116 A 
ATOM     17  C   UNL A   1      31.696  22.692  26.859  1.00  0.00     0.048 A 
BRANCH  11  18
ATOM     18  C   UNL A   1      34.697  23.648  23.519  1.00  0.00     0.262 C 
ATOM     19  O   UNL A   1      34.781  23.332  22.330  1.00  0.00    -0.268 OA
BRANCH  18  20
ATOM     20  C   UNL A   1      35.848  23.277  24.355  1.00  0.00     0.040 A 
ATOM     21  C   UNL A   1      36.360  24.161  25.312  1.00  0.00     0.015 A 
ATOM     22  C   UNL A   1      36.426  22.016  24.162  1.00  0.00     0.015 A 
ATOM     23  C   UNL A   1      37.509  23.806  26.022  1.00  0.00     0.021 A 
ATOM     24  C   UNL A   1      37.569  21.667  24.879  1.00  0.00     0.021 A 
ATOM     25  C   UNL A   1      38.116  22.568  25.793  1.00  0.00     0.041 A 
ATOM     26  Cl  UNL A   1      39.560  22.158  26.631  1.00  0.00    -0.084 Cl
ENDBRANCH  18  20
ENDBRANCH  11  18
BRANCH  16  27
ATOM     27  O   UNL A   1      29.500  23.275  27.614  1.00  0.00    -0.508 OA
ATOM     28  H   UNL A   1      28.695  23.728  27.461  1.00  0.00     0.293 HD
ENDBRANCH  16  27
ENDBRANCH   7   8
ENDBRANCH   4   7
ENDBRANCH   2   3
ENDBRANCH   1   2
BRANCH   1  29
ATOM     29  C   UNL A   1      33.871  27.954  26.733  1.00  0.00     0.023 C 
BRANCH  29  30
ATOM     30  C   UNL A   1      34.856  29.126  26.769  1.00  0.00     0.116 C 
BRANCH  30  31
ATOM     31  N   UNL A   1      34.982  29.720  28.085  1.00  0.00    -0.352 N 
ATOM     32  C   UNL A   1      35.991  29.852  28.994  1.00  0.00     0.251 C 
ATOM     33  H   UNL A   1      34.140  30.125  28.396  1.00  0.00     0.163 HD
ATOM     34  O   UNL A   1      35.717  30.487  30.016  1.00  0.00    -0.269 OA
BRANCH  32  35
ATOM     35  C   UNL A   1      37.360  29.280  28.854  1.00  0.00     0.039 A 
ATOM     36  C   UNL A   1      37.967  28.393  29.743  1.00  0.00     0.014 A 
ATOM     37  C   UNL A   1      38.098  29.715  27.737  1.00  0.00     0.014 A 
ATOM     38  C   UNL A   1      39.284  27.985  29.552  1.00  0.00     0.010 A 
ATOM     39  C   UNL A   1      39.413  29.304  27.536  1.00  0.00     0.010 A 
ATOM     40  C   UNL A   1      40.017  28.462  28.466  1.00  0.00    -0.014 A 
BRANCH  40  41
ATOM     41  C   UNL A   1      41.404  28.025  28.339  1.00  0.00     0.031 A 
ATOM     42  C   UNL A   1      41.642  26.704  27.686  1.00  0.00     0.074 A 
ATOM     43  C   UNL A   1      42.450  28.797  28.689  1.00  0.00     0.049 A 
ATOM     44  N   UNL A   1      42.276  25.677  28.158  1.00  0.00    -0.248 NA
ATOM     45  C   UNL A   1      41.074  26.491  26.347  1.00  0.00     0.031 C 
ATOM     46  C   UNL A   1      42.437  30.206  29.088  1.00  0.00     0.029 A 
ATOM     47  N   UNL A   1      43.780  28.492  28.658  1.00  0.00    -0.354 N 
ATOM     48  C   UNL A   1      42.328  24.741  27.125  1.00  0.00     0.074 A 
ATOM     49  C   UNL A   1      41.499  25.258  26.066  1.00  0.00     0.031 C 
ATOM     50  C   UNL A   1      43.698  30.686  29.055  1.00  0.00     0.029 A 
ATOM     51  C   UNL A   1      44.611  29.595  28.755  1.00  0.00     0.049 A 
ATOM     52  H   UNL A   1      44.117  27.571  28.574  1.00  0.00     0.167 HD
ATOM     53  C   UNL A   1      43.181  23.679  27.143  1.00  0.00     0.037 A 
ATOM     54  C   UNL A   1      45.949  29.630  28.545  1.00  0.00     0.037 A 
ATOM     55  C   UNL A   1      43.662  23.388  28.465  1.00  0.00     0.049 A 
ATOM     56  C   UNL A   1      46.474  28.250  28.665  1.00  0.00     0.074 A 
ATOM     57  C   UNL A   1      43.075  23.037  29.665  1.00  0.00     0.029 A 
ATOM     58  N   UNL A   1      44.961  23.703  28.776  1.00  0.00    -0.354 N 
ATOM     59  N   UNL A   1      46.581  27.600  29.789  1.00  0.00    -0.248 NA
ATOM     60  C   UNL A   1      46.540  27.431  27.464  1.00  0.00     0.031 C 
ATOM     61  C   UNL A   1      43.895  23.632  30.669  1.00  0.00     0.029 A 
ATOM     62  C   UNL A   1      44.932  24.293  30.011  1.00  0.00     0.049 A 
ATOM     63  H   UNL A   1      45.756  23.537  28.219  1.00  0.00     0.167 HD
ATOM     64  C   UNL A   1      46.301  26.282  29.462  1.00  0.00     0.074 A 
ATOM     65  C   UNL A   1      46.405  26.220  28.009  1.00  0.00     0.031 C 
ATOM     66  C   UNL A   1      45.736  25.433  30.371  1.00  0.00     0.037 A 
BRANCH  53  67
ATOM     67  C   UNL A   1      43.827  23.082  25.917  1.00  0.00     0.057 A 
ATOM     68  C   UNL A   1      44.737  23.781  25.100  1.00  0.00     0.134 A 
ATOM     69  C   UNL A   1      43.786  21.690  25.714  1.00  0.00     0.134 A 
ATOM     70  F   UNL A   1      44.946  25.098  25.234  1.00  0.00    -0.206 F 
ATOM     71  C   UNL A   1      45.561  23.143  24.167  1.00  0.00     0.040 A 
ATOM     72  C   UNL A   1      44.643  21.035  24.819  1.00  0.00     0.040 A 
ATOM     73  F   UNL A   1      42.972  20.911  26.441  1.00  0.00    -0.206 F 
ATOM     74  C   UNL A   1      45.540  21.762  24.048  1.00  0.00     0.006 A 
ENDBRANCH  53  67
BRANCH  54  75
ATOM     75  C   UNL A   1      46.772  30.758  28.061  1.00  0.00     0.057 A 
ATOM     76  C   UNL A   1      47.810  31.294  28.842  1.00  0.00     0.134 A 
ATOM     77  C   UNL A   1      46.415  31.491  26.922  1.00  0.00     0.134 A 
ATOM     78  F   UNL A   1      48.172  30.728  30.002  1.00  0.00    -0.206 F 
ATOM     79  C   UNL A   1      48.466  32.482  28.505  1.00  0.00     0.040 A 
ATOM     80  C   UNL A   1      47.053  32.690  26.580  1.00  0.00     0.040 A 
ATOM     81  F   UNL A   1      45.402  31.089  26.141  1.00  0.00    -0.206 F 
ATOM     82  C   UNL A   1      48.080  33.191  27.375  1.00  0.00     0.006 A 
ENDBRANCH  54  75
BRANCH  66  83
ATOM     83  C   UNL A   1      45.686  25.879  31.802  1.00  0.00     0.057 A 
ATOM     84  C   UNL A   1      44.583  26.613  32.252  1.00  0.00     0.134 A 
ATOM     85  C   UNL A   1      46.751  25.715  32.701  1.00  0.00     0.134 A 
ATOM     86  F   UNL A   1      43.557  26.870  31.425  1.00  0.00    -0.206 F 
ATOM     87  C   UNL A   1      44.528  27.139  33.545  1.00  0.00     0.040 A 
ATOM     88  C   UNL A   1      46.693  26.204  34.008  1.00  0.00     0.040 A 
ATOM     89  F   UNL A   1      47.892  25.126  32.322  1.00  0.00    -0.206 F 
ATOM     90  C   UNL A   1      45.579  26.922  34.433  1.00  0.00     0.006 A 
ENDBRANCH  66  83
ENDBRANCH  40  41
ENDBRANCH  32  35
ENDBRANCH  30  31
ENDBRANCH  29  30
ENDBRANCH   1  29
TORSDOF 15
ENDMDL
MODEL 3
REMARK VINA RESULT:     -12.5      3.253      8.546
REMARK SMILES Cc1c(CC(=O)NCCCCNC(=O)c2ccc(-c3c4nc(c(-c5c(F)cccc5F)c5ccc([nH]5)c(-c5c(F)cccc5F)c5nc(c(-c6c(F)cccc6F)c6ccc3[nH]6)C=C5)C=C4)cc2)c2cc(O)ccc2n1C(=O)c1ccc(Cl)cc1
REMARK SMILES IDX 9 1 8 2 7 3 5 4 6 5 4 7 3 8 1 9 2 10 76 11 69 12 75 13 70 14
REMARK SMILES IDX 74 15 71 16 73 17 77 18 78 19 79 20 80 21 85 22 81 23 84 24
REMARK SMILES IDX 82 25 83 26 72 27 10 29 11 30 12 31 13 32 14 34 15 35 16 36
REMARK SMILES IDX 68 37 17 38 67 39 18 40 19 41 20 42 61 43 21 44 66 45 60 46
REMARK SMILES IDX 62 47 22 48 65 49 59 50 58 51 23 53 49 54 32 55 48 56 33 57
REMARK SMILES IDX 36 58 47 59 63 60 34 61 35 62 46 64 64 65 37 66 24 67 25 68
REMARK SMILES IDX 30 69 26 70 27 71 29 72 31 73 28 74 50 75 51 76 56 77 52 78
REMARK SMILES IDX 53 79 55 80 57 81 54 82 38 83 39 84 44 85 40 86 41 87 43 88
REMARK SMILES IDX 45 89 42 90
REMARK H PARENT 7 6 72 28 12 33 62 52 36 63
REMARK Flexibility Score: inf
ROOT
ATOM      1  C   UNL A   1      38.097  23.230  25.912  1.00  0.00     0.023 C 
ENDROOT
BRANCH   1   2
ATOM      2  C   UNL A   1      36.903  23.447  24.985  1.00  0.00     0.116 C 
BRANCH   2   3
ATOM      3  N   UNL A   1      35.645  23.220  25.662  1.00  0.00    -0.356 N 
ATOM      4  C   UNL A   1      34.469  23.901  25.515  1.00  0.00     0.224 C 
ATOM      5  O   UNL A   1      33.498  23.536  26.181  1.00  0.00    -0.275 OA
ATOM      6  H   UNL A   1      35.634  22.482  26.313  1.00  0.00     0.163 HD
BRANCH   4   7
ATOM      7  C   UNL A   1      34.363  25.031  24.503  1.00  0.00     0.138 C 
BRANCH   7   8
ATOM      8  C   UNL A   1      33.146  25.894  24.691  1.00  0.00    -0.009 A 
ATOM      9  C   UNL A   1      31.437  24.666  23.158  1.00  0.00     0.065 C 
ATOM     10  C   UNL A   1      31.896  25.733  24.105  1.00  0.00     0.028 A 
ATOM     11  N   UNL A   1      31.070  26.796  24.498  1.00  0.00    -0.280 N 
ATOM     12  C   UNL A   1      33.060  27.021  25.557  1.00  0.00     0.008 A 
ATOM     13  C   UNL A   1      31.753  27.517  25.493  1.00  0.00     0.057 A 
ATOM     14  C   UNL A   1      33.993  27.639  26.420  1.00  0.00     0.056 A 
ATOM     15  C   UNL A   1      31.355  28.567  26.349  1.00  0.00     0.031 A 
ATOM     16  C   UNL A   1      33.603  28.720  27.202  1.00  0.00     0.116 A 
ATOM     17  C   UNL A   1      32.299  29.174  27.184  1.00  0.00     0.048 A 
BRANCH  11  18
ATOM     18  C   UNL A   1      29.775  27.077  23.974  1.00  0.00     0.262 C 
ATOM     19  O   UNL A   1      28.845  26.309  24.231  1.00  0.00    -0.268 OA
BRANCH  18  20
ATOM     20  C   UNL A   1      29.425  28.232  23.133  1.00  0.00     0.040 A 
ATOM     21  C   UNL A   1      30.398  28.896  22.378  1.00  0.00     0.015 A 
ATOM     22  C   UNL A   1      28.091  28.657  23.114  1.00  0.00     0.015 A 
ATOM     23  C   UNL A   1      30.044  30.042  21.663  1.00  0.00     0.021 A 
ATOM     24  C   UNL A   1      27.743  29.798  22.394  1.00  0.00     0.021 A 
ATOM     25  C   UNL A   1      28.722  30.495  21.685  1.00  0.00     0.041 A 
ATOM     26  Cl  UNL A   1      28.300  31.937  20.847  1.00  0.00    -0.084 Cl
ENDBRANCH  18  20
ENDBRANCH  11  18
BRANCH  16  27
ATOM     27  O   UNL A   1      34.547  29.301  27.998  1.00  0.00    -0.508 OA
ATOM     28  H   UNL A   1      35.391  28.905  28.088  1.00  0.00     0.293 HD
ENDBRANCH  16  27
ENDBRANCH   7   8
ENDBRANCH   4   7
ENDBRANCH   2   3
ENDBRANCH   1   2
BRANCH   1  29
ATOM     29  C   UNL A   1      38.755  21.848  25.788  1.00  0.00     0.023 C 
BRANCH  29  30
ATOM     30  C   UNL A   1      40.040  21.680  26.603  1.00  0.00     0.116 C 
BRANCH  30  31
ATOM     31  N   UNL A   1      41.235  22.011  25.852  1.00  0.00    -0.352 N 
ATOM     32  C   UNL A   1      42.028  23.116  25.734  1.00  0.00     0.251 C 
ATOM     33  H   UNL A   1      41.548  21.262  25.295  1.00  0.00     0.163 HD
ATOM     34  O   UNL A   1      43.019  22.992  25.009  1.00  0.00    -0.269 OA
BRANCH  32  35
ATOM     35  C   UNL A   1      41.778  24.432  26.383  1.00  0.00     0.039 A 
ATOM     36  C   UNL A   1      41.270  25.569  25.753  1.00  0.00     0.014 A 
ATOM     37  C   UNL A   1      42.124  24.523  27.745  1.00  0.00     0.014 A 
ATOM     38  C   UNL A   1      41.152  26.772  26.444  1.00  0.00     0.010 A 
ATOM     39  C   UNL A   1      42.001  25.721  28.444  1.00  0.00     0.010 A 
ATOM     40  C   UNL A   1      41.544  26.857  27.780  1.00  0.00    -0.014 A 
BRANCH  40  41
ATOM     41  C   UNL A   1      41.429  28.154  28.439  1.00  0.00     0.031 A 
ATOM     42  C   UNL A   1      42.512  29.147  28.179  1.00  0.00     0.074 A 
ATOM     43  C   UNL A   1      40.356  28.510  29.173  1.00  0.00     0.049 A 
ATOM     44  N   UNL A   1      43.269  29.755  29.038  1.00  0.00    -0.248 NA
ATOM     45  C   UNL A   1      42.811  29.480  26.778  1.00  0.00     0.031 C 
ATOM     46  C   UNL A   1      39.089  27.793  29.322  1.00  0.00     0.029 A 
ATOM     47  N   UNL A   1      40.148  29.665  29.867  1.00  0.00    -0.354 N 
ATOM     48  C   UNL A   1      44.033  30.665  28.308  1.00  0.00     0.074 A 
ATOM     49  C   UNL A   1      43.774  30.393  26.917  1.00  0.00     0.031 C 
ATOM     50  C   UNL A   1      38.177  28.619  29.878  1.00  0.00     0.029 A 
ATOM     51  C   UNL A   1      38.828  29.870  30.232  1.00  0.00     0.049 A 
ATOM     52  H   UNL A   1      40.870  30.297  30.088  1.00  0.00     0.167 HD
ATOM     53  C   UNL A   1      44.705  31.693  28.898  1.00  0.00     0.037 A 
ATOM     54  C   UNL A   1      38.287  31.005  30.736  1.00  0.00     0.037 A 
ATOM     55  C   UNL A   1      44.904  31.479  30.305  1.00  0.00     0.049 A 
ATOM     56  C   UNL A   1      39.382  31.838  31.285  1.00  0.00     0.074 A 
ATOM     57  C   UNL A   1      45.542  30.520  31.068  1.00  0.00     0.029 A 
ATOM     58  N   UNL A   1      44.160  32.213  31.193  1.00  0.00    -0.354 N 
ATOM     59  N   UNL A   1      40.036  31.564  32.378  1.00  0.00    -0.248 NA
ATOM     60  C   UNL A   1      40.020  32.806  30.406  1.00  0.00     0.031 C 
ATOM     61  C   UNL A   1      44.770  30.422  32.263  1.00  0.00     0.029 A 
ATOM     62  C   UNL A   1      43.723  31.337  32.150  1.00  0.00     0.049 A 
ATOM     63  H   UNL A   1      43.976  33.179  31.150  1.00  0.00     0.167 HD
ATOM     64  C   UNL A   1      41.333  31.982  32.128  1.00  0.00     0.074 A 
ATOM     65  C   UNL A   1      41.235  32.845  30.956  1.00  0.00     0.031 C 
ATOM     66  C   UNL A   1      42.400  31.370  32.720  1.00  0.00     0.037 A 
BRANCH  53  67
ATOM     67  C   UNL A   1      44.922  33.046  28.265  1.00  0.00     0.057 A 
ATOM     68  C   UNL A   1      46.081  33.389  27.540  1.00  0.00     0.134 A 
ATOM     69  C   UNL A   1      43.833  33.924  28.106  1.00  0.00     0.134 A 
ATOM     70  F   UNL A   1      47.168  32.607  27.528  1.00  0.00    -0.206 F 
ATOM     71  C   UNL A   1      46.146  34.507  26.703  1.00  0.00     0.040 A 
ATOM     72  C   UNL A   1      43.871  35.018  27.231  1.00  0.00     0.040 A 
ATOM     73  F   UNL A   1      42.668  33.698  28.731  1.00  0.00    -0.206 F 
ATOM     74  C   UNL A   1      45.028  35.308  26.520  1.00  0.00     0.006 A 
ENDBRANCH  53  67
BRANCH  54  75
ATOM     75  C   UNL A   1      36.901  31.498  30.600  1.00  0.00     0.057 A 
ATOM     76  C   UNL A   1      36.433  32.044  29.392  1.00  0.00     0.134 A 
ATOM     77  C   UNL A   1      36.068  31.662  31.714  1.00  0.00     0.134 A 
ATOM     78  F   UNL A   1      37.187  32.029  28.284  1.00  0.00    -0.206 F 
ATOM     79  C   UNL A   1      35.204  32.702  29.291  1.00  0.00     0.040 A 
ATOM     80  C   UNL A   1      34.841  32.333  31.632  1.00  0.00     0.040 A 
ATOM     81  F   UNL A   1      36.449  31.223  32.921  1.00  0.00    -0.206 F 
ATOM     82  C   UNL A   1      34.407  32.858  30.417  1.00  0.00     0.006 A 
ENDBRANCH  54  75
BRANCH  66  83
ATOM     83  C   UNL A   1      42.121  30.425  33.852  1.00  0.00     0.057 A 
ATOM     84  C   UNL A   1      42.331  30.852  35.167  1.00  0.00     0.134 A 
ATOM     85  C   UNL A   1      41.779  29.077  33.666  1.00  0.00     0.134 A 
ATOM     86  F   UNL A   1      42.726  32.110  35.416  1.00  0.00    -0.206 F 
ATOM     87  C   UNL A   1      42.182  29.986  36.253  1.00  0.00     0.040 A 
ATOM     88  C   UNL A   1      41.592  28.210  34.746  1.00  0.00     0.040 A 
ATOM     89  F   UNL A   1      41.670  28.552  32.439  1.00  0.00    -0.206 F 
ATOM     90  C   UNL A   1      41.797  28.664  36.045  1.00  0.00     0.006 A 
ENDBRANCH  66  83
ENDBRANCH  40  41
ENDBRANCH  32  35
ENDBRANCH  30  31
ENDBRANCH  29  30
ENDBRANCH   1  29
TORSDOF 15
ENDMDL
