MODEL 1
REMARK VINA RESULT:     -11.8      0.000      0.000
REMARK SMILES CCC1(C)CC[NH+]([C@@H]2CC[C@]([NH2+]C3CC3)(C(=O)NCCCCNC(=O)c3ccc(-c4c5nc(c(-c6c(F)cccc6F)c6ccc([nH]6)c(-c6c(F)cccc6F)c6nc(c(-c7c(F)cccc7F)c7ccc4[nH]7)C=C6)C=C5)cc3)C2)CC1
REMARK SMILES IDX 20 1 19 2 18 3 16 4 17 5 11 7 8 8 9 9 80 10 10 11 7 12 3 13
REMARK SMILES IDX 4 14 5 15 82 16 6 17 81 18 2 20 1 21 12 22 13 25 14 26 15 27
REMARK SMILES IDX 21 28 22 29 23 30 24 31 25 33 26 34 27 35 79 36 28 37 78 38
REMARK SMILES IDX 29 39 30 40 31 41 72 42 32 43 77 44 71 45 73 46 33 47 76 48
REMARK SMILES IDX 70 49 69 50 34 52 60 53 43 54 59 55 44 56 47 57 58 58 74 59
REMARK SMILES IDX 45 60 46 61 57 63 75 64 48 65 35 66 36 67 41 68 37 69 38 70
REMARK SMILES IDX 40 71 42 72 39 73 61 74 62 75 67 76 63 77 64 78 66 79 68 80
REMARK SMILES IDX 65 81 49 82 50 83 55 84 51 85 52 86 54 87 56 88 53 89
REMARK H PARENT 18 6 7 19 12 23 12 24 23 32 73 51 47 62
REMARK Flexibility Score: inf
ROOT
ATOM      1  C   UNL A   1      37.107  21.106  24.491  1.00  0.00     0.023 C 
ENDROOT
BRANCH   1   2
ATOM      2  C   UNL A   1      36.883  22.229  25.505  1.00  0.00     0.116 C 
BRANCH   2   3
ATOM      3  N   UNL A   1      35.946  21.910  26.568  1.00  0.00    -0.351 N 
ATOM      4  C   UNL A   1      34.579  21.832  26.604  1.00  0.00     0.281 C 
ATOM      5  O   UNL A   1      34.102  21.440  27.678  1.00  0.00    -0.268 OA
ATOM      6  H   UNL A   1      36.378  21.712  27.429  1.00  0.00     0.163 HD
BRANCH   4   7
ATOM      7  C   UNL A   1      33.644  22.283  25.414  1.00  0.00     0.181 C 
ATOM      8  C   UNL A   1      32.837  24.416  24.529  1.00  0.00     0.191 C 
ATOM      9  C   UNL A   1      31.894  23.982  25.657  1.00  0.00     0.072 C 
ATOM     10  C   UNL A   1      34.118  23.598  24.760  1.00  0.00     0.144 C 
ATOM     11  C   UNL A   1      32.226  22.525  25.955  1.00  0.00     0.085 C 
BRANCH   8  12
ATOM     12  N   UNL A   1      32.998  25.850  24.253  1.00  0.00    -0.332 N 
ATOM     13  C   UNL A   1      30.542  27.480  23.640  1.00  0.00    -0.022 C 
ATOM     14  C   UNL A   1      30.903  28.934  23.277  1.00  0.00     0.012 C 
ATOM     15  C   UNL A   1      31.207  26.522  22.619  1.00  0.00     0.068 C 
ATOM     16  C   UNL A   1      31.018  27.170  25.079  1.00  0.00     0.068 C 
ATOM     17  C   UNL A   1      32.690  26.247  22.877  1.00  0.00     0.263 C 
ATOM     18  C   UNL A   1      32.508  26.845  25.199  1.00  0.00     0.263 C 
ATOM     19  H   UNL A   1      34.005  25.885  24.411  1.00  0.00     0.348 HD
BRANCH  13  20
ATOM     20  C   UNL A   1      29.004  27.269  23.534  1.00  0.00     0.004 C 
ATOM     21  C   UNL A   1      28.199  28.466  23.058  1.00  0.00     0.004 C 
ENDBRANCH  13  20
ENDBRANCH   8  12
BRANCH   7  22
ATOM     22  N   UNL A   1      33.627  21.185  24.402  1.00  0.00    -0.331 N 
ATOM     23  H   UNL A   1      34.492  20.657  24.509  1.00  0.00     0.347 HD
ATOM     24  H   UNL A   1      33.518  21.657  23.504  1.00  0.00     0.347 HD
BRANCH  22  25
ATOM     25  C   UNL A   1      32.512  20.229  24.466  1.00  0.00     0.183 C 
ATOM     26  C   UNL A   1      32.513  19.031  23.567  1.00  0.00     0.071 C 
ATOM     27  C   UNL A   1      32.750  18.865  25.040  1.00  0.00     0.071 C 
ENDBRANCH  22  25
ENDBRANCH   7  22
ENDBRANCH   4   7
ENDBRANCH   2   3
ENDBRANCH   1   2
BRANCH   1  28
ATOM     28  C   UNL A   1      37.902  19.918  24.992  1.00  0.00     0.023 C 
BRANCH  28  29
ATOM     29  C   UNL A   1      39.170  20.298  25.731  1.00  0.00     0.116 C 
BRANCH  29  30
ATOM     30  N   UNL A   1      40.143  19.212  25.824  1.00  0.00    -0.352 N 
ATOM     31  C   UNL A   1      41.487  19.277  26.116  1.00  0.00     0.251 C 
ATOM     32  H   UNL A   1      39.788  18.309  25.654  1.00  0.00     0.163 HD
ATOM     33  O   UNL A   1      42.201  18.288  26.081  1.00  0.00    -0.269 OA
BRANCH  31  34
ATOM     34  C   UNL A   1      42.063  20.587  26.444  1.00  0.00     0.039 A 
ATOM     35  C   UNL A   1      42.454  21.435  25.406  1.00  0.00     0.014 A 
ATOM     36  C   UNL A   1      42.113  20.995  27.777  1.00  0.00     0.014 A 
ATOM     37  C   UNL A   1      42.821  22.741  25.709  1.00  0.00     0.010 A 
ATOM     38  C   UNL A   1      42.361  22.323  28.060  1.00  0.00     0.010 A 
ATOM     39  C   UNL A   1      42.731  23.202  27.031  1.00  0.00    -0.014 A 
BRANCH  39  40
ATOM     40  C   UNL A   1      43.060  24.595  27.391  1.00  0.00     0.031 A 
ATOM     41  C   UNL A   1      44.499  25.020  27.382  1.00  0.00     0.074 A 
ATOM     42  C   UNL A   1      42.086  25.422  27.809  1.00  0.00     0.049 A 
ATOM     43  N   UNL A   1      45.033  26.140  27.791  1.00  0.00    -0.248 NA
ATOM     44  C   UNL A   1      45.476  24.030  26.894  1.00  0.00     0.031 C 
ATOM     45  C   UNL A   1      40.664  25.081  27.909  1.00  0.00     0.029 A 
ATOM     46  N   UNL A   1      42.146  26.721  28.239  1.00  0.00    -0.354 N 
ATOM     47  C   UNL A   1      46.404  25.972  27.643  1.00  0.00     0.074 A 
ATOM     48  C   UNL A   1      46.625  24.625  27.170  1.00  0.00     0.031 C 
ATOM     49  C   UNL A   1      39.983  26.156  28.340  1.00  0.00     0.029 A 
ATOM     50  C   UNL A   1      40.924  27.243  28.583  1.00  0.00     0.049 A 
ATOM     51  H   UNL A   1      42.986  27.231  28.297  1.00  0.00     0.167 HD
ATOM     52  C   UNL A   1      47.386  26.877  27.853  1.00  0.00     0.037 A 
ATOM     53  C   UNL A   1      40.608  28.468  29.044  1.00  0.00     0.037 A 
ATOM     54  C   UNL A   1      47.140  28.228  28.272  1.00  0.00     0.049 A 
ATOM     55  C   UNL A   1      41.715  29.467  29.234  1.00  0.00     0.074 A 
ATOM     56  C   UNL A   1      48.043  29.258  28.450  1.00  0.00     0.029 A 
ATOM     57  N   UNL A   1      45.881  28.738  28.566  1.00  0.00    -0.354 N 
ATOM     58  N   UNL A   1      43.004  29.321  29.035  1.00  0.00    -0.248 NA
ATOM     59  C   UNL A   1      41.326  30.802  29.706  1.00  0.00     0.031 C 
ATOM     60  C   UNL A   1      47.336  30.383  28.884  1.00  0.00     0.029 A 
ATOM     61  C   UNL A   1      45.987  30.066  28.937  1.00  0.00     0.049 A 
ATOM     62  H   UNL A   1      45.040  28.230  28.519  1.00  0.00     0.167 HD
ATOM     63  C   UNL A   1      43.577  30.549  29.331  1.00  0.00     0.074 A 
ATOM     64  C   UNL A   1      42.492  31.433  29.710  1.00  0.00     0.031 C 
ATOM     65  C   UNL A   1      44.881  30.917  29.297  1.00  0.00     0.037 A 
BRANCH  52  66
ATOM     66  C   UNL A   1      48.799  26.427  27.621  1.00  0.00     0.057 A 
ATOM     67  C   UNL A   1      49.414  26.538  26.366  1.00  0.00     0.134 A 
ATOM     68  C   UNL A   1      49.552  25.872  28.661  1.00  0.00     0.134 A 
ATOM     69  F   UNL A   1      48.741  27.040  25.321  1.00  0.00    -0.206 F 
ATOM     70  C   UNL A   1      50.716  26.082  26.147  1.00  0.00     0.040 A 
ATOM     71  C   UNL A   1      50.865  25.441  28.463  1.00  0.00     0.040 A 
ATOM     72  F   UNL A   1      49.025  25.735  29.887  1.00  0.00    -0.206 F 
ATOM     73  C   UNL A   1      51.447  25.538  27.200  1.00  0.00     0.006 A 
ENDBRANCH  52  66
BRANCH  53  74
ATOM     74  C   UNL A   1      39.193  28.825  29.310  1.00  0.00     0.057 A 
ATOM     75  C   UNL A   1      38.622  28.606  30.569  1.00  0.00     0.134 A 
ATOM     76  C   UNL A   1      38.379  29.400  28.326  1.00  0.00     0.134 A 
ATOM     77  F   UNL A   1      39.346  28.048  31.550  1.00  0.00    -0.206 F 
ATOM     78  C   UNL A   1      37.290  28.927  30.836  1.00  0.00     0.040 A 
ATOM     79  C   UNL A   1      37.052  29.747  28.585  1.00  0.00     0.040 A 
ATOM     80  F   UNL A   1      38.870  29.648  27.102  1.00  0.00    -0.206 F 
ATOM     81  C   UNL A   1      36.502  29.505  29.842  1.00  0.00     0.006 A 
ENDBRANCH  53  74
BRANCH  65  82
ATOM     82  C   UNL A   1      45.193  32.341  29.643  1.00  0.00     0.057 A 
ATOM     83  C   UNL A   1      45.532  32.723  30.947  1.00  0.00     0.134 A 
ATOM     84  C   UNL A   1      45.202  33.328  28.651  1.00  0.00     0.134 A 
ATOM     85  F   UNL A   1      45.528  31.824  31.943  1.00  0.00    -0.206 F 
ATOM     86  C   UNL A   1      45.849  34.046  31.255  1.00  0.00     0.040 A 
ATOM     87  C   UNL A   1      45.542  34.647  28.941  1.00  0.00     0.040 A 
ATOM     88  F   UNL A   1      44.896  33.020  27.381  1.00  0.00    -0.206 F 
ATOM     89  C   UNL A   1      45.862  35.011  30.248  1.00  0.00     0.006 A 
ENDBRANCH  65  82
ENDBRANCH  39  40
ENDBRANCH  31  34
ENDBRANCH  29  30
ENDBRANCH  28  29
ENDBRANCH   1  28
TORSDOF 15
ENDMDL
MODEL 2
REMARK VINA RESULT:     -11.8      1.407      6.399
REMARK SMILES CCC1(C)CC[NH+]([C@@H]2CC[C@]([NH2+]C3CC3)(C(=O)NCCCCNC(=O)c3ccc(-c4c5nc(c(-c6c(F)cccc6F)c6ccc([nH]6)c(-c6c(F)cccc6F)c6nc(c(-c7c(F)cccc7F)c7ccc4[nH]7)C=C6)C=C5)cc3)C2)CC1
REMARK SMILES IDX 20 1 19 2 18 3 16 4 17 5 11 7 8 8 9 9 80 10 10 11 7 12 3 13
REMARK SMILES IDX 4 14 5 15 82 16 6 17 81 18 2 20 1 21 12 22 13 25 14 26 15 27
REMARK SMILES IDX 21 28 22 29 23 30 24 31 25 33 26 34 27 35 79 36 28 37 78 38
REMARK SMILES IDX 29 39 30 40 31 41 72 42 32 43 77 44 71 45 73 46 33 47 76 48
REMARK SMILES IDX 70 49 69 50 34 52 60 53 43 54 59 55 44 56 47 57 58 58 74 59
REMARK SMILES IDX 45 60 46 61 57 63 75 64 48 65 35 66 36 67 41 68 37 69 38 70
REMARK SMILES IDX 40 71 42 72 39 73 61 74 62 75 67 76 63 77 64 78 66 79 68 80
REMARK SMILES IDX 65 81 49 82 50 83 55 84 51 85 52 86 54 87 56 88 53 89
REMARK H PARENT 18 6 7 19 12 23 12 24 23 32 73 51 47 62
REMARK Flexibility Score: inf
ROOT
ATOM      1  C   UNL A   1      36.130  20.988  25.534  1.00  0.00     0.023 C 
ENDROOT
BRANCH   1   2
ATOM      2  C   UNL A   1      35.533  22.341  25.929  1.00  0.00     0.116 C 
BRANCH   2   3
ATOM      3  N   UNL A   1      34.677  22.307  27.103  1.00  0.00    -0.351 N 
ATOM      4  C   UNL A   1      33.317  22.284  27.256  1.00  0.00     0.281 C 
ATOM      5  O   UNL A   1      32.919  22.167  28.423  1.00  0.00    -0.268 OA
ATOM      6  H   UNL A   1      35.173  22.298  27.953  1.00  0.00     0.163 HD
BRANCH   4   7
ATOM      7  C   UNL A   1      32.297  22.479  26.065  1.00  0.00     0.181 C 
ATOM      8  C   UNL A   1      31.681  24.311  24.565  1.00  0.00     0.191 C 
ATOM      9  C   UNL A   1      30.853  24.447  25.848  1.00  0.00     0.072 C 
ATOM     10  C   UNL A   1      32.855  23.400  24.959  1.00  0.00     0.144 C 
ATOM     11  C   UNL A   1      31.016  23.134  26.604  1.00  0.00     0.085 C 
BRANCH   8  12
ATOM     12  N   UNL A   1      32.002  25.522  23.797  1.00  0.00    -0.332 N 
ATOM     13  C   UNL A   1      32.723  28.028  25.302  1.00  0.00    -0.022 C 
ATOM     14  C   UNL A   1      32.928  29.222  24.349  1.00  0.00     0.012 C 
ATOM     15  C   UNL A   1      31.271  27.508  25.159  1.00  0.00     0.068 C 
ATOM     16  C   UNL A   1      33.743  26.915  24.968  1.00  0.00     0.068 C 
ATOM     17  C   UNL A   1      31.032  26.611  23.941  1.00  0.00     0.263 C 
ATOM     18  C   UNL A   1      33.363  26.043  23.770  1.00  0.00     0.263 C 
ATOM     19  H   UNL A   1      31.918  25.098  22.874  1.00  0.00     0.348 HD
BRANCH  13  20
ATOM     20  C   UNL A   1      32.903  28.485  26.779  1.00  0.00     0.004 C 
ATOM     21  C   UNL A   1      31.721  28.237  27.701  1.00  0.00     0.004 C 
ENDBRANCH  13  20
ENDBRANCH   8  12
BRANCH   7  22
ATOM     22  N   UNL A   1      31.987  21.132  25.501  1.00  0.00    -0.331 N 
ATOM     23  H   UNL A   1      31.022  21.151  25.173  1.00  0.00     0.347 HD
ATOM     24  H   UNL A   1      32.172  20.478  26.262  1.00  0.00     0.347 HD
BRANCH  22  25
ATOM     25  C   UNL A   1      32.825  20.661  24.387  1.00  0.00     0.183 C 
ATOM     26  C   UNL A   1      33.199  19.213  24.305  1.00  0.00     0.071 C 
ATOM     27  C   UNL A   1      32.214  19.791  23.329  1.00  0.00     0.071 C 
ENDBRANCH  22  25
ENDBRANCH   7  22
ENDBRANCH   4   7
ENDBRANCH   2   3
ENDBRANCH   1   2
BRANCH   1  28
ATOM     28  C   UNL A   1      37.466  21.044  24.822  1.00  0.00     0.023 C 
BRANCH  28  29
ATOM     29  C   UNL A   1      38.654  21.144  25.758  1.00  0.00     0.116 C 
BRANCH  29  30
ATOM     30  N   UNL A   1      39.561  20.000  25.679  1.00  0.00    -0.352 N 
ATOM     31  C   UNL A   1      40.894  19.929  26.015  1.00  0.00     0.251 C 
ATOM     32  H   UNL A   1      39.164  19.167  25.338  1.00  0.00     0.163 HD
ATOM     33  O   UNL A   1      41.553  18.920  25.820  1.00  0.00    -0.269 OA
BRANCH  31  34
ATOM     34  C   UNL A   1      41.529  21.120  26.591  1.00  0.00     0.039 A 
ATOM     35  C   UNL A   1      42.040  22.098  25.736  1.00  0.00     0.014 A 
ATOM     36  C   UNL A   1      41.519  21.296  27.975  1.00  0.00     0.014 A 
ATOM     37  C   UNL A   1      42.469  23.305  26.276  1.00  0.00     0.010 A 
ATOM     38  C   UNL A   1      41.831  22.537  28.494  1.00  0.00     0.010 A 
ATOM     39  C   UNL A   1      42.322  23.545  27.651  1.00  0.00    -0.014 A 
BRANCH  39  40
ATOM     40  C   UNL A   1      42.714  24.831  28.260  1.00  0.00     0.031 A 
ATOM     41  C   UNL A   1      41.660  25.877  28.474  1.00  0.00     0.074 A 
ATOM     42  C   UNL A   1      44.011  25.075  28.520  1.00  0.00     0.049 A 
ATOM     43  N   UNL A   1      41.794  27.118  28.860  1.00  0.00    -0.248 NA
ATOM     44  C   UNL A   1      40.273  25.490  28.163  1.00  0.00     0.031 C 
ATOM     45  C   UNL A   1      45.116  24.141  28.289  1.00  0.00     0.029 A 
ATOM     46  N   UNL A   1      44.620  26.192  29.026  1.00  0.00    -0.354 N 
ATOM     47  C   UNL A   1      40.518  27.663  28.802  1.00  0.00     0.074 A 
ATOM     48  C   UNL A   1      39.636  26.644  28.283  1.00  0.00     0.031 C 
ATOM     49  C   UNL A   1      46.265  24.713  28.685  1.00  0.00     0.029 A 
ATOM     50  C   UNL A   1      45.981  26.063  29.158  1.00  0.00     0.049 A 
ATOM     51  H   UNL A   1      44.130  27.009  29.273  1.00  0.00     0.167 HD
ATOM     52  C   UNL A   1      40.116  28.898  29.180  1.00  0.00     0.037 A 
ATOM     53  C   UNL A   1      46.891  26.946  29.611  1.00  0.00     0.037 A 
ATOM     54  C   UNL A   1      41.001  29.879  29.744  1.00  0.00     0.049 A 
ATOM     55  C   UNL A   1      46.413  28.298  30.060  1.00  0.00     0.074 A 
ATOM     56  C   UNL A   1      40.702  31.136  30.230  1.00  0.00     0.029 A 
ATOM     57  N   UNL A   1      42.369  29.697  29.906  1.00  0.00    -0.354 N 
ATOM     58  N   UNL A   1      45.195  28.787  30.058  1.00  0.00    -0.248 NA
ATOM     59  C   UNL A   1      47.432  29.220  30.578  1.00  0.00     0.031 C 
ATOM     60  C   UNL A   1      41.893  31.730  30.658  1.00  0.00     0.029 A 
ATOM     61  C   UNL A   1      42.929  30.825  30.475  1.00  0.00     0.049 A 
ATOM     62  H   UNL A   1      42.865  28.886  29.653  1.00  0.00     0.167 HD
ATOM     63  C   UNL A   1      45.295  30.061  30.597  1.00  0.00     0.074 A 
ATOM     64  C   UNL A   1      46.692  30.263  30.929  1.00  0.00     0.031 C 
ATOM     65  C   UNL A   1      44.323  30.984  30.801  1.00  0.00     0.037 A 
BRANCH  52  66
ATOM     66  C   UNL A   1      38.665  29.235  29.002  1.00  0.00     0.057 A 
ATOM     67  C   UNL A   1      38.138  29.604  27.757  1.00  0.00     0.134 A 
ATOM     68  C   UNL A   1      37.784  29.195  30.089  1.00  0.00     0.134 A 
ATOM     69  F   UNL A   1      38.932  29.684  26.679  1.00  0.00    -0.206 F 
ATOM     70  C   UNL A   1      36.794  29.953  27.605  1.00  0.00     0.040 A 
ATOM     71  C   UNL A   1      36.432  29.511  29.944  1.00  0.00     0.040 A 
ATOM     72  F   UNL A   1      38.221  28.851  31.309  1.00  0.00    -0.206 F 
ATOM     73  C   UNL A   1      35.936  29.900  28.701  1.00  0.00     0.006 A 
ENDBRANCH  52  66
BRANCH  53  74
ATOM     74  C   UNL A   1      48.321  26.563  29.704  1.00  0.00     0.057 A 
ATOM     75  C   UNL A   1      49.217  26.876  28.673  1.00  0.00     0.134 A 
ATOM     76  C   UNL A   1      48.835  25.891  30.819  1.00  0.00     0.134 A 
ATOM     77  F   UNL A   1      48.783  27.510  27.574  1.00  0.00    -0.206 F 
ATOM     78  C   UNL A   1      50.564  26.517  28.738  1.00  0.00     0.040 A 
ATOM     79  C   UNL A   1      50.185  25.545  30.908  1.00  0.00     0.040 A 
ATOM     80  F   UNL A   1      48.033  25.574  31.847  1.00  0.00    -0.206 F 
ATOM     81  C   UNL A   1      51.053  25.853  29.862  1.00  0.00     0.006 A 
ENDBRANCH  53  74
BRANCH  65  82
ATOM     82  C   UNL A   1      44.738  32.274  31.440  1.00  0.00     0.057 A 
ATOM     83  C   UNL A   1      45.124  33.383  30.677  1.00  0.00     0.134 A 
ATOM     84  C   UNL A   1      44.701  32.421  32.832  1.00  0.00     0.134 A 
ATOM     85  F   UNL A   1      45.191  33.299  29.340  1.00  0.00    -0.206 F 
ATOM     86  C   UNL A   1      45.480  34.589  31.280  1.00  0.00     0.040 A 
ATOM     87  C   UNL A   1      45.030  33.629  33.444  1.00  0.00     0.040 A 
ATOM     88  F   UNL A   1      44.329  31.397  33.616  1.00  0.00    -0.206 F 
ATOM     89  C   UNL A   1      45.426  34.716  32.668  1.00  0.00     0.006 A 
ENDBRANCH  65  82
ENDBRANCH  39  40
ENDBRANCH  31  34
ENDBRANCH  29  30
ENDBRANCH  28  29
ENDBRANCH   1  28
TORSDOF 15
ENDMDL
MODEL 3
REMARK VINA RESULT:     -11.7      4.911     10.173
REMARK SMILES CCC1(C)CC[NH+]([C@@H]2CC[C@]([NH2+]C3CC3)(C(=O)NCCCCNC(=O)c3ccc(-c4c5nc(c(-c6c(F)cccc6F)c6ccc([nH]6)c(-c6c(F)cccc6F)c6nc(c(-c7c(F)cccc7F)c7ccc4[nH]7)C=C6)C=C5)cc3)C2)CC1
REMARK SMILES IDX 20 1 19 2 18 3 16 4 17 5 11 7 8 8 9 9 80 10 10 11 7 12 3 13
REMARK SMILES IDX 4 14 5 15 82 16 6 17 81 18 2 20 1 21 12 22 13 25 14 26 15 27
REMARK SMILES IDX 21 28 22 29 23 30 24 31 25 33 26 34 27 35 79 36 28 37 78 38
REMARK SMILES IDX 29 39 30 40 31 41 72 42 32 43 77 44 71 45 73 46 33 47 76 48
REMARK SMILES IDX 70 49 69 50 34 52 60 53 43 54 59 55 44 56 47 57 58 58 74 59
REMARK SMILES IDX 45 60 46 61 57 63 75 64 48 65 35 66 36 67 41 68 37 69 38 70
REMARK SMILES IDX 40 71 42 72 39 73 61 74 62 75 67 76 63 77 64 78 66 79 68 80
REMARK SMILES IDX 65 81 49 82 50 83 55 84 51 85 52 86 54 87 56 88 53 89
REMARK H PARENT 18 6 7 19 12 23 12 24 23 32 73 51 47 62
REMARK Flexibility Score: inf
ROOT
ATOM      1  C   UNL A   1      32.043  30.596  26.806  1.00  0.00     0.023 C 
ENDROOT
BRANCH   1   2
ATOM      2  C   UNL A   1      31.432  29.790  25.659  1.00  0.00     0.116 C 
BRANCH   2   3
ATOM      3  N   UNL A   1      32.315  29.584  24.524  1.00  0.00    -0.351 N 
ATOM      4  C   UNL A   1      32.248  28.753  23.438  1.00  0.00     0.281 C 
ATOM      5  O   UNL A   1      33.150  28.904  22.602  1.00  0.00    -0.268 OA
ATOM      6  H   UNL A   1      33.117  30.153  24.539  1.00  0.00     0.163 HD
BRANCH   4   7
ATOM      7  C   UNL A   1      31.165  27.614  23.271  1.00  0.00     0.181 C 
ATOM      8  C   UNL A   1      31.069  25.209  23.704  1.00  0.00     0.191 C 
ATOM      9  C   UNL A   1      31.672  25.417  22.310  1.00  0.00     0.072 C 
ATOM     10  C   UNL A   1      31.234  26.567  24.403  1.00  0.00     0.144 C 
ATOM     11  C   UNL A   1      31.416  26.875  21.948  1.00  0.00     0.085 C 
BRANCH   8  12
ATOM     12  N   UNL A   1      31.449  24.012  24.467  1.00  0.00    -0.332 N 
ATOM     13  C   UNL A   1      34.166  22.805  23.989  1.00  0.00    -0.022 C 
ATOM     14  C   UNL A   1      34.358  21.505  24.794  1.00  0.00     0.012 C 
ATOM     15  C   UNL A   1      32.972  22.630  23.017  1.00  0.00     0.068 C 
ATOM     16  C   UNL A   1      33.920  23.985  24.959  1.00  0.00     0.068 C 
ATOM     17  C   UNL A   1      31.595  22.795  23.664  1.00  0.00     0.263 C 
ATOM     18  C   UNL A   1      32.488  24.084  25.488  1.00  0.00     0.263 C 
ATOM     19  H   UNL A   1      30.601  23.960  25.031  1.00  0.00     0.348 HD
BRANCH  13  20
ATOM     20  C   UNL A   1      35.427  23.089  23.121  1.00  0.00     0.004 C 
ATOM     21  C   UNL A   1      36.764  22.973  23.833  1.00  0.00     0.004 C 
ENDBRANCH  13  20
ENDBRANCH   8  12
BRANCH   7  22
ATOM     22  N   UNL A   1      29.819  28.260  23.252  1.00  0.00    -0.331 N 
ATOM     23  H   UNL A   1      29.634  28.610  24.192  1.00  0.00     0.347 HD
ATOM     24  H   UNL A   1      29.182  27.531  22.930  1.00  0.00     0.347 HD
BRANCH  22  25
ATOM     25  C   UNL A   1      29.622  29.377  22.316  1.00  0.00     0.183 C 
ATOM     26  C   UNL A   1      28.232  29.807  21.962  1.00  0.00     0.071 C 
ATOM     27  C   UNL A   1      29.090  30.680  22.833  1.00  0.00     0.071 C 
ENDBRANCH  22  25
ENDBRANCH   7  22
ENDBRANCH   4   7
ENDBRANCH   2   3
ENDBRANCH   1   2
BRANCH   1  28
ATOM     28  C   UNL A   1      31.730  32.078  26.806  1.00  0.00     0.023 C 
BRANCH  28  29
ATOM     29  C   UNL A   1      32.897  32.950  27.227  1.00  0.00     0.116 C 
BRANCH  29  30
ATOM     30  N   UNL A   1      32.502  34.283  27.677  1.00  0.00    -0.352 N 
ATOM     31  C   UNL A   1      33.036  35.047  28.690  1.00  0.00     0.251 C 
ATOM     32  H   UNL A   1      31.750  34.690  27.189  1.00  0.00     0.163 HD
ATOM     33  O   UNL A   1      32.549  36.120  29.011  1.00  0.00    -0.269 OA
BRANCH  31  34
ATOM     34  C   UNL A   1      34.201  34.525  29.413  1.00  0.00     0.039 A 
ATOM     35  C   UNL A   1      34.002  33.808  30.594  1.00  0.00     0.014 A 
ATOM     36  C   UNL A   1      35.471  34.669  28.853  1.00  0.00     0.014 A 
ATOM     37  C   UNL A   1      35.084  33.156  31.174  1.00  0.00     0.010 A 
ATOM     38  C   UNL A   1      36.515  33.923  29.363  1.00  0.00     0.010 A 
ATOM     39  C   UNL A   1      36.333  33.173  30.535  1.00  0.00    -0.014 A 
BRANCH  39  40
ATOM     40  C   UNL A   1      37.497  32.451  31.086  1.00  0.00     0.031 A 
ATOM     41  C   UNL A   1      38.102  32.936  32.371  1.00  0.00     0.074 A 
ATOM     42  C   UNL A   1      38.048  31.444  30.386  1.00  0.00     0.049 A 
ATOM     43  N   UNL A   1      39.199  32.551  32.966  1.00  0.00    -0.248 NA
ATOM     44  C   UNL A   1      37.404  34.041  33.054  1.00  0.00     0.031 C 
ATOM     45  C   UNL A   1      37.566  30.940  29.097  1.00  0.00     0.029 A 
ATOM     46  N   UNL A   1      39.143  30.668  30.657  1.00  0.00    -0.354 N 
ATOM     47  C   UNL A   1      39.338  33.387  34.065  1.00  0.00     0.074 A 
ATOM     48  C   UNL A   1      38.253  34.341  34.022  1.00  0.00     0.031 C 
ATOM     49  C   UNL A   1      38.344  29.917  28.707  1.00  0.00     0.029 A 
ATOM     50  C   UNL A   1      39.398  29.722  29.696  1.00  0.00     0.049 A 
ATOM     51  H   UNL A   1      39.696  30.779  31.465  1.00  0.00     0.167 HD
ATOM     52  C   UNL A   1      40.272  33.340  35.042  1.00  0.00     0.037 A 
ATOM     53  C   UNL A   1      40.379  28.802  29.630  1.00  0.00     0.037 A 
ATOM     54  C   UNL A   1      41.310  32.349  35.095  1.00  0.00     0.049 A 
ATOM     55  C   UNL A   1      41.383  28.746  30.747  1.00  0.00     0.074 A 
ATOM     56  C   UNL A   1      42.270  32.153  36.068  1.00  0.00     0.029 A 
ATOM     57  N   UNL A   1      41.510  31.374  34.126  1.00  0.00    -0.354 N 
ATOM     58  N   UNL A   1      41.474  29.503  31.816  1.00  0.00    -0.248 NA
ATOM     59  C   UNL A   1      42.417  27.708  30.654  1.00  0.00     0.031 C 
ATOM     60  C   UNL A   1      43.073  31.079  35.673  1.00  0.00     0.029 A 
ATOM     61  C   UNL A   1      42.587  30.580  34.473  1.00  0.00     0.049 A 
ATOM     62  H   UNL A   1      40.967  31.265  33.313  1.00  0.00     0.167 HD
ATOM     63  C   UNL A   1      42.556  29.018  32.535  1.00  0.00     0.074 A 
ATOM     64  C   UNL A   1      43.080  27.891  31.788  1.00  0.00     0.031 C 
ATOM     65  C   UNL A   1      43.073  29.460  33.708  1.00  0.00     0.037 A 
BRANCH  52  66
ATOM     66  C   UNL A   1      40.194  34.379  36.122  1.00  0.00     0.057 A 
ATOM     67  C   UNL A   1      39.385  34.211  37.254  1.00  0.00     0.134 A 
ATOM     68  C   UNL A   1      40.931  35.565  36.026  1.00  0.00     0.134 A 
ATOM     69  F   UNL A   1      38.635  33.108  37.397  1.00  0.00    -0.206 F 
ATOM     70  C   UNL A   1      39.288  35.199  38.237  1.00  0.00     0.040 A 
ATOM     71  C   UNL A   1      40.866  36.547  37.016  1.00  0.00     0.040 A 
ATOM     72  F   UNL A   1      41.724  35.792  34.969  1.00  0.00    -0.206 F 
ATOM     73  C   UNL A   1      40.035  36.368  38.121  1.00  0.00     0.006 A 
ENDBRANCH  52  66
BRANCH  53  74
ATOM     74  C   UNL A   1      40.429  27.843  28.499  1.00  0.00     0.057 A 
ATOM     75  C   UNL A   1      41.145  28.143  27.334  1.00  0.00     0.134 A 
ATOM     76  C   UNL A   1      39.778  26.604  28.553  1.00  0.00     0.134 A 
ATOM     77  F   UNL A   1      41.781  29.318  27.218  1.00  0.00    -0.206 F 
ATOM     78  C   UNL A   1      41.196  27.257  26.257  1.00  0.00     0.040 A 
ATOM     79  C   UNL A   1      39.840  25.699  27.492  1.00  0.00     0.040 A 
ATOM     80  F   UNL A   1      39.085  26.251  29.646  1.00  0.00    -0.206 F 
ATOM     81  C   UNL A   1      40.546  26.027  26.336  1.00  0.00     0.006 A 
ENDBRANCH  53  74
BRANCH  65  82
ATOM     82  C   UNL A   1      44.240  28.701  34.263  1.00  0.00     0.057 A 
ATOM     83  C   UNL A   1      44.064  27.583  35.087  1.00  0.00     0.134 A 
ATOM     84  C   UNL A   1      45.549  29.066  33.926  1.00  0.00     0.134 A 
ATOM     85  F   UNL A   1      42.834  27.194  35.454  1.00  0.00    -0.206 F 
ATOM     86  C   UNL A   1      45.156  26.865  35.576  1.00  0.00     0.040 A 
ATOM     87  C   UNL A   1      46.646  28.341  34.387  1.00  0.00     0.040 A 
ATOM     88  F   UNL A   1      45.779  30.122  33.131  1.00  0.00    -0.206 F 
ATOM     89  C   UNL A   1      46.451  27.240  35.219  1.00  0.00     0.006 A 
ENDBRANCH  65  82
ENDBRANCH  39  40
ENDBRANCH  31  34
ENDBRANCH  29  30
ENDBRANCH  28  29
ENDBRANCH   1  28
TORSDOF 15
ENDMDL
