MODEL 1
REMARK VINA RESULT:     -12.0      0.000      0.000
REMARK SMILES Cc1ccc(-c2cc(C(=O)NCCCCNC(=O)c3ccc(-c4c5nc(c(-c6c(F)cccc6F)c6ccc([nH]6)c(-c6c(F)cccc6F)c6nc(c(-c7c(F)cccc7F)c7ccc4[nH]7)C=C6)C=C5)cc3)ccc2F)cc1O
REMARK SMILES IDX 13 1 12 2 11 3 9 4 10 5 8 7 6 8 7 9 75 10 74 11 76 12 73 13
REMARK SMILES IDX 5 14 1 15 2 16 3 17 78 18 4 19 77 20 79 21 14 23 15 24 16 25
REMARK SMILES IDX 17 26 18 28 19 29 20 30 72 31 21 32 71 33 22 34 23 35 24 36
REMARK SMILES IDX 65 37 25 38 70 39 64 40 66 41 26 42 69 43 63 44 62 45 27 47
REMARK SMILES IDX 53 48 36 49 52 50 37 51 40 52 51 53 67 54 38 55 39 56 50 58
REMARK SMILES IDX 68 59 41 60 28 61 29 62 34 63 30 64 31 65 33 66 35 67 32 68
REMARK SMILES IDX 54 69 55 70 60 71 56 72 57 73 59 74 61 75 58 76 42 77 43 78
REMARK SMILES IDX 48 79 44 80 45 81 47 82 49 83 46 84
REMARK H PARENT 11 6 79 22 16 27 66 46 40 57
REMARK Flexibility Score: inf
ROOT
ATOM      1  C   UNL A   1      31.611  30.707  26.141  1.00  0.00     0.023 C 
ENDROOT
BRANCH   1   2
ATOM      2  C   UNL A   1      31.778  29.596  27.181  1.00  0.00     0.116 C 
BRANCH   2   3
ATOM      3  N   UNL A   1      33.182  29.370  27.447  1.00  0.00    -0.352 N 
ATOM      4  C   UNL A   1      34.137  28.605  26.834  1.00  0.00     0.251 C 
ATOM      5  O   UNL A   1      35.256  28.608  27.353  1.00  0.00    -0.269 OA
ATOM      6  H   UNL A   1      33.517  29.866  28.228  1.00  0.00     0.163 HD
BRANCH   4   7
ATOM      7  C   UNL A   1      33.925  27.824  25.577  1.00  0.00     0.040 A 
ATOM      8  C   UNL A   1      33.807  25.568  24.594  1.00  0.00     0.018 A 
ATOM      9  C   UNL A   1      33.973  26.420  25.701  1.00  0.00     0.025 A 
ATOM     10  C   UNL A   1      33.632  26.156  23.339  1.00  0.00     0.131 A 
ATOM     11  C   UNL A   1      33.544  27.535  23.194  1.00  0.00     0.041 A 
ATOM     12  F   UNL A   1      33.498  25.394  22.242  1.00  0.00    -0.206 F 
ATOM     13  C   UNL A   1      33.652  28.361  24.316  1.00  0.00     0.017 A 
BRANCH   8  14
ATOM     14  C   UNL A   1      33.762  24.112  24.764  1.00  0.00    -0.012 A 
ATOM     15  C   UNL A   1      33.525  19.792  25.023  1.00  0.00     0.048 C 
ATOM     16  C   UNL A   1      33.593  21.290  24.966  1.00  0.00    -0.009 A 
ATOM     17  C   UNL A   1      34.771  21.910  24.528  1.00  0.00     0.008 A 
ATOM     18  C   UNL A   1      32.511  22.101  25.319  1.00  0.00     0.119 A 
ATOM     19  C   UNL A   1      34.854  23.303  24.426  1.00  0.00     0.009 A 
ATOM     20  C   UNL A   1      32.594  23.491  25.227  1.00  0.00     0.055 A 
BRANCH  18  21
ATOM     21  O   UNL A   1      31.315  21.601  25.751  1.00  0.00    -0.508 OA
ATOM     22  H   UNL A   1      30.924  21.933  26.535  1.00  0.00     0.293 HD
ENDBRANCH  18  21
ENDBRANCH   8  14
ENDBRANCH   4   7
ENDBRANCH   2   3
ENDBRANCH   1   2
BRANCH   1  23
ATOM     23  C   UNL A   1      31.352  32.089  26.750  1.00  0.00     0.023 C 
BRANCH  23  24
ATOM     24  C   UNL A   1      32.609  32.898  27.052  1.00  0.00     0.116 C 
BRANCH  24  25
ATOM     25  N   UNL A   1      32.324  34.203  27.626  1.00  0.00    -0.352 N 
ATOM     26  C   UNL A   1      32.975  34.855  28.645  1.00  0.00     0.251 C 
ATOM     27  H   UNL A   1      31.561  34.685  27.232  1.00  0.00     0.163 HD
ATOM     28  O   UNL A   1      32.528  35.902  29.094  1.00  0.00    -0.269 OA
BRANCH  26  29
ATOM     29  C   UNL A   1      34.203  34.264  29.213  1.00  0.00     0.039 A 
ATOM     30  C   UNL A   1      34.086  33.408  30.310  1.00  0.00     0.014 A 
ATOM     31  C   UNL A   1      35.457  34.548  28.668  1.00  0.00     0.014 A 
ATOM     32  C   UNL A   1      35.230  32.809  30.837  1.00  0.00     0.010 A 
ATOM     33  C   UNL A   1      36.583  33.882  29.136  1.00  0.00     0.010 A 
ATOM     34  C   UNL A   1      36.485  33.026  30.242  1.00  0.00    -0.014 A 
BRANCH  34  35
ATOM     35  C   UNL A   1      37.705  32.393  30.797  1.00  0.00     0.031 A 
ATOM     36  C   UNL A   1      38.306  32.912  32.075  1.00  0.00     0.074 A 
ATOM     37  C   UNL A   1      38.273  31.358  30.151  1.00  0.00     0.049 A 
ATOM     38  N   UNL A   1      39.347  32.471  32.734  1.00  0.00    -0.248 NA
ATOM     39  C   UNL A   1      37.670  34.093  32.680  1.00  0.00     0.031 C 
ATOM     40  C   UNL A   1      37.805  30.796  28.883  1.00  0.00     0.029 A 
ATOM     41  N   UNL A   1      39.355  30.583  30.480  1.00  0.00    -0.354 N 
ATOM     42  C   UNL A   1      39.483  33.315  33.829  1.00  0.00     0.074 A 
ATOM     43  C   UNL A   1      38.474  34.343  33.702  1.00  0.00     0.031 C 
ATOM     44  C   UNL A   1      38.560  29.731  28.572  1.00  0.00     0.029 A 
ATOM     45  C   UNL A   1      39.584  29.556  29.599  1.00  0.00     0.049 A 
ATOM     46  H   UNL A   1      39.916  30.748  31.273  1.00  0.00     0.167 HD
ATOM     47  C   UNL A   1      40.344  33.221  34.870  1.00  0.00     0.037 A 
ATOM     48  C   UNL A   1      40.501  28.571  29.627  1.00  0.00     0.037 A 
ATOM     49  C   UNL A   1      41.340  32.192  34.997  1.00  0.00     0.049 A 
ATOM     50  C   UNL A   1      41.462  28.497  30.780  1.00  0.00     0.074 A 
ATOM     51  C   UNL A   1      42.254  31.999  36.018  1.00  0.00     0.029 A 
ATOM     52  N   UNL A   1      41.550  31.178  34.074  1.00  0.00    -0.354 N 
ATOM     53  N   UNL A   1      41.556  29.279  31.831  1.00  0.00    -0.248 NA
ATOM     54  C   UNL A   1      42.437  27.398  30.761  1.00  0.00     0.031 C 
ATOM     55  C   UNL A   1      43.045  30.894  35.691  1.00  0.00     0.029 A 
ATOM     56  C   UNL A   1      42.585  30.361  34.497  1.00  0.00     0.049 A 
ATOM     57  H   UNL A   1      41.039  31.058  33.241  1.00  0.00     0.167 HD
ATOM     58  C   UNL A   1      42.571  28.745  32.613  1.00  0.00     0.074 A 
ATOM     59  C   UNL A   1      43.058  27.570  31.920  1.00  0.00     0.031 C 
ATOM     60  C   UNL A   1      43.050  29.186  33.802  1.00  0.00     0.037 A 
BRANCH  47  61
ATOM     61  C   UNL A   1      40.226  34.249  35.958  1.00  0.00     0.057 A 
ATOM     62  C   UNL A   1      40.983  35.426  35.924  1.00  0.00     0.134 A 
ATOM     63  C   UNL A   1      39.385  34.057  37.063  1.00  0.00     0.134 A 
ATOM     64  F   UNL A   1      41.813  35.676  34.899  1.00  0.00    -0.206 F 
ATOM     65  C   UNL A   1      40.912  36.371  36.950  1.00  0.00     0.040 A 
ATOM     66  C   UNL A   1      39.281  35.008  38.079  1.00  0.00     0.040 A 
ATOM     67  F   UNL A   1      38.620  32.958  37.152  1.00  0.00    -0.206 F 
ATOM     68  C   UNL A   1      40.054  36.166  38.028  1.00  0.00     0.006 A 
ENDBRANCH  47  61
BRANCH  48  69
ATOM     69  C   UNL A   1      40.496  27.534  28.565  1.00  0.00     0.057 A 
ATOM     70  C   UNL A   1      41.221  27.692  27.377  1.00  0.00     0.134 A 
ATOM     71  C   UNL A   1      39.727  26.372  28.701  1.00  0.00     0.134 A 
ATOM     72  F   UNL A   1      41.968  28.788  27.181  1.00  0.00    -0.206 F 
ATOM     73  C   UNL A   1      41.167  26.741  26.357  1.00  0.00     0.040 A 
ATOM     74  C   UNL A   1      39.684  25.402  27.699  1.00  0.00     0.040 A 
ATOM     75  F   UNL A   1      39.022  26.157  29.822  1.00  0.00    -0.206 F 
ATOM     76  C   UNL A   1      40.399  25.589  26.518  1.00  0.00     0.006 A 
ENDBRANCH  48  69
BRANCH  60  77
ATOM     77  C   UNL A   1      44.128  28.375  34.462  1.00  0.00     0.057 A 
ATOM     78  C   UNL A   1      43.796  27.381  35.394  1.00  0.00     0.134 A 
ATOM     79  C   UNL A   1      45.488  28.614  34.231  1.00  0.00     0.134 A 
ATOM     80  F   UNL A   1      42.512  27.110  35.672  1.00  0.00    -0.206 F 
ATOM     81  C   UNL A   1      44.777  26.664  36.078  1.00  0.00     0.040 A 
ATOM     82  C   UNL A   1      46.479  27.881  34.887  1.00  0.00     0.040 A 
ATOM     83  F   UNL A   1      45.874  29.545  33.346  1.00  0.00    -0.206 F 
ATOM     84  C   UNL A   1      46.123  26.909  35.820  1.00  0.00     0.006 A 
ENDBRANCH  60  77
ENDBRANCH  34  35
ENDBRANCH  26  29
ENDBRANCH  24  25
ENDBRANCH  23  24
ENDBRANCH   1  23
TORSDOF 13
ENDMDL
MODEL 2
REMARK VINA RESULT:     -12.0      4.798      9.442
REMARK SMILES Cc1ccc(-c2cc(C(=O)NCCCCNC(=O)c3ccc(-c4c5nc(c(-c6c(F)cccc6F)c6ccc([nH]6)c(-c6c(F)cccc6F)c6nc(c(-c7c(F)cccc7F)c7ccc4[nH]7)C=C6)C=C5)cc3)ccc2F)cc1O
REMARK SMILES IDX 13 1 12 2 11 3 9 4 10 5 8 7 6 8 7 9 75 10 74 11 76 12 73 13
REMARK SMILES IDX 5 14 1 15 2 16 3 17 78 18 4 19 77 20 79 21 14 23 15 24 16 25
REMARK SMILES IDX 17 26 18 28 19 29 20 30 72 31 21 32 71 33 22 34 23 35 24 36
REMARK SMILES IDX 65 37 25 38 70 39 64 40 66 41 26 42 69 43 63 44 62 45 27 47
REMARK SMILES IDX 53 48 36 49 52 50 37 51 40 52 51 53 67 54 38 55 39 56 50 58
REMARK SMILES IDX 68 59 41 60 28 61 29 62 34 63 30 64 31 65 33 66 35 67 32 68
REMARK SMILES IDX 54 69 55 70 60 71 56 72 57 73 59 74 61 75 58 76 42 77 43 78
REMARK SMILES IDX 48 79 44 80 45 81 47 82 49 83 46 84
REMARK H PARENT 11 6 79 22 16 27 66 46 40 57
REMARK Flexibility Score: inf
ROOT
ATOM      1  C   UNL A   1      38.932  22.365  26.155  1.00  0.00     0.023 C 
ENDROOT
BRANCH   1   2
ATOM      2  C   UNL A   1      37.636  23.126  25.862  1.00  0.00     0.116 C 
BRANCH   2   3
ATOM      3  N   UNL A   1      37.421  23.211  24.435  1.00  0.00    -0.352 N 
ATOM      4  C   UNL A   1      36.342  22.943  23.634  1.00  0.00     0.251 C 
ATOM      5  O   UNL A   1      36.511  23.089  22.422  1.00  0.00    -0.269 OA
ATOM      6  H   UNL A   1      38.210  23.526  23.938  1.00  0.00     0.163 HD
BRANCH   4   7
ATOM      7  C   UNL A   1      34.992  22.540  24.134  1.00  0.00     0.040 A 
ATOM      8  C   UNL A   1      33.501  20.641  24.622  1.00  0.00     0.018 A 
ATOM      9  C   UNL A   1      34.736  21.155  24.190  1.00  0.00     0.025 A 
ATOM     10  C   UNL A   1      32.498  21.554  24.964  1.00  0.00     0.131 A 
ATOM     11  C   UNL A   1      32.735  22.922  24.953  1.00  0.00     0.041 A 
ATOM     12  F   UNL A   1      31.289  21.123  25.355  1.00  0.00    -0.206 F 
ATOM     13  C   UNL A   1      33.990  23.410  24.575  1.00  0.00     0.017 A 
BRANCH   8  14
ATOM     14  C   UNL A   1      33.293  19.197  24.766  1.00  0.00    -0.012 A 
ATOM     15  C   UNL A   1      32.924  14.910  25.290  1.00  0.00     0.048 C 
ATOM     16  C   UNL A   1      33.038  16.391  25.076  1.00  0.00    -0.009 A 
ATOM     17  C   UNL A   1      32.585  17.269  26.071  1.00  0.00     0.008 A 
ATOM     18  C   UNL A   1      33.601  16.937  23.920  1.00  0.00     0.119 A 
ATOM     19  C   UNL A   1      32.713  18.653  25.919  1.00  0.00     0.009 A 
ATOM     20  C   UNL A   1      33.721  18.318  23.761  1.00  0.00     0.055 A 
BRANCH  18  21
ATOM     21  O   UNL A   1      34.081  16.174  22.893  1.00  0.00    -0.508 OA
ATOM     22  H   UNL A   1      34.494  15.353  23.073  1.00  0.00     0.293 HD
ENDBRANCH  18  21
ENDBRANCH   8  14
ENDBRANCH   4   7
ENDBRANCH   2   3
ENDBRANCH   1   2
BRANCH   1  23
ATOM     23  C   UNL A   1      39.049  21.033  25.406  1.00  0.00     0.023 C 
BRANCH  23  24
ATOM     24  C   UNL A   1      39.401  19.837  26.284  1.00  0.00     0.116 C 
BRANCH  24  25
ATOM     25  N   UNL A   1      40.619  19.161  25.867  1.00  0.00    -0.352 N 
ATOM     26  C   UNL A   1      41.910  19.627  25.884  1.00  0.00     0.251 C 
ATOM     27  H   UNL A   1      40.502  18.245  25.524  1.00  0.00     0.163 HD
ATOM     28  O   UNL A   1      42.810  18.972  25.379  1.00  0.00    -0.269 OA
BRANCH  26  29
ATOM     29  C   UNL A   1      42.195  20.942  26.493  1.00  0.00     0.039 A 
ATOM     30  C   UNL A   1      42.557  22.000  25.658  1.00  0.00     0.014 A 
ATOM     31  C   UNL A   1      42.104  21.129  27.874  1.00  0.00     0.014 A 
ATOM     32  C   UNL A   1      42.793  23.259  26.210  1.00  0.00     0.010 A 
ATOM     33  C   UNL A   1      42.252  22.402  28.412  1.00  0.00     0.010 A 
ATOM     34  C   UNL A   1      42.622  23.474  27.589  1.00  0.00    -0.014 A 
BRANCH  34  35
ATOM     35  C   UNL A   1      42.872  24.810  28.182  1.00  0.00     0.031 A 
ATOM     36  C   UNL A   1      44.274  25.227  28.533  1.00  0.00     0.074 A 
ATOM     37  C   UNL A   1      41.840  25.643  28.409  1.00  0.00     0.049 A 
ATOM     38  N   UNL A   1      44.697  26.363  29.026  1.00  0.00    -0.248 NA
ATOM     39  C   UNL A   1      45.338  24.232  28.323  1.00  0.00     0.031 C 
ATOM     40  C   UNL A   1      40.433  25.332  28.150  1.00  0.00     0.029 A 
ATOM     41  N   UNL A   1      41.815  26.926  28.892  1.00  0.00    -0.354 N 
ATOM     42  C   UNL A   1      46.070  26.218  29.178  1.00  0.00     0.074 A 
ATOM     43  C   UNL A   1      46.399  24.860  28.806  1.00  0.00     0.031 C 
ATOM     44  C   UNL A   1      39.689  26.416  28.422  1.00  0.00     0.029 A 
ATOM     45  C   UNL A   1      40.560  27.483  28.905  1.00  0.00     0.049 A 
ATOM     46  H   UNL A   1      42.620  27.402  29.201  1.00  0.00     0.167 HD
ATOM     47  C   UNL A   1      46.984  27.144  29.554  1.00  0.00     0.037 A 
ATOM     48  C   UNL A   1      40.161  28.723  29.248  1.00  0.00     0.037 A 
ATOM     49  C   UNL A   1      46.653  28.497  29.914  1.00  0.00     0.049 A 
ATOM     50  C   UNL A   1      41.188  29.729  29.684  1.00  0.00     0.074 A 
ATOM     51  C   UNL A   1      47.504  29.518  30.298  1.00  0.00     0.029 A 
ATOM     52  N   UNL A   1      45.368  29.018  29.930  1.00  0.00    -0.354 N 
ATOM     53  N   UNL A   1      42.489  29.593  29.786  1.00  0.00    -0.248 NA
ATOM     54  C   UNL A   1      40.695  31.067  30.040  1.00  0.00     0.031 C 
ATOM     55  C   UNL A   1      46.729  30.644  30.589  1.00  0.00     0.029 A 
ATOM     56  C   UNL A   1      45.402  30.345  30.326  1.00  0.00     0.049 A 
ATOM     57  H   UNL A   1      44.553  28.519  29.695  1.00  0.00     0.167 HD
ATOM     58  C   UNL A   1      42.973  30.833  30.180  1.00  0.00     0.074 A 
ATOM     59  C   UNL A   1      41.826  31.711  30.293  1.00  0.00     0.031 C 
ATOM     60  C   UNL A   1      44.252  31.210  30.421  1.00  0.00     0.037 A 
BRANCH  47  61
ATOM     61  C   UNL A   1      48.425  26.724  29.573  1.00  0.00     0.057 A 
ATOM     62  C   UNL A   1      49.234  26.866  28.439  1.00  0.00     0.134 A 
ATOM     63  C   UNL A   1      49.007  26.144  30.710  1.00  0.00     0.134 A 
ATOM     64  F   UNL A   1      48.744  27.409  27.314  1.00  0.00    -0.206 F 
ATOM     65  C   UNL A   1      50.565  26.443  28.433  1.00  0.00     0.040 A 
ATOM     66  C   UNL A   1      50.344  25.746  30.726  1.00  0.00     0.040 A 
ATOM     67  F   UNL A   1      48.293  25.992  31.836  1.00  0.00    -0.206 F 
ATOM     68  C   UNL A   1      51.125  25.887  29.581  1.00  0.00     0.006 A 
ENDBRANCH  47  61
BRANCH  48  69
ATOM     69  C   UNL A   1      38.730  29.095  29.114  1.00  0.00     0.057 A 
ATOM     70  C   UNL A   1      38.203  29.575  27.909  1.00  0.00     0.134 A 
ATOM     71  C   UNL A   1      37.863  29.015  30.210  1.00  0.00     0.134 A 
ATOM     72  F   UNL A   1      38.985  29.686  26.825  1.00  0.00    -0.206 F 
ATOM     73  C   UNL A   1      36.871  29.978  27.803  1.00  0.00     0.040 A 
ATOM     74  C   UNL A   1      36.523  29.391  30.112  1.00  0.00     0.040 A 
ATOM     75  F   UNL A   1      38.306  28.550  31.388  1.00  0.00    -0.206 F 
ATOM     76  C   UNL A   1      36.025  29.883  28.907  1.00  0.00     0.006 A 
ENDBRANCH  48  69
BRANCH  60  77
ATOM     77  C   UNL A   1      44.498  32.647  30.784  1.00  0.00     0.057 A 
ATOM     78  C   UNL A   1      44.749  33.597  29.784  1.00  0.00     0.134 A 
ATOM     79  C   UNL A   1      44.552  33.080  32.114  1.00  0.00     0.134 A 
ATOM     80  F   UNL A   1      44.726  33.246  28.489  1.00  0.00    -0.206 F 
ATOM     81  C   UNL A   1      45.054  34.922  30.095  1.00  0.00     0.040 A 
ATOM     82  C   UNL A   1      44.826  34.411  32.437  1.00  0.00     0.040 A 
ATOM     83  F   UNL A   1      44.314  32.224  33.119  1.00  0.00    -0.206 F 
ATOM     84  C   UNL A   1      45.087  35.333  31.425  1.00  0.00     0.006 A 
ENDBRANCH  60  77
ENDBRANCH  34  35
ENDBRANCH  26  29
ENDBRANCH  24  25
ENDBRANCH  23  24
ENDBRANCH   1  23
TORSDOF 13
ENDMDL
MODEL 3
REMARK VINA RESULT:     -11.9      1.468      2.031
REMARK SMILES Cc1ccc(-c2cc(C(=O)NCCCCNC(=O)c3ccc(-c4c5nc(c(-c6c(F)cccc6F)c6ccc([nH]6)c(-c6c(F)cccc6F)c6nc(c(-c7c(F)cccc7F)c7ccc4[nH]7)C=C6)C=C5)cc3)ccc2F)cc1O
REMARK SMILES IDX 13 1 12 2 11 3 9 4 10 5 8 7 6 8 7 9 75 10 74 11 76 12 73 13
REMARK SMILES IDX 5 14 1 15 2 16 3 17 78 18 4 19 77 20 79 21 14 23 15 24 16 25
REMARK SMILES IDX 17 26 18 28 19 29 20 30 72 31 21 32 71 33 22 34 23 35 24 36
REMARK SMILES IDX 65 37 25 38 70 39 64 40 66 41 26 42 69 43 63 44 62 45 27 47
REMARK SMILES IDX 53 48 36 49 52 50 37 51 40 52 51 53 67 54 38 55 39 56 50 58
REMARK SMILES IDX 68 59 41 60 28 61 29 62 34 63 30 64 31 65 33 66 35 67 32 68
REMARK SMILES IDX 54 69 55 70 60 71 56 72 57 73 59 74 61 75 58 76 42 77 43 78
REMARK SMILES IDX 48 79 44 80 45 81 47 82 49 83 46 84
REMARK H PARENT 11 6 79 22 16 27 66 46 40 57
REMARK Flexibility Score: inf
ROOT
ATOM      1  C   UNL A   1      31.557  30.562  25.924  1.00  0.00     0.023 C 
ENDROOT
BRANCH   1   2
ATOM      2  C   UNL A   1      32.990  30.035  26.031  1.00  0.00     0.116 C 
BRANCH   2   3
ATOM      3  N   UNL A   1      33.434  29.535  24.749  1.00  0.00    -0.352 N 
ATOM      4  C   UNL A   1      33.619  28.272  24.251  1.00  0.00     0.251 C 
ATOM      5  O   UNL A   1      34.055  28.197  23.101  1.00  0.00    -0.269 OA
ATOM      6  H   UNL A   1      33.646  30.246  24.103  1.00  0.00     0.163 HD
BRANCH   4   7
ATOM      7  C   UNL A   1      33.285  27.012  24.984  1.00  0.00     0.040 A 
ATOM      8  C   UNL A   1      33.924  24.663  25.359  1.00  0.00     0.018 A 
ATOM      9  C   UNL A   1      34.135  25.912  24.749  1.00  0.00     0.025 A 
ATOM     10  C   UNL A   1      32.808  24.522  26.188  1.00  0.00     0.131 A 
ATOM     11  C   UNL A   1      31.976  25.599  26.465  1.00  0.00     0.041 A 
ATOM     12  F   UNL A   1      32.538  23.345  26.774  1.00  0.00    -0.206 F 
ATOM     13  C   UNL A   1      32.238  26.848  25.894  1.00  0.00     0.017 A 
BRANCH   8  14
ATOM     14  C   UNL A   1      34.878  23.564  25.176  1.00  0.00    -0.012 A 
ATOM     15  C   UNL A   1      37.674  20.264  24.895  1.00  0.00     0.048 C 
ATOM     16  C   UNL A   1      36.729  21.427  24.973  1.00  0.00    -0.009 A 
ATOM     17  C   UNL A   1      35.366  21.226  24.711  1.00  0.00     0.008 A 
ATOM     18  C   UNL A   1      37.152  22.712  25.319  1.00  0.00     0.119 A 
ATOM     19  C   UNL A   1      34.452  22.280  24.813  1.00  0.00     0.009 A 
ATOM     20  C   UNL A   1      36.245  23.768  25.413  1.00  0.00     0.055 A 
BRANCH  18  21
ATOM     21  O   UNL A   1      38.454  23.017  25.602  1.00  0.00    -0.508 OA
ATOM     22  H   UNL A   1      39.010  23.363  24.933  1.00  0.00     0.293 HD
ENDBRANCH  18  21
ENDBRANCH   8  14
ENDBRANCH   4   7
ENDBRANCH   2   3
ENDBRANCH   1   2
BRANCH   1  23
ATOM     23  C   UNL A   1      31.375  31.975  26.490  1.00  0.00     0.023 C 
BRANCH  23  24
ATOM     24  C   UNL A   1      32.623  32.568  27.136  1.00  0.00     0.116 C 
BRANCH  24  25
ATOM     25  N   UNL A   1      32.422  33.921  27.629  1.00  0.00    -0.352 N 
ATOM     26  C   UNL A   1      33.130  34.599  28.592  1.00  0.00     0.251 C 
ATOM     27  H   UNL A   1      31.678  34.419  27.218  1.00  0.00     0.163 HD
ATOM     28  O   UNL A   1      32.751  35.695  28.979  1.00  0.00    -0.269 OA
BRANCH  26  29
ATOM     29  C   UNL A   1      34.335  33.977  29.174  1.00  0.00     0.039 A 
ATOM     30  C   UNL A   1      34.173  32.992  30.149  1.00  0.00     0.014 A 
ATOM     31  C   UNL A   1      35.613  34.360  28.761  1.00  0.00     0.014 A 
ATOM     32  C   UNL A   1      35.299  32.365  30.685  1.00  0.00     0.010 A 
ATOM     33  C   UNL A   1      36.727  33.674  29.229  1.00  0.00     0.010 A 
ATOM     34  C   UNL A   1      36.583  32.687  30.214  1.00  0.00    -0.014 A 
BRANCH  34  35
ATOM     35  C   UNL A   1      37.783  32.025  30.779  1.00  0.00     0.031 A 
ATOM     36  C   UNL A   1      38.254  32.376  32.163  1.00  0.00     0.074 A 
ATOM     37  C   UNL A   1      38.451  31.115  30.045  1.00  0.00     0.049 A 
ATOM     38  N   UNL A   1      39.258  31.883  32.842  1.00  0.00    -0.248 NA
ATOM     39  C   UNL A   1      37.516  33.434  32.871  1.00  0.00     0.031 C 
ATOM     40  C   UNL A   1      38.114  30.724  28.675  1.00  0.00     0.029 A 
ATOM     41  N   UNL A   1      39.539  30.340  30.355  1.00  0.00    -0.354 N 
ATOM     42  C   UNL A   1      39.265  32.566  34.052  1.00  0.00     0.074 A 
ATOM     43  C   UNL A   1      38.221  33.563  33.983  1.00  0.00     0.031 C 
ATOM     44  C   UNL A   1      38.942  29.743  28.285  1.00  0.00     0.029 A 
ATOM     45  C   UNL A   1      39.887  29.459  29.361  1.00  0.00     0.049 A 
ATOM     46  H   UNL A   1      40.025  30.410  31.209  1.00  0.00     0.167 HD
ATOM     47  C   UNL A   1      40.043  32.354  35.140  1.00  0.00     0.037 A 
ATOM     48  C   UNL A   1      40.845  28.515  29.331  1.00  0.00     0.037 A 
ATOM     49  C   UNL A   1      41.074  31.353  35.207  1.00  0.00     0.049 A 
ATOM     50  C   UNL A   1      41.712  28.310  30.540  1.00  0.00     0.074 A 
ATOM     51  C   UNL A   1      41.911  31.049  36.266  1.00  0.00     0.029 A 
ATOM     52  N   UNL A   1      41.406  30.491  34.173  1.00  0.00    -0.354 N 
ATOM     53  N   UNL A   1      41.683  28.935  31.694  1.00  0.00    -0.248 NA
ATOM     54  C   UNL A   1      42.737  27.262  30.452  1.00  0.00     0.031 C 
ATOM     55  C   UNL A   1      42.778  30.031  35.857  1.00  0.00     0.029 A 
ATOM     56  C   UNL A   1      42.442  29.659  34.565  1.00  0.00     0.049 A 
ATOM     57  H   UNL A   1      40.970  30.473  33.290  1.00  0.00     0.167 HD
ATOM     58  C   UNL A   1      42.657  28.332  32.479  1.00  0.00     0.074 A 
ATOM     59  C   UNL A   1      43.254  27.288  31.673  1.00  0.00     0.031 C 
ATOM     60  C   UNL A   1      43.017  28.615  33.755  1.00  0.00     0.037 A 
BRANCH  47  61
ATOM     61  C   UNL A   1      39.789  33.210  36.347  1.00  0.00     0.057 A 
ATOM     62  C   UNL A   1      38.808  32.864  37.284  1.00  0.00     0.134 A 
ATOM     63  C   UNL A   1      40.495  34.401  36.565  1.00  0.00     0.134 A 
ATOM     64  F   UNL A   1      38.091  31.739  37.139  1.00  0.00    -0.206 F 
ATOM     65  C   UNL A   1      38.536  33.673  38.390  1.00  0.00     0.040 A 
ATOM     66  C   UNL A   1      40.255  35.202  37.682  1.00  0.00     0.040 A 
ATOM     67  F   UNL A   1      41.460  34.785  35.714  1.00  0.00    -0.206 F 
ATOM     68  C   UNL A   1      39.265  34.843  38.594  1.00  0.00     0.006 A 
ENDBRANCH  47  61
BRANCH  48  69
ATOM     69  C   UNL A   1      40.976  27.642  28.137  1.00  0.00     0.057 A 
ATOM     70  C   UNL A   1      41.763  28.008  27.038  1.00  0.00     0.134 A 
ATOM     71  C   UNL A   1      40.277  26.431  28.054  1.00  0.00     0.134 A 
ATOM     72  F   UNL A   1      42.448  29.161  27.051  1.00  0.00    -0.206 F 
ATOM     73  C   UNL A   1      41.837  27.211  25.895  1.00  0.00     0.040 A 
ATOM     74  C   UNL A   1      40.361  25.614  26.927  1.00  0.00     0.040 A 
ATOM     75  F   UNL A   1      39.517  26.020  29.080  1.00  0.00    -0.206 F 
ATOM     76  C   UNL A   1      41.136  26.007  25.838  1.00  0.00     0.006 A 
ENDBRANCH  48  69
BRANCH  60  77
ATOM     77  C   UNL A   1      44.076  27.756  34.385  1.00  0.00     0.057 A 
ATOM     78  C   UNL A   1      43.723  26.586  35.072  1.00  0.00     0.134 A 
ATOM     79  C   UNL A   1      45.430  28.113  34.374  1.00  0.00     0.134 A 
ATOM     80  F   UNL A   1      42.441  26.193  35.134  1.00  0.00    -0.206 F 
ATOM     81  C   UNL A   1      44.675  25.809  35.731  1.00  0.00     0.040 A 
ATOM     82  C   UNL A   1      46.397  27.327  35.003  1.00  0.00     0.040 A 
ATOM     83  F   UNL A   1      45.836  29.216  33.728  1.00  0.00    -0.206 F 
ATOM     84  C   UNL A   1      46.018  26.176  35.692  1.00  0.00     0.006 A 
ENDBRANCH  60  77
ENDBRANCH  34  35
ENDBRANCH  26  29
ENDBRANCH  24  25
ENDBRANCH  23  24
ENDBRANCH   1  23
TORSDOF 13
ENDMDL
