MODEL 1
REMARK VINA RESULT:     -11.9      0.000      0.000
REMARK SMILES C#Cc1cccc(NS(=O)(=O)c2cc(C)c(C(=O)NCCCCNC(=O)c3ccc(-c4c5nc(c(-c6c(F)cccc6F)c6ccc([nH]6)c(-c6c(F)cccc6F)c6nc(c(-c7c(F)cccc7F)c7ccc4[nH]7)C=C6)C=C5)cc3)s2)c1
REMARK SMILES IDX 20 1 19 2 17 3 18 4 16 6 12 7 13 8 81 9 14 10 15 11 9 12
REMARK SMILES IDX 10 13 11 14 8 15 7 17 3 18 4 19 82 20 5 21 6 22 2 23 1 24
REMARK SMILES IDX 21 25 22 26 23 27 24 28 25 29 26 31 27 32 28 33 80 34 29 35
REMARK SMILES IDX 79 36 30 37 31 38 32 39 73 40 33 41 78 42 72 43 74 44 34 45
REMARK SMILES IDX 77 46 71 47 70 48 35 50 61 51 44 52 60 53 45 54 48 55 59 56
REMARK SMILES IDX 75 57 46 58 47 59 58 61 76 62 49 63 36 64 37 65 42 66 38 67
REMARK SMILES IDX 39 68 41 69 43 70 40 71 62 72 63 73 68 74 64 75 65 76 67 77
REMARK SMILES IDX 69 78 66 79 50 80 51 81 56 82 52 83 53 84 55 85 57 86 54 87
REMARK H PARENT 19 5 8 16 24 30 74 49 48 60
REMARK Flexibility Score: inf
ROOT
ATOM      1  C   UNL A   1      36.499  22.583  24.238  1.00  0.00     0.116 C 
ENDROOT
BRANCH   1   2
ATOM      2  N   UNL A   1      35.315  22.412  23.447  1.00  0.00    -0.351 N 
ATOM      3  C   UNL A   1      34.177  23.155  23.283  1.00  0.00     0.261 C 
ATOM      4  O   UNL A   1      33.384  22.623  22.496  1.00  0.00    -0.268 OA
ATOM      5  H   UNL A   1      35.321  21.587  22.912  1.00  0.00     0.163 HD
BRANCH   3   6
ATOM      6  C   UNL A   1      33.920  24.459  23.916  1.00  0.00     0.096 A 
ATOM      7  C   UNL A   1      33.373  26.908  23.966  1.00  0.00     0.141 A 
ATOM      8  C   UNL A   1      33.809  26.424  25.175  1.00  0.00     0.038 A 
ATOM      9  S   UNL A   1      33.689  25.761  22.756  1.00  0.00    -0.116 S 
ATOM     10  C   UNL A   1      33.700  24.986  25.194  1.00  0.00    -0.026 A 
ATOM     11  C   UNL A   1      33.288  24.348  26.476  1.00  0.00     0.046 C 
BRANCH   7  12
ATOM     12  S   UNL A   1      32.598  28.431  23.492  1.00  0.00     0.271 S 
ATOM     13  O   UNL A   1      33.613  29.216  22.821  1.00  0.00    -0.200 OA
ATOM     14  O   UNL A   1      31.961  28.903  24.704  1.00  0.00    -0.200 OA
BRANCH  12  15
ATOM     15  N   UNL A   1      31.338  28.228  22.375  1.00  0.00    -0.279 N 
ATOM     16  H   UNL A   1      31.531  27.691  21.573  1.00  0.00     0.180 HD
BRANCH  15  17
ATOM     17  C   UNL A   1      30.020  28.768  22.497  1.00  0.00     0.050 A 
ATOM     18  C   UNL A   1      28.470  30.566  21.958  1.00  0.00     0.026 A 
ATOM     19  C   UNL A   1      27.474  29.940  22.703  1.00  0.00     0.017 A 
ATOM     20  C   UNL A   1      29.747  29.996  21.874  1.00  0.00     0.044 A 
ATOM     21  C   UNL A   1      27.703  28.669  23.213  1.00  0.00     0.003 A 
ATOM     22  C   UNL A   1      28.952  28.061  23.049  1.00  0.00     0.027 A 
BRANCH  18  23
ATOM     23  C   UNL A   1      28.094  31.718  21.196  1.00  0.00    -0.070 C 
ATOM     24  C   UNL A   1      27.908  32.622  20.430  1.00  0.00     0.010 C 
ENDBRANCH  18  23
ENDBRANCH  15  17
ENDBRANCH  12  15
ENDBRANCH   7  12
ENDBRANCH   3   6
ENDBRANCH   1   2
BRANCH   1  25
ATOM     25  C   UNL A   1      36.637  21.452  25.263  1.00  0.00     0.023 C 
BRANCH  25  26
ATOM     26  C   UNL A   1      37.758  20.479  24.919  1.00  0.00     0.023 C 
BRANCH  26  27
ATOM     27  C   UNL A   1      38.964  20.623  25.836  1.00  0.00     0.116 C 
BRANCH  27  28
ATOM     28  N   UNL A   1      39.908  19.518  25.742  1.00  0.00    -0.352 N 
ATOM     29  C   UNL A   1      41.248  19.540  26.057  1.00  0.00     0.251 C 
ATOM     30  H   UNL A   1      39.547  18.661  25.418  1.00  0.00     0.163 HD
ATOM     31  O   UNL A   1      41.962  18.567  25.851  1.00  0.00    -0.269 OA
BRANCH  29  32
ATOM     32  C   UNL A   1      41.816  20.794  26.596  1.00  0.00     0.039 A 
ATOM     33  C   UNL A   1      42.274  21.763  25.705  1.00  0.00     0.014 A 
ATOM     34  C   UNL A   1      41.776  21.050  27.970  1.00  0.00     0.014 A 
ATOM     35  C   UNL A   1      42.625  23.023  26.190  1.00  0.00     0.010 A 
ATOM     36  C   UNL A   1      42.028  22.336  28.434  1.00  0.00     0.010 A 
ATOM     37  C   UNL A   1      42.459  23.335  27.551  1.00  0.00    -0.014 A 
BRANCH  37  38
ATOM     38  C   UNL A   1      42.737  24.702  28.063  1.00  0.00     0.031 A 
ATOM     39  C   UNL A   1      44.137  25.089  28.453  1.00  0.00     0.074 A 
ATOM     40  C   UNL A   1      41.726  25.579  28.219  1.00  0.00     0.049 A 
ATOM     41  N   UNL A   1      44.573  26.215  28.955  1.00  0.00    -0.248 NA
ATOM     42  C   UNL A   1      45.183  24.068  28.279  1.00  0.00     0.031 C 
ATOM     43  C   UNL A   1      40.317  25.311  27.924  1.00  0.00     0.029 A 
ATOM     44  N   UNL A   1      41.726  26.876  28.670  1.00  0.00    -0.354 N 
ATOM     45  C   UNL A   1      45.936  26.036  29.158  1.00  0.00     0.074 A 
ATOM     46  C   UNL A   1      46.243  24.672  28.792  1.00  0.00     0.031 C 
ATOM     47  C   UNL A   1      39.597  26.418  28.168  1.00  0.00     0.029 A 
ATOM     48  C   UNL A   1      40.480  27.457  28.686  1.00  0.00     0.049 A 
ATOM     49  H   UNL A   1      42.543  27.346  28.956  1.00  0.00     0.167 HD
ATOM     50  C   UNL A   1      46.855  26.937  29.580  1.00  0.00     0.037 A 
ATOM     51  C   UNL A   1      40.093  28.684  29.084  1.00  0.00     0.037 A 
ATOM     52  C   UNL A   1      46.548  28.297  29.935  1.00  0.00     0.049 A 
ATOM     53  C   UNL A   1      41.129  29.652  29.591  1.00  0.00     0.074 A 
ATOM     54  C   UNL A   1      47.416  29.297  30.334  1.00  0.00     0.029 A 
ATOM     55  N   UNL A   1      45.274  28.845  29.942  1.00  0.00    -0.354 N 
ATOM     56  N   UNL A   1      42.426  29.490  29.708  1.00  0.00    -0.248 NA
ATOM     57  C   UNL A   1      40.651  30.974  30.015  1.00  0.00     0.031 C 
ATOM     58  C   UNL A   1      46.661  30.430  30.648  1.00  0.00     0.029 A 
ATOM     59  C   UNL A   1      45.330  30.161  30.370  1.00  0.00     0.049 A 
ATOM     60  H   UNL A   1      44.452  28.369  29.681  1.00  0.00     0.167 HD
ATOM     61  C   UNL A   1      42.919  30.698  30.184  1.00  0.00     0.074 A 
ATOM     62  C   UNL A   1      41.785  31.588  30.315  1.00  0.00     0.031 C 
ATOM     63  C   UNL A   1      44.195  31.040  30.486  1.00  0.00     0.037 A 
BRANCH  50  64
ATOM     64  C   UNL A   1      48.282  26.478  29.681  1.00  0.00     0.057 A 
ATOM     65  C   UNL A   1      49.199  26.674  28.639  1.00  0.00     0.134 A 
ATOM     66  C   UNL A   1      48.759  25.877  30.854  1.00  0.00     0.134 A 
ATOM     67  F   UNL A   1      48.807  27.232  27.484  1.00  0.00    -0.206 F 
ATOM     68  C   UNL A   1      50.529  26.266  28.749  1.00  0.00     0.040 A 
ATOM     69  C   UNL A   1      50.095  25.496  30.989  1.00  0.00     0.040 A 
ATOM     70  F   UNL A   1      47.938  25.665  31.893  1.00  0.00    -0.206 F 
ATOM     71  C   UNL A   1      50.983  25.684  29.931  1.00  0.00     0.006 A 
ENDBRANCH  50  64
BRANCH  51  72
ATOM     72  C   UNL A   1      38.659  29.076  29.025  1.00  0.00     0.057 A 
ATOM     73  C   UNL A   1      38.093  29.594  27.854  1.00  0.00     0.134 A 
ATOM     74  C   UNL A   1      37.829  28.981  30.150  1.00  0.00     0.134 A 
ATOM     75  F   UNL A   1      38.838  29.728  26.746  1.00  0.00    -0.206 F 
ATOM     76  C   UNL A   1      36.768  30.034  27.810  1.00  0.00     0.040 A 
ATOM     77  C   UNL A   1      36.494  29.385  30.112  1.00  0.00     0.040 A 
ATOM     78  F   UNL A   1      38.304  28.486  31.302  1.00  0.00    -0.206 F 
ATOM     79  C   UNL A   1      35.963  29.926  28.943  1.00  0.00     0.006 A 
ENDBRANCH  51  72
BRANCH  63  80
ATOM     80  C   UNL A   1      44.446  32.451  30.942  1.00  0.00     0.057 A 
ATOM     81  C   UNL A   1      44.452  32.809  32.297  1.00  0.00     0.134 A 
ATOM     82  C   UNL A   1      44.723  33.460  30.008  1.00  0.00     0.134 A 
ATOM     83  F   UNL A   1      44.185  31.896  33.243  1.00  0.00    -0.206 F 
ATOM     84  C   UNL A   1      44.695  34.122  32.704  1.00  0.00     0.040 A 
ATOM     85  C   UNL A   1      45.003  34.767  30.405  1.00  0.00     0.040 A 
ATOM     86  F   UNL A   1      44.746  33.185  28.695  1.00  0.00    -0.206 F 
ATOM     87  C   UNL A   1      44.980  35.104  31.756  1.00  0.00     0.006 A 
ENDBRANCH  63  80
ENDBRANCH  37  38
ENDBRANCH  29  32
ENDBRANCH  27  28
ENDBRANCH  26  27
ENDBRANCH  25  26
ENDBRANCH   1  25
TORSDOF 15
ENDMDL
MODEL 2
REMARK VINA RESULT:     -11.9      2.045      2.862
REMARK SMILES C#Cc1cccc(NS(=O)(=O)c2cc(C)c(C(=O)NCCCCNC(=O)c3ccc(-c4c5nc(c(-c6c(F)cccc6F)c6ccc([nH]6)c(-c6c(F)cccc6F)c6nc(c(-c7c(F)cccc7F)c7ccc4[nH]7)C=C6)C=C5)cc3)s2)c1
REMARK SMILES IDX 20 1 19 2 17 3 18 4 16 6 12 7 13 8 81 9 14 10 15 11 9 12
REMARK SMILES IDX 10 13 11 14 8 15 7 17 3 18 4 19 82 20 5 21 6 22 2 23 1 24
REMARK SMILES IDX 21 25 22 26 23 27 24 28 25 29 26 31 27 32 28 33 80 34 29 35
REMARK SMILES IDX 79 36 30 37 31 38 32 39 73 40 33 41 78 42 72 43 74 44 34 45
REMARK SMILES IDX 77 46 71 47 70 48 35 50 61 51 44 52 60 53 45 54 48 55 59 56
REMARK SMILES IDX 75 57 46 58 47 59 58 61 76 62 49 63 36 64 37 65 42 66 38 67
REMARK SMILES IDX 39 68 41 69 43 70 40 71 62 72 63 73 68 74 64 75 65 76 67 77
REMARK SMILES IDX 69 78 66 79 50 80 51 81 56 82 52 83 53 84 55 85 57 86 54 87
REMARK H PARENT 19 5 8 16 24 30 74 49 48 60
REMARK Flexibility Score: inf
ROOT
ATOM      1  C   UNL A   1      35.946  21.475  25.534  1.00  0.00     0.116 C 
ENDROOT
BRANCH   1   2
ATOM      2  N   UNL A   1      35.125  20.402  25.055  1.00  0.00    -0.351 N 
ATOM      3  C   UNL A   1      33.835  20.335  24.599  1.00  0.00     0.261 C 
ATOM      4  O   UNL A   1      33.512  19.182  24.288  1.00  0.00    -0.268 OA
ATOM      5  H   UNL A   1      35.583  19.531  25.054  1.00  0.00     0.163 HD
BRANCH   3   6
ATOM      6  C   UNL A   1      32.933  21.487  24.440  1.00  0.00     0.096 A 
ATOM      7  C   UNL A   1      31.293  23.229  25.197  1.00  0.00     0.141 A 
ATOM      8  C   UNL A   1      31.404  23.145  23.830  1.00  0.00     0.038 A 
ATOM      9  S   UNL A   1      32.042  21.880  25.904  1.00  0.00    -0.116 S 
ATOM     10  C   UNL A   1      32.623  22.458  23.481  1.00  0.00    -0.026 A 
ATOM     11  C   UNL A   1      33.363  22.946  22.282  1.00  0.00     0.046 C 
BRANCH   7  12
ATOM     12  S   UNL A   1      30.539  24.423  26.269  1.00  0.00     0.271 S 
ATOM     13  O   UNL A   1      31.620  25.163  26.883  1.00  0.00    -0.200 OA
ATOM     14  O   UNL A   1      29.607  23.653  27.066  1.00  0.00    -0.200 OA
BRANCH  12  15
ATOM     15  N   UNL A   1      29.588  25.562  25.448  1.00  0.00    -0.279 N 
ATOM     16  H   UNL A   1      28.625  25.578  25.657  1.00  0.00     0.180 HD
BRANCH  15  17
ATOM     17  C   UNL A   1      30.060  26.500  24.478  1.00  0.00     0.050 A 
ATOM     18  C   UNL A   1      29.534  28.280  22.903  1.00  0.00     0.026 A 
ATOM     19  C   UNL A   1      30.873  28.354  22.529  1.00  0.00     0.017 A 
ATOM     20  C   UNL A   1      29.122  27.339  23.856  1.00  0.00     0.044 A 
ATOM     21  C   UNL A   1      31.817  27.616  23.229  1.00  0.00     0.003 A 
ATOM     22  C   UNL A   1      31.414  26.743  24.245  1.00  0.00     0.027 A 
BRANCH  18  23
ATOM     23  C   UNL A   1      28.648  29.275  22.376  1.00  0.00    -0.070 C 
ATOM     24  C   UNL A   1      28.029  30.116  21.788  1.00  0.00     0.010 C 
ENDBRANCH  18  23
ENDBRANCH  15  17
ENDBRANCH  12  15
ENDBRANCH   7  12
ENDBRANCH   3   6
ENDBRANCH   1   2
BRANCH   1  25
ATOM     25  C   UNL A   1      37.307  21.475  24.828  1.00  0.00     0.023 C 
BRANCH  25  26
ATOM     26  C   UNL A   1      38.062  20.164  25.005  1.00  0.00     0.023 C 
BRANCH  26  27
ATOM     27  C   UNL A   1      39.296  20.309  25.883  1.00  0.00     0.116 C 
BRANCH  27  28
ATOM     28  N   UNL A   1      40.189  19.159  25.834  1.00  0.00    -0.352 N 
ATOM     29  C   UNL A   1      41.550  19.154  26.042  1.00  0.00     0.251 C 
ATOM     30  H   UNL A   1      39.773  18.290  25.632  1.00  0.00     0.163 HD
ATOM     31  O   UNL A   1      42.210  18.135  25.886  1.00  0.00    -0.269 OA
BRANCH  29  32
ATOM     32  C   UNL A   1      42.204  20.430  26.401  1.00  0.00     0.039 A 
ATOM     33  C   UNL A   1      42.661  21.262  25.380  1.00  0.00     0.014 A 
ATOM     34  C   UNL A   1      42.248  20.847  27.735  1.00  0.00     0.014 A 
ATOM     35  C   UNL A   1      43.097  22.550  25.694  1.00  0.00     0.010 A 
ATOM     36  C   UNL A   1      42.584  22.163  28.030  1.00  0.00     0.010 A 
ATOM     37  C   UNL A   1      43.016  23.028  27.014  1.00  0.00    -0.014 A 
BRANCH  37  38
ATOM     38  C   UNL A   1      43.385  24.428  27.347  1.00  0.00     0.031 A 
ATOM     39  C   UNL A   1      44.825  24.860  27.294  1.00  0.00     0.074 A 
ATOM     40  C   UNL A   1      42.433  25.299  27.737  1.00  0.00     0.049 A 
ATOM     41  N   UNL A   1      45.350  26.023  27.584  1.00  0.00    -0.248 NA
ATOM     42  C   UNL A   1      45.810  23.845  26.884  1.00  0.00     0.031 C 
ATOM     43  C   UNL A   1      41.008  24.992  27.876  1.00  0.00     0.029 A 
ATOM     44  N   UNL A   1      42.521  26.622  28.095  1.00  0.00    -0.354 N 
ATOM     45  C   UNL A   1      46.719  25.876  27.395  1.00  0.00     0.074 A 
ATOM     46  C   UNL A   1      46.952  24.497  27.035  1.00  0.00     0.031 C 
ATOM     47  C   UNL A   1      40.353  26.101  28.254  1.00  0.00     0.029 A 
ATOM     48  C   UNL A   1      41.314  27.184  28.436  1.00  0.00     0.049 A 
ATOM     49  H   UNL A   1      43.369  27.121  28.106  1.00  0.00     0.167 HD
ATOM     50  C   UNL A   1      47.690  26.816  27.483  1.00  0.00     0.037 A 
ATOM     51  C   UNL A   1      41.017  28.429  28.858  1.00  0.00     0.037 A 
ATOM     52  C   UNL A   1      47.455  28.191  27.833  1.00  0.00     0.049 A 
ATOM     53  C   UNL A   1      42.123  29.441  28.989  1.00  0.00     0.074 A 
ATOM     54  C   UNL A   1      48.367  29.227  27.908  1.00  0.00     0.029 A 
ATOM     55  N   UNL A   1      46.219  28.720  28.176  1.00  0.00    -0.354 N 
ATOM     56  N   UNL A   1      43.403  29.307  28.736  1.00  0.00    -0.248 NA
ATOM     57  C   UNL A   1      41.744  30.781  29.457  1.00  0.00     0.031 C 
ATOM     58  C   UNL A   1      47.698  30.367  28.361  1.00  0.00     0.029 A 
ATOM     59  C   UNL A   1      46.352  30.061  28.494  1.00  0.00     0.049 A 
ATOM     60  H   UNL A   1      45.372  28.216  28.191  1.00  0.00     0.167 HD
ATOM     61  C   UNL A   1      43.973  30.550  28.981  1.00  0.00     0.074 A 
ATOM     62  C   UNL A   1      42.896  31.430  29.382  1.00  0.00     0.031 C 
ATOM     63  C   UNL A   1      45.271  30.929  28.882  1.00  0.00     0.037 A 
BRANCH  50  64
ATOM     64  C   UNL A   1      49.101  26.385  27.194  1.00  0.00     0.057 A 
ATOM     65  C   UNL A   1      49.624  26.386  25.894  1.00  0.00     0.134 A 
ATOM     66  C   UNL A   1      49.961  26.012  28.235  1.00  0.00     0.134 A 
ATOM     67  F   UNL A   1      48.852  26.722  24.849  1.00  0.00    -0.206 F 
ATOM     68  C   UNL A   1      50.943  26.008  25.636  1.00  0.00     0.040 A 
ATOM     69  C   UNL A   1      51.291  25.664  27.994  1.00  0.00     0.040 A 
ATOM     70  F   UNL A   1      49.528  25.994  29.504  1.00  0.00    -0.206 F 
ATOM     71  C   UNL A   1      51.783  25.654  26.690  1.00  0.00     0.006 A 
ENDBRANCH  50  64
BRANCH  51  72
ATOM     72  C   UNL A   1      39.614  28.795  29.193  1.00  0.00     0.057 A 
ATOM     73  C   UNL A   1      39.110  28.633  30.489  1.00  0.00     0.134 A 
ATOM     74  C   UNL A   1      38.733  29.277  28.217  1.00  0.00     0.134 A 
ATOM     75  F   UNL A   1      39.896  28.159  31.466  1.00  0.00    -0.206 F 
ATOM     76  C   UNL A   1      37.774  28.904  30.796  1.00  0.00     0.040 A 
ATOM     77  C   UNL A   1      37.405  29.584  28.517  1.00  0.00     0.040 A 
ATOM     78  F   UNL A   1      39.152  29.464  26.957  1.00  0.00    -0.206 F 
ATOM     79  C   UNL A   1      36.918  29.385  29.807  1.00  0.00     0.006 A 
ENDBRANCH  51  72
BRANCH  63  80
ATOM     80  C   UNL A   1      45.595  32.369  29.166  1.00  0.00     0.057 A 
ATOM     81  C   UNL A   1      45.530  33.359  28.176  1.00  0.00     0.134 A 
ATOM     82  C   UNL A   1      45.942  32.776  30.462  1.00  0.00     0.134 A 
ATOM     83  F   UNL A   1      45.214  33.038  26.912  1.00  0.00    -0.206 F 
ATOM     84  C   UNL A   1      45.827  34.694  28.458  1.00  0.00     0.040 A 
ATOM     85  C   UNL A   1      46.205  34.113  30.763  1.00  0.00     0.040 A 
ATOM     86  F   UNL A   1      46.012  31.884  31.461  1.00  0.00    -0.206 F 
ATOM     87  C   UNL A   1      46.157  35.075  29.758  1.00  0.00     0.006 A 
ENDBRANCH  63  80
ENDBRANCH  37  38
ENDBRANCH  29  32
ENDBRANCH  27  28
ENDBRANCH  26  27
ENDBRANCH  25  26
ENDBRANCH   1  25
TORSDOF 15
ENDMDL
MODEL 3
REMARK VINA RESULT:     -11.8      1.632      2.185
REMARK SMILES C#Cc1cccc(NS(=O)(=O)c2cc(C)c(C(=O)NCCCCNC(=O)c3ccc(-c4c5nc(c(-c6c(F)cccc6F)c6ccc([nH]6)c(-c6c(F)cccc6F)c6nc(c(-c7c(F)cccc7F)c7ccc4[nH]7)C=C6)C=C5)cc3)s2)c1
REMARK SMILES IDX 20 1 19 2 17 3 18 4 16 6 12 7 13 8 81 9 14 10 15 11 9 12
REMARK SMILES IDX 10 13 11 14 8 15 7 17 3 18 4 19 82 20 5 21 6 22 2 23 1 24
REMARK SMILES IDX 21 25 22 26 23 27 24 28 25 29 26 31 27 32 28 33 80 34 29 35
REMARK SMILES IDX 79 36 30 37 31 38 32 39 73 40 33 41 78 42 72 43 74 44 34 45
REMARK SMILES IDX 77 46 71 47 70 48 35 50 61 51 44 52 60 53 45 54 48 55 59 56
REMARK SMILES IDX 75 57 46 58 47 59 58 61 76 62 49 63 36 64 37 65 42 66 38 67
REMARK SMILES IDX 39 68 41 69 43 70 40 71 62 72 63 73 68 74 64 75 65 76 67 77
REMARK SMILES IDX 69 78 66 79 50 80 51 81 56 82 52 83 53 84 55 85 57 86 54 87
REMARK H PARENT 19 5 8 16 24 30 74 49 48 60
REMARK Flexibility Score: inf
ROOT
ATOM      1  C   UNL A   1      37.825  23.551  26.067  1.00  0.00     0.116 C 
ENDROOT
BRANCH   1   2
ATOM      2  N   UNL A   1      37.381  23.414  24.711  1.00  0.00    -0.351 N 
ATOM      3  C   UNL A   1      36.183  23.074  24.142  1.00  0.00     0.261 C 
ATOM      4  O   UNL A   1      36.242  23.067  22.906  1.00  0.00    -0.268 OA
ATOM      5  H   UNL A   1      38.086  23.603  24.051  1.00  0.00     0.163 HD
BRANCH   3   6
ATOM      6  C   UNL A   1      34.943  22.794  24.884  1.00  0.00     0.096 A 
ATOM      7  C   UNL A   1      32.822  23.372  26.095  1.00  0.00     0.141 A 
ATOM      8  C   UNL A   1      33.192  22.058  26.244  1.00  0.00     0.038 A 
ATOM      9  S   UNL A   1      34.117  24.247  25.431  1.00  0.00    -0.116 S 
ATOM     10  C   UNL A   1      34.140  21.698  25.219  1.00  0.00    -0.026 A 
ATOM     11  C   UNL A   1      34.039  20.326  24.644  1.00  0.00     0.046 C 
BRANCH   7  12
ATOM     12  S   UNL A   1      31.326  24.248  26.465  1.00  0.00     0.271 S 
ATOM     13  O   UNL A   1      31.722  25.564  26.918  1.00  0.00    -0.200 OA
ATOM     14  O   UNL A   1      30.586  23.348  27.324  1.00  0.00    -0.200 OA
BRANCH  12  15
ATOM     15  N   UNL A   1      30.333  24.489  25.111  1.00  0.00    -0.279 N 
ATOM     16  H   UNL A   1      29.525  23.931  25.042  1.00  0.00     0.180 HD
BRANCH  15  17
ATOM     17  C   UNL A   1      30.567  25.431  24.061  1.00  0.00     0.050 A 
ATOM     18  C   UNL A   1      30.147  27.647  23.146  1.00  0.00     0.026 A 
ATOM     19  C   UNL A   1      30.927  27.343  22.034  1.00  0.00     0.017 A 
ATOM     20  C   UNL A   1      29.946  26.686  24.146  1.00  0.00     0.044 A 
ATOM     21  C   UNL A   1      31.642  26.154  22.008  1.00  0.00     0.003 A 
ATOM     22  C   UNL A   1      31.511  25.233  23.053  1.00  0.00     0.027 A 
BRANCH  18  23
ATOM     23  C   UNL A   1      29.684  28.996  23.276  1.00  0.00    -0.070 C 
ATOM     24  C   UNL A   1      29.461  30.157  23.479  1.00  0.00     0.010 C 
ENDBRANCH  18  23
ENDBRANCH  15  17
ENDBRANCH  12  15
ENDBRANCH   7  12
ENDBRANCH   3   6
ENDBRANCH   1   2
BRANCH   1  25
ATOM     25  C   UNL A   1      39.114  22.756  26.300  1.00  0.00     0.023 C 
BRANCH  25  26
ATOM     26  C   UNL A   1      39.075  21.371  25.666  1.00  0.00     0.023 C 
BRANCH  26  27
ATOM     27  C   UNL A   1      39.633  20.289  26.578  1.00  0.00     0.116 C 
BRANCH  27  28
ATOM     28  N   UNL A   1      40.658  19.465  25.952  1.00  0.00    -0.352 N 
ATOM     29  C   UNL A   1      41.996  19.761  25.820  1.00  0.00     0.251 C 
ATOM     30  H   UNL A   1      40.361  18.602  25.584  1.00  0.00     0.163 HD
ATOM     31  O   UNL A   1      42.748  19.026  25.192  1.00  0.00    -0.269 OA
BRANCH  29  32
ATOM     32  C   UNL A   1      42.492  21.024  26.406  1.00  0.00     0.039 A 
ATOM     33  C   UNL A   1      42.904  22.046  25.553  1.00  0.00     0.014 A 
ATOM     34  C   UNL A   1      42.427  21.231  27.788  1.00  0.00     0.014 A 
ATOM     35  C   UNL A   1      43.183  23.306  26.083  1.00  0.00     0.010 A 
ATOM     36  C   UNL A   1      42.606  22.511  28.297  1.00  0.00     0.010 A 
ATOM     37  C   UNL A   1      42.990  23.562  27.452  1.00  0.00    -0.014 A 
BRANCH  37  38
ATOM     38  C   UNL A   1      43.190  24.924  28.013  1.00  0.00     0.031 A 
ATOM     39  C   UNL A   1      44.562  25.367  28.441  1.00  0.00     0.074 A 
ATOM     40  C   UNL A   1      42.132  25.744  28.178  1.00  0.00     0.049 A 
ATOM     41  N   UNL A   1      44.931  26.497  28.987  1.00  0.00    -0.248 NA
ATOM     42  C   UNL A   1      45.660  24.405  28.254  1.00  0.00     0.031 C 
ATOM     43  C   UNL A   1      40.744  25.416  27.847  1.00  0.00     0.029 A 
ATOM     44  N   UNL A   1      42.060  27.024  28.670  1.00  0.00    -0.354 N 
ATOM     45  C   UNL A   1      46.298  26.379  29.209  1.00  0.00     0.074 A 
ATOM     46  C   UNL A   1      46.680  25.044  28.807  1.00  0.00     0.031 C 
ATOM     47  C   UNL A   1      39.966  26.477  28.113  1.00  0.00     0.029 A 
ATOM     48  C   UNL A   1      40.787  27.541  28.681  1.00  0.00     0.049 A 
ATOM     49  H   UNL A   1      42.847  27.524  28.986  1.00  0.00     0.167 HD
ATOM     50  C   UNL A   1      47.163  27.310  29.677  1.00  0.00     0.037 A 
ATOM     51  C   UNL A   1      40.331  28.734  29.110  1.00  0.00     0.037 A 
ATOM     52  C   UNL A   1      46.782  28.641  30.069  1.00  0.00     0.049 A 
ATOM     53  C   UNL A   1      41.308  29.734  29.666  1.00  0.00     0.074 A 
ATOM     54  C   UNL A   1      47.591  29.669  30.516  1.00  0.00     0.029 A 
ATOM     55  N   UNL A   1      45.482  29.124  30.070  1.00  0.00    -0.354 N 
ATOM     56  N   UNL A   1      42.609  29.634  29.803  1.00  0.00    -0.248 NA
ATOM     57  C   UNL A   1      40.757  31.017  30.124  1.00  0.00     0.031 C 
ATOM     58  C   UNL A   1      46.775  30.753  30.852  1.00  0.00     0.029 A 
ATOM     59  C   UNL A   1      45.464  30.427  30.540  1.00  0.00     0.049 A 
ATOM     60  H   UNL A   1      44.690  28.617  29.779  1.00  0.00     0.167 HD
ATOM     61  C   UNL A   1      43.032  30.849  30.326  1.00  0.00     0.074 A 
ATOM     62  C   UNL A   1      41.853  31.677  30.464  1.00  0.00     0.031 C 
ATOM     63  C   UNL A   1      44.285  31.244  30.663  1.00  0.00     0.037 A 
BRANCH  50  64
ATOM     64  C   UNL A   1      48.610  26.919  29.790  1.00  0.00     0.057 A 
ATOM     65  C   UNL A   1      49.520  27.139  28.747  1.00  0.00     0.134 A 
ATOM     66  C   UNL A   1      49.109  26.362  30.975  1.00  0.00     0.134 A 
ATOM     67  F   UNL A   1      49.107  27.659  27.581  1.00  0.00    -0.206 F 
ATOM     68  C   UNL A   1      50.867  26.796  28.869  1.00  0.00     0.040 A 
ATOM     69  C   UNL A   1      50.460  26.046  31.120  1.00  0.00     0.040 A 
ATOM     70  F   UNL A   1      48.295  26.130  32.015  1.00  0.00    -0.206 F 
ATOM     71  C   UNL A   1      51.343  26.256  30.062  1.00  0.00     0.006 A 
ENDBRANCH  50  64
BRANCH  51  72
ATOM     72  C   UNL A   1      38.880  29.056  29.036  1.00  0.00     0.057 A 
ATOM     73  C   UNL A   1      38.297  29.523  27.852  1.00  0.00     0.134 A 
ATOM     74  C   UNL A   1      38.050  28.943  30.159  1.00  0.00     0.134 A 
ATOM     75  F   UNL A   1      39.041  29.671  26.746  1.00  0.00    -0.206 F 
ATOM     76  C   UNL A   1      36.953  29.898  27.794  1.00  0.00     0.040 A 
ATOM     77  C   UNL A   1      36.697  29.282  30.106  1.00  0.00     0.040 A 
ATOM     78  F   UNL A   1      38.541  28.494  31.323  1.00  0.00    -0.206 F 
ATOM     79  C   UNL A   1      36.148  29.774  28.924  1.00  0.00     0.006 A 
ENDBRANCH  51  72
BRANCH  63  80
ATOM     80  C   UNL A   1      44.456  32.650  31.168  1.00  0.00     0.057 A 
ATOM     81  C   UNL A   1      44.427  32.962  32.534  1.00  0.00     0.134 A 
ATOM     82  C   UNL A   1      44.692  33.702  30.271  1.00  0.00     0.134 A 
ATOM     83  F   UNL A   1      44.195  32.006  33.446  1.00  0.00    -0.206 F 
ATOM     84  C   UNL A   1      44.596  34.272  32.987  1.00  0.00     0.040 A 
ATOM     85  C   UNL A   1      44.899  35.008  30.715  1.00  0.00     0.040 A 
ATOM     86  F   UNL A   1      44.746  33.473  28.951  1.00  0.00    -0.206 F 
ATOM     87  C   UNL A   1      44.842  35.298  32.076  1.00  0.00     0.006 A 
ENDBRANCH  63  80
ENDBRANCH  37  38
ENDBRANCH  29  32
ENDBRANCH  27  28
ENDBRANCH  26  27
ENDBRANCH  25  26
ENDBRANCH   1  25
TORSDOF 15
ENDMDL
