MODEL 1
REMARK VINA RESULT:     -12.8      0.000      0.000
REMARK SMILES O=C(NCCCCNC(=O)[C@@H]1CCCC[C@@H]1NS(=O)(=O)c1ccc2ccccc2c1)c1ccc(-c2c3nc(c(-c4c(F)cccc4F)c4ccc([nH]4)c(-c4c(F)cccc4F)c4nc(c(-c5c(F)cccc5F)c5ccc2[nH]5)C=C4)C=C3)cc1
REMARK SMILES IDX 6 1 5 2 4 3 3 4 1 5 2 6 31 8 32 9 84 10 33 11 83 12 34 13
REMARK SMILES IDX 35 14 36 15 77 16 37 17 82 18 76 19 78 20 38 21 81 22 75 23
REMARK SMILES IDX 74 24 39 26 65 27 48 28 64 29 49 30 52 31 63 32 79 33 50 34
REMARK SMILES IDX 51 35 62 37 80 38 53 39 40 40 41 41 46 42 42 43 43 44 45 45
REMARK SMILES IDX 47 46 44 47 66 48 67 49 72 50 68 51 69 52 71 53 73 54 70 55
REMARK SMILES IDX 54 56 55 57 60 58 56 59 57 60 59 61 61 62 58 63 7 64 8 65
REMARK SMILES IDX 9 66 10 68 11 69 12 70 16 71 13 72 15 73 14 74 17 75 18 77
REMARK SMILES IDX 19 78 20 79 21 80 22 81 30 82 23 83 29 84 24 85 28 86 25 87
REMARK SMILES IDX 27 88 26 89
REMARK H PARENT 3 7 78 25 52 36 8 67 17 76
REMARK Flexibility Score: inf
ROOT
ATOM      1  C   UNL A   1      31.839  30.323  26.522  1.00  0.00     0.023 C 
ENDROOT
BRANCH   1   2
ATOM      2  C   UNL A   1      31.622  31.821  26.763  1.00  0.00     0.023 C 
BRANCH   2   3
ATOM      3  C   UNL A   1      32.794  32.670  27.252  1.00  0.00     0.116 C 
BRANCH   3   4
ATOM      4  N   UNL A   1      32.470  34.038  27.626  1.00  0.00    -0.352 N 
ATOM      5  O   UNL A   1      32.658  35.970  28.805  1.00  0.00    -0.269 OA
ATOM      6  C   UNL A   1      33.077  34.843  28.567  1.00  0.00     0.251 C 
ATOM      7  H   UNL A   1      31.715  34.444  27.142  1.00  0.00     0.163 HD
BRANCH   6   8
ATOM      8  C   UNL A   1      34.235  34.313  29.316  1.00  0.00     0.039 A 
ATOM      9  C   UNL A   1      35.528  34.562  28.854  1.00  0.00     0.014 A 
ATOM     10  C   UNL A   1      34.027  33.510  30.441  1.00  0.00     0.014 A 
ATOM     11  C   UNL A   1      36.593  33.861  29.405  1.00  0.00     0.010 A 
ATOM     12  C   UNL A   1      35.116  32.883  31.055  1.00  0.00     0.010 A 
ATOM     13  C   UNL A   1      36.406  33.019  30.518  1.00  0.00    -0.014 A 
BRANCH  13  14
ATOM     14  C   UNL A   1      37.595  32.359  31.122  1.00  0.00     0.031 A 
ATOM     15  C   UNL A   1      38.081  32.701  32.506  1.00  0.00     0.074 A 
ATOM     16  C   UNL A   1      38.203  31.382  30.420  1.00  0.00     0.049 A 
ATOM     17  N   UNL A   1      39.062  32.161  33.189  1.00  0.00    -0.248 NA
ATOM     18  C   UNL A   1      37.389  33.788  33.215  1.00  0.00     0.031 C 
ATOM     19  C   UNL A   1      37.838  30.975  29.060  1.00  0.00     0.029 A 
ATOM     20  N   UNL A   1      39.230  30.537  30.753  1.00  0.00    -0.354 N 
ATOM     21  C   UNL A   1      39.106  32.839  34.402  1.00  0.00     0.074 A 
ATOM     22  C   UNL A   1      38.078  33.857  34.348  1.00  0.00     0.031 C 
ATOM     23  C   UNL A   1      38.585  29.924  28.699  1.00  0.00     0.029 A 
ATOM     24  C   UNL A   1      39.533  29.630  29.766  1.00  0.00     0.049 A 
ATOM     25  H   UNL A   1      39.704  30.575  31.615  1.00  0.00     0.167 HD
ATOM     26  C   UNL A   1      39.920  32.622  35.465  1.00  0.00     0.037 A 
ATOM     27  C   UNL A   1      40.483  28.680  29.710  1.00  0.00     0.037 A 
ATOM     28  C   UNL A   1      40.946  31.607  35.512  1.00  0.00     0.049 A 
ATOM     29  C   UNL A   1      41.389  28.488  30.890  1.00  0.00     0.074 A 
ATOM     30  C   UNL A   1      41.812  31.304  36.550  1.00  0.00     0.029 A 
ATOM     31  N   UNL A   1      41.246  30.732  34.478  1.00  0.00    -0.354 N 
ATOM     32  N   UNL A   1      41.394  29.117  32.040  1.00  0.00    -0.248 NA
ATOM     33  C   UNL A   1      42.422  27.453  30.764  1.00  0.00     0.031 C 
ATOM     34  C   UNL A   1      42.669  30.283  36.126  1.00  0.00     0.029 A 
ATOM     35  C   UNL A   1      42.298  29.906  34.847  1.00  0.00     0.049 A 
ATOM     36  H   UNL A   1      40.782  30.703  33.611  1.00  0.00     0.167 HD
ATOM     37  C   UNL A   1      42.419  28.543  32.779  1.00  0.00     0.074 A 
ATOM     38  C   UNL A   1      42.987  27.493  31.962  1.00  0.00     0.031 C 
ATOM     39  C   UNL A   1      42.859  28.867  34.020  1.00  0.00     0.037 A 
BRANCH  26  40
ATOM     40  C   UNL A   1      39.746  33.497  36.676  1.00  0.00     0.057 A 
ATOM     41  C   UNL A   1      40.416  34.721  36.804  1.00  0.00     0.134 A 
ATOM     42  C   UNL A   1      38.838  33.155  37.687  1.00  0.00     0.134 A 
ATOM     43  F   UNL A   1      41.305  35.111  35.877  1.00  0.00    -0.206 F 
ATOM     44  C   UNL A   1      40.201  35.564  37.897  1.00  0.00     0.040 A 
ATOM     45  C   UNL A   1      38.594  34.000  38.771  1.00  0.00     0.040 A 
ATOM     46  F   UNL A   1      38.152  32.003  37.624  1.00  0.00    -0.206 F 
ATOM     47  C   UNL A   1      39.279  35.208  38.880  1.00  0.00     0.006 A 
ENDBRANCH  26  40
BRANCH  27  48
ATOM     48  C   UNL A   1      40.644  27.862  28.480  1.00  0.00     0.057 A 
ATOM     49  C   UNL A   1      41.418  28.304  27.402  1.00  0.00     0.134 A 
ATOM     50  C   UNL A   1      40.005  26.622  28.350  1.00  0.00     0.134 A 
ATOM     51  F   UNL A   1      42.041  29.490  27.458  1.00  0.00    -0.206 F 
ATOM     52  C   UNL A   1      41.526  27.558  26.227  1.00  0.00     0.040 A 
ATOM     53  C   UNL A   1      40.135  25.849  27.197  1.00  0.00     0.040 A 
ATOM     54  F   UNL A   1      39.256  26.136  29.351  1.00  0.00    -0.206 F 
ATOM     55  C   UNL A   1      40.887  26.324  26.125  1.00  0.00     0.006 A 
ENDBRANCH  27  48
BRANCH  39  56
ATOM     56  C   UNL A   1      43.995  28.049  34.568  1.00  0.00     0.057 A 
ATOM     57  C   UNL A   1      45.329  28.455  34.437  1.00  0.00     0.134 A 
ATOM     58  C   UNL A   1      43.750  26.836  35.224  1.00  0.00     0.134 A 
ATOM     59  F   UNL A   1      45.635  29.599  33.807  1.00  0.00    -0.206 F 
ATOM     60  C   UNL A   1      46.383  27.662  34.899  1.00  0.00     0.040 A 
ATOM     61  C   UNL A   1      44.793  26.051  35.720  1.00  0.00     0.040 A 
ATOM     62  F   UNL A   1      42.495  26.392  35.393  1.00  0.00    -0.206 F 
ATOM     63  C   UNL A   1      46.114  26.458  35.545  1.00  0.00     0.006 A 
ENDBRANCH  39  56
ENDBRANCH  13  14
ENDBRANCH   6   8
ENDBRANCH   3   4
ENDBRANCH   2   3
ENDBRANCH   1   2
BRANCH   1  64
ATOM     64  C   UNL A   1      33.066  29.907  25.713  1.00  0.00     0.116 C 
BRANCH  64  65
ATOM     65  N   UNL A   1      33.512  28.538  25.902  1.00  0.00    -0.356 N 
ATOM     66  C   UNL A   1      32.984  27.348  25.487  1.00  0.00     0.224 C 
ATOM     67  H   UNL A   1      34.343  28.453  26.423  1.00  0.00     0.163 HD
ATOM     68  O   UNL A   1      33.632  26.340  25.791  1.00  0.00    -0.275 OA
BRANCH  66  69
ATOM     69  C   UNL A   1      31.596  27.200  24.857  1.00  0.00     0.096 C 
ATOM     70  C   UNL A   1      30.900  25.853  25.173  1.00  0.00     0.015 C 
ATOM     71  C   UNL A   1      31.334  27.527  23.382  1.00  0.00     0.082 C 
ATOM     72  C   UNL A   1      29.379  25.953  24.972  1.00  0.00     0.001 C 
ATOM     73  C   UNL A   1      29.820  27.870  23.317  1.00  0.00     0.021 C 
ATOM     74  C   UNL A   1      28.936  26.681  23.698  1.00  0.00     0.002 C 
BRANCH  71  75
ATOM     75  N   UNL A   1      31.577  26.395  22.448  1.00  0.00    -0.207 NA
ATOM     76  H   UNL A   1      31.040  26.621  21.611  1.00  0.00     0.141 HD
BRANCH  75  77
ATOM     77  S   UNL A   1      33.068  25.872  21.883  1.00  0.00     0.240 S 
ATOM     78  O   UNL A   1      32.812  25.469  20.512  1.00  0.00    -0.207 OA
ATOM     79  O   UNL A   1      34.029  26.908  22.159  1.00  0.00    -0.207 OA
BRANCH  77  80
ATOM     80  C   UNL A   1      33.490  24.393  22.782  1.00  0.00     0.083 A 
ATOM     81  C   UNL A   1      34.682  24.334  23.502  1.00  0.00     0.022 A 
ATOM     82  C   UNL A   1      32.598  23.320  22.861  1.00  0.00     0.030 A 
ATOM     83  C   UNL A   1      35.013  23.167  24.205  1.00  0.00     0.010 A 
ATOM     84  C   UNL A   1      32.957  22.106  23.481  1.00  0.00    -0.017 A 
ATOM     85  C   UNL A   1      34.188  22.031  24.163  1.00  0.00    -0.018 A 
ATOM     86  C   UNL A   1      32.153  20.951  23.392  1.00  0.00     0.009 A 
ATOM     87  C   UNL A   1      34.570  20.814  24.757  1.00  0.00     0.009 A 
ATOM     88  C   UNL A   1      32.575  19.736  23.935  1.00  0.00     0.001 A 
ATOM     89  C   UNL A   1      33.780  19.670  24.626  1.00  0.00     0.001 A 
ENDBRANCH  77  80
ENDBRANCH  75  77
ENDBRANCH  71  75
ENDBRANCH  66  69
ENDBRANCH  64  65
ENDBRANCH   1  64
TORSDOF 14
ENDMDL
MODEL 2
REMARK VINA RESULT:     -12.8      5.018     10.096
REMARK SMILES O=C(NCCCCNC(=O)[C@@H]1CCCC[C@@H]1NS(=O)(=O)c1ccc2ccccc2c1)c1ccc(-c2c3nc(c(-c4c(F)cccc4F)c4ccc([nH]4)c(-c4c(F)cccc4F)c4nc(c(-c5c(F)cccc5F)c5ccc2[nH]5)C=C4)C=C3)cc1
REMARK SMILES IDX 6 1 5 2 4 3 3 4 1 5 2 6 31 8 32 9 84 10 33 11 83 12 34 13
REMARK SMILES IDX 35 14 36 15 77 16 37 17 82 18 76 19 78 20 38 21 81 22 75 23
REMARK SMILES IDX 74 24 39 26 65 27 48 28 64 29 49 30 52 31 63 32 79 33 50 34
REMARK SMILES IDX 51 35 62 37 80 38 53 39 40 40 41 41 46 42 42 43 43 44 45 45
REMARK SMILES IDX 47 46 44 47 66 48 67 49 72 50 68 51 69 52 71 53 73 54 70 55
REMARK SMILES IDX 54 56 55 57 60 58 56 59 57 60 59 61 61 62 58 63 7 64 8 65
REMARK SMILES IDX 9 66 10 68 11 69 12 70 16 71 13 72 15 73 14 74 17 75 18 77
REMARK SMILES IDX 19 78 20 79 21 80 22 81 30 82 23 83 29 84 24 85 28 86 25 87
REMARK SMILES IDX 27 88 26 89
REMARK H PARENT 3 7 78 25 52 36 8 67 17 76
REMARK Flexibility Score: inf
ROOT
ATOM      1  C   UNL A   1      37.110  21.033  24.742  1.00  0.00     0.023 C 
ENDROOT
BRANCH   1   2
ATOM      2  C   UNL A   1      38.069  19.865  25.001  1.00  0.00     0.023 C 
BRANCH   2   3
ATOM      3  C   UNL A   1      39.344  20.119  25.804  1.00  0.00     0.116 C 
BRANCH   3   4
ATOM      4  N   UNL A   1      40.322  19.042  25.792  1.00  0.00    -0.352 N 
ATOM      5  O   UNL A   1      42.382  18.104  25.978  1.00  0.00    -0.269 OA
ATOM      6  C   UNL A   1      41.670  19.097  26.077  1.00  0.00     0.251 C 
ATOM      7  H   UNL A   1      39.975  18.155  25.548  1.00  0.00     0.163 HD
BRANCH   6   8
ATOM      8  C   UNL A   1      42.260  20.391  26.478  1.00  0.00     0.039 A 
ATOM      9  C   UNL A   1      42.202  20.791  27.814  1.00  0.00     0.014 A 
ATOM     10  C   UNL A   1      42.811  21.235  25.509  1.00  0.00     0.014 A 
ATOM     11  C   UNL A   1      42.524  22.101  28.145  1.00  0.00     0.010 A 
ATOM     12  C   UNL A   1      43.227  22.522  25.867  1.00  0.00     0.010 A 
ATOM     13  C   UNL A   1      43.050  22.982  27.181  1.00  0.00    -0.014 A 
BRANCH  13  14
ATOM     14  C   UNL A   1      43.458  24.348  27.609  1.00  0.00     0.031 A 
ATOM     15  C   UNL A   1      44.897  24.791  27.597  1.00  0.00     0.074 A 
ATOM     16  C   UNL A   1      42.490  25.221  27.952  1.00  0.00     0.049 A 
ATOM     17  N   UNL A   1      45.396  25.971  27.879  1.00  0.00    -0.248 NA
ATOM     18  C   UNL A   1      45.910  23.788  27.232  1.00  0.00     0.031 C 
ATOM     19  C   UNL A   1      41.061  24.904  28.022  1.00  0.00     0.029 A 
ATOM     20  N   UNL A   1      42.549  26.552  28.276  1.00  0.00    -0.354 N 
ATOM     21  C   UNL A   1      46.773  25.854  27.726  1.00  0.00     0.074 A 
ATOM     22  C   UNL A   1      47.037  24.477  27.365  1.00  0.00     0.031 C 
ATOM     23  C   UNL A   1      40.376  26.018  28.309  1.00  0.00     0.029 A 
ATOM     24  C   UNL A   1      41.317  27.110  28.518  1.00  0.00     0.049 A 
ATOM     25  H   UNL A   1      43.392  27.058  28.330  1.00  0.00     0.167 HD
ATOM     26  C   UNL A   1      47.725  26.810  27.862  1.00  0.00     0.037 A 
ATOM     27  C   UNL A   1      40.977  28.357  28.890  1.00  0.00     0.037 A 
ATOM     28  C   UNL A   1      47.457  28.182  28.226  1.00  0.00     0.049 A 
ATOM     29  C   UNL A   1      42.058  29.383  29.064  1.00  0.00     0.074 A 
ATOM     30  C   UNL A   1      48.354  29.226  28.377  1.00  0.00     0.029 A 
ATOM     31  N   UNL A   1      46.198  28.700  28.498  1.00  0.00    -0.354 N 
ATOM     32  N   UNL A   1      43.351  29.262  28.884  1.00  0.00    -0.248 NA
ATOM     33  C   UNL A   1      41.632  30.720  29.495  1.00  0.00     0.031 C 
ATOM     34  C   UNL A   1      47.648  30.360  28.789  1.00  0.00     0.029 A 
ATOM     35  C   UNL A   1      46.302  30.041  28.837  1.00  0.00     0.049 A 
ATOM     36  H   UNL A   1      45.358  28.191  28.458  1.00  0.00     0.167 HD
ATOM     37  C   UNL A   1      43.889  30.510  29.164  1.00  0.00     0.074 A 
ATOM     38  C   UNL A   1      42.780  31.381  29.488  1.00  0.00     0.031 C 
ATOM     39  C   UNL A   1      45.189  30.897  29.164  1.00  0.00     0.037 A 
BRANCH  26  40
ATOM     40  C   UNL A   1      49.157  26.418  27.622  1.00  0.00     0.057 A 
ATOM     41  C   UNL A   1      49.727  26.456  26.342  1.00  0.00     0.134 A 
ATOM     42  C   UNL A   1      49.999  26.080  28.689  1.00  0.00     0.134 A 
ATOM     43  F   UNL A   1      48.979  26.765  25.273  1.00  0.00    -0.206 F 
ATOM     44  C   UNL A   1      51.076  26.158  26.132  1.00  0.00     0.040 A 
ATOM     45  C   UNL A   1      51.354  25.805  28.496  1.00  0.00     0.040 A 
ATOM     46  F   UNL A   1      49.524  26.036  29.944  1.00  0.00    -0.206 F 
ATOM     47  C   UNL A   1      51.896  25.841  27.214  1.00  0.00     0.006 A 
ENDBRANCH  26  40
BRANCH  27  48
ATOM     48  C   UNL A   1      39.554  28.692  29.153  1.00  0.00     0.057 A 
ATOM     49  C   UNL A   1      38.725  29.207  28.151  1.00  0.00     0.134 A 
ATOM     50  C   UNL A   1      38.996  28.520  30.426  1.00  0.00     0.134 A 
ATOM     51  F   UNL A   1      39.205  29.410  26.915  1.00  0.00    -0.206 F 
ATOM     52  C   UNL A   1      37.403  29.569  28.412  1.00  0.00     0.040 A 
ATOM     53  C   UNL A   1      37.665  28.842  30.692  1.00  0.00     0.040 A 
ATOM     54  F   UNL A   1      39.734  28.020  31.429  1.00  0.00    -0.206 F 
ATOM     55  C   UNL A   1      36.868  29.381  29.685  1.00  0.00     0.006 A 
ENDBRANCH  27  48
BRANCH  39  56
ATOM     56  C   UNL A   1      45.464  32.335  29.503  1.00  0.00     0.057 A 
ATOM     57  C   UNL A   1      45.715  32.751  30.817  1.00  0.00     0.134 A 
ATOM     58  C   UNL A   1      45.468  33.316  28.503  1.00  0.00     0.134 A 
ATOM     59  F   UNL A   1      45.711  31.865  31.824  1.00  0.00    -0.206 F 
ATOM     60  C   UNL A   1      45.915  34.097  31.132  1.00  0.00     0.040 A 
ATOM     61  C   UNL A   1      45.700  34.660  28.801  1.00  0.00     0.040 A 
ATOM     62  F   UNL A   1      45.245  32.986  27.222  1.00  0.00    -0.206 F 
ATOM     63  C   UNL A   1      45.911  35.055  30.120  1.00  0.00     0.006 A 
ENDBRANCH  39  56
ENDBRANCH  13  14
ENDBRANCH   6   8
ENDBRANCH   3   4
ENDBRANCH   2   3
ENDBRANCH   1   2
BRANCH   1  64
ATOM     64  C   UNL A   1      36.428  21.670  25.950  1.00  0.00     0.116 C 
BRANCH  64  65
ATOM     65  N   UNL A   1      35.990  23.043  25.776  1.00  0.00    -0.356 N 
ATOM     66  C   UNL A   1      34.868  23.571  25.201  1.00  0.00     0.224 C 
ATOM     67  H   UNL A   1      36.614  23.714  26.137  1.00  0.00     0.163 HD
ATOM     68  O   UNL A   1      34.775  24.803  25.241  1.00  0.00    -0.275 OA
BRANCH  66  69
ATOM     69  C   UNL A   1      33.861  22.757  24.383  1.00  0.00     0.096 C 
ATOM     70  C   UNL A   1      33.158  23.564  23.264  1.00  0.00     0.015 C 
ATOM     71  C   UNL A   1      32.808  21.862  25.047  1.00  0.00     0.082 C 
ATOM     72  C   UNL A   1      32.579  22.633  22.187  1.00  0.00     0.001 C 
ATOM     73  C   UNL A   1      32.469  20.789  23.976  1.00  0.00     0.021 C 
ATOM     74  C   UNL A   1      31.843  21.398  22.720  1.00  0.00     0.002 C 
BRANCH  71  75
ATOM     75  N   UNL A   1      31.542  22.560  25.399  1.00  0.00    -0.207 NA
ATOM     76  H   UNL A   1      30.861  21.815  25.546  1.00  0.00     0.141 HD
BRANCH  75  77
ATOM     77  S   UNL A   1      31.311  23.623  26.676  1.00  0.00     0.240 S 
ATOM     78  O   UNL A   1      29.962  23.348  27.135  1.00  0.00    -0.207 OA
ATOM     79  O   UNL A   1      32.422  23.468  27.580  1.00  0.00    -0.207 OA
BRANCH  77  80
ATOM     80  C   UNL A   1      31.298  25.272  26.002  1.00  0.00     0.083 A 
ATOM     81  C   UNL A   1      32.171  26.235  26.504  1.00  0.00     0.022 A 
ATOM     82  C   UNL A   1      30.493  25.594  24.906  1.00  0.00     0.030 A 
ATOM     83  C   UNL A   1      32.156  27.533  25.975  1.00  0.00     0.010 A 
ATOM     84  C   UNL A   1      30.394  26.916  24.427  1.00  0.00    -0.017 A 
ATOM     85  C   UNL A   1      31.241  27.901  24.974  1.00  0.00    -0.018 A 
ATOM     86  C   UNL A   1      29.439  27.296  23.462  1.00  0.00     0.009 A 
ATOM     87  C   UNL A   1      31.127  29.229  24.525  1.00  0.00     0.009 A 
ATOM     88  C   UNL A   1      29.298  28.629  23.072  1.00  0.00     0.001 A 
ATOM     89  C   UNL A   1      30.149  29.595  23.597  1.00  0.00     0.001 A 
ENDBRANCH  77  80
ENDBRANCH  75  77
ENDBRANCH  71  75
ENDBRANCH  66  69
ENDBRANCH  64  65
ENDBRANCH   1  64
TORSDOF 14
ENDMDL
MODEL 3
REMARK VINA RESULT:     -12.8      4.348      9.300
REMARK SMILES O=C(NCCCCNC(=O)[C@@H]1CCCC[C@@H]1NS(=O)(=O)c1ccc2ccccc2c1)c1ccc(-c2c3nc(c(-c4c(F)cccc4F)c4ccc([nH]4)c(-c4c(F)cccc4F)c4nc(c(-c5c(F)cccc5F)c5ccc2[nH]5)C=C4)C=C3)cc1
REMARK SMILES IDX 6 1 5 2 4 3 3 4 1 5 2 6 31 8 32 9 84 10 33 11 83 12 34 13
REMARK SMILES IDX 35 14 36 15 77 16 37 17 82 18 76 19 78 20 38 21 81 22 75 23
REMARK SMILES IDX 74 24 39 26 65 27 48 28 64 29 49 30 52 31 63 32 79 33 50 34
REMARK SMILES IDX 51 35 62 37 80 38 53 39 40 40 41 41 46 42 42 43 43 44 45 45
REMARK SMILES IDX 47 46 44 47 66 48 67 49 72 50 68 51 69 52 71 53 73 54 70 55
REMARK SMILES IDX 54 56 55 57 60 58 56 59 57 60 59 61 61 62 58 63 7 64 8 65
REMARK SMILES IDX 9 66 10 68 11 69 12 70 16 71 13 72 15 73 14 74 17 75 18 77
REMARK SMILES IDX 19 78 20 79 21 80 22 81 30 82 23 83 29 84 24 85 28 86 25 87
REMARK SMILES IDX 27 88 26 89
REMARK H PARENT 3 7 78 25 52 36 8 67 17 76
REMARK Flexibility Score: inf
ROOT
ATOM      1  C   UNL A   1      37.008  21.772  24.102  1.00  0.00     0.023 C 
ENDROOT
BRANCH   1   2
ATOM      2  C   UNL A   1      37.536  20.533  24.835  1.00  0.00     0.023 C 
BRANCH   2   3
ATOM      3  C   UNL A   1      38.732  20.683  25.774  1.00  0.00     0.116 C 
BRANCH   3   4
ATOM      4  N   UNL A   1      39.750  19.649  25.670  1.00  0.00    -0.352 N 
ATOM      5  O   UNL A   1      41.837  18.765  25.817  1.00  0.00    -0.269 OA
ATOM      6  C   UNL A   1      41.085  19.715  26.007  1.00  0.00     0.251 C 
ATOM      7  H   UNL A   1      39.444  18.786  25.311  1.00  0.00     0.163 HD
BRANCH   6   8
ATOM      8  C   UNL A   1      41.614  20.971  26.578  1.00  0.00     0.039 A 
ATOM      9  C   UNL A   1      41.567  21.176  27.957  1.00  0.00     0.014 A 
ATOM     10  C   UNL A   1      42.095  21.973  25.729  1.00  0.00     0.014 A 
ATOM     11  C   UNL A   1      41.825  22.442  28.466  1.00  0.00     0.010 A 
ATOM     12  C   UNL A   1      42.449  23.218  26.259  1.00  0.00     0.010 A 
ATOM     13  C   UNL A   1      42.278  23.479  27.628  1.00  0.00    -0.014 A 
BRANCH  13  14
ATOM     14  C   UNL A   1      42.622  24.792  28.238  1.00  0.00     0.031 A 
ATOM     15  C   UNL A   1      44.036  25.155  28.606  1.00  0.00     0.074 A 
ATOM     16  C   UNL A   1      41.634  25.694  28.398  1.00  0.00     0.049 A 
ATOM     17  N   UNL A   1      44.496  26.287  29.083  1.00  0.00    -0.248 NA
ATOM     18  C   UNL A   1      45.068  24.122  28.425  1.00  0.00     0.031 C 
ATOM     19  C   UNL A   1      40.220  25.453  28.098  1.00  0.00     0.029 A 
ATOM     20  N   UNL A   1      41.663  26.998  28.822  1.00  0.00    -0.354 N 
ATOM     21  C   UNL A   1      45.863  26.105  29.260  1.00  0.00     0.074 A 
ATOM     22  C   UNL A   1      46.154  24.739  28.876  1.00  0.00     0.031 C 
ATOM     23  C   UNL A   1      39.529  26.583  28.290  1.00  0.00     0.029 A 
ATOM     24  C   UNL A   1      40.432  27.608  28.798  1.00  0.00     0.049 A 
ATOM     25  H   UNL A   1      42.486  27.454  29.113  1.00  0.00     0.167 HD
ATOM     26  C   UNL A   1      46.789  26.997  29.690  1.00  0.00     0.037 A 
ATOM     27  C   UNL A   1      40.060  28.847  29.165  1.00  0.00     0.037 A 
ATOM     28  C   UNL A   1      46.493  28.357  30.075  1.00  0.00     0.049 A 
ATOM     29  C   UNL A   1      41.104  29.800  29.668  1.00  0.00     0.074 A 
ATOM     30  C   UNL A   1      47.366  29.339  30.512  1.00  0.00     0.029 A 
ATOM     31  N   UNL A   1      45.227  28.926  30.072  1.00  0.00    -0.354 N 
ATOM     32  N   UNL A   1      42.395  29.619  29.797  1.00  0.00    -0.248 NA
ATOM     33  C   UNL A   1      40.637  31.131  30.077  1.00  0.00     0.031 C 
ATOM     34  C   UNL A   1      46.624  30.484  30.822  1.00  0.00     0.029 A 
ATOM     35  C   UNL A   1      45.296  30.237  30.519  1.00  0.00     0.049 A 
ATOM     36  H   UNL A   1      44.403  28.467  29.793  1.00  0.00     0.167 HD
ATOM     37  C   UNL A   1      42.897  30.817  30.287  1.00  0.00     0.074 A 
ATOM     38  C   UNL A   1      41.776  31.727  30.395  1.00  0.00     0.031 C 
ATOM     39  C   UNL A   1      44.170  31.131  30.629  1.00  0.00     0.037 A 
BRANCH  26  40
ATOM     40  C   UNL A   1      48.220  26.542  29.775  1.00  0.00     0.057 A 
ATOM     41  C   UNL A   1      48.708  25.848  30.890  1.00  0.00     0.134 A 
ATOM     42  C   UNL A   1      49.099  26.727  28.699  1.00  0.00     0.134 A 
ATOM     43  F   UNL A   1      47.925  25.640  31.959  1.00  0.00    -0.206 F 
ATOM     44  C   UNL A   1      50.019  25.367  30.937  1.00  0.00     0.040 A 
ATOM     45  C   UNL A   1      50.403  26.229  28.723  1.00  0.00     0.040 A 
ATOM     46  F   UNL A   1      48.696  27.373  27.594  1.00  0.00    -0.206 F 
ATOM     47  C   UNL A   1      50.867  25.548  29.846  1.00  0.00     0.006 A 
ENDBRANCH  26  40
BRANCH  27  48
ATOM     48  C   UNL A   1      38.630  29.243  29.099  1.00  0.00     0.057 A 
ATOM     49  C   UNL A   1      38.043  29.677  27.906  1.00  0.00     0.134 A 
ATOM     50  C   UNL A   1      37.819  29.214  30.242  1.00  0.00     0.134 A 
ATOM     51  F   UNL A   1      38.769  29.743  26.780  1.00  0.00    -0.206 F 
ATOM     52  C   UNL A   1      36.713  30.097  27.856  1.00  0.00     0.040 A 
ATOM     53  C   UNL A   1      36.479  29.595  30.199  1.00  0.00     0.040 A 
ATOM     54  F   UNL A   1      38.318  28.799  31.416  1.00  0.00    -0.206 F 
ATOM     55  C   UNL A   1      35.926  30.051  29.005  1.00  0.00     0.006 A 
ENDBRANCH  27  48
BRANCH  39  56
ATOM     56  C   UNL A   1      44.410  32.529  31.126  1.00  0.00     0.057 A 
ATOM     57  C   UNL A   1      44.716  33.582  30.254  1.00  0.00     0.134 A 
ATOM     58  C   UNL A   1      44.346  32.821  32.494  1.00  0.00     0.134 A 
ATOM     59  F   UNL A   1      44.807  33.368  28.933  1.00  0.00    -0.206 F 
ATOM     60  C   UNL A   1      44.993  34.867  30.728  1.00  0.00     0.040 A 
ATOM     61  C   UNL A   1      44.588  34.109  32.977  1.00  0.00     0.040 A 
ATOM     62  F   UNL A   1      44.050  31.863  33.384  1.00  0.00    -0.206 F 
ATOM     63  C   UNL A   1      44.925  35.132  32.094  1.00  0.00     0.006 A 
ENDBRANCH  39  56
ENDBRANCH  13  14
ENDBRANCH   6   8
ENDBRANCH   3   4
ENDBRANCH   2   3
ENDBRANCH   1   2
BRANCH   1  64
ATOM     64  C   UNL A   1      36.564  22.961  24.952  1.00  0.00     0.116 C 
BRANCH  64  65
ATOM     65  N   UNL A   1      35.581  23.838  24.343  1.00  0.00    -0.356 N 
ATOM     66  C   UNL A   1      34.277  23.632  23.990  1.00  0.00     0.224 C 
ATOM     67  H   UNL A   1      35.914  24.744  24.150  1.00  0.00     0.163 HD
ATOM     68  O   UNL A   1      33.690  24.610  23.511  1.00  0.00    -0.275 OA
BRANCH  66  69
ATOM     69  C   UNL A   1      33.598  22.259  23.985  1.00  0.00     0.096 C 
ATOM     70  C   UNL A   1      32.455  22.124  22.949  1.00  0.00     0.015 C 
ATOM     71  C   UNL A   1      33.140  21.574  25.278  1.00  0.00     0.082 C 
ATOM     72  C   UNL A   1      32.167  20.649  22.628  1.00  0.00     0.001 C 
ATOM     73  C   UNL A   1      33.127  20.058  24.939  1.00  0.00     0.021 C 
ATOM     74  C   UNL A   1      32.116  19.715  23.843  1.00  0.00     0.002 C 
BRANCH  71  75
ATOM     75  N   UNL A   1      31.769  21.946  25.719  1.00  0.00    -0.207 NA
ATOM     76  H   UNL A   1      31.341  21.072  26.024  1.00  0.00     0.141 HD
BRANCH  75  77
ATOM     77  S   UNL A   1      31.372  23.064  26.906  1.00  0.00     0.240 S 
ATOM     78  O   UNL A   1      29.994  22.756  27.244  1.00  0.00    -0.207 OA
ATOM     79  O   UNL A   1      32.391  23.004  27.922  1.00  0.00    -0.207 OA
BRANCH  77  80
ATOM     80  C   UNL A   1      31.364  24.674  26.142  1.00  0.00     0.083 A 
ATOM     81  C   UNL A   1      32.329  25.615  26.496  1.00  0.00     0.022 A 
ATOM     82  C   UNL A   1      30.466  24.979  25.116  1.00  0.00     0.030 A 
ATOM     83  C   UNL A   1      32.319  26.882  25.897  1.00  0.00     0.010 A 
ATOM     84  C   UNL A   1      30.379  26.277  24.574  1.00  0.00    -0.017 A 
ATOM     85  C   UNL A   1      31.323  27.244  24.974  1.00  0.00    -0.018 A 
ATOM     86  C   UNL A   1      29.348  26.654  23.690  1.00  0.00     0.009 A 
ATOM     87  C   UNL A   1      31.225  28.551  24.463  1.00  0.00     0.009 A 
ATOM     88  C   UNL A   1      29.229  27.970  23.239  1.00  0.00     0.001 A 
ATOM     89  C   UNL A   1      30.174  28.917  23.618  1.00  0.00     0.001 A 
ENDBRANCH  77  80
ENDBRANCH  75  77
ENDBRANCH  71  75
ENDBRANCH  66  69
ENDBRANCH  64  65
ENDBRANCH   1  64
TORSDOF 14
ENDMDL
