MODEL 1
REMARK VINA RESULT:     -10.6      0.000      0.000
REMARK SMILES C[C@H](C1CCCC1)[N@@H+](CC(=O)NCCCCNC(=O)c1ccc(-c2c3nc(c(-c4c(F)cccc4F)c4ccc([nH]4)c(-c4c(F)cccc4F)c4nc(c(-c5c(F)cccc5F)c5ccc2[nH]5)C=C4)C=C3)cc1)CC(F)(F)F
REMARK SMILES IDX 14 1 13 2 12 3 10 4 11 5 9 7 8 8 2 10 1 11 3 12 4 13 7 14
REMARK SMILES IDX 5 15 6 16 74 17 75 18 76 19 77 20 78 21 15 22 16 23 17 24
REMARK SMILES IDX 18 25 19 27 20 28 21 29 73 30 22 31 72 32 23 33 24 34 25 35
REMARK SMILES IDX 66 36 26 37 71 38 65 39 67 40 27 41 70 42 64 43 63 44 28 46
REMARK SMILES IDX 54 47 37 48 53 49 38 50 41 51 52 52 68 53 39 54 40 55 51 57
REMARK SMILES IDX 69 58 42 59 29 60 30 61 35 62 31 63 32 64 34 65 36 66 33 67
REMARK SMILES IDX 55 68 56 69 61 70 57 71 58 72 60 73 62 74 59 75 43 76 44 77
REMARK SMILES IDX 49 78 45 79 46 80 48 81 50 82 47 83
REMARK H PARENT 12 6 8 9 17 26 67 45 41 56
REMARK Flexibility Score: inf
ROOT
ATOM      1  C   UNL A   1      31.320  30.530  25.705  1.00  0.00     0.023 C 
ENDROOT
BRANCH   1   2
ATOM      2  C   UNL A   1      32.714  29.899  25.672  1.00  0.00     0.116 C 
BRANCH   2   3
ATOM      3  N   UNL A   1      33.287  29.704  24.353  1.00  0.00    -0.351 N 
ATOM      4  C   UNL A   1      33.695  28.586  23.679  1.00  0.00     0.275 C 
ATOM      5  O   UNL A   1      33.902  28.719  22.470  1.00  0.00    -0.269 OA
ATOM      6  H   UNL A   1      33.405  30.539  23.843  1.00  0.00     0.163 HD
BRANCH   4   7
ATOM      7  C   UNL A   1      33.880  27.223  24.368  1.00  0.00     0.364 C 
BRANCH   7   8
ATOM      8  N   UNL A   1      32.960  26.129  23.938  1.00  0.00    -0.317 N 
ATOM      9  H   UNL A   1      32.963  25.450  24.699  1.00  0.00     0.349 HD
BRANCH   8  10
ATOM     10  C   UNL A   1      33.485  25.315  22.847  1.00  0.00     0.184 C 
ATOM     11  C   UNL A   1      32.811  25.560  21.488  1.00  0.00     0.075 C 
BRANCH  10  12
ATOM     12  C   UNL A   1      33.667  23.785  23.032  1.00  0.00     0.047 C 
ATOM     13  C   UNL A   1      34.002  23.449  24.504  1.00  0.00     0.010 C 
ATOM     14  C   UNL A   1      32.468  22.870  22.816  1.00  0.00     0.010 C 
ATOM     15  C   UNL A   1      33.853  21.944  24.615  1.00  0.00     0.001 C 
ATOM     16  C   UNL A   1      32.902  21.558  23.483  1.00  0.00     0.001 C 
ENDBRANCH  10  12
ENDBRANCH   8  10
BRANCH   8  17
ATOM     17  C   UNL A   1      31.515  26.428  23.992  1.00  0.00     0.379 C 
BRANCH  17  18
ATOM     18  C   UNL A   1      30.406  25.465  24.478  1.00  0.00     0.438 C 
ATOM     19  F   UNL A   1      30.893  24.491  25.277  1.00  0.00    -0.165 F 
ATOM     20  F   UNL A   1      29.505  26.154  25.226  1.00  0.00    -0.165 F 
ATOM     21  F   UNL A   1      29.725  24.885  23.478  1.00  0.00    -0.165 F 
ENDBRANCH  17  18
ENDBRANCH   8  17
ENDBRANCH   7   8
ENDBRANCH   4   7
ENDBRANCH   2   3
ENDBRANCH   1   2
BRANCH   1  22
ATOM     22  C   UNL A   1      31.170  31.848  26.454  1.00  0.00     0.023 C 
BRANCH  22  23
ATOM     23  C   UNL A   1      32.499  32.414  26.881  1.00  0.00     0.116 C 
BRANCH  23  24
ATOM     24  N   UNL A   1      32.368  33.793  27.349  1.00  0.00    -0.352 N 
ATOM     25  C   UNL A   1      33.052  34.440  28.343  1.00  0.00     0.251 C 
ATOM     26  H   UNL A   1      31.690  34.334  26.883  1.00  0.00     0.163 HD
ATOM     27  O   UNL A   1      32.676  35.538  28.746  1.00  0.00    -0.269 OA
BRANCH  25  28
ATOM     28  C   UNL A   1      34.230  33.787  28.931  1.00  0.00     0.039 A 
ATOM     29  C   UNL A   1      35.504  34.283  28.649  1.00  0.00     0.014 A 
ATOM     30  C   UNL A   1      34.058  32.711  29.804  1.00  0.00     0.014 A 
ATOM     31  C   UNL A   1      36.604  33.718  29.286  1.00  0.00     0.010 A 
ATOM     32  C   UNL A   1      35.129  32.257  30.546  1.00  0.00     0.010 A 
ATOM     33  C   UNL A   1      36.417  32.724  30.260  1.00  0.00    -0.014 A 
BRANCH  33  34
ATOM     34  C   UNL A   1      37.555  32.091  30.955  1.00  0.00     0.031 A 
ATOM     35  C   UNL A   1      38.329  31.011  30.252  1.00  0.00     0.074 A 
ATOM     36  C   UNL A   1      37.826  32.433  32.227  1.00  0.00     0.049 A 
ATOM     37  N   UNL A   1      39.296  30.258  30.705  1.00  0.00    -0.248 NA
ATOM     38  C   UNL A   1      37.929  30.698  28.866  1.00  0.00     0.031 C 
ATOM     39  C   UNL A   1      37.086  33.419  33.017  1.00  0.00     0.029 A 
ATOM     40  N   UNL A   1      38.794  31.980  33.081  1.00  0.00    -0.354 N 
ATOM     41  C   UNL A   1      39.595  29.375  29.675  1.00  0.00     0.074 A 
ATOM     42  C   UNL A   1      38.658  29.626  28.607  1.00  0.00     0.031 C 
ATOM     43  C   UNL A   1      37.654  33.524  34.230  1.00  0.00     0.029 A 
ATOM     44  C   UNL A   1      38.763  32.583  34.315  1.00  0.00     0.049 A 
ATOM     45  H   UNL A   1      39.452  31.289  32.835  1.00  0.00     0.167 HD
ATOM     46  C   UNL A   1      40.591  28.463  29.614  1.00  0.00     0.037 A 
ATOM     47  C   UNL A   1      39.546  32.386  35.390  1.00  0.00     0.037 A 
ATOM     48  C   UNL A   1      41.540  28.259  30.673  1.00  0.00     0.049 A 
ATOM     49  C   UNL A   1      40.656  31.377  35.292  1.00  0.00     0.074 A 
ATOM     50  C   UNL A   1      42.635  27.417  30.701  1.00  0.00     0.029 A 
ATOM     51  N   UNL A   1      41.499  28.912  31.897  1.00  0.00    -0.354 N 
ATOM     52  N   UNL A   1      40.984  30.603  34.284  1.00  0.00    -0.248 NA
ATOM     53  C   UNL A   1      41.509  31.217  36.476  1.00  0.00     0.031 C 
ATOM     54  C   UNL A   1      43.228  27.522  31.963  1.00  0.00     0.029 A 
ATOM     55  C   UNL A   1      42.537  28.473  32.699  1.00  0.00     0.049 A 
ATOM     56  H   UNL A   1      40.831  29.587  32.156  1.00  0.00     0.167 HD
ATOM     57  C   UNL A   1      42.098  29.886  34.701  1.00  0.00     0.074 A 
ATOM     58  C   UNL A   1      42.397  30.331  36.047  1.00  0.00     0.031 C 
ATOM     59  C   UNL A   1      42.811  28.944  34.034  1.00  0.00     0.037 A 
BRANCH  46  60
ATOM     60  C   UNL A   1      40.700  27.637  28.364  1.00  0.00     0.057 A 
ATOM     61  C   UNL A   1      41.464  28.050  27.262  1.00  0.00     0.134 A 
ATOM     62  C   UNL A   1      40.040  26.406  28.262  1.00  0.00     0.134 A 
ATOM     63  F   UNL A   1      42.108  29.227  27.284  1.00  0.00    -0.206 F 
ATOM     64  C   UNL A   1      41.540  27.288  26.095  1.00  0.00     0.040 A 
ATOM     65  C   UNL A   1      40.135  25.619  27.113  1.00  0.00     0.040 A 
ATOM     66  F   UNL A   1      39.292  25.948  29.276  1.00  0.00    -0.206 F 
ATOM     67  C   UNL A   1      40.879  26.063  26.021  1.00  0.00     0.006 A 
ENDBRANCH  46  60
BRANCH  47  68
ATOM     68  C   UNL A   1      39.325  33.178  36.627  1.00  0.00     0.057 A 
ATOM     69  C   UNL A   1      38.453  32.730  37.625  1.00  0.00     0.134 A 
ATOM     70  C   UNL A   1      39.984  34.393  36.846  1.00  0.00     0.134 A 
ATOM     71  F   UNL A   1      37.785  31.577  37.470  1.00  0.00    -0.206 F 
ATOM     72  C   UNL A   1      38.225  33.472  38.785  1.00  0.00     0.040 A 
ATOM     73  C   UNL A   1      39.787  35.132  38.013  1.00  0.00     0.040 A 
ATOM     74  F   UNL A   1      40.846  34.871  35.935  1.00  0.00    -0.206 F 
ATOM     75  C   UNL A   1      38.897  34.675  38.984  1.00  0.00     0.006 A 
ENDBRANCH  47  68
BRANCH  59  76
ATOM     76  C   UNL A   1      44.000  28.363  34.739  1.00  0.00     0.057 A 
ATOM     77  C   UNL A   1      43.910  27.190  35.497  1.00  0.00     0.134 A 
ATOM     78  C   UNL A   1      45.260  28.961  34.613  1.00  0.00     0.134 A 
ATOM     79  F   UNL A   1      42.729  26.576  35.665  1.00  0.00    -0.206 F 
ATOM     80  C   UNL A   1      45.029  26.645  36.127  1.00  0.00     0.040 A 
ATOM     81  C   UNL A   1      46.391  28.408  35.211  1.00  0.00     0.040 A 
ATOM     82  F   UNL A   1      45.415  30.081  33.889  1.00  0.00    -0.206 F 
ATOM     83  C   UNL A   1      46.275  27.250  35.976  1.00  0.00     0.006 A 
ENDBRANCH  59  76
ENDBRANCH  33  34
ENDBRANCH  25  28
ENDBRANCH  23  24
ENDBRANCH  22  23
ENDBRANCH   1  22
TORSDOF 16
ENDMDL
MODEL 2
REMARK VINA RESULT:     -10.5      1.712      6.855
REMARK SMILES C[C@H](C1CCCC1)[N@@H+](CC(=O)NCCCCNC(=O)c1ccc(-c2c3nc(c(-c4c(F)cccc4F)c4ccc([nH]4)c(-c4c(F)cccc4F)c4nc(c(-c5c(F)cccc5F)c5ccc2[nH]5)C=C4)C=C3)cc1)CC(F)(F)F
REMARK SMILES IDX 14 1 13 2 12 3 10 4 11 5 9 7 8 8 2 10 1 11 3 12 4 13 7 14
REMARK SMILES IDX 5 15 6 16 74 17 75 18 76 19 77 20 78 21 15 22 16 23 17 24
REMARK SMILES IDX 18 25 19 27 20 28 21 29 73 30 22 31 72 32 23 33 24 34 25 35
REMARK SMILES IDX 66 36 26 37 71 38 65 39 67 40 27 41 70 42 64 43 63 44 28 46
REMARK SMILES IDX 54 47 37 48 53 49 38 50 41 51 52 52 68 53 39 54 40 55 51 57
REMARK SMILES IDX 69 58 42 59 29 60 30 61 35 62 31 63 32 64 34 65 36 66 33 67
REMARK SMILES IDX 55 68 56 69 61 70 57 71 58 72 60 73 62 74 59 75 43 76 44 77
REMARK SMILES IDX 49 78 45 79 46 80 48 81 50 82 47 83
REMARK H PARENT 12 6 8 9 17 26 67 45 41 56
REMARK Flexibility Score: inf
ROOT
ATOM      1  C   UNL A   1      31.358  30.760  26.526  1.00  0.00     0.023 C 
ENDROOT
BRANCH   1   2
ATOM      2  C   UNL A   1      32.693  30.015  26.450  1.00  0.00     0.116 C 
BRANCH   2   3
ATOM      3  N   UNL A   1      33.273  29.893  25.125  1.00  0.00    -0.351 N 
ATOM      4  C   UNL A   1      33.131  28.956  24.138  1.00  0.00     0.275 C 
ATOM      5  O   UNL A   1      33.559  29.265  23.023  1.00  0.00    -0.269 OA
ATOM      6  H   UNL A   1      33.887  30.626  24.889  1.00  0.00     0.163 HD
BRANCH   4   7
ATOM      7  C   UNL A   1      32.468  27.589  24.379  1.00  0.00     0.364 C 
BRANCH   7   8
ATOM      8  N   UNL A   1      31.413  27.179  23.406  1.00  0.00    -0.317 N 
ATOM      9  H   UNL A   1      31.585  27.729  22.564  1.00  0.00     0.349 HD
BRANCH   8  10
ATOM     10  C   UNL A   1      30.076  27.640  23.760  1.00  0.00     0.184 C 
ATOM     11  C   UNL A   1      29.019  26.527  23.846  1.00  0.00     0.075 C 
BRANCH  10  12
ATOM     12  C   UNL A   1      29.447  28.853  23.024  1.00  0.00     0.047 C 
ATOM     13  C   UNL A   1      27.904  28.806  23.114  1.00  0.00     0.010 C 
ATOM     14  C   UNL A   1      29.704  30.255  23.563  1.00  0.00     0.010 C 
ATOM     15  C   UNL A   1      27.435  30.168  22.638  1.00  0.00     0.001 C 
ATOM     16  C   UNL A   1      28.622  31.098  22.876  1.00  0.00     0.001 C 
ENDBRANCH  10  12
ENDBRANCH   8  10
BRANCH   8  17
ATOM     17  C   UNL A   1      31.583  25.855  22.774  1.00  0.00     0.379 C 
BRANCH  17  18
ATOM     18  C   UNL A   1      32.480  25.540  21.554  1.00  0.00     0.438 C 
ATOM     19  F   UNL A   1      32.837  24.239  21.508  1.00  0.00    -0.165 F 
ATOM     20  F   UNL A   1      31.789  25.784  20.410  1.00  0.00    -0.165 F 
ATOM     21  F   UNL A   1      33.596  26.283  21.504  1.00  0.00    -0.165 F 
ENDBRANCH  17  18
ENDBRANCH   8  17
ENDBRANCH   7   8
ENDBRANCH   4   7
ENDBRANCH   2   3
ENDBRANCH   1   2
BRANCH   1  22
ATOM     22  C   UNL A   1      31.411  32.282  26.534  1.00  0.00     0.023 C 
BRANCH  22  23
ATOM     23  C   UNL A   1      32.651  32.806  27.209  1.00  0.00     0.116 C 
BRANCH  23  24
ATOM     24  N   UNL A   1      32.461  34.172  27.693  1.00  0.00    -0.352 N 
ATOM     25  C   UNL A   1      33.105  34.830  28.707  1.00  0.00     0.251 C 
ATOM     26  H   UNL A   1      31.771  34.694  27.224  1.00  0.00     0.163 HD
ATOM     27  O   UNL A   1      32.681  35.908  29.118  1.00  0.00    -0.269 OA
BRANCH  25  28
ATOM     28  C   UNL A   1      34.297  34.214  29.305  1.00  0.00     0.039 A 
ATOM     29  C   UNL A   1      34.157  33.376  30.412  1.00  0.00     0.014 A 
ATOM     30  C   UNL A   1      35.550  34.434  28.729  1.00  0.00     0.014 A 
ATOM     31  C   UNL A   1      35.279  32.722  30.910  1.00  0.00     0.010 A 
ATOM     32  C   UNL A   1      36.627  33.670  29.127  1.00  0.00     0.010 A 
ATOM     33  C   UNL A   1      36.512  32.843  30.250  1.00  0.00    -0.014 A 
BRANCH  33  34
ATOM     34  C   UNL A   1      37.731  32.175  30.748  1.00  0.00     0.031 A 
ATOM     35  C   UNL A   1      38.441  32.749  31.941  1.00  0.00     0.074 A 
ATOM     36  C   UNL A   1      38.225  31.117  30.079  1.00  0.00     0.049 A 
ATOM     37  N   UNL A   1      39.572  32.384  32.484  1.00  0.00    -0.248 NA
ATOM     38  C   UNL A   1      37.823  33.925  32.583  1.00  0.00     0.031 C 
ATOM     39  C   UNL A   1      37.646  30.532  28.868  1.00  0.00     0.029 A 
ATOM     40  N   UNL A   1      39.335  30.355  30.320  1.00  0.00    -0.354 N 
ATOM     41  C   UNL A   1      39.807  33.297  33.505  1.00  0.00     0.074 A 
ATOM     42  C   UNL A   1      38.752  34.280  33.456  1.00  0.00     0.031 C 
ATOM     43  C   UNL A   1      38.386  29.475  28.494  1.00  0.00     0.029 A 
ATOM     44  C   UNL A   1      39.512  29.341  29.410  1.00  0.00     0.049 A 
ATOM     45  H   UNL A   1      39.949  30.516  31.073  1.00  0.00     0.167 HD
ATOM     46  C   UNL A   1      40.797  33.291  34.426  1.00  0.00     0.037 A 
ATOM     47  C   UNL A   1      40.482  28.413  29.332  1.00  0.00     0.037 A 
ATOM     48  C   UNL A   1      41.815  32.279  34.482  1.00  0.00     0.049 A 
ATOM     49  C   UNL A   1      41.563  28.418  30.376  1.00  0.00     0.074 A 
ATOM     50  C   UNL A   1      42.827  32.124  35.409  1.00  0.00     0.029 A 
ATOM     51  N   UNL A   1      41.943  31.245  33.565  1.00  0.00    -0.354 N 
ATOM     52  N   UNL A   1      41.732  29.236  31.387  1.00  0.00    -0.248 NA
ATOM     53  C   UNL A   1      42.583  27.367  30.274  1.00  0.00     0.031 C 
ATOM     54  C   UNL A   1      43.602  31.025  35.023  1.00  0.00     0.029 A 
ATOM     55  C   UNL A   1      43.036  30.461  33.890  1.00  0.00     0.049 A 
ATOM     56  H   UNL A   1      41.346  31.093  32.797  1.00  0.00     0.167 HD
ATOM     57  C   UNL A   1      42.861  28.785  32.059  1.00  0.00     0.074 A 
ATOM     58  C   UNL A   1      43.322  27.609  31.347  1.00  0.00     0.031 C 
ATOM     59  C   UNL A   1      43.463  29.292  33.163  1.00  0.00     0.037 A 
BRANCH  46  60
ATOM     60  C   UNL A   1      40.812  34.402  35.437  1.00  0.00     0.057 A 
ATOM     61  C   UNL A   1      41.516  35.596  35.222  1.00  0.00     0.134 A 
ATOM     62  C   UNL A   1      40.104  34.282  36.639  1.00  0.00     0.134 A 
ATOM     63  F   UNL A   1      42.231  35.771  34.100  1.00  0.00    -0.206 F 
ATOM     64  C   UNL A   1      41.544  36.613  36.178  1.00  0.00     0.040 A 
ATOM     65  C   UNL A   1      40.096  35.305  37.588  1.00  0.00     0.040 A 
ATOM     66  F   UNL A   1      39.408  33.169  36.912  1.00  0.00    -0.206 F 
ATOM     67  C   UNL A   1      40.825  36.472  37.363  1.00  0.00     0.006 A 
ENDBRANCH  46  60
BRANCH  47  68
ATOM     68  C   UNL A   1      40.453  27.395  28.251  1.00  0.00     0.057 A 
ATOM     69  C   UNL A   1      39.759  26.190  28.411  1.00  0.00     0.134 A 
ATOM     70  C   UNL A   1      41.107  27.604  27.030  1.00  0.00     0.134 A 
ATOM     71  F   UNL A   1      39.120  25.927  29.560  1.00  0.00    -0.206 F 
ATOM     72  C   UNL A   1      39.736  25.219  27.408  1.00  0.00     0.040 A 
ATOM     73  C   UNL A   1      41.070  26.653  26.009  1.00  0.00     0.040 A 
ATOM     74  F   UNL A   1      41.777  28.744  26.807  1.00  0.00    -0.206 F 
ATOM     75  C   UNL A   1      40.389  25.452  26.200  1.00  0.00     0.006 A 
ENDBRANCH  47  68
BRANCH  59  76
ATOM     76  C   UNL A   1      44.662  28.557  33.685  1.00  0.00     0.057 A 
ATOM     77  C   UNL A   1      45.964  28.892  33.294  1.00  0.00     0.134 A 
ATOM     78  C   UNL A   1      44.510  27.534  34.628  1.00  0.00     0.134 A 
ATOM     79  F   UNL A   1      46.174  29.856  32.384  1.00  0.00    -0.206 F 
ATOM     80  C   UNL A   1      47.072  28.218  33.806  1.00  0.00     0.040 A 
ATOM     81  C   UNL A   1      45.612  26.875  35.172  1.00  0.00     0.040 A 
ATOM     82  F   UNL A   1      43.288  27.174  35.054  1.00  0.00    -0.206 F 
ATOM     83  C   UNL A   1      46.897  27.213  34.755  1.00  0.00     0.006 A 
ENDBRANCH  59  76
ENDBRANCH  33  34
ENDBRANCH  25  28
ENDBRANCH  23  24
ENDBRANCH  22  23
ENDBRANCH   1  22
TORSDOF 16
ENDMDL
MODEL 3
REMARK VINA RESULT:     -10.5      5.164      9.913
REMARK SMILES C[C@H](C1CCCC1)[N@@H+](CC(=O)NCCCCNC(=O)c1ccc(-c2c3nc(c(-c4c(F)cccc4F)c4ccc([nH]4)c(-c4c(F)cccc4F)c4nc(c(-c5c(F)cccc5F)c5ccc2[nH]5)C=C4)C=C3)cc1)CC(F)(F)F
REMARK SMILES IDX 14 1 13 2 12 3 10 4 11 5 9 7 8 8 2 10 1 11 3 12 4 13 7 14
REMARK SMILES IDX 5 15 6 16 74 17 75 18 76 19 77 20 78 21 15 22 16 23 17 24
REMARK SMILES IDX 18 25 19 27 20 28 21 29 73 30 22 31 72 32 23 33 24 34 25 35
REMARK SMILES IDX 66 36 26 37 71 38 65 39 67 40 27 41 70 42 64 43 63 44 28 46
REMARK SMILES IDX 54 47 37 48 53 49 38 50 41 51 52 52 68 53 39 54 40 55 51 57
REMARK SMILES IDX 69 58 42 59 29 60 30 61 35 62 31 63 32 64 34 65 36 66 33 67
REMARK SMILES IDX 55 68 56 69 61 70 57 71 58 72 60 73 62 74 59 75 43 76 44 77
REMARK SMILES IDX 49 78 45 79 46 80 48 81 50 82 47 83
REMARK H PARENT 12 6 8 9 17 26 67 45 41 56
REMARK Flexibility Score: inf
ROOT
ATOM      1  C   UNL A   1      36.303  20.329  24.943  1.00  0.00     0.023 C 
ENDROOT
BRANCH   1   2
ATOM      2  C   UNL A   1      36.293  21.603  25.789  1.00  0.00     0.116 C 
BRANCH   2   3
ATOM      3  N   UNL A   1      35.338  21.627  26.883  1.00  0.00    -0.351 N 
ATOM      4  C   UNL A   1      34.159  22.296  27.064  1.00  0.00     0.275 C 
ATOM      5  O   UNL A   1      33.447  21.909  27.994  1.00  0.00    -0.269 OA
ATOM      6  H   UNL A   1      35.586  21.049  27.641  1.00  0.00     0.163 HD
BRANCH   4   7
ATOM      7  C   UNL A   1      33.718  23.462  26.162  1.00  0.00     0.364 C 
BRANCH   7   8
ATOM      8  N   UNL A   1      32.357  23.360  25.558  1.00  0.00    -0.317 N 
ATOM      9  H   UNL A   1      32.377  23.953  24.729  1.00  0.00     0.349 HD
BRANCH   8  10
ATOM     10  C   UNL A   1      31.318  24.021  26.339  1.00  0.00     0.184 C 
ATOM     11  C   UNL A   1      30.200  23.088  26.833  1.00  0.00     0.075 C 
BRANCH  10  12
ATOM     12  C   UNL A   1      30.666  25.330  25.820  1.00  0.00     0.047 C 
ATOM     13  C   UNL A   1      31.641  26.521  25.968  1.00  0.00     0.010 C 
ATOM     14  C   UNL A   1      30.325  25.446  24.340  1.00  0.00     0.010 C 
ATOM     15  C   UNL A   1      31.020  27.648  25.164  1.00  0.00     0.001 C 
ATOM     16  C   UNL A   1      30.120  26.953  24.143  1.00  0.00     0.001 C 
ENDBRANCH  10  12
ENDBRANCH   8  10
BRANCH   8  17
ATOM     17  C   UNL A   1      32.046  22.101  24.852  1.00  0.00     0.379 C 
BRANCH  17  18
ATOM     18  C   UNL A   1      32.809  21.533  23.632  1.00  0.00     0.438 C 
ATOM     19  F   UNL A   1      33.896  22.272  23.323  1.00  0.00    -0.165 F 
ATOM     20  F   UNL A   1      33.268  20.288  23.925  1.00  0.00    -0.165 F 
ATOM     21  F   UNL A   1      32.051  21.423  22.530  1.00  0.00    -0.165 F 
ENDBRANCH  17  18
ENDBRANCH   8  17
ENDBRANCH   7   8
ENDBRANCH   4   7
ENDBRANCH   2   3
ENDBRANCH   1   2
BRANCH   1  22
ATOM     22  C   UNL A   1      37.650  19.653  24.718  1.00  0.00     0.023 C 
BRANCH  22  23
ATOM     23  C   UNL A   1      38.698  20.136  25.686  1.00  0.00     0.116 C 
BRANCH  23  24
ATOM     24  N   UNL A   1      39.802  19.184  25.799  1.00  0.00    -0.352 N 
ATOM     25  C   UNL A   1      41.121  19.416  26.081  1.00  0.00     0.251 C 
ATOM     26  H   UNL A   1      39.562  18.241  25.651  1.00  0.00     0.163 HD
ATOM     27  O   UNL A   1      41.956  18.526  25.936  1.00  0.00    -0.269 OA
BRANCH  25  28
ATOM     28  C   UNL A   1      41.522  20.754  26.539  1.00  0.00     0.039 A 
ATOM     29  C   UNL A   1      41.692  20.991  27.904  1.00  0.00     0.014 A 
ATOM     30  C   UNL A   1      41.776  21.757  25.601  1.00  0.00     0.014 A 
ATOM     31  C   UNL A   1      42.164  22.233  28.319  1.00  0.00     0.010 A 
ATOM     32  C   UNL A   1      42.386  22.927  26.003  1.00  0.00     0.010 A 
ATOM     33  C   UNL A   1      42.541  23.194  27.368  1.00  0.00    -0.014 A 
BRANCH  33  34
ATOM     34  C   UNL A   1      43.039  24.526  27.763  1.00  0.00     0.031 A 
ATOM     35  C   UNL A   1      42.048  25.587  28.154  1.00  0.00     0.074 A 
ATOM     36  C   UNL A   1      44.356  24.789  27.688  1.00  0.00     0.049 A 
ATOM     37  N   UNL A   1      42.255  26.845  28.440  1.00  0.00    -0.248 NA
ATOM     38  C   UNL A   1      40.626  25.196  28.177  1.00  0.00     0.031 C 
ATOM     39  C   UNL A   1      45.387  23.845  27.251  1.00  0.00     0.029 A 
ATOM     40  N   UNL A   1      45.050  25.935  27.969  1.00  0.00    -0.354 N 
ATOM     41  C   UNL A   1      40.995  27.391  28.649  1.00  0.00     0.074 A 
ATOM     42  C   UNL A   1      40.026  26.357  28.377  1.00  0.00     0.031 C 
ATOM     43  C   UNL A   1      46.588  24.440  27.332  1.00  0.00     0.029 A 
ATOM     44  C   UNL A   1      46.404  25.815  27.780  1.00  0.00     0.049 A 
ATOM     45  H   UNL A   1      44.619  26.765  28.279  1.00  0.00     0.167 HD
ATOM     46  C   UNL A   1      40.678  28.638  29.070  1.00  0.00     0.037 A 
ATOM     47  C   UNL A   1      47.381  26.724  27.948  1.00  0.00     0.037 A 
ATOM     48  C   UNL A   1      41.662  29.639  29.375  1.00  0.00     0.049 A 
ATOM     49  C   UNL A   1      47.006  28.097  28.430  1.00  0.00     0.074 A 
ATOM     50  C   UNL A   1      41.469  30.912  29.877  1.00  0.00     0.029 A 
ATOM     51  N   UNL A   1      43.029  29.473  29.205  1.00  0.00    -0.354 N 
ATOM     52  N   UNL A   1      45.818  28.581  28.705  1.00  0.00    -0.248 NA
ATOM     53  C   UNL A   1      48.105  29.048  28.634  1.00  0.00     0.031 C 
ATOM     54  C   UNL A   1      42.718  31.536  29.961  1.00  0.00     0.029 A 
ATOM     55  C   UNL A   1      43.692  30.631  29.568  1.00  0.00     0.049 A 
ATOM     56  H   UNL A   1      43.462  28.653  28.873  1.00  0.00     0.167 HD
ATOM     57  C   UNL A   1      46.028  29.883  29.140  1.00  0.00     0.074 A 
ATOM     58  C   UNL A   1      47.460  30.104  29.109  1.00  0.00     0.031 C 
ATOM     59  C   UNL A   1      45.122  30.814  29.531  1.00  0.00     0.037 A 
BRANCH  46  60
ATOM     60  C   UNL A   1      39.222  28.968  29.227  1.00  0.00     0.057 A 
ATOM     61  C   UNL A   1      38.449  29.456  28.162  1.00  0.00     0.134 A 
ATOM     62  C   UNL A   1      38.578  28.788  30.457  1.00  0.00     0.134 A 
ATOM     63  F   UNL A   1      39.006  29.670  26.960  1.00  0.00    -0.206 F 
ATOM     64  C   UNL A   1      37.102  29.784  28.324  1.00  0.00     0.040 A 
ATOM     65  C   UNL A   1      37.223  29.080  30.623  1.00  0.00     0.040 A 
ATOM     66  F   UNL A   1      39.254  28.326  31.519  1.00  0.00    -0.206 F 
ATOM     67  C   UNL A   1      36.483  29.588  29.557  1.00  0.00     0.006 A 
ENDBRANCH  46  60
BRANCH  47  68
ATOM     68  C   UNL A   1      48.795  26.353  27.688  1.00  0.00     0.057 A 
ATOM     69  C   UNL A   1      49.598  25.811  28.700  1.00  0.00     0.134 A 
ATOM     70  C   UNL A   1      49.378  26.521  26.426  1.00  0.00     0.134 A 
ATOM     71  F   UNL A   1      49.101  25.635  29.933  1.00  0.00    -0.206 F 
ATOM     72  C   UNL A   1      50.932  25.472  28.473  1.00  0.00     0.040 A 
ATOM     73  C   UNL A   1      50.703  26.161  26.178  1.00  0.00     0.040 A 
ATOM     74  F   UNL A   1      48.659  27.020  25.410  1.00  0.00    -0.206 F 
ATOM     75  C   UNL A   1      51.487  25.643  27.207  1.00  0.00     0.006 A 
ENDBRANCH  47  68
BRANCH  59  76
ATOM     76  C   UNL A   1      45.658  32.138  29.988  1.00  0.00     0.057 A 
ATOM     77  C   UNL A   1      46.035  32.365  31.317  1.00  0.00     0.134 A 
ATOM     78  C   UNL A   1      45.843  33.181  29.073  1.00  0.00     0.134 A 
ATOM     79  F   UNL A   1      45.872  31.409  32.243  1.00  0.00    -0.206 F 
ATOM     80  C   UNL A   1      46.556  33.593  31.724  1.00  0.00     0.040 A 
ATOM     81  C   UNL A   1      46.393  34.402  29.461  1.00  0.00     0.040 A 
ATOM     82  F   UNL A   1      45.513  33.023  27.781  1.00  0.00    -0.206 F 
ATOM     83  C   UNL A   1      46.744  34.612  30.792  1.00  0.00     0.006 A 
ENDBRANCH  59  76
ENDBRANCH  33  34
ENDBRANCH  25  28
ENDBRANCH  23  24
ENDBRANCH  22  23
ENDBRANCH   1  22
TORSDOF 16
ENDMDL
