MODEL 1
REMARK VINA RESULT:     -12.6      0.000      0.000
REMARK SMILES CN(C)c1ccc(NC(=O)[C@H]2CC=CC[C@@H]2C(=O)NCCCCNC(=O)c2ccc(-c3c4nc(c(-c5c(F)cccc5F)c5ccc([nH]5)c(-c5c(F)cccc5F)c5nc(c(-c6c(F)cccc6F)c6ccc3[nH]6)C=C5)C=C4)cc2)cc1
REMARK SMILES IDX 21 1 20 2 19 3 17 4 18 5 16 7 11 8 12 9 13 10 15 11 14 12
REMARK SMILES IDX 9 13 8 14 10 16 7 17 4 18 5 19 82 20 6 21 81 22 2 23 1 24
REMARK SMILES IDX 3 25 22 26 23 27 24 28 25 29 26 31 27 32 28 33 80 34 29 35
REMARK SMILES IDX 79 36 30 37 31 38 32 39 73 40 33 41 78 42 72 43 74 44 34 45
REMARK SMILES IDX 77 46 71 47 70 48 35 50 61 51 44 52 60 53 45 54 48 55 59 56
REMARK SMILES IDX 75 57 46 58 47 59 58 61 76 62 49 63 36 64 37 65 42 66 38 67
REMARK SMILES IDX 39 68 41 69 43 70 40 71 62 72 63 73 68 74 64 75 65 76 67 77
REMARK SMILES IDX 69 78 66 79 50 80 51 81 56 82 52 83 53 84 55 85 57 86 54 87
REMARK H PARENT 19 6 8 15 24 30 74 49 48 60
REMARK Flexibility Score: inf
ROOT
ATOM      1  C   UNL A   1      31.977  30.490  26.654  1.00  0.00     0.023 C 
ENDROOT
BRANCH   1   2
ATOM      2  C   UNL A   1      31.850  30.086  25.187  1.00  0.00     0.116 C 
BRANCH   2   3
ATOM      3  N   UNL A   1      33.103  29.617  24.646  1.00  0.00    -0.356 N 
ATOM      4  C   UNL A   1      33.470  28.429  24.092  1.00  0.00     0.224 C 
ATOM      5  O   UNL A   1      34.623  28.390  23.653  1.00  0.00    -0.275 OA
ATOM      6  H   UNL A   1      33.830  30.281  24.684  1.00  0.00     0.163 HD
BRANCH   4   7
ATOM      7  C   UNL A   1      32.487  27.247  23.933  1.00  0.00     0.095 C 
ATOM      8  C   UNL A   1      31.786  26.799  25.240  1.00  0.00     0.095 C 
ATOM      9  C   UNL A   1      32.883  26.329  26.237  1.00  0.00     0.041 C 
ATOM     10  C   UNL A   1      33.911  25.422  25.615  1.00  0.00    -0.030 C 
ATOM     11  C   UNL A   1      33.219  26.041  23.298  1.00  0.00     0.041 C 
ATOM     12  C   UNL A   1      34.040  25.267  24.289  1.00  0.00    -0.030 C 
BRANCH   8  13
ATOM     13  C   UNL A   1      30.704  25.696  25.098  1.00  0.00     0.228 C 
ATOM     14  N   UNL A   1      29.547  25.818  24.382  1.00  0.00    -0.326 N 
ATOM     15  H   UNL A   1      29.021  24.987  24.352  1.00  0.00     0.169 HD
ATOM     16  O   UNL A   1      30.843  24.605  25.669  1.00  0.00    -0.274 OA
BRANCH  14  17
ATOM     17  C   UNL A   1      28.953  26.873  23.685  1.00  0.00     0.041 A 
ATOM     18  C   UNL A   1      28.019  29.327  22.691  1.00  0.00     0.036 A 
ATOM     19  C   UNL A   1      27.148  28.433  23.317  1.00  0.00     0.028 A 
ATOM     20  C   UNL A   1      29.311  28.885  22.395  1.00  0.00     0.028 A 
ATOM     21  C   UNL A   1      27.608  27.193  23.774  1.00  0.00     0.028 A 
ATOM     22  C   UNL A   1      29.777  27.661  22.883  1.00  0.00     0.028 A 
BRANCH  18  23
ATOM     23  N   UNL A   1      27.665  30.639  22.410  1.00  0.00    -0.378 N 
ATOM     24  C   UNL A   1      27.552  31.547  23.538  1.00  0.00     0.143 C 
ATOM     25  C   UNL A   1      28.071  31.168  21.117  1.00  0.00     0.143 C 
ENDBRANCH  18  23
ENDBRANCH  14  17
ENDBRANCH   8  13
ENDBRANCH   4   7
ENDBRANCH   2   3
ENDBRANCH   1   2
BRANCH   1  26
ATOM     26  C   UNL A   1      31.639  31.958  26.925  1.00  0.00     0.023 C 
BRANCH  26  27
ATOM     27  C   UNL A   1      32.815  32.819  27.379  1.00  0.00     0.116 C 
BRANCH  27  28
ATOM     28  N   UNL A   1      32.442  34.193  27.682  1.00  0.00    -0.352 N 
ATOM     29  C   UNL A   1      33.002  35.060  28.598  1.00  0.00     0.251 C 
ATOM     30  H   UNL A   1      31.688  34.554  27.163  1.00  0.00     0.163 HD
ATOM     31  O   UNL A   1      32.506  36.154  28.803  1.00  0.00    -0.269 OA
BRANCH  29  32
ATOM     32  C   UNL A   1      34.189  34.622  29.364  1.00  0.00     0.039 A 
ATOM     33  C   UNL A   1      34.005  34.116  30.652  1.00  0.00     0.014 A 
ATOM     34  C   UNL A   1      35.459  34.647  28.784  1.00  0.00     0.014 A 
ATOM     35  C   UNL A   1      35.086  33.540  31.322  1.00  0.00     0.010 A 
ATOM     36  C   UNL A   1      36.518  34.013  29.425  1.00  0.00     0.010 A 
ATOM     37  C   UNL A   1      36.336  33.434  30.690  1.00  0.00    -0.014 A 
BRANCH  37  38
ATOM     38  C   UNL A   1      37.450  32.673  31.311  1.00  0.00     0.031 A 
ATOM     39  C   UNL A   1      38.042  33.117  32.616  1.00  0.00     0.074 A 
ATOM     40  C   UNL A   1      37.987  31.631  30.645  1.00  0.00     0.049 A 
ATOM     41  N   UNL A   1      39.073  32.634  33.261  1.00  0.00    -0.248 NA
ATOM     42  C   UNL A   1      37.410  34.275  33.271  1.00  0.00     0.031 C 
ATOM     43  C   UNL A   1      37.544  31.140  29.337  1.00  0.00     0.029 A 
ATOM     44  N   UNL A   1      39.038  30.809  30.966  1.00  0.00    -0.354 N 
ATOM     45  C   UNL A   1      39.224  33.436  34.385  1.00  0.00     0.074 A 
ATOM     46  C   UNL A   1      38.206  34.462  34.314  1.00  0.00     0.031 C 
ATOM     47  C   UNL A   1      38.306  30.095  28.978  1.00  0.00     0.029 A 
ATOM     48  C   UNL A   1      39.313  29.864  30.008  1.00  0.00     0.049 A 
ATOM     49  H   UNL A   1      39.547  30.890  31.805  1.00  0.00     0.167 HD
ATOM     50  C   UNL A   1      40.118  33.314  35.394  1.00  0.00     0.037 A 
ATOM     51  C   UNL A   1      40.276  28.924  29.957  1.00  0.00     0.037 A 
ATOM     52  C   UNL A   1      41.108  32.273  35.482  1.00  0.00     0.049 A 
ATOM     53  C   UNL A   1      41.249  28.807  31.096  1.00  0.00     0.074 A 
ATOM     54  C   UNL A   1      42.000  32.016  36.509  1.00  0.00     0.029 A 
ATOM     55  N   UNL A   1      41.339  31.318  34.503  1.00  0.00    -0.354 N 
ATOM     56  N   UNL A   1      41.327  29.520  32.192  1.00  0.00    -0.248 NA
ATOM     57  C   UNL A   1      42.267  27.751  30.991  1.00  0.00     0.031 C 
ATOM     58  C   UNL A   1      42.797  30.930  36.134  1.00  0.00     0.029 A 
ATOM     59  C   UNL A   1      42.377  30.487  34.891  1.00  0.00     0.049 A 
ATOM     60  H   UNL A   1      40.839  31.242  33.658  1.00  0.00     0.167 HD
ATOM     61  C   UNL A   1      42.387  28.992  32.914  1.00  0.00     0.074 A 
ATOM     62  C   UNL A   1      42.912  27.885  32.142  1.00  0.00     0.031 C 
ATOM     63  C   UNL A   1      42.886  29.390  34.109  1.00  0.00     0.037 A 
BRANCH  50  64
ATOM     64  C   UNL A   1      40.061  34.327  36.498  1.00  0.00     0.057 A 
ATOM     65  C   UNL A   1      40.772  35.531  36.430  1.00  0.00     0.134 A 
ATOM     66  C   UNL A   1      39.244  34.120  37.616  1.00  0.00     0.134 A 
ATOM     67  F   UNL A   1      41.581  35.785  35.390  1.00  0.00    -0.206 F 
ATOM     68  C   UNL A   1      40.686  36.488  37.443  1.00  0.00     0.040 A 
ATOM     69  C   UNL A   1      39.132  35.078  38.625  1.00  0.00     0.040 A 
ATOM     70  F   UNL A   1      38.532  32.989  37.740  1.00  0.00    -0.206 F 
ATOM     71  C   UNL A   1      39.857  36.265  38.541  1.00  0.00     0.006 A 
ENDBRANCH  50  64
BRANCH  51  72
ATOM     72  C   UNL A   1      40.367  28.012  28.790  1.00  0.00     0.057 A 
ATOM     73  C   UNL A   1      41.118  28.359  27.661  1.00  0.00     0.134 A 
ATOM     74  C   UNL A   1      39.696  26.784  28.768  1.00  0.00     0.134 A 
ATOM     75  F   UNL A   1      41.766  29.531  27.616  1.00  0.00    -0.206 F 
ATOM     76  C   UNL A   1      41.181  27.527  26.542  1.00  0.00     0.040 A 
ATOM     77  C   UNL A   1      39.769  25.932  27.666  1.00  0.00     0.040 A 
ATOM     78  F   UNL A   1      38.966  26.392  29.822  1.00  0.00    -0.206 F 
ATOM     79  C   UNL A   1      40.507  26.307  26.545  1.00  0.00     0.006 A 
ENDBRANCH  51  72
BRANCH  63  80
ATOM     80  C   UNL A   1      44.046  28.614  34.659  1.00  0.00     0.057 A 
ATOM     81  C   UNL A   1      45.370  28.995  34.407  1.00  0.00     0.134 A 
ATOM     82  C   UNL A   1      43.836  27.496  35.475  1.00  0.00     0.134 A 
ATOM     83  F   UNL A   1      45.635  30.050  33.621  1.00  0.00    -0.206 F 
ATOM     84  C   UNL A   1      46.446  28.280  34.933  1.00  0.00     0.040 A 
ATOM     85  C   UNL A   1      44.903  26.786  36.025  1.00  0.00     0.040 A 
ATOM     86  F   UNL A   1      42.592  27.084  35.759  1.00  0.00    -0.206 F 
ATOM     87  C   UNL A   1      46.213  27.174  35.750  1.00  0.00     0.006 A 
ENDBRANCH  63  80
ENDBRANCH  37  38
ENDBRANCH  29  32
ENDBRANCH  27  28
ENDBRANCH  26  27
ENDBRANCH   1  26
TORSDOF 14
ENDMDL
MODEL 2
REMARK VINA RESULT:     -12.5      1.035      6.217
REMARK SMILES CN(C)c1ccc(NC(=O)[C@H]2CC=CC[C@@H]2C(=O)NCCCCNC(=O)c2ccc(-c3c4nc(c(-c5c(F)cccc5F)c5ccc([nH]5)c(-c5c(F)cccc5F)c5nc(c(-c6c(F)cccc6F)c6ccc3[nH]6)C=C5)C=C4)cc2)cc1
REMARK SMILES IDX 21 1 20 2 19 3 17 4 18 5 16 7 11 8 12 9 13 10 15 11 14 12
REMARK SMILES IDX 9 13 8 14 10 16 7 17 4 18 5 19 82 20 6 21 81 22 2 23 1 24
REMARK SMILES IDX 3 25 22 26 23 27 24 28 25 29 26 31 27 32 28 33 80 34 29 35
REMARK SMILES IDX 79 36 30 37 31 38 32 39 73 40 33 41 78 42 72 43 74 44 34 45
REMARK SMILES IDX 77 46 71 47 70 48 35 50 61 51 44 52 60 53 45 54 48 55 59 56
REMARK SMILES IDX 75 57 46 58 47 59 58 61 76 62 49 63 36 64 37 65 42 66 38 67
REMARK SMILES IDX 39 68 41 69 43 70 40 71 62 72 63 73 68 74 64 75 65 76 67 77
REMARK SMILES IDX 69 78 66 79 50 80 51 81 56 82 52 83 53 84 55 85 57 86 54 87
REMARK H PARENT 19 6 8 15 24 30 74 49 48 60
REMARK Flexibility Score: inf
ROOT
ATOM      1  C   UNL A   1      31.845  30.855  26.881  1.00  0.00     0.023 C 
ENDROOT
BRANCH   1   2
ATOM      2  C   UNL A   1      31.940  30.362  25.439  1.00  0.00     0.116 C 
BRANCH   2   3
ATOM      3  N   UNL A   1      33.184  29.678  25.183  1.00  0.00    -0.356 N 
ATOM      4  C   UNL A   1      33.461  28.453  24.656  1.00  0.00     0.224 C 
ATOM      5  O   UNL A   1      34.662  28.209  24.503  1.00  0.00    -0.275 OA
ATOM      6  H   UNL A   1      33.984  30.193  25.437  1.00  0.00     0.163 HD
BRANCH   4   7
ATOM      7  C   UNL A   1      32.356  27.481  24.188  1.00  0.00     0.095 C 
ATOM      8  C   UNL A   1      31.248  27.199  25.234  1.00  0.00     0.095 C 
ATOM      9  C   UNL A   1      31.915  26.545  26.477  1.00  0.00     0.041 C 
ATOM     10  C   UNL A   1      32.883  25.446  26.130  1.00  0.00    -0.030 C 
ATOM     11  C   UNL A   1      32.992  26.145  23.736  1.00  0.00     0.041 C 
ATOM     12  C   UNL A   1      33.343  25.245  24.886  1.00  0.00    -0.030 C 
BRANCH   8  13
ATOM     13  C   UNL A   1      30.058  26.323  24.759  1.00  0.00     0.228 C 
ATOM     14  N   UNL A   1      29.128  26.696  23.831  1.00  0.00    -0.326 N 
ATOM     15  H   UNL A   1      28.492  25.979  23.609  1.00  0.00     0.169 HD
ATOM     16  O   UNL A   1      29.884  25.192  25.235  1.00  0.00    -0.274 OA
BRANCH  14  17
ATOM     17  C   UNL A   1      28.888  27.883  23.133  1.00  0.00     0.041 A 
ATOM     18  C   UNL A   1      28.704  30.514  22.170  1.00  0.00     0.036 A 
ATOM     19  C   UNL A   1      27.581  29.863  22.688  1.00  0.00     0.028 A 
ATOM     20  C   UNL A   1      29.860  29.759  21.960  1.00  0.00     0.028 A 
ATOM     21  C   UNL A   1      27.667  28.538  23.128  1.00  0.00     0.028 A 
ATOM     22  C   UNL A   1      29.953  28.447  22.433  1.00  0.00     0.028 A 
BRANCH  18  23
ATOM     23  N   UNL A   1      28.723  31.878  21.917  1.00  0.00    -0.378 N 
ATOM     24  C   UNL A   1      28.024  32.339  20.731  1.00  0.00     0.143 C 
ATOM     25  C   UNL A   1      28.813  32.760  23.070  1.00  0.00     0.143 C 
ENDBRANCH  18  23
ENDBRANCH  14  17
ENDBRANCH   8  13
ENDBRANCH   4   7
ENDBRANCH   2   3
ENDBRANCH   1   2
BRANCH   1  26
ATOM     26  C   UNL A   1      31.411  32.317  27.010  1.00  0.00     0.023 C 
BRANCH  26  27
ATOM     27  C   UNL A   1      32.537  33.340  26.890  1.00  0.00     0.116 C 
BRANCH  27  28
ATOM     28  N   UNL A   1      32.399  34.463  27.806  1.00  0.00    -0.352 N 
ATOM     29  C   UNL A   1      33.162  34.777  28.911  1.00  0.00     0.251 C 
ATOM     30  H   UNL A   1      31.659  35.082  27.612  1.00  0.00     0.163 HD
ATOM     31  O   UNL A   1      32.853  35.705  29.638  1.00  0.00    -0.269 OA
BRANCH  29  32
ATOM     32  C   UNL A   1      34.340  33.940  29.227  1.00  0.00     0.039 A 
ATOM     33  C   UNL A   1      35.613  34.444  28.953  1.00  0.00     0.014 A 
ATOM     34  C   UNL A   1      34.185  32.701  29.853  1.00  0.00     0.014 A 
ATOM     35  C   UNL A   1      36.737  33.747  29.400  1.00  0.00     0.010 A 
ATOM     36  C   UNL A   1      35.302  32.044  30.357  1.00  0.00     0.010 A 
ATOM     37  C   UNL A   1      36.587  32.571  30.154  1.00  0.00    -0.014 A 
BRANCH  37  38
ATOM     38  C   UNL A   1      37.755  31.909  30.788  1.00  0.00     0.031 A 
ATOM     39  C   UNL A   1      38.513  30.839  30.057  1.00  0.00     0.074 A 
ATOM     40  C   UNL A   1      38.074  32.213  32.062  1.00  0.00     0.049 A 
ATOM     41  N   UNL A   1      39.498  30.089  30.483  1.00  0.00    -0.248 NA
ATOM     42  C   UNL A   1      38.091  30.553  28.677  1.00  0.00     0.031 C 
ATOM     43  C   UNL A   1      37.375  33.190  32.902  1.00  0.00     0.029 A 
ATOM     44  N   UNL A   1      39.056  31.716  32.883  1.00  0.00    -0.354 N 
ATOM     45  C   UNL A   1      39.802  29.234  29.431  1.00  0.00     0.074 A 
ATOM     46  C   UNL A   1      38.870  29.528  28.364  1.00  0.00     0.031 C 
ATOM     47  C   UNL A   1      37.960  33.230  34.110  1.00  0.00     0.029 A 
ATOM     48  C   UNL A   1      39.049  32.260  34.144  1.00  0.00     0.049 A 
ATOM     49  H   UNL A   1      39.704  31.034  32.593  1.00  0.00     0.167 HD
ATOM     50  C   UNL A   1      40.782  28.303  29.358  1.00  0.00     0.037 A 
ATOM     51  C   UNL A   1      39.824  31.999  35.214  1.00  0.00     0.037 A 
ATOM     52  C   UNL A   1      41.729  28.036  30.407  1.00  0.00     0.049 A 
ATOM     53  C   UNL A   1      40.910  30.966  35.099  1.00  0.00     0.074 A 
ATOM     54  C   UNL A   1      42.812  27.173  30.392  1.00  0.00     0.029 A 
ATOM     55  N   UNL A   1      41.706  28.625  31.662  1.00  0.00    -0.354 N 
ATOM     56  N   UNL A   1      41.238  30.224  34.071  1.00  0.00    -0.248 NA
ATOM     57  C   UNL A   1      41.734  30.736  36.295  1.00  0.00     0.031 C 
ATOM     58  C   UNL A   1      43.419  27.211  31.651  1.00  0.00     0.029 A 
ATOM     59  C   UNL A   1      42.739  28.126  32.438  1.00  0.00     0.049 A 
ATOM     60  H   UNL A   1      41.051  29.300  31.958  1.00  0.00     0.167 HD
ATOM     61  C   UNL A   1      42.315  29.453  34.487  1.00  0.00     0.074 A 
ATOM     62  C   UNL A   1      42.598  29.832  35.856  1.00  0.00     0.031 C 
ATOM     63  C   UNL A   1      43.005  28.513  33.799  1.00  0.00     0.037 A 
BRANCH  50  64
ATOM     64  C   UNL A   1      40.890  27.508  28.091  1.00  0.00     0.057 A 
ATOM     65  C   UNL A   1      41.700  27.924  27.028  1.00  0.00     0.134 A 
ATOM     66  C   UNL A   1      40.218  26.287  27.954  1.00  0.00     0.134 A 
ATOM     67  F   UNL A   1      42.361  29.090  27.092  1.00  0.00    -0.206 F 
ATOM     68  C   UNL A   1      41.827  27.161  25.866  1.00  0.00     0.040 A 
ATOM     69  C   UNL A   1      40.354  25.505  26.806  1.00  0.00     0.040 A 
ATOM     70  F   UNL A   1      39.429  25.829  28.939  1.00  0.00    -0.206 F 
ATOM     71  C   UNL A   1      41.159  25.944  25.756  1.00  0.00     0.006 A 
ENDBRANCH  50  64
BRANCH  51  72
ATOM     72  C   UNL A   1      39.610  32.730  36.486  1.00  0.00     0.057 A 
ATOM     73  C   UNL A   1      38.621  32.328  37.392  1.00  0.00     0.134 A 
ATOM     74  C   UNL A   1      40.374  33.854  36.821  1.00  0.00     0.134 A 
ATOM     75  F   UNL A   1      37.845  31.270  37.115  1.00  0.00    -0.206 F 
ATOM     76  C   UNL A   1      38.384  33.029  38.574  1.00  0.00     0.040 A 
ATOM     77  C   UNL A   1      40.164  34.552  38.011  1.00  0.00     0.040 A 
ATOM     78  F   UNL A   1      41.341  34.285  35.999  1.00  0.00    -0.206 F 
ATOM     79  C   UNL A   1      39.160  34.144  38.888  1.00  0.00     0.006 A 
ENDBRANCH  51  72
BRANCH  63  80
ATOM     80  C   UNL A   1      44.142  27.841  34.511  1.00  0.00     0.057 A 
ATOM     81  C   UNL A   1      45.431  28.388  34.516  1.00  0.00     0.134 A 
ATOM     82  C   UNL A   1      43.936  26.654  35.224  1.00  0.00     0.134 A 
ATOM     83  F   UNL A   1      45.693  29.516  33.839  1.00  0.00    -0.206 F 
ATOM     84  C   UNL A   1      46.481  27.767  35.192  1.00  0.00     0.040 A 
ATOM     85  C   UNL A   1      44.974  26.036  35.922  1.00  0.00     0.040 A 
ATOM     86  F   UNL A   1      42.724  26.083  35.263  1.00  0.00    -0.206 F 
ATOM     87  C   UNL A   1      46.253  26.590  35.904  1.00  0.00     0.006 A 
ENDBRANCH  63  80
ENDBRANCH  37  38
ENDBRANCH  29  32
ENDBRANCH  27  28
ENDBRANCH  26  27
ENDBRANCH   1  26
TORSDOF 14
ENDMDL
MODEL 3
REMARK VINA RESULT:     -12.4      1.296      6.433
REMARK SMILES CN(C)c1ccc(NC(=O)[C@H]2CC=CC[C@@H]2C(=O)NCCCCNC(=O)c2ccc(-c3c4nc(c(-c5c(F)cccc5F)c5ccc([nH]5)c(-c5c(F)cccc5F)c5nc(c(-c6c(F)cccc6F)c6ccc3[nH]6)C=C5)C=C4)cc2)cc1
REMARK SMILES IDX 21 1 20 2 19 3 17 4 18 5 16 7 11 8 12 9 13 10 15 11 14 12
REMARK SMILES IDX 9 13 8 14 10 16 7 17 4 18 5 19 82 20 6 21 81 22 2 23 1 24
REMARK SMILES IDX 3 25 22 26 23 27 24 28 25 29 26 31 27 32 28 33 80 34 29 35
REMARK SMILES IDX 79 36 30 37 31 38 32 39 73 40 33 41 78 42 72 43 74 44 34 45
REMARK SMILES IDX 77 46 71 47 70 48 35 50 61 51 44 52 60 53 45 54 48 55 59 56
REMARK SMILES IDX 75 57 46 58 47 59 58 61 76 62 49 63 36 64 37 65 42 66 38 67
REMARK SMILES IDX 39 68 41 69 43 70 40 71 62 72 63 73 68 74 64 75 65 76 67 77
REMARK SMILES IDX 69 78 66 79 50 80 51 81 56 82 52 83 53 84 55 85 57 86 54 87
REMARK H PARENT 19 6 8 15 24 30 74 49 48 60
REMARK Flexibility Score: inf
ROOT
ATOM      1  C   UNL A   1      31.389  31.064  26.046  1.00  0.00     0.023 C 
ENDROOT
BRANCH   1   2
ATOM      2  C   UNL A   1      32.602  30.307  26.582  1.00  0.00     0.116 C 
BRANCH   2   3
ATOM      3  N   UNL A   1      32.217  29.195  27.418  1.00  0.00    -0.356 N 
ATOM      4  C   UNL A   1      31.802  27.932  27.122  1.00  0.00     0.224 C 
ATOM      5  O   UNL A   1      31.626  27.198  28.099  1.00  0.00    -0.275 OA
ATOM      6  H   UNL A   1      32.263  29.384  28.383  1.00  0.00     0.163 HD
BRANCH   4   7
ATOM      7  C   UNL A   1      31.659  27.423  25.671  1.00  0.00     0.095 C 
ATOM      8  C   UNL A   1      30.802  26.143  25.508  1.00  0.00     0.095 C 
ATOM      9  C   UNL A   1      31.486  25.000  26.312  1.00  0.00     0.041 C 
ATOM     10  C   UNL A   1      32.972  24.914  26.085  1.00  0.00    -0.030 C 
ATOM     11  C   UNL A   1      33.061  27.188  25.060  1.00  0.00     0.041 C 
ATOM     12  C   UNL A   1      33.677  25.888  25.490  1.00  0.00    -0.030 C 
BRANCH   8  13
ATOM     13  C   UNL A   1      30.537  25.671  24.054  1.00  0.00     0.228 C 
ATOM     14  N   UNL A   1      30.152  26.480  23.023  1.00  0.00    -0.326 N 
ATOM     15  H   UNL A   1      30.102  26.011  22.159  1.00  0.00     0.169 HD
ATOM     16  O   UNL A   1      30.657  24.476  23.751  1.00  0.00    -0.274 OA
BRANCH  14  17
ATOM     17  C   UNL A   1      29.811  27.832  22.936  1.00  0.00     0.041 A 
ATOM     18  C   UNL A   1      28.820  30.379  22.293  1.00  0.00     0.036 A 
ATOM     19  C   UNL A   1      30.167  30.067  22.097  1.00  0.00     0.028 A 
ATOM     20  C   UNL A   1      28.032  29.466  22.999  1.00  0.00     0.028 A 
ATOM     21  C   UNL A   1      30.667  28.811  22.457  1.00  0.00     0.028 A 
ATOM     22  C   UNL A   1      28.524  28.200  23.326  1.00  0.00     0.028 A 
BRANCH  18  23
ATOM     23  N   UNL A   1      28.235  31.523  21.767  1.00  0.00    -0.378 N 
ATOM     24  C   UNL A   1      28.533  32.780  22.428  1.00  0.00     0.143 C 
ATOM     25  C   UNL A   1      27.964  31.524  20.337  1.00  0.00     0.143 C 
ENDBRANCH  18  23
ENDBRANCH  14  17
ENDBRANCH   8  13
ENDBRANCH   4   7
ENDBRANCH   2   3
ENDBRANCH   1   2
BRANCH   1  26
ATOM     26  C   UNL A   1      31.286  32.506  26.546  1.00  0.00     0.023 C 
BRANCH  26  27
ATOM     27  C   UNL A   1      32.614  33.159  26.920  1.00  0.00     0.116 C 
BRANCH  27  28
ATOM     28  N   UNL A   1      32.469  34.295  27.818  1.00  0.00    -0.352 N 
ATOM     29  C   UNL A   1      33.246  34.647  28.902  1.00  0.00     0.251 C 
ATOM     30  H   UNL A   1      31.713  34.895  27.626  1.00  0.00     0.163 HD
ATOM     31  O   UNL A   1      32.930  35.581  29.617  1.00  0.00    -0.269 OA
BRANCH  29  32
ATOM     32  C   UNL A   1      34.447  33.841  29.212  1.00  0.00     0.039 A 
ATOM     33  C   UNL A   1      35.706  34.396  28.973  1.00  0.00     0.014 A 
ATOM     34  C   UNL A   1      34.325  32.579  29.798  1.00  0.00     0.014 A 
ATOM     35  C   UNL A   1      36.846  33.724  29.417  1.00  0.00     0.010 A 
ATOM     36  C   UNL A   1      35.457  31.945  30.300  1.00  0.00     0.010 A 
ATOM     37  C   UNL A   1      36.725  32.521  30.133  1.00  0.00    -0.014 A 
BRANCH  37  38
ATOM     38  C   UNL A   1      37.906  31.880  30.765  1.00  0.00     0.031 A 
ATOM     39  C   UNL A   1      38.660  30.798  30.048  1.00  0.00     0.074 A 
ATOM     40  C   UNL A   1      38.241  32.215  32.027  1.00  0.00     0.049 A 
ATOM     41  N   UNL A   1      39.655  30.063  30.477  1.00  0.00    -0.248 NA
ATOM     42  C   UNL A   1      38.220  30.477  28.681  1.00  0.00     0.031 C 
ATOM     43  C   UNL A   1      37.548  33.207  32.854  1.00  0.00     0.029 A 
ATOM     44  N   UNL A   1      39.237  31.743  32.845  1.00  0.00    -0.354 N 
ATOM     45  C   UNL A   1      39.949  29.186  29.441  1.00  0.00     0.074 A 
ATOM     46  C   UNL A   1      39.001  29.450  28.381  1.00  0.00     0.031 C 
ATOM     47  C   UNL A   1      38.150  33.279  34.052  1.00  0.00     0.029 A 
ATOM     48  C   UNL A   1      39.245  32.315  34.093  1.00  0.00     0.049 A 
ATOM     49  H   UNL A   1      39.886  31.058  32.562  1.00  0.00     0.167 HD
ATOM     50  C   UNL A   1      40.933  28.258  29.375  1.00  0.00     0.037 A 
ATOM     51  C   UNL A   1      40.037  32.083  35.157  1.00  0.00     0.037 A 
ATOM     52  C   UNL A   1      41.896  28.021  30.417  1.00  0.00     0.049 A 
ATOM     53  C   UNL A   1      41.127  31.054  35.052  1.00  0.00     0.074 A 
ATOM     54  C   UNL A   1      42.984  27.164  30.406  1.00  0.00     0.029 A 
ATOM     55  N   UNL A   1      41.887  28.639  31.658  1.00  0.00    -0.354 N 
ATOM     56  N   UNL A   1      41.444  30.290  34.036  1.00  0.00    -0.248 NA
ATOM     57  C   UNL A   1      41.969  30.857  36.240  1.00  0.00     0.031 C 
ATOM     58  C   UNL A   1      43.609  27.234  31.655  1.00  0.00     0.029 A 
ATOM     59  C   UNL A   1      42.935  28.163  32.430  1.00  0.00     0.049 A 
ATOM     60  H   UNL A   1      41.233  29.316  31.948  1.00  0.00     0.167 HD
ATOM     61  C   UNL A   1      42.531  29.535  34.454  1.00  0.00     0.074 A 
ATOM     62  C   UNL A   1      42.831  29.946  35.810  1.00  0.00     0.031 C 
ATOM     63  C   UNL A   1      43.218  28.583  33.778  1.00  0.00     0.037 A 
BRANCH  50  64
ATOM     64  C   UNL A   1      41.027  27.435  28.126  1.00  0.00     0.057 A 
ATOM     65  C   UNL A   1      40.344  26.221  27.990  1.00  0.00     0.134 A 
ATOM     66  C   UNL A   1      41.767  27.889  27.026  1.00  0.00     0.134 A 
ATOM     67  F   UNL A   1      39.628  25.726  29.011  1.00  0.00    -0.206 F 
ATOM     68  C   UNL A   1      40.406  25.477  26.811  1.00  0.00     0.040 A 
ATOM     69  C   UNL A   1      41.818  27.165  25.833  1.00  0.00     0.040 A 
ATOM     70  F   UNL A   1      42.440  29.048  27.089  1.00  0.00    -0.206 F 
ATOM     71  C   UNL A   1      41.138  25.953  25.725  1.00  0.00     0.006 A 
ENDBRANCH  50  64
BRANCH  51  72
ATOM     72  C   UNL A   1      39.836  32.843  36.416  1.00  0.00     0.057 A 
ATOM     73  C   UNL A   1      38.866  32.453  37.347  1.00  0.00     0.134 A 
ATOM     74  C   UNL A   1      40.595  33.982  36.712  1.00  0.00     0.134 A 
ATOM     75  F   UNL A   1      38.096  31.382  37.108  1.00  0.00    -0.206 F 
ATOM     76  C   UNL A   1      38.642  33.180  38.516  1.00  0.00     0.040 A 
ATOM     77  C   UNL A   1      40.397  34.705  37.888  1.00  0.00     0.040 A 
ATOM     78  F   UNL A   1      41.544  34.401  35.863  1.00  0.00    -0.206 F 
ATOM     79  C   UNL A   1      39.412  34.309  38.791  1.00  0.00     0.006 A 
ENDBRANCH  51  72
BRANCH  63  80
ATOM     80  C   UNL A   1      44.368  27.934  34.489  1.00  0.00     0.057 A 
ATOM     81  C   UNL A   1      44.207  26.747  35.215  1.00  0.00     0.134 A 
ATOM     82  C   UNL A   1      45.653  28.483  34.419  1.00  0.00     0.134 A 
ATOM     83  F   UNL A   1      42.996  26.180  35.330  1.00  0.00    -0.206 F 
ATOM     84  C   UNL A   1      45.282  26.139  35.862  1.00  0.00     0.040 A 
ATOM     85  C   UNL A   1      46.741  27.872  35.043  1.00  0.00     0.040 A 
ATOM     86  F   UNL A   1      45.875  29.615  33.734  1.00  0.00    -0.206 F 
ATOM     87  C   UNL A   1      46.556  26.698  35.772  1.00  0.00     0.006 A 
ENDBRANCH  63  80
ENDBRANCH  37  38
ENDBRANCH  29  32
ENDBRANCH  27  28
ENDBRANCH  26  27
ENDBRANCH   1  26
TORSDOF 14
ENDMDL
