MODEL 1
REMARK VINA RESULT:     -12.0      0.000      0.000
REMARK SMILES O=C(C[C@@H]([NH2+]Cc1ccccc1)C(=O)NCCCCNC(=O)c1ccc(-c2c3nc(c(-c4c(F)cccc4F)c4ccc([nH]4)c(-c4c(F)cccc4F)c4nc(c(-c5c(F)cccc5F)c5ccc2[nH]5)C=C4)C=C3)cc1)Nc1cccc(Cl)c1Cl
REMARK SMILES IDX 17 1 16 2 15 3 13 4 14 5 4 7 3 8 2 9 1 10 77 11 78 13 79 14
REMARK SMILES IDX 84 15 80 16 82 17 85 18 81 19 83 20 5 21 6 24 7 25 8 26
REMARK SMILES IDX 12 27 9 28 11 29 10 30 18 31 19 32 20 33 21 34 22 36 23 37
REMARK SMILES IDX 24 38 76 39 25 40 75 41 26 42 27 43 28 44 69 45 29 46 74 47
REMARK SMILES IDX 68 48 70 49 30 50 73 51 67 52 66 53 31 55 57 56 40 57 56 58
REMARK SMILES IDX 41 59 44 60 55 61 71 62 42 63 43 64 54 66 72 67 45 68 32 69
REMARK SMILES IDX 33 70 38 71 34 72 35 73 37 74 39 75 36 76 58 77 59 78 64 79
REMARK SMILES IDX 60 80 61 81 63 82 65 83 62 84 46 85 47 86 52 87 48 88 49 89
REMARK SMILES IDX 51 90 53 91 50 92
REMARK H PARENT 15 6 77 12 5 22 5 23 20 35 70 54 44 65
REMARK Flexibility Score: inf
ROOT
ATOM      1  C   UNL A   1      31.724  29.043  27.246  1.00  0.00     0.023 C 
ENDROOT
BRANCH   1   2
ATOM      2  C   UNL A   1      31.879  27.856  26.293  1.00  0.00     0.116 C 
BRANCH   2   3
ATOM      3  N   UNL A   1      31.124  26.704  26.749  1.00  0.00    -0.351 N 
ATOM      4  C   UNL A   1      30.654  25.625  26.058  1.00  0.00     0.278 C 
ATOM      5  O   UNL A   1      30.054  24.760  26.703  1.00  0.00    -0.268 OA
ATOM      6  H   UNL A   1      30.918  26.700  27.712  1.00  0.00     0.163 HD
BRANCH   4   7
ATOM      7  C   UNL A   1      30.875  25.467  24.539  1.00  0.00     0.282 C 
BRANCH   7   8
ATOM      8  C   UNL A   1      31.011  23.977  24.193  1.00  0.00     0.175 C 
BRANCH   8   9
ATOM      9  C   UNL A   1      32.429  23.565  23.885  1.00  0.00     0.230 C 
ATOM     10  O   UNL A   1      32.869  23.552  22.741  1.00  0.00    -0.274 OA
ATOM     11  N   UNL A   1      33.120  23.155  25.017  1.00  0.00    -0.325 N 
ATOM     12  H   UNL A   1      32.628  23.103  25.868  1.00  0.00     0.169 HD
BRANCH  11  13
ATOM     13  C   UNL A   1      34.487  22.807  25.018  1.00  0.00     0.061 A 
ATOM     14  C   UNL A   1      35.396  23.875  25.038  1.00  0.00     0.028 A 
ATOM     15  C   UNL A   1      34.964  21.481  24.962  1.00  0.00     0.083 A 
ATOM     16  C   UNL A   1      36.768  23.634  25.092  1.00  0.00     0.004 A 
ATOM     17  C   UNL A   1      36.350  21.251  24.997  1.00  0.00     0.061 A 
ATOM     18  Cl  UNL A   1      33.877  20.160  24.647  1.00  0.00    -0.080 Cl
ATOM     19  C   UNL A   1      37.243  22.325  25.080  1.00  0.00     0.022 A 
ATOM     20  Cl  UNL A   1      37.036  19.665  24.899  1.00  0.00    -0.083 Cl
ENDBRANCH  11  13
ENDBRANCH   8   9
ENDBRANCH   7   8
BRANCH   7  21
ATOM     21  N   UNL A   1      29.811  26.160  23.745  1.00  0.00    -0.332 N 
ATOM     22  H   UNL A   1      29.063  26.439  24.379  1.00  0.00     0.347 HD
ATOM     23  H   UNL A   1      29.483  25.504  23.036  1.00  0.00     0.347 HD
BRANCH  21  24
ATOM     24  C   UNL A   1      30.310  27.361  23.044  1.00  0.00     0.297 C 
BRANCH  24  25
ATOM     25  C   UNL A   1      29.395  28.555  23.188  1.00  0.00     0.006 A 
ATOM     26  C   UNL A   1      29.925  29.822  23.472  1.00  0.00     0.009 A 
ATOM     27  C   UNL A   1      28.006  28.423  23.025  1.00  0.00     0.009 A 
ATOM     28  C   UNL A   1      29.085  30.932  23.574  1.00  0.00     0.001 A 
ATOM     29  C   UNL A   1      27.172  29.538  23.110  1.00  0.00     0.001 A 
ATOM     30  C   UNL A   1      27.712  30.791  23.385  1.00  0.00     0.000 A 
ENDBRANCH  24  25
ENDBRANCH  21  24
ENDBRANCH   7  21
ENDBRANCH   4   7
ENDBRANCH   2   3
ENDBRANCH   1   2
BRANCH   1  31
ATOM     31  C   UNL A   1      31.783  30.415  26.575  1.00  0.00     0.023 C 
BRANCH  31  32
ATOM     32  C   UNL A   1      32.885  31.336  27.084  1.00  0.00     0.116 C 
BRANCH  32  33
ATOM     33  N   UNL A   1      32.417  32.682  27.375  1.00  0.00    -0.352 N 
ATOM     34  C   UNL A   1      33.032  33.645  28.139  1.00  0.00     0.251 C 
ATOM     35  H   UNL A   1      31.553  32.936  26.975  1.00  0.00     0.163 HD
ATOM     36  O   UNL A   1      32.471  34.708  28.386  1.00  0.00    -0.269 OA
BRANCH  34  37
ATOM     37  C   UNL A   1      34.372  33.365  28.690  1.00  0.00     0.039 A 
ATOM     38  C   UNL A   1      34.480  32.650  29.886  1.00  0.00     0.014 A 
ATOM     39  C   UNL A   1      35.513  33.754  27.984  1.00  0.00     0.014 A 
ATOM     40  C   UNL A   1      35.741  32.260  30.341  1.00  0.00     0.010 A 
ATOM     41  C   UNL A   1      36.760  33.311  28.407  1.00  0.00     0.010 A 
ATOM     42  C   UNL A   1      36.885  32.556  29.585  1.00  0.00    -0.014 A 
BRANCH  42  43
ATOM     43  C   UNL A   1      38.237  32.107  29.995  1.00  0.00     0.031 A 
ATOM     44  C   UNL A   1      38.774  30.810  29.463  1.00  0.00     0.074 A 
ATOM     45  C   UNL A   1      38.927  32.799  30.923  1.00  0.00     0.049 A 
ATOM     46  N   UNL A   1      39.829  30.133  29.838  1.00  0.00    -0.248 NA
ATOM     47  C   UNL A   1      37.998  30.172  28.389  1.00  0.00     0.031 C 
ATOM     48  C   UNL A   1      38.501  34.059  31.536  1.00  0.00     0.029 A 
ATOM     49  N   UNL A   1      40.124  32.520  31.534  1.00  0.00    -0.354 N 
ATOM     50  C   UNL A   1      39.823  28.976  29.071  1.00  0.00     0.074 A 
ATOM     51  C   UNL A   1      38.643  29.026  28.235  1.00  0.00     0.031 C 
ATOM     52  C   UNL A   1      39.423  34.445  32.431  1.00  0.00     0.029 A 
ATOM     53  C   UNL A   1      40.481  33.441  32.489  1.00  0.00     0.049 A 
ATOM     54  H   UNL A   1      40.674  31.735  31.309  1.00  0.00     0.167 HD
ATOM     55  C   UNL A   1      40.726  27.968  29.058  1.00  0.00     0.037 A 
ATOM     56  C   UNL A   1      41.533  33.458  33.330  1.00  0.00     0.037 A 
ATOM     57  C   UNL A   1      41.918  27.943  29.862  1.00  0.00     0.049 A 
ATOM     58  C   UNL A   1      42.528  32.332  33.290  1.00  0.00     0.074 A 
ATOM     59  C   UNL A   1      42.924  26.992  29.883  1.00  0.00     0.029 A 
ATOM     60  N   UNL A   1      42.270  28.921  30.780  1.00  0.00    -0.354 N 
ATOM     61  N   UNL A   1      42.530  31.259  32.539  1.00  0.00    -0.248 NA
ATOM     62  C   UNL A   1      43.668  32.419  34.216  1.00  0.00     0.031 C 
ATOM     63  C   UNL A   1      43.871  27.382  30.835  1.00  0.00     0.029 A 
ATOM     64  C   UNL A   1      43.473  28.593  31.379  1.00  0.00     0.049 A 
ATOM     65  H   UNL A   1      41.741  29.727  30.976  1.00  0.00     0.167 HD
ATOM     66  C   UNL A   1      43.683  30.561  32.873  1.00  0.00     0.074 A 
ATOM     67  C   UNL A   1      44.357  31.332  33.897  1.00  0.00     0.031 C 
ATOM     68  C   UNL A   1      44.143  29.390  32.374  1.00  0.00     0.037 A 
BRANCH  55  69
ATOM     69  C   UNL A   1      40.455  26.812  28.144  1.00  0.00     0.057 A 
ATOM     70  C   UNL A   1      41.058  26.710  26.883  1.00  0.00     0.134 A 
ATOM     71  C   UNL A   1      39.599  25.776  28.537  1.00  0.00     0.134 A 
ATOM     72  F   UNL A   1      41.876  27.677  26.441  1.00  0.00    -0.206 F 
ATOM     73  C   UNL A   1      40.798  25.632  26.036  1.00  0.00     0.040 A 
ATOM     74  C   UNL A   1      39.351  24.681  27.709  1.00  0.00     0.040 A 
ATOM     75  F   UNL A   1      38.994  25.810  29.734  1.00  0.00    -0.206 F 
ATOM     76  C   UNL A   1      39.946  24.611  26.451  1.00  0.00     0.006 A 
ENDBRANCH  55  69
BRANCH  56  77
ATOM     77  C   UNL A   1      41.708  34.590  34.274  1.00  0.00     0.057 A 
ATOM     78  C   UNL A   1      42.359  35.763  33.875  1.00  0.00     0.134 A 
ATOM     79  C   UNL A   1      41.238  34.528  35.591  1.00  0.00     0.134 A 
ATOM     80  F   UNL A   1      42.848  35.873  32.631  1.00  0.00    -0.206 F 
ATOM     81  C   UNL A   1      42.551  36.829  34.755  1.00  0.00     0.040 A 
ATOM     82  C   UNL A   1      41.403  35.595  36.476  1.00  0.00     0.040 A 
ATOM     83  F   UNL A   1      40.600  33.434  36.032  1.00  0.00    -0.206 F 
ATOM     84  C   UNL A   1      42.067  36.748  36.060  1.00  0.00     0.006 A 
ENDBRANCH  56  77
BRANCH  68  85
ATOM     85  C   UNL A   1      45.464  28.893  32.879  1.00  0.00     0.057 A 
ATOM     86  C   UNL A   1      45.559  28.020  33.967  1.00  0.00     0.134 A 
ATOM     87  C   UNL A   1      46.649  29.243  32.217  1.00  0.00     0.134 A 
ATOM     88  F   UNL A   1      44.461  27.659  34.647  1.00  0.00    -0.206 F 
ATOM     89  C   UNL A   1      46.791  27.515  34.386  1.00  0.00     0.040 A 
ATOM     90  C   UNL A   1      47.883  28.729  32.614  1.00  0.00     0.040 A 
ATOM     91  F   UNL A   1      46.621  30.071  31.162  1.00  0.00    -0.206 F 
ATOM     92  C   UNL A   1      47.956  27.862  33.703  1.00  0.00     0.006 A 
ENDBRANCH  68  85
ENDBRANCH  42  43
ENDBRANCH  34  37
ENDBRANCH  32  33
ENDBRANCH  31  32
ENDBRANCH   1  31
TORSDOF 17
ENDMDL
MODEL 2
REMARK VINA RESULT:     -11.9      3.632      9.037
REMARK SMILES O=C(C[C@@H]([NH2+]Cc1ccccc1)C(=O)NCCCCNC(=O)c1ccc(-c2c3nc(c(-c4c(F)cccc4F)c4ccc([nH]4)c(-c4c(F)cccc4F)c4nc(c(-c5c(F)cccc5F)c5ccc2[nH]5)C=C4)C=C3)cc1)Nc1cccc(Cl)c1Cl
REMARK SMILES IDX 17 1 16 2 15 3 13 4 14 5 4 7 3 8 2 9 1 10 77 11 78 13 79 14
REMARK SMILES IDX 84 15 80 16 82 17 85 18 81 19 83 20 5 21 6 24 7 25 8 26
REMARK SMILES IDX 12 27 9 28 11 29 10 30 18 31 19 32 20 33 21 34 22 36 23 37
REMARK SMILES IDX 24 38 76 39 25 40 75 41 26 42 27 43 28 44 69 45 29 46 74 47
REMARK SMILES IDX 68 48 70 49 30 50 73 51 67 52 66 53 31 55 57 56 40 57 56 58
REMARK SMILES IDX 41 59 44 60 55 61 71 62 42 63 43 64 54 66 72 67 45 68 32 69
REMARK SMILES IDX 33 70 38 71 34 72 35 73 37 74 39 75 36 76 58 77 59 78 64 79
REMARK SMILES IDX 60 80 61 81 63 82 65 83 62 84 46 85 47 86 52 87 48 88 49 89
REMARK SMILES IDX 51 90 53 91 50 92
REMARK H PARENT 15 6 77 12 5 22 5 23 20 35 70 54 44 65
REMARK Flexibility Score: inf
ROOT
ATOM      1  C   UNL A   1      37.010  22.099  24.037  1.00  0.00     0.023 C 
ENDROOT
BRANCH   1   2
ATOM      2  C   UNL A   1      35.576  22.567  24.288  1.00  0.00     0.116 C 
BRANCH   2   3
ATOM      3  N   UNL A   1      35.039  23.281  23.144  1.00  0.00    -0.351 N 
ATOM      4  C   UNL A   1      33.747  23.476  22.751  1.00  0.00     0.278 C 
ATOM      5  O   UNL A   1      33.563  24.154  21.735  1.00  0.00    -0.268 OA
ATOM      6  H   UNL A   1      35.716  23.689  22.558  1.00  0.00     0.163 HD
BRANCH   4   7
ATOM      7  C   UNL A   1      32.555  22.901  23.544  1.00  0.00     0.282 C 
BRANCH   7   8
ATOM      8  C   UNL A   1      31.352  23.848  23.421  1.00  0.00     0.175 C 
BRANCH   8   9
ATOM      9  C   UNL A   1      31.380  24.978  24.419  1.00  0.00     0.230 C 
ATOM     10  O   UNL A   1      30.694  24.967  25.434  1.00  0.00    -0.274 OA
ATOM     11  N   UNL A   1      32.204  26.021  24.016  1.00  0.00    -0.325 N 
ATOM     12  H   UNL A   1      32.621  25.966  23.126  1.00  0.00     0.169 HD
BRANCH  11  13
ATOM     13  C   UNL A   1      32.477  27.155  24.809  1.00  0.00     0.061 A 
ATOM     14  C   UNL A   1      33.555  27.041  25.700  1.00  0.00     0.028 A 
ATOM     15  C   UNL A   1      31.718  28.343  24.775  1.00  0.00     0.083 A 
ATOM     16  C   UNL A   1      33.936  28.124  26.489  1.00  0.00     0.004 A 
ATOM     17  C   UNL A   1      32.100  29.421  25.591  1.00  0.00     0.061 A 
ATOM     18  Cl  UNL A   1      30.215  28.410  23.900  1.00  0.00    -0.080 Cl
ATOM     19  C   UNL A   1      33.215  29.315  26.429  1.00  0.00     0.022 A 
ATOM     20  Cl  UNL A   1      31.215  30.908  25.648  1.00  0.00    -0.083 Cl
ENDBRANCH  11  13
ENDBRANCH   8   9
ENDBRANCH   7   8
BRANCH   7  21
ATOM     21  N   UNL A   1      32.240  21.495  23.136  1.00  0.00    -0.332 N 
ATOM     22  H   UNL A   1      32.952  21.180  22.478  1.00  0.00     0.347 HD
ATOM     23  H   UNL A   1      31.311  21.499  22.717  1.00  0.00     0.347 HD
BRANCH  21  24
ATOM     24  C   UNL A   1      32.208  20.560  24.280  1.00  0.00     0.297 C 
BRANCH  24  25
ATOM     25  C   UNL A   1      32.975  19.283  24.026  1.00  0.00     0.006 A 
ATOM     26  C   UNL A   1      34.204  19.058  24.661  1.00  0.00     0.009 A 
ATOM     27  C   UNL A   1      32.466  18.296  23.166  1.00  0.00     0.009 A 
ATOM     28  C   UNL A   1      34.899  17.865  24.452  1.00  0.00     0.001 A 
ATOM     29  C   UNL A   1      33.154  17.098  22.974  1.00  0.00     0.001 A 
ATOM     30  C   UNL A   1      34.370  16.884  23.617  1.00  0.00     0.000 A 
ENDBRANCH  24  25
ENDBRANCH  21  24
ENDBRANCH   7  21
ENDBRANCH   4   7
ENDBRANCH   2   3
ENDBRANCH   1   2
BRANCH   1  31
ATOM     31  C   UNL A   1      37.409  20.826  24.783  1.00  0.00     0.023 C 
BRANCH  31  32
ATOM     32  C   UNL A   1      38.612  20.969  25.706  1.00  0.00     0.116 C 
BRANCH  32  33
ATOM     33  N   UNL A   1      39.528  19.841  25.632  1.00  0.00    -0.352 N 
ATOM     34  C   UNL A   1      40.860  19.808  25.971  1.00  0.00     0.251 C 
ATOM     35  H   UNL A   1      39.147  18.996  25.298  1.00  0.00     0.163 HD
ATOM     36  O   UNL A   1      41.541  18.810  25.759  1.00  0.00    -0.269 OA
BRANCH  34  37
ATOM     37  C   UNL A   1      41.470  21.013  26.566  1.00  0.00     0.039 A 
ATOM     38  C   UNL A   1      41.989  22.000  25.724  1.00  0.00     0.014 A 
ATOM     39  C   UNL A   1      41.463  21.187  27.952  1.00  0.00     0.014 A 
ATOM     40  C   UNL A   1      42.440  23.202  26.272  1.00  0.00     0.010 A 
ATOM     41  C   UNL A   1      41.855  22.408  28.488  1.00  0.00     0.010 A 
ATOM     42  C   UNL A   1      42.342  23.427  27.653  1.00  0.00    -0.014 A 
BRANCH  42  43
ATOM     43  C   UNL A   1      42.748  24.712  28.272  1.00  0.00     0.031 A 
ATOM     44  C   UNL A   1      41.713  25.772  28.514  1.00  0.00     0.074 A 
ATOM     45  C   UNL A   1      44.049  24.967  28.509  1.00  0.00     0.049 A 
ATOM     46  N   UNL A   1      41.872  27.026  28.851  1.00  0.00    -0.248 NA
ATOM     47  C   UNL A   1      40.311  25.374  28.314  1.00  0.00     0.031 C 
ATOM     48  C   UNL A   1      45.153  24.029  28.291  1.00  0.00     0.029 A 
ATOM     49  N   UNL A   1      44.666  26.107  28.958  1.00  0.00    -0.354 N 
ATOM     50  C   UNL A   1      40.597  27.574  28.869  1.00  0.00     0.074 A 
ATOM     51  C   UNL A   1      39.678  26.526  28.478  1.00  0.00     0.031 C 
ATOM     52  C   UNL A   1      46.310  24.631  28.611  1.00  0.00     0.029 A 
ATOM     53  C   UNL A   1      46.035  26.007  29.013  1.00  0.00     0.049 A 
ATOM     54  H   UNL A   1      44.173  26.919  29.218  1.00  0.00     0.167 HD
ATOM     55  C   UNL A   1      40.225  28.834  29.194  1.00  0.00     0.037 A 
ATOM     56  C   UNL A   1      46.963  26.931  29.329  1.00  0.00     0.037 A 
ATOM     57  C   UNL A   1      41.138  29.859  29.621  1.00  0.00     0.049 A 
ATOM     58  C   UNL A   1      46.525  28.321  29.696  1.00  0.00     0.074 A 
ATOM     59  C   UNL A   1      40.854  31.153  30.024  1.00  0.00     0.029 A 
ATOM     60  N   UNL A   1      42.513  29.702  29.712  1.00  0.00    -0.354 N 
ATOM     61  N   UNL A   1      45.314  28.820  29.741  1.00  0.00    -0.248 NA
ATOM     62  C   UNL A   1      47.582  29.278  30.055  1.00  0.00     0.031 C 
ATOM     63  C   UNL A   1      42.062  31.788  30.331  1.00  0.00     0.029 A 
ATOM     64  C   UNL A   1      43.092  30.877  30.156  1.00  0.00     0.049 A 
ATOM     65  H   UNL A   1      43.002  28.877  29.492  1.00  0.00     0.167 HD
ATOM     66  C   UNL A   1      45.458  30.134  30.167  1.00  0.00     0.074 A 
ATOM     67  C   UNL A   1      46.875  30.356  30.365  1.00  0.00     0.031 C 
ATOM     68  C   UNL A   1      44.502  31.069  30.377  1.00  0.00     0.037 A 
BRANCH  55  69
ATOM     69  C   UNL A   1      38.767  29.168  29.098  1.00  0.00     0.057 A 
ATOM     70  C   UNL A   1      37.914  29.077  30.206  1.00  0.00     0.134 A 
ATOM     71  C   UNL A   1      38.214  29.608  27.889  1.00  0.00     0.134 A 
ATOM     72  F   UNL A   1      38.379  28.647  31.388  1.00  0.00    -0.206 F 
ATOM     73  C   UNL A   1      36.557  29.387  30.108  1.00  0.00     0.040 A 
ATOM     74  C   UNL A   1      36.863  29.945  27.786  1.00  0.00     0.040 A 
ATOM     75  F   UNL A   1      38.977  29.722  26.792  1.00  0.00    -0.206 F 
ATOM     76  C   UNL A   1      36.030  29.827  28.896  1.00  0.00     0.006 A 
ENDBRANCH  55  69
BRANCH  56  77
ATOM     77  C   UNL A   1      48.402  26.566  29.329  1.00  0.00     0.057 A 
ATOM     78  C   UNL A   1      49.203  26.805  28.206  1.00  0.00     0.134 A 
ATOM     79  C   UNL A   1      49.009  25.971  30.440  1.00  0.00     0.134 A 
ATOM     80  F   UNL A   1      48.671  27.355  27.104  1.00  0.00    -0.206 F 
ATOM     81  C   UNL A   1      50.552  26.451  28.180  1.00  0.00     0.040 A 
ATOM     82  C   UNL A   1      50.363  25.631  30.438  1.00  0.00     0.040 A 
ATOM     83  F   UNL A   1      48.297  25.723  31.550  1.00  0.00    -0.206 F 
ATOM     84  C   UNL A   1      51.137  25.865  29.303  1.00  0.00     0.006 A 
ENDBRANCH  56  77
BRANCH  68  85
ATOM     85  C   UNL A   1      44.942  32.402  30.903  1.00  0.00     0.057 A 
ATOM     86  C   UNL A   1      45.242  33.471  30.051  1.00  0.00     0.134 A 
ATOM     87  C   UNL A   1      44.995  32.634  32.284  1.00  0.00     0.134 A 
ATOM     88  F   UNL A   1      45.219  33.306  28.720  1.00  0.00    -0.206 F 
ATOM     89  C   UNL A   1      45.587  34.725  30.555  1.00  0.00     0.040 A 
ATOM     90  C   UNL A   1      45.320  33.888  32.799  1.00  0.00     0.040 A 
ATOM     91  F   UNL A   1      44.711  31.650  33.151  1.00  0.00    -0.206 F 
ATOM     92  C   UNL A   1      45.618  34.938  31.933  1.00  0.00     0.006 A 
ENDBRANCH  68  85
ENDBRANCH  42  43
ENDBRANCH  34  37
ENDBRANCH  32  33
ENDBRANCH  31  32
ENDBRANCH   1  31
TORSDOF 17
ENDMDL
MODEL 3
REMARK VINA RESULT:     -11.8      3.493      9.113
REMARK SMILES O=C(C[C@@H]([NH2+]Cc1ccccc1)C(=O)NCCCCNC(=O)c1ccc(-c2c3nc(c(-c4c(F)cccc4F)c4ccc([nH]4)c(-c4c(F)cccc4F)c4nc(c(-c5c(F)cccc5F)c5ccc2[nH]5)C=C4)C=C3)cc1)Nc1cccc(Cl)c1Cl
REMARK SMILES IDX 17 1 16 2 15 3 13 4 14 5 4 7 3 8 2 9 1 10 77 11 78 13 79 14
REMARK SMILES IDX 84 15 80 16 82 17 85 18 81 19 83 20 5 21 6 24 7 25 8 26
REMARK SMILES IDX 12 27 9 28 11 29 10 30 18 31 19 32 20 33 21 34 22 36 23 37
REMARK SMILES IDX 24 38 76 39 25 40 75 41 26 42 27 43 28 44 69 45 29 46 74 47
REMARK SMILES IDX 68 48 70 49 30 50 73 51 67 52 66 53 31 55 57 56 40 57 56 58
REMARK SMILES IDX 41 59 44 60 55 61 71 62 42 63 43 64 54 66 72 67 45 68 32 69
REMARK SMILES IDX 33 70 38 71 34 72 35 73 37 74 39 75 36 76 58 77 59 78 64 79
REMARK SMILES IDX 60 80 61 81 63 82 65 83 62 84 46 85 47 86 52 87 48 88 49 89
REMARK SMILES IDX 51 90 53 91 50 92
REMARK H PARENT 15 6 77 12 5 22 5 23 20 35 70 54 44 65
REMARK Flexibility Score: inf
ROOT
ATOM      1  C   UNL A   1      38.798  22.647  26.290  1.00  0.00     0.023 C 
ENDROOT
BRANCH   1   2
ATOM      2  C   UNL A   1      37.568  23.389  25.763  1.00  0.00     0.116 C 
BRANCH   2   3
ATOM      3  N   UNL A   1      37.405  23.202  24.333  1.00  0.00    -0.351 N 
ATOM      4  C   UNL A   1      36.276  23.022  23.588  1.00  0.00     0.278 C 
ATOM      5  O   UNL A   1      36.418  22.911  22.367  1.00  0.00    -0.268 OA
ATOM      6  H   UNL A   1      38.244  23.205  23.818  1.00  0.00     0.163 HD
BRANCH   4   7
ATOM      7  C   UNL A   1      34.872  22.980  24.228  1.00  0.00     0.282 C 
BRANCH   7   8
ATOM      8  C   UNL A   1      33.809  23.236  23.149  1.00  0.00     0.175 C 
BRANCH   8   9
ATOM      9  C   UNL A   1      33.435  24.691  23.015  1.00  0.00     0.230 C 
ATOM     10  O   UNL A   1      33.996  25.436  22.220  1.00  0.00    -0.274 OA
ATOM     11  N   UNL A   1      32.458  25.073  23.923  1.00  0.00    -0.325 N 
ATOM     12  H   UNL A   1      32.159  24.413  24.590  1.00  0.00     0.169 HD
BRANCH  11  13
ATOM     13  C   UNL A   1      31.866  26.354  23.946  1.00  0.00     0.061 A 
ATOM     14  C   UNL A   1      30.813  26.564  23.045  1.00  0.00     0.028 A 
ATOM     15  C   UNL A   1      32.298  27.407  24.779  1.00  0.00     0.083 A 
ATOM     16  C   UNL A   1      30.131  27.779  23.027  1.00  0.00     0.004 A 
ATOM     17  C   UNL A   1      31.616  28.634  24.738  1.00  0.00     0.061 A 
ATOM     18  Cl  UNL A   1      33.774  27.269  25.691  1.00  0.00    -0.080 Cl
ATOM     19  C   UNL A   1      30.526  28.809  23.878  1.00  0.00     0.022 A 
ATOM     20  Cl  UNL A   1      32.088  29.998  25.693  1.00  0.00    -0.083 Cl
ENDBRANCH  11  13
ENDBRANCH   8   9
ENDBRANCH   7   8
BRANCH   7  21
ATOM     21  N   UNL A   1      34.643  21.711  24.989  1.00  0.00    -0.332 N 
ATOM     22  H   UNL A   1      34.689  21.918  25.986  1.00  0.00     0.347 HD
ATOM     23  H   UNL A   1      35.366  21.050  24.705  1.00  0.00     0.347 HD
BRANCH  21  24
ATOM     24  C   UNL A   1      33.334  21.094  24.694  1.00  0.00     0.297 C 
BRANCH  24  25
ATOM     25  C   UNL A   1      33.446  19.665  24.214  1.00  0.00     0.006 A 
ATOM     26  C   UNL A   1      32.488  19.136  23.338  1.00  0.00     0.009 A 
ATOM     27  C   UNL A   1      34.514  18.850  24.622  1.00  0.00     0.009 A 
ATOM     28  C   UNL A   1      32.607  17.826  22.869  1.00  0.00     0.001 A 
ATOM     29  C   UNL A   1      34.640  17.548  24.137  1.00  0.00     0.001 A 
ATOM     30  C   UNL A   1      33.686  17.037  23.261  1.00  0.00     0.000 A 
ENDBRANCH  24  25
ENDBRANCH  21  24
ENDBRANCH   7  21
ENDBRANCH   4   7
ENDBRANCH   2   3
ENDBRANCH   1   2
BRANCH   1  31
ATOM     31  C   UNL A   1      39.107  21.331  25.577  1.00  0.00     0.023 C 
BRANCH  31  32
ATOM     32  C   UNL A   1      39.429  20.159  26.496  1.00  0.00     0.116 C 
BRANCH  32  33
ATOM     33  N   UNL A   1      40.532  19.341  26.015  1.00  0.00    -0.352 N 
ATOM     34  C   UNL A   1      41.861  19.679  25.926  1.00  0.00     0.251 C 
ATOM     35  H   UNL A   1      40.297  18.432  25.717  1.00  0.00     0.163 HD
ATOM     36  O   UNL A   1      42.671  18.923  25.402  1.00  0.00    -0.269 OA
BRANCH  34  37
ATOM     37  C   UNL A   1      42.295  20.992  26.443  1.00  0.00     0.039 A 
ATOM     38  C   UNL A   1      42.696  21.980  25.542  1.00  0.00     0.014 A 
ATOM     39  C   UNL A   1      42.237  21.256  27.814  1.00  0.00     0.014 A 
ATOM     40  C   UNL A   1      42.973  23.266  26.010  1.00  0.00     0.010 A 
ATOM     41  C   UNL A   1      42.454  22.551  28.269  1.00  0.00     0.010 A 
ATOM     42  C   UNL A   1      42.818  23.568  27.371  1.00  0.00    -0.014 A 
BRANCH  42  43
ATOM     43  C   UNL A   1      43.039  24.934  27.905  1.00  0.00     0.031 A 
ATOM     44  C   UNL A   1      44.401  25.317  28.407  1.00  0.00     0.074 A 
ATOM     45  C   UNL A   1      42.001  25.782  28.041  1.00  0.00     0.049 A 
ATOM     46  N   UNL A   1      44.767  26.370  29.090  1.00  0.00    -0.248 NA
ATOM     47  C   UNL A   1      45.489  24.366  28.133  1.00  0.00     0.031 C 
ATOM     48  C   UNL A   1      40.625  25.518  27.616  1.00  0.00     0.029 A 
ATOM     49  N   UNL A   1      41.941  27.031  28.606  1.00  0.00    -0.354 N 
ATOM     50  C   UNL A   1      46.118  26.192  29.357  1.00  0.00     0.074 A 
ATOM     51  C   UNL A   1      46.498  24.915  28.792  1.00  0.00     0.031 C 
ATOM     52  C   UNL A   1      39.858  26.574  27.932  1.00  0.00     0.029 A 
ATOM     53  C   UNL A   1      40.676  27.568  28.619  1.00  0.00     0.049 A 
ATOM     54  H   UNL A   1      42.729  27.498  28.966  1.00  0.00     0.167 HD
ATOM     55  C   UNL A   1      46.965  27.024  30.005  1.00  0.00     0.037 A 
ATOM     56  C   UNL A   1      40.226  28.723  29.147  1.00  0.00     0.037 A 
ATOM     57  C   UNL A   1      46.592  28.309  30.529  1.00  0.00     0.049 A 
ATOM     58  C   UNL A   1      41.190  29.635  29.854  1.00  0.00     0.074 A 
ATOM     59  C   UNL A   1      47.390  29.250  31.156  1.00  0.00     0.029 A 
ATOM     60  N   UNL A   1      45.311  28.839  30.477  1.00  0.00    -0.354 N 
ATOM     61  N   UNL A   1      42.471  29.472  30.073  1.00  0.00    -0.248 NA
ATOM     62  C   UNL A   1      40.644  30.892  30.389  1.00  0.00     0.031 C 
ATOM     63  C   UNL A   1      46.584  30.339  31.508  1.00  0.00     0.029 A 
ATOM     64  C   UNL A   1      45.295  30.090  31.067  1.00  0.00     0.049 A 
ATOM     65  H   UNL A   1      44.530  28.390  30.080  1.00  0.00     0.167 HD
ATOM     66  C   UNL A   1      42.893  30.616  30.737  1.00  0.00     0.074 A 
ATOM     67  C   UNL A   1      41.731  31.466  30.887  1.00  0.00     0.031 C 
ATOM     68  C   UNL A   1      44.133  30.934  31.179  1.00  0.00     0.037 A 
BRANCH  55  69
ATOM     69  C   UNL A   1      48.381  26.564  30.181  1.00  0.00     0.057 A 
ATOM     70  C   UNL A   1      48.778  25.803  31.288  1.00  0.00     0.134 A 
ATOM     71  C   UNL A   1      49.355  26.867  29.221  1.00  0.00     0.134 A 
ATOM     72  F   UNL A   1      47.897  25.492  32.251  1.00  0.00    -0.206 F 
ATOM     73  C   UNL A   1      50.100  25.382  31.447  1.00  0.00     0.040 A 
ATOM     74  C   UNL A   1      50.673  26.430  29.356  1.00  0.00     0.040 A 
ATOM     75  F   UNL A   1      49.039  27.588  28.135  1.00  0.00    -0.206 F 
ATOM     76  C   UNL A   1      51.050  25.691  30.476  1.00  0.00     0.006 A 
ENDBRANCH  55  69
BRANCH  56  77
ATOM     77  C   UNL A   1      38.795  29.091  29.015  1.00  0.00     0.057 A 
ATOM     78  C   UNL A   1      37.923  28.991  30.106  1.00  0.00     0.134 A 
ATOM     79  C   UNL A   1      38.262  29.544  27.803  1.00  0.00     0.134 A 
ATOM     80  F   UNL A   1      38.372  28.544  31.288  1.00  0.00    -0.206 F 
ATOM     81  C   UNL A   1      36.571  29.314  29.994  1.00  0.00     0.040 A 
ATOM     82  C   UNL A   1      36.915  29.891  27.681  1.00  0.00     0.040 A 
ATOM     83  F   UNL A   1      39.047  29.668  26.722  1.00  0.00    -0.206 F 
ATOM     84  C   UNL A   1      36.064  29.771  28.777  1.00  0.00     0.006 A 
ENDBRANCH  56  77
BRANCH  68  85
ATOM     85  C   UNL A   1      44.318  32.279  31.813  1.00  0.00     0.057 A 
ATOM     86  C   UNL A   1      44.615  33.419  31.058  1.00  0.00     0.134 A 
ATOM     87  C   UNL A   1      44.124  32.443  33.191  1.00  0.00     0.134 A 
ATOM     88  F   UNL A   1      44.823  33.323  29.736  1.00  0.00    -0.206 F 
ATOM     89  C   UNL A   1      44.720  34.676  31.653  1.00  0.00     0.040 A 
ATOM     90  C   UNL A   1      44.207  33.697  33.794  1.00  0.00     0.040 A 
ATOM     91  F   UNL A   1      43.830  31.388  33.967  1.00  0.00    -0.206 F 
ATOM     92  C   UNL A   1      44.506  34.819  33.024  1.00  0.00     0.006 A 
ENDBRANCH  68  85
ENDBRANCH  42  43
ENDBRANCH  34  37
ENDBRANCH  32  33
ENDBRANCH  31  32
ENDBRANCH   1  31
TORSDOF 17
ENDMDL
