MODEL 1
REMARK VINA RESULT:     -11.8      0.000      0.000
REMARK SMILES O=C(NCCCCNC(=O)[C@@H]1CC[C@@H](CNC(=O)c2ccc(Cl)cc2)O1)c1ccc(-c2c3nc(c(-c4c(F)cccc4F)c4ccc([nH]4)c(-c4c(F)cccc4F)c4nc(c(-c5c(F)cccc5F)c5ccc2[nH]5)C=C4)C=C3)cc1
REMARK SMILES IDX 6 1 5 2 4 3 3 4 1 5 2 6 27 8 28 9 80 10 29 11 79 12 30 13
REMARK SMILES IDX 31 14 32 15 73 16 33 17 78 18 72 19 74 20 34 21 77 22 71 23
REMARK SMILES IDX 70 24 35 26 61 27 44 28 60 29 45 30 48 31 59 32 75 33 46 34
REMARK SMILES IDX 47 35 58 37 76 38 49 39 36 40 37 41 42 42 38 43 39 44 41 45
REMARK SMILES IDX 43 46 40 47 62 48 63 49 68 50 64 51 65 52 67 53 69 54 66 55
REMARK SMILES IDX 50 56 51 57 56 58 52 59 53 60 55 61 57 62 54 63 7 64 8 65
REMARK SMILES IDX 9 66 10 68 11 69 12 70 26 71 13 72 14 73 15 74 16 75 17 76
REMARK SMILES IDX 18 78 19 79 20 80 25 81 21 82 24 83 22 84 23 85
REMARK H PARENT 3 7 74 25 48 36 8 67 16 77
REMARK Flexibility Score: inf
ROOT
ATOM      1  C   UNL A   1      36.739  20.801  24.635  1.00  0.00     0.023 C 
ENDROOT
BRANCH   1   2
ATOM      2  C   UNL A   1      37.698  19.672  25.002  1.00  0.00     0.023 C 
BRANCH   2   3
ATOM      3  C   UNL A   1      38.941  20.129  25.742  1.00  0.00     0.116 C 
BRANCH   3   4
ATOM      4  N   UNL A   1      39.993  19.125  25.772  1.00  0.00    -0.352 N 
ATOM      5  O   UNL A   1      42.134  18.409  25.922  1.00  0.00    -0.269 OA
ATOM      6  C   UNL A   1      41.331  19.323  26.025  1.00  0.00     0.251 C 
ATOM      7  H   UNL A   1      39.717  18.198  25.591  1.00  0.00     0.163 HD
BRANCH   6   8
ATOM      8  C   UNL A   1      41.773  20.682  26.388  1.00  0.00     0.039 A 
ATOM      9  C   UNL A   1      42.041  21.618  25.387  1.00  0.00     0.014 A 
ATOM     10  C   UNL A   1      41.969  20.995  27.735  1.00  0.00     0.014 A 
ATOM     11  C   UNL A   1      42.618  22.832  25.723  1.00  0.00     0.010 A 
ATOM     12  C   UNL A   1      42.469  22.251  28.078  1.00  0.00     0.010 A 
ATOM     13  C   UNL A   1      42.807  23.171  27.073  1.00  0.00    -0.014 A 
BRANCH  13  14
ATOM     14  C   UNL A   1      43.237  24.547  27.409  1.00  0.00     0.031 A 
ATOM     15  C   UNL A   1      42.257  25.586  27.862  1.00  0.00     0.074 A 
ATOM     16  C   UNL A   1      44.548  24.832  27.300  1.00  0.00     0.049 A 
ATOM     17  N   UNL A   1      42.479  26.837  28.175  1.00  0.00    -0.248 NA
ATOM     18  C   UNL A   1      40.847  25.180  27.972  1.00  0.00     0.031 C 
ATOM     19  C   UNL A   1      45.579  23.892  26.848  1.00  0.00     0.029 A 
ATOM     20  N   UNL A   1      45.243  25.982  27.565  1.00  0.00    -0.354 N 
ATOM     21  C   UNL A   1      41.241  27.375  28.497  1.00  0.00     0.074 A 
ATOM     22  C   UNL A   1      40.266  26.318  28.334  1.00  0.00     0.031 C 
ATOM     23  C   UNL A   1      46.776  24.490  26.900  1.00  0.00     0.029 A 
ATOM     24  C   UNL A   1      46.590  25.872  27.323  1.00  0.00     0.049 A 
ATOM     25  H   UNL A   1      44.819  26.806  27.895  1.00  0.00     0.167 HD
ATOM     26  C   UNL A   1      40.957  28.638  28.893  1.00  0.00     0.037 A 
ATOM     27  C   UNL A   1      47.567  26.791  27.402  1.00  0.00     0.037 A 
ATOM     28  C   UNL A   1      41.944  29.671  29.074  1.00  0.00     0.049 A 
ATOM     29  C   UNL A   1      47.212  28.183  27.828  1.00  0.00     0.074 A 
ATOM     30  C   UNL A   1      41.764  30.964  29.536  1.00  0.00     0.029 A 
ATOM     31  N   UNL A   1      43.295  29.533  28.795  1.00  0.00    -0.354 N 
ATOM     32  N   UNL A   1      46.043  28.665  28.175  1.00  0.00    -0.248 NA
ATOM     33  C   UNL A   1      48.305  29.161  27.864  1.00  0.00     0.031 C 
ATOM     34  C   UNL A   1      42.998  31.620  29.494  1.00  0.00     0.029 A 
ATOM     35  C   UNL A   1      43.955  30.726  29.044  1.00  0.00     0.049 A 
ATOM     36  H   UNL A   1      43.723  28.707  28.467  1.00  0.00     0.167 HD
ATOM     37  C   UNL A   1      46.259  30.002  28.471  1.00  0.00     0.074 A 
ATOM     38  C   UNL A   1      47.676  30.246  28.292  1.00  0.00     0.031 C 
ATOM     39  C   UNL A   1      45.364  30.945  28.847  1.00  0.00     0.037 A 
BRANCH  26  40
ATOM     40  C   UNL A   1      39.522  28.992  29.147  1.00  0.00     0.057 A 
ATOM     41  C   UNL A   1      38.678  29.443  28.126  1.00  0.00     0.134 A 
ATOM     42  C   UNL A   1      38.955  28.789  30.413  1.00  0.00     0.134 A 
ATOM     43  F   UNL A   1      39.161  29.665  26.894  1.00  0.00    -0.206 F 
ATOM     44  C   UNL A   1      37.320  29.681  28.354  1.00  0.00     0.040 A 
ATOM     45  C   UNL A   1      37.597  29.006  30.649  1.00  0.00     0.040 A 
ATOM     46  F   UNL A   1      39.709  28.354  31.434  1.00  0.00    -0.206 F 
ATOM     47  C   UNL A   1      36.775  29.452  29.617  1.00  0.00     0.006 A 
ENDBRANCH  26  40
BRANCH  27  48
ATOM     48  C   UNL A   1      48.956  26.427  27.035  1.00  0.00     0.057 A 
ATOM     49  C   UNL A   1      49.840  25.897  27.980  1.00  0.00     0.134 A 
ATOM     50  C   UNL A   1      49.427  26.590  25.727  1.00  0.00     0.134 A 
ATOM     51  F   UNL A   1      49.450  25.731  29.253  1.00  0.00    -0.206 F 
ATOM     52  C   UNL A   1      51.150  25.558  27.641  1.00  0.00     0.040 A 
ATOM     53  C   UNL A   1      50.725  26.229  25.367  1.00  0.00     0.040 A 
ATOM     54  F   UNL A   1      48.623  27.083  24.773  1.00  0.00    -0.206 F 
ATOM     55  C   UNL A   1      51.594  25.717  26.329  1.00  0.00     0.006 A 
ENDBRANCH  27  48
BRANCH  39  56
ATOM     56  C   UNL A   1      45.903  32.322  29.086  1.00  0.00     0.057 A 
ATOM     57  C   UNL A   1      46.397  32.705  30.340  1.00  0.00     0.134 A 
ATOM     58  C   UNL A   1      45.940  33.268  28.055  1.00  0.00     0.134 A 
ATOM     59  F   UNL A   1      46.371  31.848  31.371  1.00  0.00    -0.206 F 
ATOM     60  C   UNL A   1      46.889  33.990  30.565  1.00  0.00     0.040 A 
ATOM     61  C   UNL A   1      46.452  34.548  28.262  1.00  0.00     0.040 A 
ATOM     62  F   UNL A   1      45.485  32.958  26.831  1.00  0.00    -0.206 F 
ATOM     63  C   UNL A   1      46.922  34.915  29.522  1.00  0.00     0.006 A 
ENDBRANCH  39  56
ENDBRANCH  13  14
ENDBRANCH   6   8
ENDBRANCH   3   4
ENDBRANCH   2   3
ENDBRANCH   1   2
BRANCH   1  64
ATOM     64  C   UNL A   1      35.643  21.071  25.668  1.00  0.00     0.116 C 
BRANCH  64  65
ATOM     65  N   UNL A   1      34.429  20.349  25.349  1.00  0.00    -0.354 N 
ATOM     66  C   UNL A   1      33.146  20.818  25.247  1.00  0.00     0.249 C 
ATOM     67  H   UNL A   1      34.543  19.386  25.180  1.00  0.00     0.163 HD
ATOM     68  O   UNL A   1      32.257  19.991  25.038  1.00  0.00    -0.272 OA
BRANCH  66  69
ATOM     69  C   UNL A   1      32.870  22.338  25.352  1.00  0.00     0.207 C 
ATOM     70  C   UNL A   1      31.764  22.684  26.345  1.00  0.00     0.045 C 
ATOM     71  O   UNL A   1      32.464  22.916  24.093  1.00  0.00    -0.363 OA
ATOM     72  C   UNL A   1      31.025  23.811  25.686  1.00  0.00     0.037 C 
ATOM     73  C   UNL A   1      31.114  23.392  24.236  1.00  0.00     0.138 C 
BRANCH  73  74
ATOM     74  C   UNL A   1      30.827  24.569  23.312  1.00  0.00     0.148 C 
BRANCH  74  75
ATOM     75  N   UNL A   1      31.869  24.766  22.317  1.00  0.00    -0.349 N 
ATOM     76  C   UNL A   1      32.938  25.624  22.302  1.00  0.00     0.251 C 
ATOM     77  H   UNL A   1      31.793  24.189  21.523  1.00  0.00     0.163 HD
ATOM     78  O   UNL A   1      33.651  25.706  21.307  1.00  0.00    -0.269 OA
BRANCH  76  79
ATOM     79  C   UNL A   1      33.223  26.500  23.463  1.00  0.00     0.039 A 
ATOM     80  C   UNL A   1      33.747  26.004  24.663  1.00  0.00     0.015 A 
ATOM     81  C   UNL A   1      32.991  27.873  23.319  1.00  0.00     0.015 A 
ATOM     82  C   UNL A   1      33.948  26.866  25.744  1.00  0.00     0.021 A 
ATOM     83  C   UNL A   1      33.214  28.737  24.394  1.00  0.00     0.021 A 
ATOM     84  C   UNL A   1      33.673  28.227  25.608  1.00  0.00     0.041 A 
ATOM     85  Cl  UNL A   1      33.907  29.282  26.946  1.00  0.00    -0.084 Cl
ENDBRANCH  76  79
ENDBRANCH  74  75
ENDBRANCH  73  74
ENDBRANCH  66  69
ENDBRANCH  64  65
ENDBRANCH   1  64
TORSDOF 14
ENDMDL
MODEL 2
REMARK VINA RESULT:     -11.7      5.113     10.128
REMARK SMILES O=C(NCCCCNC(=O)[C@@H]1CC[C@@H](CNC(=O)c2ccc(Cl)cc2)O1)c1ccc(-c2c3nc(c(-c4c(F)cccc4F)c4ccc([nH]4)c(-c4c(F)cccc4F)c4nc(c(-c5c(F)cccc5F)c5ccc2[nH]5)C=C4)C=C3)cc1
REMARK SMILES IDX 6 1 5 2 4 3 3 4 1 5 2 6 27 8 28 9 80 10 29 11 79 12 30 13
REMARK SMILES IDX 31 14 32 15 73 16 33 17 78 18 72 19 74 20 34 21 77 22 71 23
REMARK SMILES IDX 70 24 35 26 61 27 44 28 60 29 45 30 48 31 59 32 75 33 46 34
REMARK SMILES IDX 47 35 58 37 76 38 49 39 36 40 37 41 42 42 38 43 39 44 41 45
REMARK SMILES IDX 43 46 40 47 62 48 63 49 68 50 64 51 65 52 67 53 69 54 66 55
REMARK SMILES IDX 50 56 51 57 56 58 52 59 53 60 55 61 57 62 54 63 7 64 8 65
REMARK SMILES IDX 9 66 10 68 11 69 12 70 26 71 13 72 14 73 15 74 16 75 17 76
REMARK SMILES IDX 18 78 19 79 20 80 25 81 21 82 24 83 22 84 23 85
REMARK H PARENT 3 7 74 25 48 36 8 67 16 77
REMARK Flexibility Score: inf
ROOT
ATOM      1  C   UNL A   1      31.516  30.241  26.236  1.00  0.00     0.023 C 
ENDROOT
BRANCH   1   2
ATOM      2  C   UNL A   1      31.394  31.755  26.384  1.00  0.00     0.023 C 
BRANCH   2   3
ATOM      3  C   UNL A   1      32.615  32.419  26.993  1.00  0.00     0.116 C 
BRANCH   3   4
ATOM      4  N   UNL A   1      32.365  33.782  27.439  1.00  0.00    -0.352 N 
ATOM      5  O   UNL A   1      32.673  35.588  28.764  1.00  0.00    -0.269 OA
ATOM      6  C   UNL A   1      33.044  34.481  28.409  1.00  0.00     0.251 C 
ATOM      7  H   UNL A   1      31.626  34.256  26.996  1.00  0.00     0.163 HD
BRANCH   6   8
ATOM      8  C   UNL A   1      34.215  33.838  29.035  1.00  0.00     0.039 A 
ATOM      9  C   UNL A   1      34.031  32.804  29.955  1.00  0.00     0.014 A 
ATOM     10  C   UNL A   1      35.492  34.315  28.736  1.00  0.00     0.014 A 
ATOM     11  C   UNL A   1      35.119  32.321  30.666  1.00  0.00     0.010 A 
ATOM     12  C   UNL A   1      36.596  33.768  29.390  1.00  0.00     0.010 A 
ATOM     13  C   UNL A   1      36.413  32.777  30.367  1.00  0.00    -0.014 A 
BRANCH  13  14
ATOM     14  C   UNL A   1      37.569  32.103  30.999  1.00  0.00     0.031 A 
ATOM     15  C   UNL A   1      38.319  31.011  30.299  1.00  0.00     0.074 A 
ATOM     16  C   UNL A   1      37.931  32.512  32.229  1.00  0.00     0.049 A 
ATOM     17  N   UNL A   1      39.341  30.316  30.729  1.00  0.00    -0.248 NA
ATOM     18  C   UNL A   1      37.868  30.642  28.948  1.00  0.00     0.031 C 
ATOM     19  C   UNL A   1      37.250  33.556  33.003  1.00  0.00     0.029 A 
ATOM     20  N   UNL A   1      38.956  32.114  33.044  1.00  0.00    -0.354 N 
ATOM     21  C   UNL A   1      39.641  29.413  29.718  1.00  0.00     0.074 A 
ATOM     22  C   UNL A   1      38.689  29.642  28.652  1.00  0.00     0.031 C 
ATOM     23  C   UNL A   1      37.896  33.740  34.162  1.00  0.00     0.029 A 
ATOM     24  C   UNL A   1      38.992  32.783  34.243  1.00  0.00     0.049 A 
ATOM     25  H   UNL A   1      39.605  31.416  32.796  1.00  0.00     0.167 HD
ATOM     26  C   UNL A   1      40.626  28.485  29.693  1.00  0.00     0.037 A 
ATOM     27  C   UNL A   1      39.798  32.625  35.305  1.00  0.00     0.037 A 
ATOM     28  C   UNL A   1      41.581  28.288  30.753  1.00  0.00     0.049 A 
ATOM     29  C   UNL A   1      40.866  31.576  35.248  1.00  0.00     0.074 A 
ATOM     30  C   UNL A   1      42.657  27.418  30.793  1.00  0.00     0.029 A 
ATOM     31  N   UNL A   1      41.571  28.966  31.963  1.00  0.00    -0.354 N 
ATOM     32  N   UNL A   1      41.168  30.762  34.265  1.00  0.00    -0.248 NA
ATOM     33  C   UNL A   1      41.697  31.414  36.446  1.00  0.00     0.031 C 
ATOM     34  C   UNL A   1      43.270  27.538  32.044  1.00  0.00     0.029 A 
ATOM     35  C   UNL A   1      42.602  28.510  32.769  1.00  0.00     0.049 A 
ATOM     36  H   UNL A   1      40.925  29.667  32.212  1.00  0.00     0.167 HD
ATOM     37  C   UNL A   1      42.225  29.991  34.725  1.00  0.00     0.074 A 
ATOM     38  C   UNL A   1      42.531  30.457  36.063  1.00  0.00     0.031 C 
ATOM     39  C   UNL A   1      42.877  28.982  34.101  1.00  0.00     0.037 A 
BRANCH  26  40
ATOM     40  C   UNL A   1      40.724  27.592  28.492  1.00  0.00     0.057 A 
ATOM     41  C   UNL A   1      40.001  26.398  28.395  1.00  0.00     0.134 A 
ATOM     42  C   UNL A   1      41.480  27.983  27.378  1.00  0.00     0.134 A 
ATOM     43  F   UNL A   1      39.265  25.965  29.429  1.00  0.00    -0.206 F 
ATOM     44  C   UNL A   1      40.028  25.621  27.234  1.00  0.00     0.040 A 
ATOM     45  C   UNL A   1      41.501  27.225  26.207  1.00  0.00     0.040 A 
ATOM     46  F   UNL A   1      42.193  29.119  27.404  1.00  0.00    -0.206 F 
ATOM     47  C   UNL A   1      40.772  26.041  26.132  1.00  0.00     0.006 A 
ENDBRANCH  26  40
BRANCH  27  48
ATOM     48  C   UNL A   1      39.596  33.454  36.517  1.00  0.00     0.057 A 
ATOM     49  C   UNL A   1      38.728  33.050  37.536  1.00  0.00     0.134 A 
ATOM     50  C   UNL A   1      40.277  34.666  36.688  1.00  0.00     0.134 A 
ATOM     51  F   UNL A   1      38.037  31.906  37.421  1.00  0.00    -0.206 F 
ATOM     52  C   UNL A   1      38.530  33.831  38.675  1.00  0.00     0.040 A 
ATOM     53  C   UNL A   1      40.111  35.442  37.835  1.00  0.00     0.040 A 
ATOM     54  F   UNL A   1      41.132  35.101  35.751  1.00  0.00    -0.206 F 
ATOM     55  C   UNL A   1      39.228  35.028  38.830  1.00  0.00     0.006 A 
ENDBRANCH  27  48
BRANCH  39  56
ATOM     56  C   UNL A   1      43.982  28.323  34.868  1.00  0.00     0.057 A 
ATOM     57  C   UNL A   1      43.752  27.180  35.643  1.00  0.00     0.134 A 
ATOM     58  C   UNL A   1      45.287  28.828  34.823  1.00  0.00     0.134 A 
ATOM     59  F   UNL A   1      42.519  26.660  35.739  1.00  0.00    -0.206 F 
ATOM     60  C   UNL A   1      44.779  26.574  36.366  1.00  0.00     0.040 A 
ATOM     61  C   UNL A   1      46.326  28.217  35.523  1.00  0.00     0.040 A 
ATOM     62  F   UNL A   1      45.570  29.919  34.095  1.00  0.00    -0.206 F 
ATOM     63  C   UNL A   1      46.073  27.090  36.303  1.00  0.00     0.006 A 
ENDBRANCH  39  56
ENDBRANCH  13  14
ENDBRANCH   6   8
ENDBRANCH   3   4
ENDBRANCH   2   3
ENDBRANCH   1   2
BRANCH   1  64
ATOM     64  C   UNL A   1      32.221  29.778  24.958  1.00  0.00     0.116 C 
BRANCH  64  65
ATOM     65  N   UNL A   1      31.275  29.571  23.881  1.00  0.00    -0.354 N 
ATOM     66  C   UNL A   1      31.136  28.492  23.049  1.00  0.00     0.249 C 
ATOM     67  H   UNL A   1      30.643  30.310  23.727  1.00  0.00     0.163 HD
ATOM     68  O   UNL A   1      30.301  28.578  22.147  1.00  0.00    -0.272 OA
BRANCH  66  69
ATOM     69  C   UNL A   1      31.980  27.217  23.292  1.00  0.00     0.207 C 
ATOM     70  C   UNL A   1      32.595  26.649  22.016  1.00  0.00     0.045 C 
ATOM     71  O   UNL A   1      31.208  26.142  23.870  1.00  0.00    -0.363 OA
ATOM     72  C   UNL A   1      32.489  25.163  22.194  1.00  0.00     0.037 C 
ATOM     73  C   UNL A   1      31.167  25.063  22.920  1.00  0.00     0.138 C 
BRANCH  73  74
ATOM     74  C   UNL A   1      31.025  23.710  23.606  1.00  0.00     0.148 C 
BRANCH  74  75
ATOM     75  N   UNL A   1      30.648  23.829  25.005  1.00  0.00    -0.349 N 
ATOM     76  C   UNL A   1      31.411  23.764  26.142  1.00  0.00     0.251 C 
ATOM     77  H   UNL A   1      29.688  23.980  25.162  1.00  0.00     0.163 HD
ATOM     78  O   UNL A   1      30.877  23.786  27.247  1.00  0.00    -0.269 OA
BRANCH  76  79
ATOM     79  C   UNL A   1      32.883  23.615  26.061  1.00  0.00     0.039 A 
ATOM     80  C   UNL A   1      33.721  24.670  25.680  1.00  0.00     0.015 A 
ATOM     81  C   UNL A   1      33.437  22.380  26.420  1.00  0.00     0.015 A 
ATOM     82  C   UNL A   1      35.098  24.461  25.569  1.00  0.00     0.021 A 
ATOM     83  C   UNL A   1      34.817  22.179  26.330  1.00  0.00     0.021 A 
ATOM     84  C   UNL A   1      35.639  23.215  25.886  1.00  0.00     0.041 A 
ATOM     85  Cl  UNL A   1      37.332  22.956  25.733  1.00  0.00    -0.084 Cl
ENDBRANCH  76  79
ENDBRANCH  74  75
ENDBRANCH  73  74
ENDBRANCH  66  69
ENDBRANCH  64  65
ENDBRANCH   1  64
TORSDOF 14
ENDMDL
MODEL 3
REMARK VINA RESULT:     -11.6      0.418      6.312
REMARK SMILES O=C(NCCCCNC(=O)[C@@H]1CC[C@@H](CNC(=O)c2ccc(Cl)cc2)O1)c1ccc(-c2c3nc(c(-c4c(F)cccc4F)c4ccc([nH]4)c(-c4c(F)cccc4F)c4nc(c(-c5c(F)cccc5F)c5ccc2[nH]5)C=C4)C=C3)cc1
REMARK SMILES IDX 6 1 5 2 4 3 3 4 1 5 2 6 27 8 28 9 80 10 29 11 79 12 30 13
REMARK SMILES IDX 31 14 32 15 73 16 33 17 78 18 72 19 74 20 34 21 77 22 71 23
REMARK SMILES IDX 70 24 35 26 61 27 44 28 60 29 45 30 48 31 59 32 75 33 46 34
REMARK SMILES IDX 47 35 58 37 76 38 49 39 36 40 37 41 42 42 38 43 39 44 41 45
REMARK SMILES IDX 43 46 40 47 62 48 63 49 68 50 64 51 65 52 67 53 69 54 66 55
REMARK SMILES IDX 50 56 51 57 56 58 52 59 53 60 55 61 57 62 54 63 7 64 8 65
REMARK SMILES IDX 9 66 10 68 11 69 12 70 26 71 13 72 14 73 15 74 16 75 17 76
REMARK SMILES IDX 18 78 19 79 20 80 25 81 21 82 24 83 22 84 23 85
REMARK H PARENT 3 7 74 25 48 36 8 67 16 77
REMARK Flexibility Score: inf
ROOT
ATOM      1  C   UNL A   1      36.733  20.836  24.621  1.00  0.00     0.023 C 
ENDROOT
BRANCH   1   2
ATOM      2  C   UNL A   1      37.661  19.688  25.008  1.00  0.00     0.023 C 
BRANCH   2   3
ATOM      3  C   UNL A   1      38.910  20.125  25.751  1.00  0.00     0.116 C 
BRANCH   3   4
ATOM      4  N   UNL A   1      39.946  19.104  25.781  1.00  0.00    -0.352 N 
ATOM      5  O   UNL A   1      42.076  18.355  25.925  1.00  0.00    -0.269 OA
ATOM      6  C   UNL A   1      41.288  19.281  26.027  1.00  0.00     0.251 C 
ATOM      7  H   UNL A   1      39.654  18.181  25.606  1.00  0.00     0.163 HD
BRANCH   6   8
ATOM      8  C   UNL A   1      41.753  20.635  26.382  1.00  0.00     0.039 A 
ATOM      9  C   UNL A   1      42.058  21.553  25.374  1.00  0.00     0.014 A 
ATOM     10  C   UNL A   1      41.935  20.960  27.727  1.00  0.00     0.014 A 
ATOM     11  C   UNL A   1      42.655  22.759  25.706  1.00  0.00     0.010 A 
ATOM     12  C   UNL A   1      42.456  22.209  28.064  1.00  0.00     0.010 A 
ATOM     13  C   UNL A   1      42.830  23.109  27.054  1.00  0.00    -0.014 A 
BRANCH  13  14
ATOM     14  C   UNL A   1      43.284  24.480  27.380  1.00  0.00     0.031 A 
ATOM     15  C   UNL A   1      44.727  24.873  27.286  1.00  0.00     0.074 A 
ATOM     16  C   UNL A   1      42.348  25.370  27.761  1.00  0.00     0.049 A 
ATOM     17  N   UNL A   1      45.278  26.028  27.555  1.00  0.00    -0.248 NA
ATOM     18  C   UNL A   1      45.678  23.842  26.842  1.00  0.00     0.031 C 
ATOM     19  C   UNL A   1      40.917  25.078  27.902  1.00  0.00     0.029 A 
ATOM     20  N   UNL A   1      42.448  26.695  28.089  1.00  0.00    -0.354 N 
ATOM     21  C   UNL A   1      46.639  25.862  27.337  1.00  0.00     0.074 A 
ATOM     22  C   UNL A   1      46.834  24.489  26.920  1.00  0.00     0.031 C 
ATOM     23  C   UNL A   1      40.270  26.196  28.253  1.00  0.00     0.029 A 
ATOM     24  C   UNL A   1      41.245  27.265  28.428  1.00  0.00     0.049 A 
ATOM     25  H   UNL A   1      43.298  27.191  28.084  1.00  0.00     0.167 HD
ATOM     26  C   UNL A   1      47.625  26.779  27.474  1.00  0.00     0.037 A 
ATOM     27  C   UNL A   1      40.960  28.504  28.862  1.00  0.00     0.037 A 
ATOM     28  C   UNL A   1      47.409  28.149  27.865  1.00  0.00     0.049 A 
ATOM     29  C   UNL A   1      42.079  29.487  29.017  1.00  0.00     0.074 A 
ATOM     30  C   UNL A   1      48.335  29.172  27.968  1.00  0.00     0.029 A 
ATOM     31  N   UNL A   1      46.181  28.684  28.226  1.00  0.00    -0.354 N 
ATOM     32  N   UNL A   1      43.356  29.328  28.761  1.00  0.00    -0.248 NA
ATOM     33  C   UNL A   1      41.725  30.815  29.529  1.00  0.00     0.031 C 
ATOM     34  C   UNL A   1      47.676  30.314  28.433  1.00  0.00     0.029 A 
ATOM     35  C   UNL A   1      46.332  30.014  28.583  1.00  0.00     0.049 A 
ATOM     36  H   UNL A   1      45.328  28.191  28.228  1.00  0.00     0.167 HD
ATOM     37  C   UNL A   1      43.957  30.536  29.081  1.00  0.00     0.074 A 
ATOM     38  C   UNL A   1      42.901  31.426  29.519  1.00  0.00     0.031 C 
ATOM     39  C   UNL A   1      45.267  30.875  29.027  1.00  0.00     0.037 A 
BRANCH  26  40
ATOM     40  C   UNL A   1      49.036  26.342  27.215  1.00  0.00     0.057 A 
ATOM     41  C   UNL A   1      49.605  26.393  25.938  1.00  0.00     0.134 A 
ATOM     42  C   UNL A   1      49.864  25.954  28.278  1.00  0.00     0.134 A 
ATOM     43  F   UNL A   1      48.863  26.748  24.878  1.00  0.00    -0.206 F 
ATOM     44  C   UNL A   1      50.948  26.072  25.724  1.00  0.00     0.040 A 
ATOM     45  C   UNL A   1      51.211  25.648  28.080  1.00  0.00     0.040 A 
ATOM     46  F   UNL A   1      49.382  25.889  29.528  1.00  0.00    -0.206 F 
ATOM     47  C   UNL A   1      51.757  25.708  26.800  1.00  0.00     0.006 A 
ENDBRANCH  26  40
BRANCH  27  48
ATOM     48  C   UNL A   1      39.565  28.862  29.212  1.00  0.00     0.057 A 
ATOM     49  C   UNL A   1      38.698  29.411  28.263  1.00  0.00     0.134 A 
ATOM     50  C   UNL A   1      39.064  28.650  30.502  1.00  0.00     0.134 A 
ATOM     51  F   UNL A   1      39.125  29.650  27.014  1.00  0.00    -0.206 F 
ATOM     52  C   UNL A   1      37.385  29.755  28.589  1.00  0.00     0.040 A 
ATOM     53  C   UNL A   1      37.746  28.962  30.834  1.00  0.00     0.040 A 
ATOM     54  F   UNL A   1      39.844  28.115  31.453  1.00  0.00    -0.206 F 
ATOM     55  C   UNL A   1      36.904  29.524  29.877  1.00  0.00     0.006 A 
ENDBRANCH  27  48
BRANCH  39  56
ATOM     56  C   UNL A   1      45.616  32.267  29.454  1.00  0.00     0.057 A 
ATOM     57  C   UNL A   1      45.571  33.340  28.554  1.00  0.00     0.134 A 
ATOM     58  C   UNL A   1      45.989  32.540  30.775  1.00  0.00     0.134 A 
ATOM     59  F   UNL A   1      45.239  33.137  27.270  1.00  0.00    -0.206 F 
ATOM     60  C   UNL A   1      45.907  34.634  28.950  1.00  0.00     0.040 A 
ATOM     61  C   UNL A   1      46.304  33.834  31.188  1.00  0.00     0.040 A 
ATOM     62  F   UNL A   1      46.046  31.554  31.684  1.00  0.00    -0.206 F 
ATOM     63  C   UNL A   1      46.270  34.885  30.273  1.00  0.00     0.006 A 
ENDBRANCH  39  56
ENDBRANCH  13  14
ENDBRANCH   6   8
ENDBRANCH   3   4
ENDBRANCH   2   3
ENDBRANCH   1   2
BRANCH   1  64
ATOM     64  C   UNL A   1      35.683  21.194  25.676  1.00  0.00     0.116 C 
BRANCH  64  65
ATOM     65  N   UNL A   1      34.462  20.439  25.480  1.00  0.00    -0.354 N 
ATOM     66  C   UNL A   1      33.174  20.894  25.371  1.00  0.00     0.249 C 
ATOM     67  H   UNL A   1      34.574  19.464  25.416  1.00  0.00     0.163 HD
ATOM     68  O   UNL A   1      32.282  20.048  25.286  1.00  0.00    -0.272 OA
BRANCH  66  69
ATOM     69  C   UNL A   1      32.896  22.416  25.315  1.00  0.00     0.207 C 
ATOM     70  C   UNL A   1      31.834  22.872  26.312  1.00  0.00     0.045 C 
ATOM     71  O   UNL A   1      32.430  22.847  24.018  1.00  0.00    -0.363 OA
ATOM     72  C   UNL A   1      31.060  23.917  25.564  1.00  0.00     0.037 C 
ATOM     73  C   UNL A   1      31.085  23.336  24.168  1.00  0.00     0.138 C 
BRANCH  73  74
ATOM     74  C   UNL A   1      30.751  24.401  23.131  1.00  0.00     0.148 C 
BRANCH  74  75
ATOM     75  N   UNL A   1      31.902  24.779  22.326  1.00  0.00    -0.349 N 
ATOM     76  C   UNL A   1      32.807  25.795  22.486  1.00  0.00     0.251 C 
ATOM     77  H   UNL A   1      32.055  24.213  21.535  1.00  0.00     0.163 HD
ATOM     78  O   UNL A   1      33.657  26.008  21.626  1.00  0.00    -0.269 OA
BRANCH  76  79
ATOM     79  C   UNL A   1      32.748  26.684  23.671  1.00  0.00     0.039 A 
ATOM     80  C   UNL A   1      31.789  27.695  23.800  1.00  0.00     0.015 A 
ATOM     81  C   UNL A   1      33.669  26.462  24.703  1.00  0.00     0.015 A 
ATOM     82  C   UNL A   1      31.810  28.539  24.913  1.00  0.00     0.021 A 
ATOM     83  C   UNL A   1      33.675  27.292  25.826  1.00  0.00     0.021 A 
ATOM     84  C   UNL A   1      32.758  28.339  25.917  1.00  0.00     0.041 A 
ATOM     85  Cl  UNL A   1      32.792  29.389  27.279  1.00  0.00    -0.084 Cl
ENDBRANCH  76  79
ENDBRANCH  74  75
ENDBRANCH  73  74
ENDBRANCH  66  69
ENDBRANCH  64  65
ENDBRANCH   1  64
TORSDOF 14
ENDMDL
