MODEL 1
REMARK VINA RESULT:     -12.2      0.000      0.000
REMARK SMILES Cc1ccc(NC(=O)C[C@@H](C(=O)NCCCCNC(=O)c2ccc(-c3c4nc(c(-c5c(F)cccc5F)c5ccc([nH]5)c(-c5c(F)cccc5F)c5nc(c(-c6c(F)cccc6F)c6ccc3[nH]6)C=C5)C=C4)cc2)[NH+]2CCOCC2)cc1
REMARK SMILES IDX 15 1 14 2 13 3 11 4 12 5 10 7 9 8 7 9 6 10 8 12 5 13 1 14
REMARK SMILES IDX 2 15 3 16 82 17 4 18 81 19 75 20 76 21 80 22 77 24 79 25
REMARK SMILES IDX 78 26 16 27 17 28 18 29 19 30 20 32 21 33 22 34 74 35 23 36
REMARK SMILES IDX 73 37 24 38 25 39 26 40 67 41 27 42 72 43 66 44 68 45 28 46
REMARK SMILES IDX 71 47 65 48 64 49 29 51 55 52 38 53 54 54 39 55 42 56 53 57
REMARK SMILES IDX 69 58 40 59 41 60 52 62 70 63 43 64 30 65 31 66 36 67 32 68
REMARK SMILES IDX 33 69 35 70 37 71 34 72 56 73 57 74 62 75 58 76 59 77 61 78
REMARK SMILES IDX 63 79 60 80 44 81 45 82 50 83 46 84 47 85 49 86 51 87 48 88
REMARK H PARENT 13 6 6 11 75 23 18 31 68 50 42 61
REMARK Flexibility Score: inf
ROOT
ATOM      1  C   UNL A   1      32.006  30.765  26.876  1.00  0.00     0.023 C 
ENDROOT
BRANCH   1   2
ATOM      2  C   UNL A   1      32.192  29.272  26.530  1.00  0.00     0.116 C 
BRANCH   2   3
ATOM      3  N   UNL A   1      32.625  29.001  25.173  1.00  0.00    -0.351 N 
ATOM      4  C   UNL A   1      32.003  28.963  23.963  1.00  0.00     0.278 C 
ATOM      5  O   UNL A   1      32.788  28.907  23.008  1.00  0.00    -0.268 OA
ATOM      6  H   UNL A   1      33.586  28.798  25.113  1.00  0.00     0.163 HD
BRANCH   4   7
ATOM      7  C   UNL A   1      30.446  29.056  23.771  1.00  0.00     0.283 C 
BRANCH   7   8
ATOM      8  C   UNL A   1      29.810  27.850  23.045  1.00  0.00     0.175 C 
BRANCH   8   9
ATOM      9  C   UNL A   1      28.910  26.884  23.768  1.00  0.00     0.230 C 
ATOM     10  N   UNL A   1      29.361  25.795  24.450  1.00  0.00    -0.326 N 
ATOM     11  H   UNL A   1      28.645  25.255  24.856  1.00  0.00     0.169 HD
ATOM     12  O   UNL A   1      27.687  27.075  23.735  1.00  0.00    -0.274 OA
BRANCH  10  13
ATOM     13  C   UNL A   1      30.654  25.293  24.685  1.00  0.00     0.041 A 
ATOM     14  C   UNL A   1      34.879  24.688  25.223  1.00  0.00     0.044 C 
ATOM     15  C   UNL A   1      33.389  24.803  25.112  1.00  0.00    -0.051 A 
ATOM     16  C   UNL A   1      32.736  24.271  23.999  1.00  0.00     0.005 A 
ATOM     17  C   UNL A   1      32.634  25.469  26.080  1.00  0.00     0.005 A 
ATOM     18  C   UNL A   1      31.376  24.506  23.793  1.00  0.00     0.026 A 
ATOM     19  C   UNL A   1      31.269  25.687  25.878  1.00  0.00     0.026 A 
ENDBRANCH  10  13
ENDBRANCH   8   9
ENDBRANCH   7   8
BRANCH   7  20
ATOM     20  N   UNL A   1      30.113  30.344  23.063  1.00  0.00    -0.320 N 
ATOM     21  C   UNL A   1      29.294  31.295  23.849  1.00  0.00     0.291 C 
ATOM     22  C   UNL A   1      29.606  30.311  21.679  1.00  0.00     0.291 C 
ATOM     23  H   UNL A   1      31.073  30.677  22.974  1.00  0.00     0.348 HD
ATOM     24  C   UNL A   1      27.776  31.145  23.654  1.00  0.00     0.221 C 
ATOM     25  C   UNL A   1      28.085  30.174  21.543  1.00  0.00     0.221 C 
ATOM     26  O   UNL A   1      27.410  31.200  22.272  1.00  0.00    -0.370 OA
ENDBRANCH   7  20
ENDBRANCH   4   7
ENDBRANCH   2   3
ENDBRANCH   1   2
BRANCH   1  27
ATOM     27  C   UNL A   1      33.251  31.570  27.266  1.00  0.00     0.023 C 
BRANCH  27  28
ATOM     28  C   UNL A   1      34.322  30.770  27.990  1.00  0.00     0.116 C 
BRANCH  28  29
ATOM     29  N   UNL A   1      34.949  31.484  29.105  1.00  0.00    -0.352 N 
ATOM     30  C   UNL A   1      36.115  31.152  29.777  1.00  0.00     0.251 C 
ATOM     31  H   UNL A   1      34.487  32.297  29.413  1.00  0.00     0.163 HD
ATOM     32  O   UNL A   1      36.566  31.862  30.670  1.00  0.00    -0.269 OA
BRANCH  30  33
ATOM     33  C   UNL A   1      36.869  29.977  29.296  1.00  0.00     0.039 A 
ATOM     34  C   UNL A   1      37.185  28.993  30.235  1.00  0.00     0.014 A 
ATOM     35  C   UNL A   1      37.543  30.058  28.080  1.00  0.00     0.014 A 
ATOM     36  C   UNL A   1      38.365  28.277  30.077  1.00  0.00     0.010 A 
ATOM     37  C   UNL A   1      38.762  29.417  27.969  1.00  0.00     0.010 A 
ATOM     38  C   UNL A   1      39.209  28.592  29.008  1.00  0.00    -0.014 A 
BRANCH  38  39
ATOM     39  C   UNL A   1      40.619  28.223  29.009  1.00  0.00     0.031 A 
ATOM     40  C   UNL A   1      41.062  26.949  28.418  1.00  0.00     0.074 A 
ATOM     41  C   UNL A   1      41.546  29.016  29.594  1.00  0.00     0.049 A 
ATOM     42  N   UNL A   1      42.017  26.234  28.915  1.00  0.00    -0.248 NA
ATOM     43  C   UNL A   1      40.443  26.364  27.234  1.00  0.00     0.031 C 
ATOM     44  C   UNL A   1      42.998  28.851  29.547  1.00  0.00     0.029 A 
ATOM     45  N   UNL A   1      41.340  30.015  30.555  1.00  0.00    -0.354 N 
ATOM     46  C   UNL A   1      42.320  25.271  27.987  1.00  0.00     0.074 A 
ATOM     47  C   UNL A   1      41.265  25.337  26.999  1.00  0.00     0.031 C 
ATOM     48  C   UNL A   1      43.536  29.463  30.612  1.00  0.00     0.029 A 
ATOM     49  C   UNL A   1      42.444  29.952  31.433  1.00  0.00     0.049 A 
ATOM     50  H   UNL A   1      40.578  30.636  30.608  1.00  0.00     0.167 HD
ATOM     51  C   UNL A   1      43.507  24.610  28.040  1.00  0.00     0.037 A 
ATOM     52  C   UNL A   1      42.300  29.739  32.769  1.00  0.00     0.037 A 
ATOM     53  C   UNL A   1      44.356  25.065  29.132  1.00  0.00     0.049 A 
ATOM     54  C   UNL A   1      43.052  28.539  33.292  1.00  0.00     0.074 A 
ATOM     55  C   UNL A   1      45.421  25.949  29.185  1.00  0.00     0.029 A 
ATOM     56  N   UNL A   1      43.968  24.848  30.449  1.00  0.00    -0.354 N 
ATOM     57  N   UNL A   1      43.534  27.594  32.536  1.00  0.00    -0.248 NA
ATOM     58  C   UNL A   1      43.282  28.286  34.711  1.00  0.00     0.031 C 
ATOM     59  C   UNL A   1      45.681  26.259  30.540  1.00  0.00     0.029 A 
ATOM     60  C   UNL A   1      44.775  25.561  31.316  1.00  0.00     0.049 A 
ATOM     61  H   UNL A   1      43.222  24.267  30.726  1.00  0.00     0.167 HD
ATOM     62  C   UNL A   1      44.088  26.607  33.320  1.00  0.00     0.074 A 
ATOM     63  C   UNL A   1      43.935  27.111  34.672  1.00  0.00     0.031 C 
ATOM     64  C   UNL A   1      44.599  25.466  32.760  1.00  0.00     0.037 A 
BRANCH  51  65
ATOM     65  C   UNL A   1      43.963  23.785  26.872  1.00  0.00     0.057 A 
ATOM     66  C   UNL A   1      44.745  24.326  25.839  1.00  0.00     0.134 A 
ATOM     67  C   UNL A   1      43.575  22.446  26.694  1.00  0.00     0.134 A 
ATOM     68  F   UNL A   1      45.242  25.567  25.904  1.00  0.00    -0.206 F 
ATOM     69  C   UNL A   1      45.027  23.623  24.662  1.00  0.00     0.040 A 
ATOM     70  C   UNL A   1      43.811  21.747  25.503  1.00  0.00     0.040 A 
ATOM     71  F   UNL A   1      42.929  21.783  27.666  1.00  0.00    -0.206 F 
ATOM     72  C   UNL A   1      44.527  22.342  24.475  1.00  0.00     0.006 A 
ENDBRANCH  51  65
BRANCH  52  73
ATOM     73  C   UNL A   1      41.022  30.256  33.318  1.00  0.00     0.057 A 
ATOM     74  C   UNL A   1      40.883  31.641  33.518  1.00  0.00     0.134 A 
ATOM     75  C   UNL A   1      39.852  29.494  33.301  1.00  0.00     0.134 A 
ATOM     76  F   UNL A   1      41.970  32.432  33.537  1.00  0.00    -0.206 F 
ATOM     77  C   UNL A   1      39.632  32.257  33.589  1.00  0.00     0.040 A 
ATOM     78  C   UNL A   1      38.592  30.099  33.381  1.00  0.00     0.040 A 
ATOM     79  F   UNL A   1      39.903  28.171  33.093  1.00  0.00    -0.206 F 
ATOM     80  C   UNL A   1      38.480  31.485  33.487  1.00  0.00     0.006 A 
ENDBRANCH  52  73
BRANCH  64  81
ATOM     81  C   UNL A   1      45.071  24.193  33.451  1.00  0.00     0.057 A 
ATOM     82  C   UNL A   1      46.349  23.976  33.985  1.00  0.00     0.134 A 
ATOM     83  C   UNL A   1      44.154  23.137  33.702  1.00  0.00     0.134 A 
ATOM     84  F   UNL A   1      47.309  24.904  33.931  1.00  0.00    -0.206 F 
ATOM     85  C   UNL A   1      46.700  22.796  34.665  1.00  0.00     0.040 A 
ATOM     86  C   UNL A   1      44.478  21.983  34.426  1.00  0.00     0.040 A 
ATOM     87  F   UNL A   1      42.883  23.177  33.278  1.00  0.00    -0.206 F 
ATOM     88  C   UNL A   1      45.762  21.802  34.900  1.00  0.00     0.006 A 
ENDBRANCH  64  81
ENDBRANCH  38  39
ENDBRANCH  30  33
ENDBRANCH  28  29
ENDBRANCH  27  28
ENDBRANCH   1  27
TORSDOF 15
ENDMDL
MODEL 2
REMARK VINA RESULT:     -12.0      1.447      3.753
REMARK SMILES Cc1ccc(NC(=O)C[C@@H](C(=O)NCCCCNC(=O)c2ccc(-c3c4nc(c(-c5c(F)cccc5F)c5ccc([nH]5)c(-c5c(F)cccc5F)c5nc(c(-c6c(F)cccc6F)c6ccc3[nH]6)C=C5)C=C4)cc2)[NH+]2CCOCC2)cc1
REMARK SMILES IDX 15 1 14 2 13 3 11 4 12 5 10 7 9 8 7 9 6 10 8 12 5 13 1 14
REMARK SMILES IDX 2 15 3 16 82 17 4 18 81 19 75 20 76 21 80 22 77 24 79 25
REMARK SMILES IDX 78 26 16 27 17 28 18 29 19 30 20 32 21 33 22 34 74 35 23 36
REMARK SMILES IDX 73 37 24 38 25 39 26 40 67 41 27 42 72 43 66 44 68 45 28 46
REMARK SMILES IDX 71 47 65 48 64 49 29 51 55 52 38 53 54 54 39 55 42 56 53 57
REMARK SMILES IDX 69 58 40 59 41 60 52 62 70 63 43 64 30 65 31 66 36 67 32 68
REMARK SMILES IDX 33 69 35 70 37 71 34 72 56 73 57 74 62 75 58 76 59 77 61 78
REMARK SMILES IDX 63 79 60 80 44 81 45 82 50 83 46 84 47 85 49 86 51 87 48 88
REMARK H PARENT 13 6 6 11 75 23 18 31 68 50 42 61
REMARK Flexibility Score: inf
ROOT
ATOM      1  C   UNL A   1      31.758  29.162  27.247  1.00  0.00     0.023 C 
ENDROOT
BRANCH   1   2
ATOM      2  C   UNL A   1      32.080  27.778  26.642  1.00  0.00     0.116 C 
BRANCH   2   3
ATOM      3  N   UNL A   1      31.013  26.801  26.733  1.00  0.00    -0.351 N 
ATOM      4  C   UNL A   1      30.734  25.631  26.096  1.00  0.00     0.278 C 
ATOM      5  O   UNL A   1      29.823  24.985  26.631  1.00  0.00    -0.268 OA
ATOM      6  H   UNL A   1      30.336  27.038  27.407  1.00  0.00     0.163 HD
BRANCH   4   7
ATOM      7  C   UNL A   1      31.526  25.098  24.848  1.00  0.00     0.283 C 
BRANCH   7   8
ATOM      8  C   UNL A   1      30.892  25.444  23.482  1.00  0.00     0.175 C 
BRANCH   8   9
ATOM      9  C   UNL A   1      31.624  26.283  22.469  1.00  0.00     0.230 C 
ATOM     10  N   UNL A   1      31.352  27.598  22.238  1.00  0.00    -0.326 N 
ATOM     11  H   UNL A   1      31.908  28.002  21.533  1.00  0.00     0.169 HD
ATOM     12  O   UNL A   1      32.514  25.753  21.792  1.00  0.00    -0.274 OA
BRANCH  10  13
ATOM     13  C   UNL A   1      30.429  28.489  22.812  1.00  0.00     0.041 A 
ATOM     14  C   UNL A   1      27.545  31.570  23.651  1.00  0.00     0.044 C 
ATOM     15  C   UNL A   1      28.502  30.434  23.455  1.00  0.00    -0.051 A 
ATOM     16  C   UNL A   1      29.811  30.546  23.928  1.00  0.00     0.005 A 
ATOM     17  C   UNL A   1      28.130  29.275  22.773  1.00  0.00     0.005 A 
ATOM     18  C   UNL A   1      30.765  29.574  23.616  1.00  0.00     0.026 A 
ATOM     19  C   UNL A   1      29.083  28.297  22.478  1.00  0.00     0.026 A 
ENDBRANCH  10  13
ENDBRANCH   8   9
ENDBRANCH   7   8
BRANCH   7  20
ATOM     20  N   UNL A   1      31.720  23.610  24.987  1.00  0.00    -0.320 N 
ATOM     21  C   UNL A   1      32.774  23.204  25.944  1.00  0.00     0.291 C 
ATOM     22  C   UNL A   1      31.823  22.767  23.781  1.00  0.00     0.291 C 
ATOM     23  H   UNL A   1      30.792  23.408  25.359  1.00  0.00     0.348 HD
ATOM     24  C   UNL A   1      34.169  23.025  25.322  1.00  0.00     0.221 C 
ATOM     25  C   UNL A   1      33.238  22.613  23.211  1.00  0.00     0.221 C 
ATOM     26  O   UNL A   1      34.142  22.130  24.206  1.00  0.00    -0.370 OA
ENDBRANCH   7  20
ENDBRANCH   4   7
ENDBRANCH   2   3
ENDBRANCH   1   2
BRANCH   1  27
ATOM     27  C   UNL A   1      32.822  30.259  27.128  1.00  0.00     0.023 C 
BRANCH  27  28
ATOM     28  C   UNL A   1      34.193  29.874  27.662  1.00  0.00     0.116 C 
BRANCH  28  29
ATOM     29  N   UNL A   1      34.825  30.909  28.483  1.00  0.00    -0.352 N 
ATOM     30  C   UNL A   1      36.101  30.900  29.025  1.00  0.00     0.251 C 
ATOM     31  H   UNL A   1      34.279  31.706  28.673  1.00  0.00     0.163 HD
ATOM     32  O   UNL A   1      36.535  31.855  29.661  1.00  0.00    -0.269 OA
BRANCH  30  33
ATOM     33  C   UNL A   1      36.971  29.751  28.704  1.00  0.00     0.039 A 
ATOM     34  C   UNL A   1      37.251  28.854  29.737  1.00  0.00     0.014 A 
ATOM     35  C   UNL A   1      37.759  29.800  27.556  1.00  0.00     0.014 A 
ATOM     36  C   UNL A   1      38.482  28.211  29.745  1.00  0.00     0.010 A 
ATOM     37  C   UNL A   1      39.020  29.238  27.610  1.00  0.00     0.010 A 
ATOM     38  C   UNL A   1      39.409  28.514  28.743  1.00  0.00    -0.014 A 
BRANCH  38  39
ATOM     39  C   UNL A   1      40.832  28.243  28.907  1.00  0.00     0.031 A 
ATOM     40  C   UNL A   1      41.441  27.042  28.309  1.00  0.00     0.074 A 
ATOM     41  C   UNL A   1      41.615  29.059  29.649  1.00  0.00     0.049 A 
ATOM     42  N   UNL A   1      42.378  26.364  28.886  1.00  0.00    -0.248 NA
ATOM     43  C   UNL A   1      41.022  26.493  27.025  1.00  0.00     0.031 C 
ATOM     44  C   UNL A   1      43.070  28.997  29.781  1.00  0.00     0.029 A 
ATOM     45  N   UNL A   1      41.215  29.978  30.628  1.00  0.00    -0.354 N 
ATOM     46  C   UNL A   1      42.867  25.486  27.954  1.00  0.00     0.074 A 
ATOM     47  C   UNL A   1      41.942  25.542  26.843  1.00  0.00     0.031 C 
ATOM     48  C   UNL A   1      43.422  29.575  30.939  1.00  0.00     0.029 A 
ATOM     49  C   UNL A   1      42.202  29.936  31.636  1.00  0.00     0.049 A 
ATOM     50  H   UNL A   1      40.408  30.541  30.615  1.00  0.00     0.167 HD
ATOM     51  C   UNL A   1      44.085  24.905  28.124  1.00  0.00     0.037 A 
ATOM     52  C   UNL A   1      41.908  29.628  32.929  1.00  0.00     0.037 A 
ATOM     53  C   UNL A   1      44.753  25.348  29.340  1.00  0.00     0.049 A 
ATOM     54  C   UNL A   1      42.678  28.451  33.479  1.00  0.00     0.074 A 
ATOM     55  C   UNL A   1      45.734  26.297  29.578  1.00  0.00     0.029 A 
ATOM     56  N   UNL A   1      44.221  25.020  30.582  1.00  0.00    -0.354 N 
ATOM     57  N   UNL A   1      43.322  27.592  32.742  1.00  0.00    -0.248 NA
ATOM     58  C   UNL A   1      42.747  28.125  34.900  1.00  0.00     0.031 C 
ATOM     59  C   UNL A   1      45.797  26.537  30.971  1.00  0.00     0.029 A 
ATOM     60  C   UNL A   1      44.856  25.730  31.584  1.00  0.00     0.049 A 
ATOM     61  H   UNL A   1      43.493  24.374  30.728  1.00  0.00     0.167 HD
ATOM     62  C   UNL A   1      43.846  26.597  33.536  1.00  0.00     0.074 A 
ATOM     63  C   UNL A   1      43.488  27.002  34.882  1.00  0.00     0.031 C 
ATOM     64  C   UNL A   1      44.509  25.532  32.986  1.00  0.00     0.037 A 
BRANCH  51  65
ATOM     65  C   UNL A   1      44.745  24.190  26.982  1.00  0.00     0.057 A 
ATOM     66  C   UNL A   1      44.481  22.841  26.695  1.00  0.00     0.134 A 
ATOM     67  C   UNL A   1      45.723  24.795  26.175  1.00  0.00     0.134 A 
ATOM     68  F   UNL A   1      43.527  22.155  27.337  1.00  0.00    -0.206 F 
ATOM     69  C   UNL A   1      45.216  22.115  25.751  1.00  0.00     0.040 A 
ATOM     70  C   UNL A   1      46.497  24.071  25.259  1.00  0.00     0.040 A 
ATOM     71  F   UNL A   1      45.976  26.110  26.271  1.00  0.00    -0.206 F 
ATOM     72  C   UNL A   1      46.253  22.720  25.056  1.00  0.00     0.006 A 
ENDBRANCH  51  65
BRANCH  52  73
ATOM     73  C   UNL A   1      40.536  30.020  33.335  1.00  0.00     0.057 A 
ATOM     74  C   UNL A   1      40.263  31.380  33.571  1.00  0.00     0.134 A 
ATOM     75  C   UNL A   1      39.442  29.174  33.144  1.00  0.00     0.134 A 
ATOM     76  F   UNL A   1      41.272  32.248  33.755  1.00  0.00    -0.206 F 
ATOM     77  C   UNL A   1      38.966  31.895  33.510  1.00  0.00     0.040 A 
ATOM     78  C   UNL A   1      38.137  29.678  33.091  1.00  0.00     0.040 A 
ATOM     79  F   UNL A   1      39.624  27.871  32.892  1.00  0.00    -0.206 F 
ATOM     80  C   UNL A   1      37.901  31.045  33.236  1.00  0.00     0.006 A 
ENDBRANCH  52  73
BRANCH  64  81
ATOM     81  C   UNL A   1      44.986  24.253  33.661  1.00  0.00     0.057 A 
ATOM     82  C   UNL A   1      44.233  23.082  33.826  1.00  0.00     0.134 A 
ATOM     83  C   UNL A   1      46.337  24.134  34.088  1.00  0.00     0.134 A 
ATOM     84  F   UNL A   1      42.974  22.980  33.388  1.00  0.00    -0.206 F 
ATOM     85  C   UNL A   1      44.758  21.914  34.406  1.00  0.00     0.040 A 
ATOM     86  C   UNL A   1      46.883  22.958  34.617  1.00  0.00     0.040 A 
ATOM     87  F   UNL A   1      47.208  25.149  33.995  1.00  0.00    -0.206 F 
ATOM     88  C   UNL A   1      46.089  21.844  34.791  1.00  0.00     0.006 A 
ENDBRANCH  64  81
ENDBRANCH  38  39
ENDBRANCH  30  33
ENDBRANCH  28  29
ENDBRANCH  27  28
ENDBRANCH   1  27
TORSDOF 15
ENDMDL
MODEL 3
REMARK VINA RESULT:     -12.0      1.739      2.822
REMARK SMILES Cc1ccc(NC(=O)C[C@@H](C(=O)NCCCCNC(=O)c2ccc(-c3c4nc(c(-c5c(F)cccc5F)c5ccc([nH]5)c(-c5c(F)cccc5F)c5nc(c(-c6c(F)cccc6F)c6ccc3[nH]6)C=C5)C=C4)cc2)[NH+]2CCOCC2)cc1
REMARK SMILES IDX 15 1 14 2 13 3 11 4 12 5 10 7 9 8 7 9 6 10 8 12 5 13 1 14
REMARK SMILES IDX 2 15 3 16 82 17 4 18 81 19 75 20 76 21 80 22 77 24 79 25
REMARK SMILES IDX 78 26 16 27 17 28 18 29 19 30 20 32 21 33 22 34 74 35 23 36
REMARK SMILES IDX 73 37 24 38 25 39 26 40 67 41 27 42 72 43 66 44 68 45 28 46
REMARK SMILES IDX 71 47 65 48 64 49 29 51 55 52 38 53 54 54 39 55 42 56 53 57
REMARK SMILES IDX 69 58 40 59 41 60 52 62 70 63 43 64 30 65 31 66 36 67 32 68
REMARK SMILES IDX 33 69 35 70 37 71 34 72 56 73 57 74 62 75 58 76 59 77 61 78
REMARK SMILES IDX 63 79 60 80 44 81 45 82 50 83 46 84 47 85 49 86 51 87 48 88
REMARK H PARENT 13 6 6 11 75 23 18 31 68 50 42 61
REMARK Flexibility Score: inf
ROOT
ATOM      1  C   UNL A   1      32.642  31.099  27.158  1.00  0.00     0.023 C 
ENDROOT
BRANCH   1   2
ATOM      2  C   UNL A   1      32.098  30.188  26.036  1.00  0.00     0.116 C 
BRANCH   2   3
ATOM      3  N   UNL A   1      33.092  29.705  25.096  1.00  0.00    -0.351 N 
ATOM      4  C   UNL A   1      33.259  28.552  24.394  1.00  0.00     0.278 C 
ATOM      5  O   UNL A   1      34.136  28.629  23.523  1.00  0.00    -0.268 OA
ATOM      6  H   UNL A   1      33.807  30.360  24.929  1.00  0.00     0.163 HD
BRANCH   4   7
ATOM      7  C   UNL A   1      32.387  27.261  24.601  1.00  0.00     0.283 C 
BRANCH   7   8
ATOM      8  C   UNL A   1      33.191  25.975  24.897  1.00  0.00     0.175 C 
BRANCH   8   9
ATOM      9  C   UNL A   1      32.762  25.012  25.971  1.00  0.00     0.230 C 
ATOM     10  N   UNL A   1      33.484  23.917  26.338  1.00  0.00    -0.326 N 
ATOM     11  H   UNL A   1      33.060  23.380  27.045  1.00  0.00     0.169 HD
ATOM     12  O   UNL A   1      31.685  25.211  26.548  1.00  0.00    -0.274 OA
BRANCH  10  13
ATOM     13  C   UNL A   1      34.719  23.407  25.900  1.00  0.00     0.041 A 
ATOM     14  C   UNL A   1      38.519  21.440  25.459  1.00  0.00     0.044 C 
ATOM     15  C   UNL A   1      37.183  22.116  25.489  1.00  0.00    -0.051 A 
ATOM     16  C   UNL A   1      37.116  23.507  25.592  1.00  0.00     0.005 A 
ATOM     17  C   UNL A   1      35.994  21.386  25.458  1.00  0.00     0.005 A 
ATOM     18  C   UNL A   1      35.891  24.148  25.786  1.00  0.00     0.026 A 
ATOM     19  C   UNL A   1      34.768  22.033  25.635  1.00  0.00     0.026 A 
ENDBRANCH  10  13
ENDBRANCH   8   9
ENDBRANCH   7   8
BRANCH   7  20
ATOM     20  N   UNL A   1      31.497  27.071  23.400  1.00  0.00    -0.320 N 
ATOM     21  C   UNL A   1      30.999  28.324  22.787  1.00  0.00     0.291 C 
ATOM     22  C   UNL A   1      30.392  26.096  23.451  1.00  0.00     0.291 C 
ATOM     23  H   UNL A   1      32.199  26.629  22.806  1.00  0.00     0.348 HD
ATOM     24  C   UNL A   1      29.647  28.811  23.336  1.00  0.00     0.221 C 
ATOM     25  C   UNL A   1      29.065  26.639  23.994  1.00  0.00     0.221 C 
ATOM     26  O   UNL A   1      28.646  27.792  23.264  1.00  0.00    -0.370 OA
ENDBRANCH   7  20
ENDBRANCH   4   7
ENDBRANCH   2   3
ENDBRANCH   1   2
BRANCH   1  27
ATOM     27  C   UNL A   1      34.162  31.232  27.297  1.00  0.00     0.023 C 
BRANCH  27  28
ATOM     28  C   UNL A   1      34.693  31.012  28.705  1.00  0.00     0.116 C 
BRANCH  28  29
ATOM     29  N   UNL A   1      35.801  31.896  29.070  1.00  0.00    -0.352 N 
ATOM     30  C   UNL A   1      37.147  31.578  29.158  1.00  0.00     0.251 C 
ATOM     31  H   UNL A   1      35.562  32.828  29.278  1.00  0.00     0.163 HD
ATOM     32  O   UNL A   1      37.992  32.425  29.430  1.00  0.00    -0.269 OA
BRANCH  30  33
ATOM     33  C   UNL A   1      37.550  30.205  28.787  1.00  0.00     0.039 A 
ATOM     34  C   UNL A   1      37.734  29.292  29.826  1.00  0.00     0.014 A 
ATOM     35  C   UNL A   1      38.082  29.977  27.520  1.00  0.00     0.014 A 
ATOM     36  C   UNL A   1      38.691  28.295  29.674  1.00  0.00     0.010 A 
ATOM     37  C   UNL A   1      39.099  29.049  27.401  1.00  0.00     0.010 A 
ATOM     38  C   UNL A   1      39.458  28.267  28.506  1.00  0.00    -0.014 A 
BRANCH  38  39
ATOM     39  C   UNL A   1      40.735  27.568  28.443  1.00  0.00     0.031 A 
ATOM     40  C   UNL A   1      40.785  26.117  28.190  1.00  0.00     0.074 A 
ATOM     41  C   UNL A   1      41.899  28.222  28.663  1.00  0.00     0.049 A 
ATOM     42  N   UNL A   1      41.643  25.332  28.752  1.00  0.00    -0.248 NA
ATOM     43  C   UNL A   1      39.851  25.432  27.304  1.00  0.00     0.031 C 
ATOM     44  C   UNL A   1      43.250  27.691  28.491  1.00  0.00     0.029 A 
ATOM     45  N   UNL A   1      42.086  29.446  29.317  1.00  0.00    -0.354 N 
ATOM     46  C   UNL A   1      41.563  24.125  28.107  1.00  0.00     0.074 A 
ATOM     47  C   UNL A   1      40.382  24.206  27.275  1.00  0.00     0.031 C 
ATOM     48  C   UNL A   1      44.090  28.392  29.266  1.00  0.00     0.029 A 
ATOM     49  C   UNL A   1      43.294  29.328  30.038  1.00  0.00     0.049 A 
ATOM     50  H   UNL A   1      41.494  30.232  29.282  1.00  0.00     0.167 HD
ATOM     51  C   UNL A   1      42.573  23.221  28.204  1.00  0.00     0.037 A 
ATOM     52  C   UNL A   1      43.356  29.496  31.387  1.00  0.00     0.037 A 
ATOM     53  C   UNL A   1      43.685  23.705  29.011  1.00  0.00     0.049 A 
ATOM     54  C   UNL A   1      43.923  28.314  32.136  1.00  0.00     0.074 A 
ATOM     55  C   UNL A   1      44.903  24.276  28.682  1.00  0.00     0.029 A 
ATOM     56  N   UNL A   1      43.508  23.925  30.372  1.00  0.00    -0.354 N 
ATOM     57  N   UNL A   1      44.050  27.121  31.628  1.00  0.00    -0.248 NA
ATOM     58  C   UNL A   1      44.351  28.371  33.530  1.00  0.00     0.031 C 
ATOM     59  C   UNL A   1      45.466  24.837  29.852  1.00  0.00     0.029 A 
ATOM     60  C   UNL A   1      44.592  24.605  30.898  1.00  0.00     0.049 A 
ATOM     61  H   UNL A   1      42.721  23.638  30.890  1.00  0.00     0.167 HD
ATOM     62  C   UNL A   1      44.518  26.253  32.588  1.00  0.00     0.074 A 
ATOM     63  C   UNL A   1      44.726  27.098  33.749  1.00  0.00     0.031 C 
ATOM     64  C   UNL A   1      44.668  24.918  32.319  1.00  0.00     0.037 A 
BRANCH  51  65
ATOM     65  C   UNL A   1      42.624  22.045  27.272  1.00  0.00     0.057 A 
ATOM     66  C   UNL A   1      41.771  20.939  27.421  1.00  0.00     0.134 A 
ATOM     67  C   UNL A   1      43.575  21.936  26.242  1.00  0.00     0.134 A 
ATOM     68  F   UNL A   1      40.775  20.930  28.315  1.00  0.00    -0.206 F 
ATOM     69  C   UNL A   1      41.925  19.765  26.675  1.00  0.00     0.040 A 
ATOM     70  C   UNL A   1      43.769  20.752  25.521  1.00  0.00     0.040 A 
ATOM     71  F   UNL A   1      44.365  22.973  25.924  1.00  0.00    -0.206 F 
ATOM     72  C   UNL A   1      42.950  19.655  25.747  1.00  0.00     0.006 A 
ENDBRANCH  51  65
BRANCH  52  73
ATOM     73  C   UNL A   1      42.338  30.437  31.915  1.00  0.00     0.057 A 
ATOM     74  C   UNL A   1      42.577  31.820  31.813  1.00  0.00     0.134 A 
ATOM     75  C   UNL A   1      41.026  30.035  32.169  1.00  0.00     0.134 A 
ATOM     76  F   UNL A   1      43.817  32.272  31.561  1.00  0.00    -0.206 F 
ATOM     77  C   UNL A   1      41.541  32.754  31.853  1.00  0.00     0.040 A 
ATOM     78  C   UNL A   1      39.980  30.964  32.221  1.00  0.00     0.040 A 
ATOM     79  F   UNL A   1      40.716  28.734  32.257  1.00  0.00    -0.206 F 
ATOM     80  C   UNL A   1      40.231  32.321  32.025  1.00  0.00     0.006 A 
ENDBRANCH  52  73
BRANCH  64  81
ATOM     81  C   UNL A   1      44.981  23.780  33.281  1.00  0.00     0.057 A 
ATOM     82  C   UNL A   1      44.124  22.718  33.602  1.00  0.00     0.134 A 
ATOM     83  C   UNL A   1      46.276  23.669  33.856  1.00  0.00     0.134 A 
ATOM     84  F   UNL A   1      42.903  22.606  33.071  1.00  0.00    -0.206 F 
ATOM     85  C   UNL A   1      44.502  21.665  34.454  1.00  0.00     0.040 A 
ATOM     86  C   UNL A   1      46.679  22.597  34.661  1.00  0.00     0.040 A 
ATOM     87  F   UNL A   1      47.232  24.586  33.648  1.00  0.00    -0.206 F 
ATOM     88  C   UNL A   1      45.785  21.594  34.976  1.00  0.00     0.006 A 
ENDBRANCH  64  81
ENDBRANCH  38  39
ENDBRANCH  30  33
ENDBRANCH  28  29
ENDBRANCH  27  28
ENDBRANCH   1  27
TORSDOF 15
ENDMDL
