MODEL 1
REMARK VINA RESULT:     -11.3      0.000      0.000
REMARK SMILES O=C(CC[N@H+]1CCC[C@H](c2nccn2Cc2cscn2)C1)NCCCCNC(=O)c1ccc(-c2c3nc(c(-c4c(F)cccc4F)c4ccc([nH]4)c(-c4c(F)cccc4F)c4nc(c(-c5c(F)cccc5F)c5ccc2[nH]5)C=C4)C=C3)cc1
REMARK SMILES IDX 23 1 22 2 1 3 2 4 3 6 4 7 5 8 6 9 21 10 7 12 9 13 8 14 10 15
REMARK SMILES IDX 11 16 14 17 12 18 13 19 15 20 16 21 17 22 20 23 18 24 19 25
REMARK SMILES IDX 24 26 25 27 26 28 27 29 28 30 29 32 30 33 31 34 83 35 32 36
REMARK SMILES IDX 82 37 33 38 34 39 35 40 76 41 36 42 81 43 75 44 77 45 37 46
REMARK SMILES IDX 80 47 74 48 73 49 38 51 64 52 47 53 63 54 48 55 51 56 62 57
REMARK SMILES IDX 78 58 49 59 50 60 61 62 79 63 52 64 39 65 40 66 45 67 41 68
REMARK SMILES IDX 42 69 44 70 46 71 43 72 65 73 66 74 71 75 67 76 68 77 70 78
REMARK SMILES IDX 72 79 69 80 53 81 54 82 59 83 55 84 56 85 58 86 60 87 57 88
REMARK H PARENT 22 5 5 11 27 31 77 50 51 61
REMARK Flexibility Score: inf
ROOT
ATOM      1  C   UNL A   1      39.837  21.541  26.582  1.00  0.00     0.116 C 
ENDROOT
BRANCH   1   2
ATOM      2  N   UNL A   1      38.949  22.125  25.548  1.00  0.00    -0.356 N 
ATOM      3  O   UNL A   1      36.965  21.029  25.765  1.00  0.00    -0.275 OA
ATOM      4  C   UNL A   1      37.610  21.906  25.187  1.00  0.00     0.225 C 
ATOM      5  H   UNL A   1      39.392  22.811  24.998  1.00  0.00     0.163 HD
BRANCH   4   6
ATOM      6  C   UNL A   1      36.952  22.651  23.850  1.00  0.00     0.161 C 
BRANCH   6   7
ATOM      7  C   UNL A   1      35.404  22.904  23.335  1.00  0.00     0.272 C 
BRANCH   7   8
ATOM      8  N   UNL A   1      34.203  22.987  24.223  1.00  0.00    -0.334 N 
ATOM      9  C   UNL A   1      33.444  21.800  24.692  1.00  0.00     0.262 C 
ATOM     10  C   UNL A   1      34.226  24.008  25.280  1.00  0.00     0.273 C 
ATOM     11  H   UNL A   1      33.644  23.279  23.423  1.00  0.00     0.348 HD
ATOM     12  C   UNL A   1      31.958  22.121  25.101  1.00  0.00     0.062 C 
ATOM     13  C   UNL A   1      32.796  24.539  25.550  1.00  0.00     0.111 C 
ATOM     14  C   UNL A   1      31.779  23.434  25.874  1.00  0.00     0.023 C 
BRANCH  13  15
ATOM     15  C   UNL A   1      32.362  25.534  24.478  1.00  0.00     0.117 A 
ATOM     16  N   UNL A   1      32.015  25.120  23.280  1.00  0.00    -0.241 NA
ATOM     17  N   UNL A   1      32.058  26.909  24.617  1.00  0.00    -0.328 N 
ATOM     18  C   UNL A   1      31.282  26.109  22.718  1.00  0.00     0.131 A 
ATOM     19  C   UNL A   1      31.174  27.149  23.592  1.00  0.00     0.108 A 
BRANCH  17  20
ATOM     20  C   UNL A   1      32.067  27.519  25.960  1.00  0.00     0.180 C 
BRANCH  20  21
ATOM     21  C   UNL A   1      32.583  28.702  26.788  1.00  0.00     0.071 A 
ATOM     22  C   UNL A   1      33.848  29.089  27.224  1.00  0.00     0.092 A 
ATOM     23  N   UNL A   1      31.765  29.846  26.680  1.00  0.00    -0.248 NA
ATOM     24  S   UNL A   1      33.995  30.782  27.487  1.00  0.00    -0.130 S 
ATOM     25  C   UNL A   1      32.414  30.964  26.899  1.00  0.00     0.175 A 
ENDBRANCH  20  21
ENDBRANCH  17  20
ENDBRANCH  13  15
ENDBRANCH   7   8
ENDBRANCH   6   7
ENDBRANCH   4   6
ENDBRANCH   1   2
BRANCH   1  26
ATOM     26  C   UNL A   1      41.281  20.948  26.145  1.00  0.00     0.023 C 
BRANCH  26  27
ATOM     27  C   UNL A   1      41.768  19.485  25.829  1.00  0.00     0.023 C 
BRANCH  27  28
ATOM     28  C   UNL A   1      43.186  18.891  25.913  1.00  0.00     0.116 C 
BRANCH  28  29
ATOM     29  N   UNL A   1      44.008  18.829  24.729  1.00  0.00    -0.352 N 
ATOM     30  C   UNL A   1      44.572  19.854  23.976  1.00  0.00     0.251 C 
ATOM     31  H   UNL A   1      44.200  17.919  24.404  1.00  0.00     0.163 HD
ATOM     32  O   UNL A   1      45.055  19.554  22.879  1.00  0.00    -0.269 OA
BRANCH  30  33
ATOM     33  C   UNL A   1      44.753  21.256  24.475  1.00  0.00     0.039 A 
ATOM     34  C   UNL A   1      45.652  21.490  25.534  1.00  0.00     0.014 A 
ATOM     35  C   UNL A   1      43.986  22.321  24.048  1.00  0.00     0.014 A 
ATOM     36  C   UNL A   1      45.536  22.631  26.350  1.00  0.00     0.010 A 
ATOM     37  C   UNL A   1      43.838  23.419  24.886  1.00  0.00     0.010 A 
ATOM     38  C   UNL A   1      44.504  23.530  26.116  1.00  0.00    -0.014 A 
BRANCH  38  39
ATOM     39  C   UNL A   1      44.211  24.703  26.975  1.00  0.00     0.031 A 
ATOM     40  C   UNL A   1      45.225  25.773  26.773  1.00  0.00     0.074 A 
ATOM     41  C   UNL A   1      43.097  24.985  27.702  1.00  0.00     0.049 A 
ATOM     42  N   UNL A   1      46.333  25.913  27.429  1.00  0.00    -0.248 NA
ATOM     43  C   UNL A   1      45.158  26.597  25.555  1.00  0.00     0.031 C 
ATOM     44  C   UNL A   1      41.857  24.228  27.873  1.00  0.00     0.029 A 
ATOM     45  N   UNL A   1      42.809  26.136  28.401  1.00  0.00    -0.354 N 
ATOM     46  C   UNL A   1      46.965  26.986  26.817  1.00  0.00     0.074 A 
ATOM     47  C   UNL A   1      46.407  27.062  25.500  1.00  0.00     0.031 C 
ATOM     48  C   UNL A   1      40.880  25.026  28.376  1.00  0.00     0.029 A 
ATOM     49  C   UNL A   1      41.459  26.301  28.750  1.00  0.00     0.049 A 
ATOM     50  H   UNL A   1      43.501  26.796  28.640  1.00  0.00     0.167 HD
ATOM     51  C   UNL A   1      47.584  27.962  27.538  1.00  0.00     0.037 A 
ATOM     52  C   UNL A   1      40.887  27.406  29.312  1.00  0.00     0.037 A 
ATOM     53  C   UNL A   1      47.691  27.574  28.927  1.00  0.00     0.049 A 
ATOM     54  C   UNL A   1      41.982  28.180  29.950  1.00  0.00     0.074 A 
ATOM     55  C   UNL A   1      48.219  26.487  29.598  1.00  0.00     0.029 A 
ATOM     56  N   UNL A   1      46.816  28.163  29.811  1.00  0.00    -0.354 N 
ATOM     57  N   UNL A   1      42.637  27.765  30.998  1.00  0.00    -0.248 NA
ATOM     58  C   UNL A   1      42.670  29.160  29.125  1.00  0.00     0.031 C 
ATOM     59  C   UNL A   1      47.276  26.194  30.628  1.00  0.00     0.029 A 
ATOM     60  C   UNL A   1      46.288  27.177  30.603  1.00  0.00     0.049 A 
ATOM     61  H   UNL A   1      46.608  29.125  29.864  1.00  0.00     0.167 HD
ATOM     62  C   UNL A   1      43.962  28.035  30.699  1.00  0.00     0.074 A 
ATOM     63  C   UNL A   1      43.916  28.956  29.561  1.00  0.00     0.031 C 
ATOM     64  C   UNL A   1      44.966  27.246  31.181  1.00  0.00     0.037 A 
BRANCH  51  65
ATOM     65  C   UNL A   1      47.711  29.409  27.103  1.00  0.00     0.057 A 
ATOM     66  C   UNL A   1      48.966  30.030  27.220  1.00  0.00     0.134 A 
ATOM     67  C   UNL A   1      46.643  30.290  26.815  1.00  0.00     0.134 A 
ATOM     68  F   UNL A   1      50.066  29.310  27.488  1.00  0.00    -0.206 F 
ATOM     69  C   UNL A   1      49.132  31.418  27.142  1.00  0.00     0.040 A 
ATOM     70  C   UNL A   1      46.808  31.670  26.680  1.00  0.00     0.040 A 
ATOM     71  F   UNL A   1      45.366  29.904  26.741  1.00  0.00    -0.206 F 
ATOM     72  C   UNL A   1      48.048  32.245  26.879  1.00  0.00     0.006 A 
ENDBRANCH  51  65
BRANCH  52  73
ATOM     73  C   UNL A   1      39.539  28.019  29.127  1.00  0.00     0.057 A 
ATOM     74  C   UNL A   1      38.627  28.131  30.196  1.00  0.00     0.134 A 
ATOM     75  C   UNL A   1      39.238  28.796  27.998  1.00  0.00     0.134 A 
ATOM     76  F   UNL A   1      38.832  27.465  31.344  1.00  0.00    -0.206 F 
ATOM     77  C   UNL A   1      37.515  28.991  30.158  1.00  0.00     0.040 A 
ATOM     78  C   UNL A   1      38.129  29.655  27.945  1.00  0.00     0.040 A 
ATOM     79  F   UNL A   1      40.063  28.827  26.943  1.00  0.00    -0.206 F 
ATOM     80  C   UNL A   1      37.273  29.770  29.034  1.00  0.00     0.006 A 
ENDBRANCH  52  73
BRANCH  64  81
ATOM     81  C   UNL A   1      44.623  26.229  32.241  1.00  0.00     0.057 A 
ATOM     82  C   UNL A   1      44.370  24.869  31.996  1.00  0.00     0.134 A 
ATOM     83  C   UNL A   1      44.677  26.622  33.582  1.00  0.00     0.134 A 
ATOM     84  F   UNL A   1      44.400  24.368  30.756  1.00  0.00    -0.206 F 
ATOM     85  C   UNL A   1      44.130  23.960  33.032  1.00  0.00     0.040 A 
ATOM     86  C   UNL A   1      44.474  25.718  34.628  1.00  0.00     0.040 A 
ATOM     87  F   UNL A   1      44.969  27.892  33.902  1.00  0.00    -0.206 F 
ATOM     88  C   UNL A   1      44.186  24.384  34.355  1.00  0.00     0.006 A 
ENDBRANCH  64  81
ENDBRANCH  38  39
ENDBRANCH  30  33
ENDBRANCH  28  29
ENDBRANCH  27  28
ENDBRANCH  26  27
ENDBRANCH   1  26
TORSDOF 16
ENDMDL
MODEL 2
REMARK VINA RESULT:     -10.9      1.830      2.396
REMARK SMILES O=C(CC[N@H+]1CCC[C@H](c2nccn2Cc2cscn2)C1)NCCCCNC(=O)c1ccc(-c2c3nc(c(-c4c(F)cccc4F)c4ccc([nH]4)c(-c4c(F)cccc4F)c4nc(c(-c5c(F)cccc5F)c5ccc2[nH]5)C=C4)C=C3)cc1
REMARK SMILES IDX 23 1 22 2 1 3 2 4 3 6 4 7 5 8 6 9 21 10 7 12 9 13 8 14 10 15
REMARK SMILES IDX 11 16 14 17 12 18 13 19 15 20 16 21 17 22 20 23 18 24 19 25
REMARK SMILES IDX 24 26 25 27 26 28 27 29 28 30 29 32 30 33 31 34 83 35 32 36
REMARK SMILES IDX 82 37 33 38 34 39 35 40 76 41 36 42 81 43 75 44 77 45 37 46
REMARK SMILES IDX 80 47 74 48 73 49 38 51 64 52 47 53 63 54 48 55 51 56 62 57
REMARK SMILES IDX 78 58 49 59 50 60 61 62 79 63 52 64 39 65 40 66 45 67 41 68
REMARK SMILES IDX 42 69 44 70 46 71 43 72 65 73 66 74 71 75 67 76 68 77 70 78
REMARK SMILES IDX 72 79 69 80 53 81 54 82 59 83 55 84 56 85 58 86 60 87 57 88
REMARK H PARENT 22 5 5 11 27 31 77 50 51 61
REMARK Flexibility Score: inf
ROOT
ATOM      1  C   UNL A   1      38.534  21.624  25.400  1.00  0.00     0.116 C 
ENDROOT
BRANCH   1   2
ATOM      2  N   UNL A   1      37.326  22.230  26.010  1.00  0.00    -0.356 N 
ATOM      3  O   UNL A   1      35.561  21.162  25.047  1.00  0.00    -0.275 OA
ATOM      4  C   UNL A   1      35.949  21.998  25.865  1.00  0.00     0.225 C 
ATOM      5  H   UNL A   1      37.533  22.948  26.651  1.00  0.00     0.163 HD
BRANCH   4   6
ATOM      6  C   UNL A   1      34.831  22.983  26.613  1.00  0.00     0.161 C 
BRANCH   6   7
ATOM      7  C   UNL A   1      33.321  23.505  26.203  1.00  0.00     0.272 C 
BRANCH   7   8
ATOM      8  N   UNL A   1      32.938  24.079  24.875  1.00  0.00    -0.334 N 
ATOM      9  C   UNL A   1      33.315  23.467  23.576  1.00  0.00     0.262 C 
ATOM     10  C   UNL A   1      31.600  24.677  24.770  1.00  0.00     0.273 C 
ATOM     11  H   UNL A   1      33.664  24.786  24.982  1.00  0.00     0.348 HD
ATOM     12  C   UNL A   1      33.322  24.487  22.375  1.00  0.00     0.062 C 
ATOM     13  C   UNL A   1      31.613  25.859  23.770  1.00  0.00     0.111 C 
ATOM     14  C   UNL A   1      32.160  25.488  22.383  1.00  0.00     0.023 C 
BRANCH  13  15
ATOM     15  C   UNL A   1      32.217  27.111  24.397  1.00  0.00     0.117 A 
ATOM     16  N   UNL A   1      33.348  27.049  25.065  1.00  0.00    -0.241 NA
ATOM     17  N   UNL A   1      31.846  28.464  24.208  1.00  0.00    -0.328 N 
ATOM     18  C   UNL A   1      33.849  28.304  25.111  1.00  0.00     0.131 A 
ATOM     19  C   UNL A   1      33.009  29.154  24.455  1.00  0.00     0.108 A 
BRANCH  17  20
ATOM     20  C   UNL A   1      30.792  28.795  23.231  1.00  0.00     0.180 C 
BRANCH  20  21
ATOM     21  C   UNL A   1      29.561  29.673  22.975  1.00  0.00     0.071 A 
ATOM     22  C   UNL A   1      29.079  30.842  23.558  1.00  0.00     0.092 A 
ATOM     23  N   UNL A   1      29.104  29.602  21.643  1.00  0.00    -0.248 NA
ATOM     24  S   UNL A   1      28.107  31.787  22.500  1.00  0.00    -0.130 S 
ATOM     25  C   UNL A   1      28.455  30.677  21.265  1.00  0.00     0.175 A 
ENDBRANCH  20  21
ENDBRANCH  17  20
ENDBRANCH  13  15
ENDBRANCH   7   8
ENDBRANCH   6   7
ENDBRANCH   4   6
ENDBRANCH   1   2
BRANCH   1  26
ATOM     26  C   UNL A   1      39.804  21.269  26.342  1.00  0.00     0.023 C 
BRANCH  26  27
ATOM     27  C   UNL A   1      41.345  21.157  26.037  1.00  0.00     0.023 C 
BRANCH  27  28
ATOM     28  C   UNL A   1      42.283  19.946  26.190  1.00  0.00     0.116 C 
BRANCH  28  29
ATOM     29  N   UNL A   1      43.371  19.761  25.261  1.00  0.00    -0.352 N 
ATOM     30  C   UNL A   1      44.173  20.703  24.624  1.00  0.00     0.251 C 
ATOM     31  H   UNL A   1      43.578  18.823  25.045  1.00  0.00     0.163 HD
ATOM     32  O   UNL A   1      44.897  20.304  23.705  1.00  0.00    -0.269 OA
BRANCH  30  33
ATOM     33  C   UNL A   1      44.315  22.125  25.077  1.00  0.00     0.039 A 
ATOM     34  C   UNL A   1      45.078  22.399  26.229  1.00  0.00     0.014 A 
ATOM     35  C   UNL A   1      43.626  23.177  24.508  1.00  0.00     0.014 A 
ATOM     36  C   UNL A   1      44.880  23.579  26.970  1.00  0.00     0.010 A 
ATOM     37  C   UNL A   1      43.394  24.316  25.268  1.00  0.00     0.010 A 
ATOM     38  C   UNL A   1      43.901  24.478  26.567  1.00  0.00    -0.014 A 
BRANCH  38  39
ATOM     39  C   UNL A   1      43.524  25.694  27.326  1.00  0.00     0.031 A 
ATOM     40  C   UNL A   1      44.430  26.826  26.998  1.00  0.00     0.074 A 
ATOM     41  C   UNL A   1      42.406  25.941  28.061  1.00  0.00     0.049 A 
ATOM     42  N   UNL A   1      45.537  27.123  27.602  1.00  0.00    -0.248 NA
ATOM     43  C   UNL A   1      44.258  27.526  25.714  1.00  0.00     0.031 C 
ATOM     44  C   UNL A   1      41.245  25.096  28.339  1.00  0.00     0.029 A 
ATOM     45  N   UNL A   1      42.032  27.121  28.665  1.00  0.00    -0.354 N 
ATOM     46  C   UNL A   1      46.053  28.188  26.877  1.00  0.00     0.074 A 
ATOM     47  C   UNL A   1      45.458  28.093  25.577  1.00  0.00     0.031 C 
ATOM     48  C   UNL A   1      40.212  25.847  28.801  1.00  0.00     0.029 A 
ATOM     49  C   UNL A   1      40.681  27.197  29.041  1.00  0.00     0.049 A 
ATOM     50  H   UNL A   1      42.666  27.859  28.822  1.00  0.00     0.167 HD
ATOM     51  C   UNL A   1      46.597  29.277  27.487  1.00  0.00     0.037 A 
ATOM     52  C   UNL A   1      40.024  28.294  29.521  1.00  0.00     0.037 A 
ATOM     53  C   UNL A   1      46.773  29.029  28.902  1.00  0.00     0.049 A 
ATOM     54  C   UNL A   1      41.060  29.217  30.052  1.00  0.00     0.074 A 
ATOM     55  C   UNL A   1      47.414  28.059  29.649  1.00  0.00     0.029 A 
ATOM     56  N   UNL A   1      45.870  29.617  29.757  1.00  0.00    -0.354 N 
ATOM     57  N   UNL A   1      41.774  28.959  31.110  1.00  0.00    -0.248 NA
ATOM     58  C   UNL A   1      41.634  30.175  29.121  1.00  0.00     0.031 C 
ATOM     59  C   UNL A   1      46.527  27.779  30.732  1.00  0.00     0.029 A 
ATOM     60  C   UNL A   1      45.453  28.664  30.651  1.00  0.00     0.049 A 
ATOM     61  H   UNL A   1      45.576  30.556  29.732  1.00  0.00     0.167 HD
ATOM     62  C   UNL A   1      43.062  29.317  30.745  1.00  0.00     0.074 A 
ATOM     63  C   UNL A   1      42.905  30.123  29.533  1.00  0.00     0.031 C 
ATOM     64  C   UNL A   1      44.145  28.668  31.263  1.00  0.00     0.037 A 
BRANCH  51  65
ATOM     65  C   UNL A   1      46.581  30.683  26.922  1.00  0.00     0.057 A 
ATOM     66  C   UNL A   1      47.782  31.413  26.920  1.00  0.00     0.134 A 
ATOM     67  C   UNL A   1      45.430  31.444  26.613  1.00  0.00     0.134 A 
ATOM     68  F   UNL A   1      48.951  30.813  27.195  1.00  0.00    -0.206 F 
ATOM     69  C   UNL A   1      47.825  32.797  26.714  1.00  0.00     0.040 A 
ATOM     70  C   UNL A   1      45.470  32.815  26.349  1.00  0.00     0.040 A 
ATOM     71  F   UNL A   1      44.189  30.950  26.637  1.00  0.00    -0.206 F 
ATOM     72  C   UNL A   1      46.664  33.505  26.434  1.00  0.00     0.006 A 
ENDBRANCH  51  65
BRANCH  52  73
ATOM     73  C   UNL A   1      38.622  28.765  29.326  1.00  0.00     0.057 A 
ATOM     74  C   UNL A   1      37.727  28.886  30.409  1.00  0.00     0.134 A 
ATOM     75  C   UNL A   1      38.225  29.412  28.145  1.00  0.00     0.134 A 
ATOM     76  F   UNL A   1      38.019  28.342  31.601  1.00  0.00    -0.206 F 
ATOM     77  C   UNL A   1      36.540  29.637  30.333  1.00  0.00     0.040 A 
ATOM     78  C   UNL A   1      37.041  30.160  28.054  1.00  0.00     0.040 A 
ATOM     79  F   UNL A   1      39.020  29.425  27.067  1.00  0.00    -0.206 F 
ATOM     80  C   UNL A   1      36.203  30.291  29.155  1.00  0.00     0.006 A 
ENDBRANCH  52  73
BRANCH  64  81
ATOM     81  C   UNL A   1      43.922  27.726  32.420  1.00  0.00     0.057 A 
ATOM     82  C   UNL A   1      43.820  26.329  32.309  1.00  0.00     0.134 A 
ATOM     83  C   UNL A   1      43.940  28.249  33.717  1.00  0.00     0.134 A 
ATOM     84  F   UNL A   1      43.898  25.718  31.122  1.00  0.00    -0.206 F 
ATOM     85  C   UNL A   1      43.687  25.502  33.430  1.00  0.00     0.040 A 
ATOM     86  C   UNL A   1      43.844  27.432  34.847  1.00  0.00     0.040 A 
ATOM     87  F   UNL A   1      44.091  29.568  33.910  1.00  0.00    -0.206 F 
ATOM     88  C   UNL A   1      43.703  26.055  34.706  1.00  0.00     0.006 A 
ENDBRANCH  64  81
ENDBRANCH  38  39
ENDBRANCH  30  33
ENDBRANCH  28  29
ENDBRANCH  27  28
ENDBRANCH  26  27
ENDBRANCH   1  26
TORSDOF 16
ENDMDL
MODEL 3
REMARK VINA RESULT:     -10.8      2.963      4.250
REMARK SMILES O=C(CC[N@H+]1CCC[C@H](c2nccn2Cc2cscn2)C1)NCCCCNC(=O)c1ccc(-c2c3nc(c(-c4c(F)cccc4F)c4ccc([nH]4)c(-c4c(F)cccc4F)c4nc(c(-c5c(F)cccc5F)c5ccc2[nH]5)C=C4)C=C3)cc1
REMARK SMILES IDX 23 1 22 2 1 3 2 4 3 6 4 7 5 8 6 9 21 10 7 12 9 13 8 14 10 15
REMARK SMILES IDX 11 16 14 17 12 18 13 19 15 20 16 21 17 22 20 23 18 24 19 25
REMARK SMILES IDX 24 26 25 27 26 28 27 29 28 30 29 32 30 33 31 34 83 35 32 36
REMARK SMILES IDX 82 37 33 38 34 39 35 40 76 41 36 42 81 43 75 44 77 45 37 46
REMARK SMILES IDX 80 47 74 48 73 49 38 51 64 52 47 53 63 54 48 55 51 56 62 57
REMARK SMILES IDX 78 58 49 59 50 60 61 62 79 63 52 64 39 65 40 66 45 67 41 68
REMARK SMILES IDX 42 69 44 70 46 71 43 72 65 73 66 74 71 75 67 76 68 77 70 78
REMARK SMILES IDX 72 79 69 80 53 81 54 82 59 83 55 84 56 85 58 86 60 87 57 88
REMARK H PARENT 22 5 5 11 27 31 77 50 51 61
REMARK Flexibility Score: inf
ROOT
ATOM      1  C   UNL A   1      37.736  21.449  25.486  1.00  0.00     0.116 C 
ENDROOT
BRANCH   1   2
ATOM      2  N   UNL A   1      36.635  22.243  26.083  1.00  0.00    -0.356 N 
ATOM      3  O   UNL A   1      34.729  21.095  25.601  1.00  0.00    -0.275 OA
ATOM      4  C   UNL A   1      35.245  22.065  26.159  1.00  0.00     0.225 C 
ATOM      5  H   UNL A   1      36.945  23.070  26.518  1.00  0.00     0.163 HD
BRANCH   4   6
ATOM      6  C   UNL A   1      34.263  23.253  26.794  1.00  0.00     0.161 C 
BRANCH   6   7
ATOM      7  C   UNL A   1      32.628  23.463  26.859  1.00  0.00     0.272 C 
BRANCH   7   8
ATOM      8  N   UNL A   1      31.775  23.950  25.731  1.00  0.00    -0.334 N 
ATOM      9  C   UNL A   1      31.384  23.107  24.573  1.00  0.00     0.262 C 
ATOM     10  C   UNL A   1      30.673  24.860  26.074  1.00  0.00     0.273 C 
ATOM     11  H   UNL A   1      32.579  24.450  25.352  1.00  0.00     0.348 HD
ATOM     12  C   UNL A   1      31.007  23.934  23.287  1.00  0.00     0.062 C 
ATOM     13  C   UNL A   1      30.425  25.866  24.924  1.00  0.00     0.111 C 
ATOM     14  C   UNL A   1      30.182  25.198  23.561  1.00  0.00     0.023 C 
BRANCH  13  15
ATOM     15  C   UNL A   1      31.463  26.983  24.928  1.00  0.00     0.117 A 
ATOM     16  N   UNL A   1      32.678  26.768  25.381  1.00  0.00    -0.241 NA
ATOM     17  N   UNL A   1      31.402  28.252  24.304  1.00  0.00    -0.328 N 
ATOM     18  C   UNL A   1      33.468  27.740  24.870  1.00  0.00     0.131 A 
ATOM     19  C   UNL A   1      32.722  28.567  24.084  1.00  0.00     0.108 A 
BRANCH  17  20
ATOM     20  C   UNL A   1      30.243  28.585  23.455  1.00  0.00     0.180 C 
BRANCH  20  21
ATOM     21  C   UNL A   1      29.243  29.689  23.087  1.00  0.00     0.071 A 
ATOM     22  C   UNL A   1      29.026  30.981  23.557  1.00  0.00     0.092 A 
ATOM     23  N   UNL A   1      28.801  29.605  21.750  1.00  0.00    -0.248 NA
ATOM     24  S   UNL A   1      28.305  32.022  22.393  1.00  0.00    -0.130 S 
ATOM     25  C   UNL A   1      28.415  30.760  21.264  1.00  0.00     0.175 A 
ENDBRANCH  20  21
ENDBRANCH  17  20
ENDBRANCH  13  15
ENDBRANCH   7   8
ENDBRANCH   6   7
ENDBRANCH   4   6
ENDBRANCH   1   2
BRANCH   1  26
ATOM     26  C   UNL A   1      39.218  21.535  26.135  1.00  0.00     0.023 C 
BRANCH  26  27
ATOM     27  C   UNL A   1      40.366  20.468  26.289  1.00  0.00     0.023 C 
BRANCH  27  28
ATOM     28  C   UNL A   1      41.853  20.679  26.626  1.00  0.00     0.116 C 
BRANCH  28  29
ATOM     29  N   UNL A   1      42.660  21.542  25.799  1.00  0.00    -0.352 N 
ATOM     30  C   UNL A   1      42.659  22.929  25.684  1.00  0.00     0.251 C 
ATOM     31  H   UNL A   1      43.312  21.077  25.226  1.00  0.00     0.163 HD
ATOM     32  O   UNL A   1      43.293  23.422  24.745  1.00  0.00    -0.269 OA
BRANCH  30  33
ATOM     33  C   UNL A   1      42.060  23.851  26.703  1.00  0.00     0.039 A 
ATOM     34  C   UNL A   1      40.921  24.603  26.353  1.00  0.00     0.014 A 
ATOM     35  C   UNL A   1      42.641  24.113  27.927  1.00  0.00     0.014 A 
ATOM     36  C   UNL A   1      40.594  25.790  27.035  1.00  0.00     0.010 A 
ATOM     37  C   UNL A   1      42.348  25.312  28.565  1.00  0.00     0.010 A 
ATOM     38  C   UNL A   1      41.421  26.236  28.057  1.00  0.00    -0.014 A 
BRANCH  38  39
ATOM     39  C   UNL A   1      41.245  27.524  28.770  1.00  0.00     0.031 A 
ATOM     40  C   UNL A   1      42.190  28.549  28.251  1.00  0.00     0.074 A 
ATOM     41  C   UNL A   1      40.256  27.914  29.618  1.00  0.00     0.049 A 
ATOM     42  N   UNL A   1      43.386  28.782  28.691  1.00  0.00    -0.248 NA
ATOM     43  C   UNL A   1      41.910  29.183  26.952  1.00  0.00     0.031 C 
ATOM     44  C   UNL A   1      39.076  27.194  30.097  1.00  0.00     0.029 A 
ATOM     45  N   UNL A   1      40.060  29.157  30.178  1.00  0.00    -0.354 N 
ATOM     46  C   UNL A   1      43.888  29.750  27.833  1.00  0.00     0.074 A 
ATOM     47  C   UNL A   1      43.123  29.631  26.627  1.00  0.00     0.031 C 
ATOM     48  C   UNL A   1      38.176  28.060  30.630  1.00  0.00     0.029 A 
ATOM     49  C   UNL A   1      38.780  29.375  30.713  1.00  0.00     0.049 A 
ATOM     50  H   UNL A   1      40.766  29.843  30.202  1.00  0.00     0.167 HD
ATOM     51  C   UNL A   1      44.593  30.821  28.292  1.00  0.00     0.037 A 
ATOM     52  C   UNL A   1      38.282  30.553  31.191  1.00  0.00     0.037 A 
ATOM     53  C   UNL A   1      44.930  30.644  29.688  1.00  0.00     0.049 A 
ATOM     54  C   UNL A   1      39.448  31.410  31.522  1.00  0.00     0.074 A 
ATOM     55  C   UNL A   1      45.582  29.667  30.417  1.00  0.00     0.029 A 
ATOM     56  N   UNL A   1      44.196  31.361  30.605  1.00  0.00    -0.354 N 
ATOM     57  N   UNL A   1      40.272  31.154  32.500  1.00  0.00    -0.248 NA
ATOM     58  C   UNL A   1      39.973  32.255  30.462  1.00  0.00     0.031 C 
ATOM     59  C   UNL A   1      44.824  29.534  31.618  1.00  0.00     0.029 A 
ATOM     60  C   UNL A   1      43.824  30.504  31.610  1.00  0.00     0.049 A 
ATOM     61  H   UNL A   1      43.979  32.320  30.550  1.00  0.00     0.167 HD
ATOM     62  C   UNL A   1      41.526  31.373  31.953  1.00  0.00     0.074 A 
ATOM     63  C   UNL A   1      41.278  32.115  30.715  1.00  0.00     0.031 C 
ATOM     64  C   UNL A   1      42.611  30.662  32.377  1.00  0.00     0.037 A 
BRANCH  51  65
ATOM     65  C   UNL A   1      44.617  32.187  27.635  1.00  0.00     0.057 A 
ATOM     66  C   UNL A   1      45.646  32.465  26.719  1.00  0.00     0.134 A 
ATOM     67  C   UNL A   1      43.854  33.312  28.022  1.00  0.00     0.134 A 
ATOM     68  F   UNL A   1      46.446  31.487  26.266  1.00  0.00    -0.206 F 
ATOM     69  C   UNL A   1      45.946  33.764  26.291  1.00  0.00     0.040 A 
ATOM     70  C   UNL A   1      44.109  34.604  27.556  1.00  0.00     0.040 A 
ATOM     71  F   UNL A   1      42.883  33.267  28.938  1.00  0.00    -0.206 F 
ATOM     72  C   UNL A   1      45.180  34.841  26.716  1.00  0.00     0.006 A 
ENDBRANCH  51  65
BRANCH  52  73
ATOM     73  C   UNL A   1      36.909  31.135  31.139  1.00  0.00     0.057 A 
ATOM     74  C   UNL A   1      36.255  31.588  32.303  1.00  0.00     0.134 A 
ATOM     75  C   UNL A   1      36.340  31.559  29.928  1.00  0.00     0.134 A 
ATOM     76  F   UNL A   1      36.731  31.279  33.520  1.00  0.00    -0.206 F 
ATOM     77  C   UNL A   1      35.137  32.441  32.263  1.00  0.00     0.040 A 
ATOM     78  C   UNL A   1      35.222  32.407  29.874  1.00  0.00     0.040 A 
ATOM     79  F   UNL A   1      36.908  31.250  28.755  1.00  0.00    -0.206 F 
ATOM     80  C   UNL A   1      34.627  32.866  31.042  1.00  0.00     0.006 A 
ENDBRANCH  52  73
BRANCH  64  81
ATOM     81  C   UNL A   1      42.464  29.815  33.617  1.00  0.00     0.057 A 
ATOM     82  C   UNL A   1      42.029  28.479  33.629  1.00  0.00     0.134 A 
ATOM     83  C   UNL A   1      42.906  30.338  34.836  1.00  0.00     0.134 A 
ATOM     84  F   UNL A   1      41.685  27.849  32.500  1.00  0.00    -0.206 F 
ATOM     85  C   UNL A   1      41.986  27.723  34.805  1.00  0.00     0.040 A 
ATOM     86  C   UNL A   1      42.901  29.583  36.012  1.00  0.00     0.040 A 
ATOM     87  F   UNL A   1      43.389  31.589  34.898  1.00  0.00    -0.206 F 
ATOM     88  C   UNL A   1      42.427  28.275  36.003  1.00  0.00     0.006 A 
ENDBRANCH  64  81
ENDBRANCH  38  39
ENDBRANCH  30  33
ENDBRANCH  28  29
ENDBRANCH  27  28
ENDBRANCH  26  27
ENDBRANCH   1  26
TORSDOF 16
ENDMDL
