MODEL 1
REMARK VINA RESULT:     -11.8      0.000      0.000
REMARK SMILES N#C/C(=C\c1ccc(Oc2ccccc2)cc1Cl)C(=O)NCCCCNC(=O)c1ccc(-c2c3nc(c(-c4c(F)cccc4F)c4ccc([nH]4)c(-c4c(F)cccc4F)c4nc(c(-c5c(F)cccc5F)c5ccc2[nH]5)C=C4)C=C3)cc1
REMARK SMILES IDX 23 1 22 2 21 3 19 4 20 5 3 7 4 8 2 9 1 10 5 11 6 12 17 13
REMARK SMILES IDX 7 14 16 15 18 16 8 17 9 18 10 19 11 20 15 21 12 22 14 23
REMARK SMILES IDX 13 24 24 25 25 26 26 27 27 28 28 30 29 31 30 32 82 33 31 34
REMARK SMILES IDX 81 35 32 36 33 37 34 38 75 39 35 40 80 41 74 42 76 43 36 44
REMARK SMILES IDX 79 45 73 46 72 47 37 49 63 50 46 51 62 52 47 53 50 54 61 55
REMARK SMILES IDX 77 56 48 57 49 58 60 60 78 61 51 62 38 63 39 64 44 65 40 66
REMARK SMILES IDX 41 67 43 68 45 69 42 70 64 71 65 72 70 73 66 74 67 75 69 76
REMARK SMILES IDX 71 77 68 78 52 79 53 80 58 81 54 82 55 83 57 84 59 85 56 86
REMARK H PARENT 21 6 26 29 76 48 50 59
REMARK Flexibility Score: inf
ROOT
ATOM      1  C   UNL A   1      37.086  21.699  24.425  1.00  0.00     0.023 C 
ENDROOT
BRANCH   1   2
ATOM      2  C   UNL A   1      35.572  21.725  24.663  1.00  0.00     0.116 C 
BRANCH   2   3
ATOM      3  N   UNL A   1      35.257  21.981  26.056  1.00  0.00    -0.351 N 
ATOM      4  C   UNL A   1      34.518  22.948  26.671  1.00  0.00     0.261 C 
ATOM      5  O   UNL A   1      34.393  22.860  27.892  1.00  0.00    -0.268 OA
ATOM      6  H   UNL A   1      35.653  21.329  26.678  1.00  0.00     0.163 HD
BRANCH   4   7
ATOM      7  C   UNL A   1      33.858  24.065  25.937  1.00  0.00     0.117 C 
ATOM      8  C   UNL A   1      34.453  24.992  25.149  1.00  0.00     0.035 C 
BRANCH   7   9
ATOM      9  C   UNL A   1      32.403  24.354  26.271  1.00  0.00     0.105 C 
ATOM     10  N   UNL A   1      31.197  24.594  26.548  1.00  0.00    -0.192 NA
ENDBRANCH   7   9
BRANCH   8  11
ATOM     11  C   UNL A   1      33.740  26.099  24.468  1.00  0.00    -0.005 A 
ATOM     12  C   UNL A   1      33.330  25.881  23.146  1.00  0.00     0.013 A 
ATOM     13  C   UNL A   1      33.414  27.322  25.081  1.00  0.00     0.052 A 
ATOM     14  C   UNL A   1      32.576  26.845  22.470  1.00  0.00     0.048 A 
ATOM     15  C   UNL A   1      32.605  28.254  24.425  1.00  0.00     0.068 A 
ATOM     16  Cl  UNL A   1      34.017  27.750  26.647  1.00  0.00    -0.084 Cl
ATOM     17  C   UNL A   1      32.192  28.027  23.110  1.00  0.00     0.128 A 
BRANCH  17  18
ATOM     18  O   UNL A   1      31.422  28.880  22.344  1.00  0.00    -0.457 OA
BRANCH  18  19
ATOM     19  C   UNL A   1      30.074  28.955  22.598  1.00  0.00     0.127 A 
ATOM     20  C   UNL A   1      29.438  30.180  22.404  1.00  0.00     0.047 A 
ATOM     21  C   UNL A   1      29.366  27.859  23.093  1.00  0.00     0.047 A 
ATOM     22  C   UNL A   1      28.067  30.288  22.635  1.00  0.00     0.004 A 
ATOM     23  C   UNL A   1      27.991  27.963  23.297  1.00  0.00     0.004 A 
ATOM     24  C   UNL A   1      27.341  29.175  23.062  1.00  0.00     0.000 A 
ENDBRANCH  18  19
ENDBRANCH  17  18
ENDBRANCH   8  11
ENDBRANCH   4   7
ENDBRANCH   2   3
ENDBRANCH   1   2
BRANCH   1  25
ATOM     25  C   UNL A   1      37.773  20.390  24.818  1.00  0.00     0.023 C 
BRANCH  25  26
ATOM     26  C   UNL A   1      38.894  20.538  25.839  1.00  0.00     0.116 C 
BRANCH  26  27
ATOM     27  N   UNL A   1      39.897  19.488  25.760  1.00  0.00    -0.352 N 
ATOM     28  C   UNL A   1      41.236  19.572  26.076  1.00  0.00     0.251 C 
ATOM     29  H   UNL A   1      39.582  18.611  25.443  1.00  0.00     0.163 HD
ATOM     30  O   UNL A   1      41.985  18.632  25.878  1.00  0.00    -0.269 OA
BRANCH  28  31
ATOM     31  C   UNL A   1      41.755  20.849  26.610  1.00  0.00     0.039 A 
ATOM     32  C   UNL A   1      42.273  21.787  25.715  1.00  0.00     0.014 A 
ATOM     33  C   UNL A   1      41.666  21.137  27.973  1.00  0.00     0.014 A 
ATOM     34  C   UNL A   1      42.636  23.051  26.180  1.00  0.00     0.010 A 
ATOM     35  C   UNL A   1      41.966  22.417  28.424  1.00  0.00     0.010 A 
ATOM     36  C   UNL A   1      42.446  23.387  27.531  1.00  0.00    -0.014 A 
BRANCH  36  37
ATOM     37  C   UNL A   1      42.735  24.752  28.031  1.00  0.00     0.031 A 
ATOM     38  C   UNL A   1      44.133  25.124  28.434  1.00  0.00     0.074 A 
ATOM     39  C   UNL A   1      41.726  25.629  28.193  1.00  0.00     0.049 A 
ATOM     40  N   UNL A   1      44.570  26.234  28.973  1.00  0.00    -0.248 NA
ATOM     41  C   UNL A   1      45.173  24.102  28.232  1.00  0.00     0.031 C 
ATOM     42  C   UNL A   1      40.319  25.368  27.882  1.00  0.00     0.029 A 
ATOM     43  N   UNL A   1      41.729  26.916  28.670  1.00  0.00    -0.354 N 
ATOM     44  C   UNL A   1      45.928  26.039  29.187  1.00  0.00     0.074 A 
ATOM     45  C   UNL A   1      46.233  24.688  28.768  1.00  0.00     0.031 C 
ATOM     46  C   UNL A   1      39.598  26.468  28.157  1.00  0.00     0.029 A 
ATOM     47  C   UNL A   1      40.485  27.496  28.693  1.00  0.00     0.049 A 
ATOM     48  H   UNL A   1      42.545  27.378  28.967  1.00  0.00     0.167 HD
ATOM     49  C   UNL A   1      46.841  26.913  29.668  1.00  0.00     0.037 A 
ATOM     50  C   UNL A   1      40.102  28.719  29.104  1.00  0.00     0.037 A 
ATOM     51  C   UNL A   1      46.541  28.265  30.059  1.00  0.00     0.049 A 
ATOM     52  C   UNL A   1      41.137  29.674  29.631  1.00  0.00     0.074 A 
ATOM     53  C   UNL A   1      47.407  29.247  30.505  1.00  0.00     0.029 A 
ATOM     54  N   UNL A   1      45.272  28.824  30.045  1.00  0.00    -0.354 N 
ATOM     55  N   UNL A   1      42.427  29.496  29.773  1.00  0.00    -0.248 NA
ATOM     56  C   UNL A   1      40.662  31.000  30.051  1.00  0.00     0.031 C 
ATOM     57  C   UNL A   1      46.658  30.393  30.792  1.00  0.00     0.029 A 
ATOM     58  C   UNL A   1      45.330  30.135  30.489  1.00  0.00     0.049 A 
ATOM     59  H   UNL A   1      44.452  28.360  29.762  1.00  0.00     0.167 HD
ATOM     60  C   UNL A   1      42.923  30.693  30.273  1.00  0.00     0.074 A 
ATOM     61  C   UNL A   1      41.795  31.593  30.400  1.00  0.00     0.031 C 
ATOM     62  C   UNL A   1      44.198  31.018  30.599  1.00  0.00     0.037 A 
BRANCH  49  63
ATOM     63  C   UNL A   1      48.257  26.433  29.787  1.00  0.00     0.057 A 
ATOM     64  C   UNL A   1      49.185  26.613  28.753  1.00  0.00     0.134 A 
ATOM     65  C   UNL A   1      48.705  25.805  30.957  1.00  0.00     0.134 A 
ATOM     66  F   UNL A   1      48.815  27.193  27.602  1.00  0.00    -0.206 F 
ATOM     67  C   UNL A   1      50.501  26.162  28.867  1.00  0.00     0.040 A 
ATOM     68  C   UNL A   1      50.025  25.372  31.091  1.00  0.00     0.040 A 
ATOM     69  F   UNL A   1      47.869  25.604  31.986  1.00  0.00    -0.206 F 
ATOM     70  C   UNL A   1      50.925  25.544  30.041  1.00  0.00     0.006 A 
ENDBRANCH  49  63
BRANCH  50  71
ATOM     71  C   UNL A   1      38.679  29.124  29.006  1.00  0.00     0.057 A 
ATOM     72  C   UNL A   1      37.829  29.036  30.115  1.00  0.00     0.134 A 
ATOM     73  C   UNL A   1      38.133  29.605  27.811  1.00  0.00     0.134 A 
ATOM     74  F   UNL A   1      38.292  28.566  31.283  1.00  0.00    -0.206 F 
ATOM     75  C   UNL A   1      36.483  29.394  30.035  1.00  0.00     0.040 A 
ATOM     76  C   UNL A   1      36.793  29.987  27.721  1.00  0.00     0.040 A 
ATOM     77  F   UNL A   1      38.898  29.720  26.715  1.00  0.00    -0.206 F 
ATOM     78  C   UNL A   1      35.962  29.877  28.836  1.00  0.00     0.006 A 
ENDBRANCH  50  71
BRANCH  62  79
ATOM     79  C   UNL A   1      44.444  32.412  31.091  1.00  0.00     0.057 A 
ATOM     80  C   UNL A   1      44.427  32.727  32.455  1.00  0.00     0.134 A 
ATOM     81  C   UNL A   1      44.743  33.442  30.190  1.00  0.00     0.134 A 
ATOM     82  F   UNL A   1      44.133  31.786  33.366  1.00  0.00    -0.206 F 
ATOM     83  C   UNL A   1      44.683  34.022  32.906  1.00  0.00     0.040 A 
ATOM     84  C   UNL A   1      45.023  34.736  30.631  1.00  0.00     0.040 A 
ATOM     85  F   UNL A   1      44.782  33.204  28.870  1.00  0.00    -0.206 F 
ATOM     86  C   UNL A   1      44.989  35.029  31.992  1.00  0.00     0.006 A 
ENDBRANCH  62  79
ENDBRANCH  36  37
ENDBRANCH  28  31
ENDBRANCH  26  27
ENDBRANCH  25  26
ENDBRANCH   1  25
TORSDOF 15
ENDMDL
MODEL 2
REMARK VINA RESULT:     -11.7      2.361      8.020
REMARK SMILES N#C/C(=C\c1ccc(Oc2ccccc2)cc1Cl)C(=O)NCCCCNC(=O)c1ccc(-c2c3nc(c(-c4c(F)cccc4F)c4ccc([nH]4)c(-c4c(F)cccc4F)c4nc(c(-c5c(F)cccc5F)c5ccc2[nH]5)C=C4)C=C3)cc1
REMARK SMILES IDX 23 1 22 2 21 3 19 4 20 5 3 7 4 8 2 9 1 10 5 11 6 12 17 13
REMARK SMILES IDX 7 14 16 15 18 16 8 17 9 18 10 19 11 20 15 21 12 22 14 23
REMARK SMILES IDX 13 24 24 25 25 26 26 27 27 28 28 30 29 31 30 32 82 33 31 34
REMARK SMILES IDX 81 35 32 36 33 37 34 38 75 39 35 40 80 41 74 42 76 43 36 44
REMARK SMILES IDX 79 45 73 46 72 47 37 49 63 50 46 51 62 52 47 53 50 54 61 55
REMARK SMILES IDX 77 56 48 57 49 58 60 60 78 61 51 62 38 63 39 64 44 65 40 66
REMARK SMILES IDX 41 67 43 68 45 69 42 70 64 71 65 72 70 73 66 74 67 75 69 76
REMARK SMILES IDX 71 77 68 78 52 79 53 80 58 81 54 82 55 83 57 84 59 85 56 86
REMARK H PARENT 21 6 26 29 76 48 50 59
REMARK Flexibility Score: inf
ROOT
ATOM      1  C   UNL A   1      31.939  29.339  25.463  1.00  0.00     0.023 C 
ENDROOT
BRANCH   1   2
ATOM      2  C   UNL A   1      31.588  28.740  24.096  1.00  0.00     0.116 C 
BRANCH   2   3
ATOM      3  N   UNL A   1      32.715  28.797  23.186  1.00  0.00    -0.351 N 
ATOM      4  C   UNL A   1      33.556  27.838  22.700  1.00  0.00     0.261 C 
ATOM      5  O   UNL A   1      34.402  28.203  21.883  1.00  0.00    -0.268 OA
ATOM      6  H   UNL A   1      32.912  29.702  22.853  1.00  0.00     0.163 HD
BRANCH   4   7
ATOM      7  C   UNL A   1      33.478  26.404  23.096  1.00  0.00     0.117 C 
ATOM      8  C   UNL A   1      33.831  25.862  24.286  1.00  0.00     0.035 C 
BRANCH   7   9
ATOM      9  C   UNL A   1      33.193  25.393  21.997  1.00  0.00     0.105 C 
ATOM     10  N   UNL A   1      32.957  24.554  21.085  1.00  0.00    -0.192 NA
ENDBRANCH   7   9
BRANCH   8  11
ATOM     11  C   UNL A   1      33.756  24.417  24.606  1.00  0.00    -0.005 A 
ATOM     12  C   UNL A   1      34.910  23.651  24.394  1.00  0.00     0.013 A 
ATOM     13  C   UNL A   1      32.622  23.788  25.150  1.00  0.00     0.052 A 
ATOM     14  C   UNL A   1      34.942  22.301  24.756  1.00  0.00     0.048 A 
ATOM     15  C   UNL A   1      32.680  22.456  25.570  1.00  0.00     0.068 A 
ATOM     16  Cl  UNL A   1      31.103  24.606  25.294  1.00  0.00    -0.084 Cl
ATOM     17  C   UNL A   1      33.836  21.701  25.364  1.00  0.00     0.128 A 
BRANCH  17  18
ATOM     18  O   UNL A   1      34.008  20.372  25.702  1.00  0.00    -0.457 OA
BRANCH  18  19
ATOM     19  C   UNL A   1      33.746  19.414  24.753  1.00  0.00     0.127 A 
ATOM     20  C   UNL A   1      34.644  18.355  24.626  1.00  0.00     0.047 A 
ATOM     21  C   UNL A   1      32.649  19.519  23.897  1.00  0.00     0.047 A 
ATOM     22  C   UNL A   1      34.400  17.354  23.686  1.00  0.00     0.004 A 
ATOM     23  C   UNL A   1      32.393  18.504  22.977  1.00  0.00     0.004 A 
ATOM     24  C   UNL A   1      33.265  17.419  22.876  1.00  0.00     0.000 A 
ENDBRANCH  18  19
ENDBRANCH  17  18
ENDBRANCH   8  11
ENDBRANCH   4   7
ENDBRANCH   2   3
ENDBRANCH   1   2
BRANCH   1  25
ATOM     25  C   UNL A   1      32.454  28.330  26.491  1.00  0.00     0.023 C 
BRANCH  25  26
ATOM     26  C   UNL A   1      33.736  28.742  27.204  1.00  0.00     0.116 C 
BRANCH  26  27
ATOM     27  N   UNL A   1      33.693  30.088  27.751  1.00  0.00    -0.352 N 
ATOM     28  C   UNL A   1      34.707  30.780  28.377  1.00  0.00     0.251 C 
ATOM     29  H   UNL A   1      32.835  30.564  27.663  1.00  0.00     0.163 HD
ATOM     30  O   UNL A   1      34.507  31.876  28.868  1.00  0.00    -0.269 OA
BRANCH  28  31
ATOM     31  C   UNL A   1      36.034  30.137  28.487  1.00  0.00     0.039 A 
ATOM     32  C   UNL A   1      36.892  30.180  27.387  1.00  0.00     0.014 A 
ATOM     33  C   UNL A   1      36.444  29.557  29.690  1.00  0.00     0.014 A 
ATOM     34  C   UNL A   1      38.197  29.705  27.516  1.00  0.00     0.010 A 
ATOM     35  C   UNL A   1      37.764  29.145  29.836  1.00  0.00     0.010 A 
ATOM     36  C   UNL A   1      38.653  29.222  28.754  1.00  0.00    -0.014 A 
BRANCH  36  37
ATOM     37  C   UNL A   1      40.062  28.800  28.942  1.00  0.00     0.031 A 
ATOM     38  C   UNL A   1      41.066  29.765  29.503  1.00  0.00     0.074 A 
ATOM     39  C   UNL A   1      40.449  27.576  28.537  1.00  0.00     0.049 A 
ATOM     40  N   UNL A   1      42.356  29.615  29.663  1.00  0.00    -0.248 NA
ATOM     41  C   UNL A   1      40.558  31.084  29.912  1.00  0.00     0.031 C 
ATOM     42  C   UNL A   1      39.577  26.567  27.933  1.00  0.00     0.029 A 
ATOM     43  N   UNL A   1      41.683  26.975  28.563  1.00  0.00    -0.354 N 
ATOM     44  C   UNL A   1      42.815  30.821  30.174  1.00  0.00     0.074 A 
ATOM     45  C   UNL A   1      41.675  31.710  30.251  1.00  0.00     0.031 C 
ATOM     46  C   UNL A   1      40.298  25.465  27.665  1.00  0.00     0.029 A 
ATOM     47  C   UNL A   1      41.687  25.703  28.047  1.00  0.00     0.049 A 
ATOM     48  H   UNL A   1      42.488  27.415  28.918  1.00  0.00     0.167 HD
ATOM     49  C   UNL A   1      44.067  31.151  30.567  1.00  0.00     0.037 A 
ATOM     50  C   UNL A   1      42.698  24.828  27.896  1.00  0.00     0.037 A 
ATOM     51  C   UNL A   1      45.193  30.257  30.515  1.00  0.00     0.049 A 
ATOM     52  C   UNL A   1      44.079  25.216  28.342  1.00  0.00     0.074 A 
ATOM     53  C   UNL A   1      46.491  30.479  30.942  1.00  0.00     0.029 A 
ATOM     54  N   UNL A   1      45.152  28.968  30.008  1.00  0.00    -0.354 N 
ATOM     55  N   UNL A   1      44.487  26.341  28.879  1.00  0.00    -0.248 NA
ATOM     56  C   UNL A   1      45.139  24.214  28.166  1.00  0.00     0.031 C 
ATOM     57  C   UNL A   1      47.244  29.333  30.663  1.00  0.00     0.029 A 
ATOM     58  C   UNL A   1      46.406  28.385  30.097  1.00  0.00     0.049 A 
ATOM     59  H   UNL A   1      44.351  28.530  29.639  1.00  0.00     0.167 HD
ATOM     60  C   UNL A   1      45.842  26.172  29.128  1.00  0.00     0.074 A 
ATOM     61  C   UNL A   1      46.186  24.833  28.693  1.00  0.00     0.031 C 
ATOM     62  C   UNL A   1      46.726  27.048  29.668  1.00  0.00     0.037 A 
BRANCH  49  63
ATOM     63  C   UNL A   1      44.279  32.538  31.096  1.00  0.00     0.057 A 
ATOM     64  C   UNL A   1      44.612  33.605  30.250  1.00  0.00     0.134 A 
ATOM     65  C   UNL A   1      44.128  32.817  32.460  1.00  0.00     0.134 A 
ATOM     66  F   UNL A   1      44.786  33.400  28.936  1.00  0.00    -0.206 F 
ATOM     67  C   UNL A   1      44.811  34.894  30.745  1.00  0.00     0.040 A 
ATOM     68  C   UNL A   1      44.300  34.107  32.963  1.00  0.00     0.040 A 
ATOM     69  F   UNL A   1      43.807  31.842  33.324  1.00  0.00    -0.206 F 
ATOM     70  C   UNL A   1      44.650  35.149  32.105  1.00  0.00     0.006 A 
ENDBRANCH  49  63
BRANCH  50  71
ATOM     71  C   UNL A   1      42.438  23.484  27.323  1.00  0.00     0.057 A 
ATOM     72  C   UNL A   1      42.087  22.408  28.146  1.00  0.00     0.134 A 
ATOM     73  C   UNL A   1      42.534  23.242  25.948  1.00  0.00     0.134 A 
ATOM     74  F   UNL A   1      41.997  22.577  29.474  1.00  0.00    -0.206 F 
ATOM     75  C   UNL A   1      41.858  21.133  27.626  1.00  0.00     0.040 A 
ATOM     76  C   UNL A   1      42.288  21.977  25.411  1.00  0.00     0.040 A 
ATOM     77  F   UNL A   1      42.858  24.234  25.106  1.00  0.00    -0.206 F 
ATOM     78  C   UNL A   1      41.954  20.916  26.253  1.00  0.00     0.006 A 
ENDBRANCH  50  71
BRANCH  62  79
ATOM     79  C   UNL A   1      48.135  26.575  29.848  1.00  0.00     0.057 A 
ATOM     80  C   UNL A   1      49.116  26.789  28.872  1.00  0.00     0.134 A 
ATOM     81  C   UNL A   1      48.525  25.935  31.032  1.00  0.00     0.134 A 
ATOM     82  F   UNL A   1      48.801  27.383  27.711  1.00  0.00    -0.206 F 
ATOM     83  C   UNL A   1      50.433  26.367  29.059  1.00  0.00     0.040 A 
ATOM     84  C   UNL A   1      49.845  25.529  31.239  1.00  0.00     0.040 A 
ATOM     85  F   UNL A   1      47.635  25.707  32.009  1.00  0.00    -0.206 F 
ATOM     86  C   UNL A   1      50.801  25.742  30.249  1.00  0.00     0.006 A 
ENDBRANCH  62  79
ENDBRANCH  36  37
ENDBRANCH  28  31
ENDBRANCH  26  27
ENDBRANCH  25  26
ENDBRANCH   1  25
TORSDOF 15
ENDMDL
MODEL 3
REMARK VINA RESULT:     -11.6      3.691      8.967
REMARK SMILES N#C/C(=C\c1ccc(Oc2ccccc2)cc1Cl)C(=O)NCCCCNC(=O)c1ccc(-c2c3nc(c(-c4c(F)cccc4F)c4ccc([nH]4)c(-c4c(F)cccc4F)c4nc(c(-c5c(F)cccc5F)c5ccc2[nH]5)C=C4)C=C3)cc1
REMARK SMILES IDX 23 1 22 2 21 3 19 4 20 5 3 7 4 8 2 9 1 10 5 11 6 12 17 13
REMARK SMILES IDX 7 14 16 15 18 16 8 17 9 18 10 19 11 20 15 21 12 22 14 23
REMARK SMILES IDX 13 24 24 25 25 26 26 27 27 28 28 30 29 31 30 32 82 33 31 34
REMARK SMILES IDX 81 35 32 36 33 37 34 38 75 39 35 40 80 41 74 42 76 43 36 44
REMARK SMILES IDX 79 45 73 46 72 47 37 49 63 50 46 51 62 52 47 53 50 54 61 55
REMARK SMILES IDX 77 56 48 57 49 58 60 60 78 61 51 62 38 63 39 64 44 65 40 66
REMARK SMILES IDX 41 67 43 68 45 69 42 70 64 71 65 72 70 73 66 74 67 75 69 76
REMARK SMILES IDX 71 77 68 78 52 79 53 80 58 81 54 82 55 83 57 84 59 85 56 86
REMARK H PARENT 21 6 26 29 76 48 50 59
REMARK Flexibility Score: inf
ROOT
ATOM      1  C   UNL A   1      31.837  29.327  26.856  1.00  0.00     0.023 C 
ENDROOT
BRANCH   1   2
ATOM      2  C   UNL A   1      33.170  28.603  26.638  1.00  0.00     0.116 C 
BRANCH   2   3
ATOM      3  N   UNL A   1      33.663  28.792  25.287  1.00  0.00    -0.351 N 
ATOM      4  C   UNL A   1      33.777  27.949  24.221  1.00  0.00     0.261 C 
ATOM      5  O   UNL A   1      34.194  28.435  23.170  1.00  0.00    -0.268 OA
ATOM      6  H   UNL A   1      33.977  29.707  25.104  1.00  0.00     0.163 HD
BRANCH   4   7
ATOM      7  C   UNL A   1      33.405  26.507  24.274  1.00  0.00     0.117 C 
ATOM      8  C   UNL A   1      33.951  25.549  25.061  1.00  0.00     0.035 C 
BRANCH   7   9
ATOM      9  C   UNL A   1      32.482  25.985  23.185  1.00  0.00     0.105 C 
ATOM     10  N   UNL A   1      31.716  25.552  22.282  1.00  0.00    -0.192 NA
ENDBRANCH   7   9
BRANCH   8  11
ATOM     11  C   UNL A   1      33.554  24.121  25.044  1.00  0.00    -0.005 A 
ATOM     12  C   UNL A   1      32.435  23.757  25.804  1.00  0.00     0.013 A 
ATOM     13  C   UNL A   1      34.200  23.132  24.281  1.00  0.00     0.052 A 
ATOM     14  C   UNL A   1      31.949  22.446  25.768  1.00  0.00     0.048 A 
ATOM     15  C   UNL A   1      33.672  21.841  24.197  1.00  0.00     0.068 A 
ATOM     16  Cl  UNL A   1      35.683  23.445  23.444  1.00  0.00    -0.084 Cl
ATOM     17  C   UNL A   1      32.551  21.487  24.950  1.00  0.00     0.128 A 
BRANCH  17  18
ATOM     18  O   UNL A   1      31.954  20.241  24.980  1.00  0.00    -0.457 OA
BRANCH  18  19
ATOM     19  C   UNL A   1      32.602  19.188  24.380  1.00  0.00     0.127 A 
ATOM     20  C   UNL A   1      32.196  18.811  23.102  1.00  0.00     0.047 A 
ATOM     21  C   UNL A   1      33.598  18.473  25.048  1.00  0.00     0.047 A 
ATOM     22  C   UNL A   1      32.843  17.758  22.455  1.00  0.00     0.004 A 
ATOM     23  C   UNL A   1      34.261  17.439  24.389  1.00  0.00     0.004 A 
ATOM     24  C   UNL A   1      33.888  17.086  23.092  1.00  0.00     0.000 A 
ENDBRANCH  18  19
ENDBRANCH  17  18
ENDBRANCH   8  11
ENDBRANCH   4   7
ENDBRANCH   2   3
ENDBRANCH   1   2
BRANCH   1  25
ATOM     25  C   UNL A   1      31.851  30.814  26.500  1.00  0.00     0.023 C 
BRANCH  25  26
ATOM     26  C   UNL A   1      32.884  31.642  27.254  1.00  0.00     0.116 C 
BRANCH  26  27
ATOM     27  N   UNL A   1      32.464  33.011  27.506  1.00  0.00    -0.352 N 
ATOM     28  C   UNL A   1      33.127  33.981  28.227  1.00  0.00     0.251 C 
ATOM     29  H   UNL A   1      31.601  33.279  27.114  1.00  0.00     0.163 HD
ATOM     30  O   UNL A   1      32.615  35.066  28.434  1.00  0.00    -0.269 OA
BRANCH  28  31
ATOM     31  C   UNL A   1      34.452  33.654  28.793  1.00  0.00     0.039 A 
ATOM     32  C   UNL A   1      34.511  32.974  30.011  1.00  0.00     0.014 A 
ATOM     33  C   UNL A   1      35.620  33.960  28.091  1.00  0.00     0.014 A 
ATOM     34  C   UNL A   1      35.744  32.532  30.491  1.00  0.00     0.010 A 
ATOM     35  C   UNL A   1      36.839  33.462  28.537  1.00  0.00     0.010 A 
ATOM     36  C   UNL A   1      36.910  32.738  29.737  1.00  0.00    -0.014 A 
BRANCH  36  37
ATOM     37  C   UNL A   1      38.217  32.197  30.179  1.00  0.00     0.031 A 
ATOM     38  C   UNL A   1      38.709  30.885  29.638  1.00  0.00     0.074 A 
ATOM     39  C   UNL A   1      38.923  32.848  31.122  1.00  0.00     0.049 A 
ATOM     40  N   UNL A   1      39.779  30.206  29.962  1.00  0.00    -0.248 NA
ATOM     41  C   UNL A   1      37.871  30.236  28.616  1.00  0.00     0.031 C 
ATOM     42  C   UNL A   1      38.527  34.106  31.760  1.00  0.00     0.029 A 
ATOM     43  N   UNL A   1      40.119  32.536  31.719  1.00  0.00    -0.354 N 
ATOM     44  C   UNL A   1      39.735  29.047  29.200  1.00  0.00     0.074 A 
ATOM     45  C   UNL A   1      38.509  29.090  28.433  1.00  0.00     0.031 C 
ATOM     46  C   UNL A   1      39.473  34.468  32.643  1.00  0.00     0.029 A 
ATOM     47  C   UNL A   1      40.522  33.454  32.657  1.00  0.00     0.049 A 
ATOM     48  H   UNL A   1      40.637  31.730  31.496  1.00  0.00     0.167 HD
ATOM     49  C   UNL A   1      40.646  28.049  29.126  1.00  0.00     0.037 A 
ATOM     50  C   UNL A   1      41.614  33.473  33.443  1.00  0.00     0.037 A 
ATOM     51  C   UNL A   1      41.877  28.020  29.869  1.00  0.00     0.049 A 
ATOM     52  C   UNL A   1      42.612  32.354  33.341  1.00  0.00     0.074 A 
ATOM     53  C   UNL A   1      42.892  27.080  29.823  1.00  0.00     0.029 A 
ATOM     54  N   UNL A   1      42.262  28.981  30.792  1.00  0.00    -0.354 N 
ATOM     55  N   UNL A   1      42.587  31.293  32.572  1.00  0.00    -0.248 NA
ATOM     56  C   UNL A   1      43.792  32.437  34.213  1.00  0.00     0.031 C 
ATOM     57  C   UNL A   1      43.878  27.456  30.742  1.00  0.00     0.029 A 
ATOM     58  C   UNL A   1      43.493  28.649  31.333  1.00  0.00     0.049 A 
ATOM     59  H   UNL A   1      41.739  29.780  31.028  1.00  0.00     0.167 HD
ATOM     60  C   UNL A   1      43.756  30.596  32.847  1.00  0.00     0.074 A 
ATOM     61  C   UNL A   1      44.474  31.360  33.847  1.00  0.00     0.031 C 
ATOM     62  C   UNL A   1      44.196  29.427  32.320  1.00  0.00     0.037 A 
BRANCH  49  63
ATOM     63  C   UNL A   1      40.343  26.907  28.201  1.00  0.00     0.057 A 
ATOM     64  C   UNL A   1      40.899  26.834  26.918  1.00  0.00     0.134 A 
ATOM     65  C   UNL A   1      39.505  25.860  28.605  1.00  0.00     0.134 A 
ATOM     66  F   UNL A   1      41.697  27.813  26.466  1.00  0.00    -0.206 F 
ATOM     67  C   UNL A   1      40.613  25.772  26.058  1.00  0.00     0.040 A 
ATOM     68  C   UNL A   1      39.232  24.781  27.763  1.00  0.00     0.040 A 
ATOM     69  F   UNL A   1      38.942  25.867  29.822  1.00  0.00    -0.206 F 
ATOM     70  C   UNL A   1      39.781  24.739  26.483  1.00  0.00     0.006 A 
ENDBRANCH  49  63
BRANCH  50  71
ATOM     71  C   UNL A   1      41.840  34.605  34.375  1.00  0.00     0.057 A 
ATOM     72  C   UNL A   1      42.493  35.767  33.948  1.00  0.00     0.134 A 
ATOM     73  C   UNL A   1      41.413  34.556  35.706  1.00  0.00     0.134 A 
ATOM     74  F   UNL A   1      42.941  35.864  32.687  1.00  0.00    -0.206 F 
ATOM     75  C   UNL A   1      42.731  36.833  34.816  1.00  0.00     0.040 A 
ATOM     76  C   UNL A   1      41.624  35.623  36.581  1.00  0.00     0.040 A 
ATOM     77  F   UNL A   1      40.774  33.473  36.173  1.00  0.00    -0.206 F 
ATOM     78  C   UNL A   1      42.291  36.765  36.137  1.00  0.00     0.006 A 
ENDBRANCH  50  71
BRANCH  62  79
ATOM     79  C   UNL A   1      45.527  28.923  32.789  1.00  0.00     0.057 A 
ATOM     80  C   UNL A   1      46.721  29.298  32.161  1.00  0.00     0.134 A 
ATOM     81  C   UNL A   1      45.616  28.088  33.910  1.00  0.00     0.134 A 
ATOM     82  F   UNL A   1      46.700  30.085  31.075  1.00  0.00    -0.206 F 
ATOM     83  C   UNL A   1      47.958  28.845  32.621  1.00  0.00     0.040 A 
ATOM     84  C   UNL A   1      46.850  27.647  34.393  1.00  0.00     0.040 A 
ATOM     85  F   UNL A   1      44.510  27.699  34.561  1.00  0.00    -0.206 F 
ATOM     86  C   UNL A   1      48.024  28.023  33.745  1.00  0.00     0.006 A 
ENDBRANCH  62  79
ENDBRANCH  36  37
ENDBRANCH  28  31
ENDBRANCH  26  27
ENDBRANCH  25  26
ENDBRANCH   1  25
TORSDOF 15
ENDMDL
