MODEL 1
REMARK VINA RESULT:     -10.8      0.000      0.000
REMARK SMILES CCCCCCOC(=O)Nc1cccc(-c2ccc([C@@H](C)C(=O)NCCCCNC(=O)c3ccc(-c4c5nc(c(-c6c(F)cccc6F)c6ccc([nH]6)c(-c6c(F)cccc6F)c6nc(c(-c7c(F)cccc7F)c7ccc4[nH]7)C=C6)C=C5)cc3)cc2F)c1
REMARK SMILES IDX 20 1 21 2 19 3 16 4 17 5 87 6 18 7 86 8 88 9 15 10 11 11
REMARK SMILES IDX 12 12 89 13 13 14 14 15 10 16 8 17 9 18 7 20 6 21 5 22 4 23
REMARK SMILES IDX 3 24 2 25 1 26 22 27 23 28 24 29 25 31 26 32 27 33 28 34
REMARK SMILES IDX 29 35 30 36 31 38 32 39 33 40 85 41 34 42 84 43 35 44 36 45
REMARK SMILES IDX 37 46 78 47 38 48 83 49 77 50 79 51 39 52 82 53 76 54 75 55
REMARK SMILES IDX 40 57 66 58 49 59 65 60 50 61 53 62 64 63 80 64 51 65 52 66
REMARK SMILES IDX 63 68 81 69 54 70 41 71 42 72 47 73 43 74 44 75 46 76 48 77
REMARK SMILES IDX 45 78 67 79 68 80 73 81 69 82 70 83 72 84 74 85 71 86 55 87
REMARK SMILES IDX 56 88 61 89 57 90 58 91 60 92 62 93 59 94
REMARK H PARENT 10 19 24 30 29 37 79 56 53 67
REMARK Flexibility Score: inf
ROOT
ATOM      1  C   UNL A   1      40.517  22.416  26.558  1.00  0.00     0.105 C 
ATOM      2  C   UNL A   1      40.819  23.709  27.317  1.00  0.00     0.023 C 
ENDROOT
BRANCH   1   3
ATOM      3  C   UNL A   1      39.091  22.259  26.056  1.00  0.00    -0.033 A 
ATOM      4  C   UNL A   1      36.457  22.123  24.938  1.00  0.00     0.018 A 
ATOM      5  C   UNL A   1      37.329  21.025  24.904  1.00  0.00     0.012 A 
ATOM      6  C   UNL A   1      36.926  23.269  25.601  1.00  0.00     0.131 A 
ATOM      7  C   UNL A   1      38.602  21.078  25.488  1.00  0.00     0.005 A 
ATOM      8  C   UNL A   1      38.218  23.351  26.127  1.00  0.00     0.044 A 
ATOM      9  F   UNL A   1      36.134  24.342  25.759  1.00  0.00    -0.206 F 
BRANCH   4  10
ATOM     10  C   UNL A   1      35.117  22.058  24.309  1.00  0.00    -0.013 A 
ATOM     11  C   UNL A   1      33.489  22.917  22.693  1.00  0.00     0.045 A 
ATOM     12  C   UNL A   1      32.509  22.077  23.213  1.00  0.00     0.026 A 
ATOM     13  C   UNL A   1      34.785  22.884  23.222  1.00  0.00     0.035 A 
ATOM     14  C   UNL A   1      32.831  21.190  24.236  1.00  0.00     0.003 A 
ATOM     15  C   UNL A   1      34.117  21.192  24.786  1.00  0.00     0.009 A 
BRANCH  11  16
ATOM     16  N   UNL A   1      33.112  23.869  21.737  1.00  0.00    -0.291 N 
ATOM     17  C   UNL A   1      32.876  25.203  21.933  1.00  0.00     0.411 C 
ATOM     18  O   UNL A   1      32.122  25.824  21.203  1.00  0.00    -0.224 OA
ATOM     19  H   UNL A   1      33.005  23.540  20.815  1.00  0.00     0.173 HD
BRANCH  17  20
ATOM     20  O   UNL A   1      33.662  25.742  22.902  1.00  0.00    -0.449 OA
BRANCH  20  21
ATOM     21  C   UNL A   1      33.131  26.836  23.667  1.00  0.00     0.235 C 
BRANCH  21  22
ATOM     22  C   UNL A   1      33.683  26.863  25.098  1.00  0.00     0.042 C 
BRANCH  22  23
ATOM     23  C   UNL A   1      32.803  26.204  26.166  1.00  0.00     0.003 C 
BRANCH  23  24
ATOM     24  C   UNL A   1      32.507  24.716  25.938  1.00  0.00    -0.000 C 
BRANCH  24  25
ATOM     25  C   UNL A   1      31.053  24.391  25.598  1.00  0.00    -0.003 C 
ATOM     26  C   UNL A   1      30.129  25.586  25.767  1.00  0.00     0.004 C 
ENDBRANCH  24  25
ENDBRANCH  23  24
ENDBRANCH  22  23
ENDBRANCH  21  22
ENDBRANCH  20  21
ENDBRANCH  17  20
ENDBRANCH  11  16
ENDBRANCH   4  10
ENDBRANCH   1   3
BRANCH   1  27
ATOM     27  C   UNL A   1      41.074  21.154  27.236  1.00  0.00     0.227 C 
ATOM     28  O   UNL A   1      40.686  20.839  28.369  1.00  0.00    -0.274 OA
ATOM     29  N   UNL A   1      41.983  20.322  26.658  1.00  0.00    -0.356 N 
ATOM     30  H   UNL A   1      42.185  19.514  27.181  1.00  0.00     0.163 HD
BRANCH  29  31
ATOM     31  C   UNL A   1      42.704  20.417  25.407  1.00  0.00     0.116 C 
BRANCH  31  32
ATOM     32  C   UNL A   1      43.899  21.367  25.505  1.00  0.00     0.023 C 
BRANCH  32  33
ATOM     33  C   UNL A   1      43.758  22.660  24.709  1.00  0.00     0.023 C 
BRANCH  33  34
ATOM     34  C   UNL A   1      43.968  23.934  25.517  1.00  0.00     0.116 C 
BRANCH  34  35
ATOM     35  N   UNL A   1      44.957  24.844  24.953  1.00  0.00    -0.352 N 
ATOM     36  C   UNL A   1      45.142  26.173  25.262  1.00  0.00     0.251 C 
ATOM     37  H   UNL A   1      45.561  24.465  24.275  1.00  0.00     0.163 HD
ATOM     38  O   UNL A   1      45.965  26.855  24.664  1.00  0.00    -0.269 OA
BRANCH  36  39
ATOM     39  C   UNL A   1      44.283  26.771  26.304  1.00  0.00     0.039 A 
ATOM     40  C   UNL A   1      43.641  25.935  27.218  1.00  0.00     0.014 A 
ATOM     41  C   UNL A   1      44.219  28.159  26.436  1.00  0.00     0.014 A 
ATOM     42  C   UNL A   1      42.997  26.497  28.322  1.00  0.00     0.010 A 
ATOM     43  C   UNL A   1      43.656  28.709  27.580  1.00  0.00     0.010 A 
ATOM     44  C   UNL A   1      43.039  27.884  28.534  1.00  0.00    -0.014 A 
BRANCH  44  45
ATOM     45  C   UNL A   1      42.432  28.513  29.731  1.00  0.00     0.031 A 
ATOM     46  C   UNL A   1      41.086  29.173  29.615  1.00  0.00     0.074 A 
ATOM     47  C   UNL A   1      43.118  28.573  30.889  1.00  0.00     0.049 A 
ATOM     48  N   UNL A   1      40.437  29.895  30.491  1.00  0.00    -0.248 NA
ATOM     49  C   UNL A   1      40.396  29.034  28.322  1.00  0.00     0.031 C 
ATOM     50  C   UNL A   1      44.449  28.007  31.118  1.00  0.00     0.029 A 
ATOM     51  N   UNL A   1      42.794  29.155  32.089  1.00  0.00    -0.354 N 
ATOM     52  C   UNL A   1      39.279  30.313  29.849  1.00  0.00     0.074 A 
ATOM     53  C   UNL A   1      39.345  29.820  28.491  1.00  0.00     0.031 C 
ATOM     54  C   UNL A   1      44.815  28.246  32.388  1.00  0.00     0.029 A 
ATOM     55  C   UNL A   1      43.768  29.019  33.049  1.00  0.00     0.049 A 
ATOM     56  H   UNL A   1      41.944  29.624  32.247  1.00  0.00     0.167 HD
ATOM     57  C   UNL A   1      38.241  31.020  30.351  1.00  0.00     0.037 A 
ATOM     58  C   UNL A   1      43.810  29.474  34.315  1.00  0.00     0.037 A 
ATOM     59  C   UNL A   1      38.164  31.482  31.711  1.00  0.00     0.049 A 
ATOM     60  C   UNL A   1      42.650  30.269  34.849  1.00  0.00     0.074 A 
ATOM     61  C   UNL A   1      37.135  32.163  32.334  1.00  0.00     0.029 A 
ATOM     62  N   UNL A   1      39.161  31.303  32.659  1.00  0.00    -0.354 N 
ATOM     63  N   UNL A   1      41.538  30.614  34.248  1.00  0.00    -0.248 NA
ATOM     64  C   UNL A   1      42.749  30.735  36.239  1.00  0.00     0.031 C 
ATOM     65  C   UNL A   1      37.524  32.430  33.651  1.00  0.00     0.029 A 
ATOM     66  C   UNL A   1      38.777  31.873  33.860  1.00  0.00     0.049 A 
ATOM     67  H   UNL A   1      40.016  30.839  32.501  1.00  0.00     0.167 HD
ATOM     68  C   UNL A   1      40.790  31.303  35.194  1.00  0.00     0.074 A 
ATOM     69  C   UNL A   1      41.575  31.325  36.411  1.00  0.00     0.031 C 
ATOM     70  C   UNL A   1      39.563  31.865  35.068  1.00  0.00     0.037 A 
BRANCH  57  71
ATOM     71  C   UNL A   1      37.106  31.328  29.419  1.00  0.00     0.057 A 
ATOM     72  C   UNL A   1      36.978  32.579  28.797  1.00  0.00     0.134 A 
ATOM     73  C   UNL A   1      36.129  30.365  29.136  1.00  0.00     0.134 A 
ATOM     74  F   UNL A   1      37.871  33.551  29.037  1.00  0.00    -0.206 F 
ATOM     75  C   UNL A   1      35.903  32.872  27.959  1.00  0.00     0.040 A 
ATOM     76  C   UNL A   1      35.065  30.637  28.274  1.00  0.00     0.040 A 
ATOM     77  F   UNL A   1      36.192  29.147  29.692  1.00  0.00    -0.206 F 
ATOM     78  C   UNL A   1      34.943  31.897  27.691  1.00  0.00     0.006 A 
ENDBRANCH  57  71
BRANCH  58  79
ATOM     79  C   UNL A   1      44.977  29.162  35.180  1.00  0.00     0.057 A 
ATOM     80  C   UNL A   1      44.963  28.048  36.027  1.00  0.00     0.134 A 
ATOM     81  C   UNL A   1      46.122  29.967  35.191  1.00  0.00     0.134 A 
ATOM     82  F   UNL A   1      43.885  27.251  36.075  1.00  0.00    -0.206 F 
ATOM     83  C   UNL A   1      46.038  27.751  36.866  1.00  0.00     0.040 A 
ATOM     84  C   UNL A   1      47.215  29.670  36.008  1.00  0.00     0.040 A 
ATOM     85  F   UNL A   1      46.201  31.046  34.399  1.00  0.00    -0.206 F 
ATOM     86  C   UNL A   1      47.172  28.563  36.854  1.00  0.00     0.006 A 
ENDBRANCH  58  79
BRANCH  70  87
ATOM     87  C   UNL A   1      38.966  32.503  36.288  1.00  0.00     0.057 A 
ATOM     88  C   UNL A   1      38.140  31.793  37.167  1.00  0.00     0.134 A 
ATOM     89  C   UNL A   1      39.272  33.831  36.612  1.00  0.00     0.134 A 
ATOM     90  F   UNL A   1      37.801  30.522  36.906  1.00  0.00    -0.206 F 
ATOM     91  C   UNL A   1      37.628  32.387  38.321  1.00  0.00     0.040 A 
ATOM     92  C   UNL A   1      38.786  34.427  37.775  1.00  0.00     0.040 A 
ATOM     93  F   UNL A   1      40.065  34.562  35.814  1.00  0.00    -0.206 F 
ATOM     94  C   UNL A   1      37.957  33.706  38.632  1.00  0.00     0.006 A 
ENDBRANCH  70  87
ENDBRANCH  44  45
ENDBRANCH  36  39
ENDBRANCH  34  35
ENDBRANCH  33  34
ENDBRANCH  32  33
ENDBRANCH  31  32
ENDBRANCH  29  31
ENDBRANCH   1  27
TORSDOF 20
ENDMDL
MODEL 2
REMARK VINA RESULT:     -10.7      4.470     11.688
REMARK SMILES CCCCCCOC(=O)Nc1cccc(-c2ccc([C@@H](C)C(=O)NCCCCNC(=O)c3ccc(-c4c5nc(c(-c6c(F)cccc6F)c6ccc([nH]6)c(-c6c(F)cccc6F)c6nc(c(-c7c(F)cccc7F)c7ccc4[nH]7)C=C6)C=C5)cc3)cc2F)c1
REMARK SMILES IDX 20 1 21 2 19 3 16 4 17 5 87 6 18 7 86 8 88 9 15 10 11 11
REMARK SMILES IDX 12 12 89 13 13 14 14 15 10 16 8 17 9 18 7 20 6 21 5 22 4 23
REMARK SMILES IDX 3 24 2 25 1 26 22 27 23 28 24 29 25 31 26 32 27 33 28 34
REMARK SMILES IDX 29 35 30 36 31 38 32 39 33 40 85 41 34 42 84 43 35 44 36 45
REMARK SMILES IDX 37 46 78 47 38 48 83 49 77 50 79 51 39 52 82 53 76 54 75 55
REMARK SMILES IDX 40 57 66 58 49 59 65 60 50 61 53 62 64 63 80 64 51 65 52 66
REMARK SMILES IDX 63 68 81 69 54 70 41 71 42 72 47 73 43 74 44 75 46 76 48 77
REMARK SMILES IDX 45 78 67 79 68 80 73 81 69 82 70 83 72 84 74 85 71 86 55 87
REMARK SMILES IDX 56 88 61 89 57 90 58 91 60 92 62 93 59 94
REMARK H PARENT 10 19 24 30 29 37 79 56 53 67
REMARK Flexibility Score: inf
ROOT
ATOM      1  C   UNL A   1      36.856  34.579  33.625  1.00  0.00     0.105 C 
ATOM      2  C   UNL A   1      35.769  35.338  32.864  1.00  0.00     0.023 C 
ENDROOT
BRANCH   1   3
ATOM      3  C   UNL A   1      38.195  34.452  32.918  1.00  0.00    -0.033 A 
ATOM      4  C   UNL A   1      40.680  34.431  31.491  1.00  0.00     0.018 A 
ATOM      5  C   UNL A   1      40.635  34.459  32.893  1.00  0.00     0.012 A 
ATOM      6  C   UNL A   1      39.442  34.355  30.831  1.00  0.00     0.131 A 
ATOM      7  C   UNL A   1      39.420  34.427  33.592  1.00  0.00     0.005 A 
ATOM      8  C   UNL A   1      38.226  34.390  31.519  1.00  0.00     0.044 A 
ATOM      9  F   UNL A   1      39.383  34.239  29.495  1.00  0.00    -0.206 F 
BRANCH   4  10
ATOM     10  C   UNL A   1      41.969  34.474  30.763  1.00  0.00    -0.013 A 
ATOM     11  C   UNL A   1      43.573  33.441  29.226  1.00  0.00     0.045 A 
ATOM     12  C   UNL A   1      44.500  34.442  29.498  1.00  0.00     0.026 A 
ATOM     13  C   UNL A   1      42.312  33.477  29.835  1.00  0.00     0.035 A 
ATOM     14  C   UNL A   1      44.158  35.487  30.352  1.00  0.00     0.003 A 
ATOM     15  C   UNL A   1      42.912  35.494  30.987  1.00  0.00     0.009 A 
BRANCH  11  16
ATOM     16  N   UNL A   1      43.979  32.351  28.447  1.00  0.00    -0.291 N 
ATOM     17  C   UNL A   1      44.121  32.302  27.086  1.00  0.00     0.411 C 
ATOM     18  O   UNL A   1      44.005  31.252  26.476  1.00  0.00    -0.224 OA
ATOM     19  H   UNL A   1      44.187  31.521  28.935  1.00  0.00     0.173 HD
BRANCH  17  20
ATOM     20  O   UNL A   1      44.528  33.485  26.555  1.00  0.00    -0.449 OA
BRANCH  20  21
ATOM     21  C   UNL A   1      43.754  34.041  25.480  1.00  0.00     0.235 C 
BRANCH  21  22
ATOM     22  C   UNL A   1      43.204  35.432  25.823  1.00  0.00     0.042 C 
BRANCH  22  23
ATOM     23  C   UNL A   1      42.061  35.465  26.844  1.00  0.00     0.003 C 
BRANCH  23  24
ATOM     24  C   UNL A   1      41.926  36.777  27.628  1.00  0.00    -0.000 C 
BRANCH  24  25
ATOM     25  C   UNL A   1      42.758  37.940  27.088  1.00  0.00    -0.003 C 
ATOM     26  C   UNL A   1      41.933  39.195  26.855  1.00  0.00     0.004 C 
ENDBRANCH  24  25
ENDBRANCH  23  24
ENDBRANCH  22  23
ENDBRANCH  21  22
ENDBRANCH  20  21
ENDBRANCH  17  20
ENDBRANCH  11  16
ENDBRANCH   4  10
ENDBRANCH   1   3
BRANCH   1  27
ATOM     27  C   UNL A   1      36.368  33.266  34.260  1.00  0.00     0.227 C 
ATOM     28  O   UNL A   1      36.257  33.181  35.490  1.00  0.00    -0.274 OA
ATOM     29  N   UNL A   1      36.025  32.161  33.545  1.00  0.00    -0.356 N 
ATOM     30  H   UNL A   1      35.657  31.425  34.086  1.00  0.00     0.163 HD
BRANCH  29  31
ATOM     31  C   UNL A   1      36.106  31.876  32.129  1.00  0.00     0.116 C 
BRANCH  31  32
ATOM     32  C   UNL A   1      34.850  32.328  31.381  1.00  0.00     0.023 C 
BRANCH  32  33
ATOM     33  C   UNL A   1      35.074  33.445  30.366  1.00  0.00     0.023 C 
BRANCH  33  34
ATOM     34  C   UNL A   1      35.639  32.988  29.028  1.00  0.00     0.116 C 
BRANCH  34  35
ATOM     35  N   UNL A   1      34.686  32.271  28.190  1.00  0.00    -0.352 N 
ATOM     36  C   UNL A   1      34.806  30.992  27.694  1.00  0.00     0.251 C 
ATOM     37  H   UNL A   1      33.864  32.756  27.951  1.00  0.00     0.163 HD
ATOM     38  O   UNL A   1      33.966  30.523  26.936  1.00  0.00    -0.269 OA
BRANCH  36  39
ATOM     39  C   UNL A   1      36.006  30.214  28.060  1.00  0.00     0.039 A 
ATOM     40  C   UNL A   1      37.133  30.277  27.240  1.00  0.00     0.014 A 
ATOM     41  C   UNL A   1      36.041  29.524  29.273  1.00  0.00     0.014 A 
ATOM     42  C   UNL A   1      38.331  29.712  27.681  1.00  0.00     0.010 A 
ATOM     43  C   UNL A   1      37.254  29.043  29.748  1.00  0.00     0.010 A 
ATOM     44  C   UNL A   1      38.410  29.131  28.957  1.00  0.00    -0.014 A 
BRANCH  44  45
ATOM     45  C   UNL A   1      39.681  28.586  29.493  1.00  0.00     0.031 A 
ATOM     46  C   UNL A   1      40.390  29.317  30.597  1.00  0.00     0.074 A 
ATOM     47  C   UNL A   1      40.241  27.495  28.933  1.00  0.00     0.049 A 
ATOM     48  N   UNL A   1      41.571  29.096  31.115  1.00  0.00    -0.248 NA
ATOM     49  C   UNL A   1      39.693  30.482  31.167  1.00  0.00     0.031 C 
ATOM     50  C   UNL A   1      39.673  26.719  27.829  1.00  0.00     0.029 A 
ATOM     51  N   UNL A   1      41.426  26.860  29.209  1.00  0.00    -0.354 N 
ATOM     52  C   UNL A   1      41.764  30.103  32.051  1.00  0.00     0.074 A 
ATOM     53  C   UNL A   1      40.610  30.973  31.985  1.00  0.00     0.031 C 
ATOM     54  C   UNL A   1      40.496  25.698  27.540  1.00  0.00     0.029 A 
ATOM     55  C   UNL A   1      41.669  25.772  28.406  1.00  0.00     0.049 A 
ATOM     56  H   UNL A   1      42.043  27.156  29.916  1.00  0.00     0.167 HD
ATOM     57  C   UNL A   1      42.796  30.274  32.910  1.00  0.00     0.037 A 
ATOM     58  C   UNL A   1      42.723  24.935  28.370  1.00  0.00     0.037 A 
ATOM     59  C   UNL A   1      43.926  29.389  32.996  1.00  0.00     0.049 A 
ATOM     60  C   UNL A   1      43.864  25.151  29.326  1.00  0.00     0.074 A 
ATOM     61  C   UNL A   1      45.001  29.445  33.864  1.00  0.00     0.029 A 
ATOM     62  N   UNL A   1      44.123  28.284  32.181  1.00  0.00    -0.354 N 
ATOM     63  N   UNL A   1      44.012  26.077  30.241  1.00  0.00    -0.248 NA
ATOM     64  C   UNL A   1      44.985  24.203  29.245  1.00  0.00     0.031 C 
ATOM     65  C   UNL A   1      45.868  28.393  33.551  1.00  0.00     0.029 A 
ATOM     66  C   UNL A   1      45.310  27.656  32.518  1.00  0.00     0.049 A 
ATOM     67  H   UNL A   1      43.510  27.990  31.468  1.00  0.00     0.167 HD
ATOM     68  C   UNL A   1      45.220  25.803  30.869  1.00  0.00     0.074 A 
ATOM     69  C   UNL A   1      45.764  24.622  30.232  1.00  0.00     0.031 C 
ATOM     70  C   UNL A   1      45.823  26.467  31.885  1.00  0.00     0.037 A 
BRANCH  57  71
ATOM     71  C   UNL A   1      42.737  31.462  33.825  1.00  0.00     0.057 A 
ATOM     72  C   UNL A   1      41.936  31.470  34.976  1.00  0.00     0.134 A 
ATOM     73  C   UNL A   1      43.489  32.613  33.555  1.00  0.00     0.134 A 
ATOM     74  F   UNL A   1      41.178  30.406  35.283  1.00  0.00    -0.206 F 
ATOM     75  C   UNL A   1      41.857  32.589  35.804  1.00  0.00     0.040 A 
ATOM     76  C   UNL A   1      43.442  33.728  34.395  1.00  0.00     0.040 A 
ATOM     77  F   UNL A   1      44.280  32.672  32.475  1.00  0.00    -0.206 F 
ATOM     78  C   UNL A   1      42.616  33.722  35.517  1.00  0.00     0.006 A 
ENDBRANCH  57  71
BRANCH  58  79
ATOM     79  C   UNL A   1      42.737  23.794  27.420  1.00  0.00     0.057 A 
ATOM     80  C   UNL A   1      43.242  23.948  26.123  1.00  0.00     0.134 A 
ATOM     81  C   UNL A   1      42.243  22.533  27.774  1.00  0.00     0.134 A 
ATOM     82  F   UNL A   1      43.711  25.137  25.719  1.00  0.00    -0.206 F 
ATOM     83  C   UNL A   1      43.241  22.896  25.207  1.00  0.00     0.040 A 
ATOM     84  C   UNL A   1      42.257  21.464  26.875  1.00  0.00     0.040 A 
ATOM     85  F   UNL A   1      41.751  22.318  29.003  1.00  0.00    -0.206 F 
ATOM     86  C   UNL A   1      42.751  21.646  25.584  1.00  0.00     0.006 A 
ENDBRANCH  58  79
BRANCH  70  87
ATOM     87  C   UNL A   1      47.112  25.905  32.410  1.00  0.00     0.057 A 
ATOM     88  C   UNL A   1      47.152  25.052  33.519  1.00  0.00     0.134 A 
ATOM     89  C   UNL A   1      48.321  26.180  31.757  1.00  0.00     0.134 A 
ATOM     90  F   UNL A   1      46.031  24.762  34.195  1.00  0.00    -0.206 F 
ATOM     91  C   UNL A   1      48.354  24.503  33.969  1.00  0.00     0.040 A 
ATOM     92  C   UNL A   1      49.523  25.616  32.182  1.00  0.00     0.040 A 
ATOM     93  F   UNL A   1      48.348  26.983  30.682  1.00  0.00    -0.206 F 
ATOM     94  C   UNL A   1      49.542  24.777  33.295  1.00  0.00     0.006 A 
ENDBRANCH  70  87
ENDBRANCH  44  45
ENDBRANCH  36  39
ENDBRANCH  34  35
ENDBRANCH  33  34
ENDBRANCH  32  33
ENDBRANCH  31  32
ENDBRANCH  29  31
ENDBRANCH   1  27
TORSDOF 20
ENDMDL
MODEL 3
REMARK VINA RESULT:     -10.6      4.291      6.277
REMARK SMILES CCCCCCOC(=O)Nc1cccc(-c2ccc([C@@H](C)C(=O)NCCCCNC(=O)c3ccc(-c4c5nc(c(-c6c(F)cccc6F)c6ccc([nH]6)c(-c6c(F)cccc6F)c6nc(c(-c7c(F)cccc7F)c7ccc4[nH]7)C=C6)C=C5)cc3)cc2F)c1
REMARK SMILES IDX 20 1 21 2 19 3 16 4 17 5 87 6 18 7 86 8 88 9 15 10 11 11
REMARK SMILES IDX 12 12 89 13 13 14 14 15 10 16 8 17 9 18 7 20 6 21 5 22 4 23
REMARK SMILES IDX 3 24 2 25 1 26 22 27 23 28 24 29 25 31 26 32 27 33 28 34
REMARK SMILES IDX 29 35 30 36 31 38 32 39 33 40 85 41 34 42 84 43 35 44 36 45
REMARK SMILES IDX 37 46 78 47 38 48 83 49 77 50 79 51 39 52 82 53 76 54 75 55
REMARK SMILES IDX 40 57 66 58 49 59 65 60 50 61 53 62 64 63 80 64 51 65 52 66
REMARK SMILES IDX 63 68 81 69 54 70 41 71 42 72 47 73 43 74 44 75 46 76 48 77
REMARK SMILES IDX 45 78 67 79 68 80 73 81 69 82 70 83 72 84 74 85 71 86 55 87
REMARK SMILES IDX 56 88 61 89 57 90 58 91 60 92 62 93 59 94
REMARK H PARENT 10 19 24 30 29 37 79 56 53 67
REMARK Flexibility Score: inf
ROOT
ATOM      1  C   UNL A   1      41.308  24.184  26.556  1.00  0.00     0.105 C 
ATOM      2  C   UNL A   1      42.435  24.284  25.528  1.00  0.00     0.023 C 
ENDROOT
BRANCH   1   3
ATOM      3  C   UNL A   1      40.734  25.505  27.042  1.00  0.00    -0.033 A 
ATOM      4  C   UNL A   1      39.810  27.984  28.141  1.00  0.00     0.018 A 
ATOM      5  C   UNL A   1      40.454  27.924  26.897  1.00  0.00     0.012 A 
ATOM      6  C   UNL A   1      39.593  26.756  28.789  1.00  0.00     0.131 A 
ATOM      7  C   UNL A   1      40.868  26.706  26.340  1.00  0.00     0.005 A 
ATOM      8  C   UNL A   1      40.063  25.546  28.271  1.00  0.00     0.044 A 
ATOM      9  F   UNL A   1      38.912  26.701  29.944  1.00  0.00    -0.206 F 
BRANCH   4  10
ATOM     10  C   UNL A   1      39.385  29.277  28.724  1.00  0.00    -0.013 A 
ATOM     11  C   UNL A   1      37.747  31.092  28.892  1.00  0.00     0.045 A 
ATOM     12  C   UNL A   1      38.624  31.829  29.682  1.00  0.00     0.026 A 
ATOM     13  C   UNL A   1      38.119  29.819  28.443  1.00  0.00     0.035 A 
ATOM     14  C   UNL A   1      39.852  31.284  30.044  1.00  0.00     0.003 A 
ATOM     15  C   UNL A   1      40.232  30.029  29.558  1.00  0.00     0.009 A 
BRANCH  11  16
ATOM     16  N   UNL A   1      36.565  31.705  28.459  1.00  0.00    -0.291 N 
ATOM     17  C   UNL A   1      35.430  31.941  29.188  1.00  0.00     0.411 C 
ATOM     18  O   UNL A   1      34.339  32.022  28.649  1.00  0.00    -0.224 OA
ATOM     19  H   UNL A   1      36.547  32.002  27.520  1.00  0.00     0.173 HD
BRANCH  17  20
ATOM     20  O   UNL A   1      35.688  32.203  30.497  1.00  0.00    -0.449 OA
BRANCH  20  21
ATOM     21  C   UNL A   1      34.751  33.021  31.215  1.00  0.00     0.235 C 
BRANCH  21  22
ATOM     22  C   UNL A   1      34.822  32.788  32.729  1.00  0.00     0.042 C 
BRANCH  22  23
ATOM     23  C   UNL A   1      34.403  33.973  33.608  1.00  0.00     0.003 C 
BRANCH  23  24
ATOM     24  C   UNL A   1      35.016  35.324  33.215  1.00  0.00    -0.000 C 
BRANCH  24  25
ATOM     25  C   UNL A   1      34.025  36.485  33.138  1.00  0.00    -0.003 C 
ATOM     26  C   UNL A   1      33.070  36.365  31.962  1.00  0.00     0.004 C 
ENDBRANCH  24  25
ENDBRANCH  23  24
ENDBRANCH  22  23
ENDBRANCH  21  22
ENDBRANCH  20  21
ENDBRANCH  17  20
ENDBRANCH  11  16
ENDBRANCH   4  10
ENDBRANCH   1   3
BRANCH   1  27
ATOM     27  C   UNL A   1      41.585  23.180  27.686  1.00  0.00     0.227 C 
ATOM     28  O   UNL A   1      40.852  22.193  27.828  1.00  0.00    -0.274 OA
ATOM     29  N   UNL A   1      42.620  23.293  28.563  1.00  0.00    -0.356 N 
ATOM     30  H   UNL A   1      42.714  22.533  29.180  1.00  0.00     0.163 HD
BRANCH  29  31
ATOM     31  C   UNL A   1      43.607  24.336  28.746  1.00  0.00     0.116 C 
BRANCH  31  32
ATOM     32  C   UNL A   1      45.035  23.800  28.629  1.00  0.00     0.023 C 
BRANCH  32  33
ATOM     33  C   UNL A   1      45.584  23.743  27.207  1.00  0.00     0.023 C 
BRANCH  33  34
ATOM     34  C   UNL A   1      46.970  24.348  27.033  1.00  0.00     0.116 C 
BRANCH  34  35
ATOM     35  N   UNL A   1      47.217  24.908  25.710  1.00  0.00    -0.352 N 
ATOM     36  C   UNL A   1      46.850  26.151  25.247  1.00  0.00     0.251 C 
ATOM     37  H   UNL A   1      47.702  24.331  25.077  1.00  0.00     0.163 HD
ATOM     38  O   UNL A   1      47.052  26.481  24.084  1.00  0.00    -0.269 OA
BRANCH  36  39
ATOM     39  C   UNL A   1      46.156  27.064  26.177  1.00  0.00     0.039 A 
ATOM     40  C   UNL A   1      44.761  27.101  26.177  1.00  0.00     0.014 A 
ATOM     41  C   UNL A   1      46.892  27.783  27.119  1.00  0.00     0.014 A 
ATOM     42  C   UNL A   1      44.097  27.804  27.185  1.00  0.00     0.010 A 
ATOM     43  C   UNL A   1      46.231  28.405  28.169  1.00  0.00     0.010 A 
ATOM     44  C   UNL A   1      44.828  28.423  28.213  1.00  0.00    -0.014 A 
BRANCH  44  45
ATOM     45  C   UNL A   1      44.159  29.115  29.341  1.00  0.00     0.031 A 
ATOM     46  C   UNL A   1      43.854  30.582  29.228  1.00  0.00     0.074 A 
ATOM     47  C   UNL A   1      43.912  28.458  30.491  1.00  0.00     0.049 A 
ATOM     48  N   UNL A   1      43.403  31.409  30.136  1.00  0.00    -0.248 NA
ATOM     49  C   UNL A   1      44.132  31.213  27.927  1.00  0.00     0.031 C 
ATOM     50  C   UNL A   1      44.198  27.044  30.740  1.00  0.00     0.029 A 
ATOM     51  N   UNL A   1      43.375  28.901  31.673  1.00  0.00    -0.354 N 
ATOM     52  C   UNL A   1      43.367  32.655  29.524  1.00  0.00     0.074 A 
ATOM     53  C   UNL A   1      43.901  32.489  28.190  1.00  0.00     0.031 C 
ATOM     54  C   UNL A   1      43.810  26.730  31.987  1.00  0.00     0.029 A 
ATOM     55  C   UNL A   1      43.289  27.928  32.640  1.00  0.00     0.049 A 
ATOM     56  H   UNL A   1      43.078  29.828  31.816  1.00  0.00     0.167 HD
ATOM     57  C   UNL A   1      42.904  33.827  30.017  1.00  0.00     0.037 A 
ATOM     58  C   UNL A   1      42.846  27.998  33.909  1.00  0.00     0.037 A 
ATOM     59  C   UNL A   1      42.344  33.981  31.333  1.00  0.00     0.049 A 
ATOM     60  C   UNL A   1      42.348  29.314  34.440  1.00  0.00     0.074 A 
ATOM     61  C   UNL A   1      41.801  35.114  31.912  1.00  0.00     0.029 A 
ATOM     62  N   UNL A   1      42.253  32.965  32.272  1.00  0.00    -0.354 N 
ATOM     63  N   UNL A   1      42.271  30.474  33.835  1.00  0.00    -0.248 NA
ATOM     64  C   UNL A   1      41.872  29.331  35.831  1.00  0.00     0.031 C 
ATOM     65  C   UNL A   1      41.415  34.793  33.217  1.00  0.00     0.029 A 
ATOM     66  C   UNL A   1      41.674  33.448  33.434  1.00  0.00     0.049 A 
ATOM     67  H   UNL A   1      42.555  32.038  32.135  1.00  0.00     0.167 HD
ATOM     68  C   UNL A   1      41.705  31.348  34.755  1.00  0.00     0.074 A 
ATOM     69  C   UNL A   1      41.455  30.582  35.959  1.00  0.00     0.031 C 
ATOM     70  C   UNL A   1      41.414  32.664  34.615  1.00  0.00     0.037 A 
BRANCH  57  71
ATOM     71  C   UNL A   1      42.983  35.027  29.120  1.00  0.00     0.057 A 
ATOM     72  C   UNL A   1      44.186  35.720  28.917  1.00  0.00     0.134 A 
ATOM     73  C   UNL A   1      41.847  35.498  28.450  1.00  0.00     0.134 A 
ATOM     74  F   UNL A   1      45.308  35.331  29.542  1.00  0.00    -0.206 F 
ATOM     75  C   UNL A   1      44.247  36.856  28.110  1.00  0.00     0.040 A 
ATOM     76  C   UNL A   1      41.904  36.616  27.615  1.00  0.00     0.040 A 
ATOM     77  F   UNL A   1      40.666  34.881  28.595  1.00  0.00    -0.206 F 
ATOM     78  C   UNL A   1      43.104  37.305  27.451  1.00  0.00     0.006 A 
ENDBRANCH  57  71
BRANCH  58  79
ATOM     79  C   UNL A   1      42.821  26.780  34.759  1.00  0.00     0.057 A 
ATOM     80  C   UNL A   1      43.983  26.325  35.392  1.00  0.00     0.134 A 
ATOM     81  C   UNL A   1      41.649  26.040  34.953  1.00  0.00     0.134 A 
ATOM     82  F   UNL A   1      45.142  26.981  35.228  1.00  0.00    -0.206 F 
ATOM     83  C   UNL A   1      43.987  25.169  36.174  1.00  0.00     0.040 A 
ATOM     84  C   UNL A   1      41.632  24.895  35.751  1.00  0.00     0.040 A 
ATOM     85  F   UNL A   1      40.500  26.427  34.379  1.00  0.00    -0.206 F 
ATOM     86  C   UNL A   1      42.805  24.452  36.360  1.00  0.00     0.006 A 
ENDBRANCH  58  79
BRANCH  70  87
ATOM     87  C   UNL A   1      40.744  33.351  35.768  1.00  0.00     0.057 A 
ATOM     88  C   UNL A   1      39.351  33.447  35.867  1.00  0.00     0.134 A 
ATOM     89  C   UNL A   1      41.508  33.872  36.821  1.00  0.00     0.134 A 
ATOM     90  F   UNL A   1      38.565  32.980  34.886  1.00  0.00    -0.206 F 
ATOM     91  C   UNL A   1      38.741  34.051  36.968  1.00  0.00     0.040 A 
ATOM     92  C   UNL A   1      40.909  34.454  37.937  1.00  0.00     0.040 A 
ATOM     93  F   UNL A   1      42.848  33.802  36.790  1.00  0.00    -0.206 F 
ATOM     94  C   UNL A   1      39.521  34.549  38.011  1.00  0.00     0.006 A 
ENDBRANCH  70  87
ENDBRANCH  44  45
ENDBRANCH  36  39
ENDBRANCH  34  35
ENDBRANCH  33  34
ENDBRANCH  32  33
ENDBRANCH  31  32
ENDBRANCH  29  31
ENDBRANCH   1  27
TORSDOF 20
ENDMDL
