MODEL 1
REMARK VINA RESULT:     -12.7      0.000      0.000
REMARK SMILES Cc1ccnc(C(=O)c2[nH]c3ccc(F)cc3c2CC(=O)NCCCCNC(=O)c2ccc(-c3c4nc(c(-c5c(F)cccc5F)c5ccc([nH]5)c(-c5c(F)cccc5F)c5nc(c(-c6c(F)cccc6F)c6ccc3[nH]6)C=C5)C=C4)cc2)c1
REMARK SMILES IDX 24 1 23 2 22 3 20 4 21 5 19 7 18 8 9 9 10 10 11 11 17 13
REMARK SMILES IDX 12 14 16 15 13 16 14 17 15 18 7 19 8 20 6 21 1 22 2 23 3 24
REMARK SMILES IDX 84 25 4 26 5 27 25 28 26 29 27 30 28 31 29 33 30 34 31 35
REMARK SMILES IDX 83 36 32 37 82 38 33 39 34 40 35 41 76 42 36 43 81 44 75 45
REMARK SMILES IDX 77 46 37 47 80 48 74 49 73 50 38 52 64 53 47 54 63 55 48 56
REMARK SMILES IDX 51 57 62 58 78 59 49 60 50 61 61 63 79 64 52 65 39 66 40 67
REMARK SMILES IDX 45 68 41 69 42 70 44 71 46 72 43 73 65 74 66 75 71 76 67 77
REMARK SMILES IDX 68 78 70 79 72 80 69 81 53 82 54 83 59 84 55 85 56 86 58 87
REMARK SMILES IDX 60 88 57 89
REMARK H PARENT 22 6 10 12 27 32 77 51 51 62
REMARK Flexibility Score: inf
ROOT
ATOM      1  C   UNL A   1      31.400  30.784  25.980  1.00  0.00     0.023 C 
ENDROOT
BRANCH   1   2
ATOM      2  C   UNL A   1      32.166  29.751  26.811  1.00  0.00     0.116 C 
BRANCH   2   3
ATOM      3  N   UNL A   1      31.584  28.426  26.814  1.00  0.00    -0.356 N 
ATOM      4  C   UNL A   1      32.151  27.202  26.619  1.00  0.00     0.224 C 
ATOM      5  O   UNL A   1      31.450  26.220  26.887  1.00  0.00    -0.275 OA
ATOM      6  H   UNL A   1      30.614  28.406  26.987  1.00  0.00     0.163 HD
BRANCH   4   7
ATOM      7  C   UNL A   1      33.586  27.013  26.161  1.00  0.00     0.138 C 
BRANCH   7   8
ATOM      8  C   UNL A   1      33.804  26.205  24.912  1.00  0.00    -0.002 A 
ATOM      9  C   UNL A   1      33.553  26.539  23.577  1.00  0.00     0.093 A 
ATOM     10  N   UNL A   1      33.815  25.405  22.831  1.00  0.00    -0.352 N 
ATOM     11  C   UNL A   1      34.303  24.386  23.604  1.00  0.00     0.046 A 
ATOM     12  H   UNL A   1      33.669  25.338  21.859  1.00  0.00     0.167 HD
ATOM     13  C   UNL A   1      34.231  24.822  24.923  1.00  0.00     0.007 A 
ATOM     14  C   UNL A   1      34.769  23.118  23.235  1.00  0.00     0.030 A 
ATOM     15  C   UNL A   1      34.593  23.908  25.939  1.00  0.00     0.049 A 
ATOM     16  C   UNL A   1      35.177  22.258  24.257  1.00  0.00     0.041 A 
ATOM     17  C   UNL A   1      35.077  22.650  25.583  1.00  0.00     0.123 A 
ATOM     18  F   UNL A   1      35.470  21.808  26.548  1.00  0.00    -0.207 F 
BRANCH   9  19
ATOM     19  C   UNL A   1      33.014  27.703  22.878  1.00  0.00     0.227 C 
ATOM     20  O   UNL A   1      33.794  28.522  22.390  1.00  0.00    -0.285 OA
BRANCH  19  21
ATOM     21  C   UNL A   1      31.550  28.028  22.859  1.00  0.00     0.113 A 
ATOM     22  C   UNL A   1      28.174  26.642  23.908  1.00  0.00     0.044 C 
ATOM     23  C   UNL A   1      29.252  27.551  23.399  1.00  0.00    -0.047 A 
ATOM     24  C   UNL A   1      28.918  28.807  22.897  1.00  0.00     0.023 A 
ATOM     25  C   UNL A   1      30.603  27.182  23.426  1.00  0.00     0.036 A 
ATOM     26  C   UNL A   1      29.928  29.614  22.405  1.00  0.00     0.112 A 
ATOM     27  N   UNL A   1      31.228  29.254  22.366  1.00  0.00    -0.253 NA
ENDBRANCH  19  21
ENDBRANCH   9  19
ENDBRANCH   7   8
ENDBRANCH   4   7
ENDBRANCH   2   3
ENDBRANCH   1   2
BRANCH   1  28
ATOM     28  C   UNL A   1      31.343  32.214  26.518  1.00  0.00     0.023 C 
BRANCH  28  29
ATOM     29  C   UNL A   1      32.623  32.746  27.142  1.00  0.00     0.116 C 
BRANCH  29  30
ATOM     30  N   UNL A   1      32.461  34.081  27.683  1.00  0.00    -0.352 N 
ATOM     31  C   UNL A   1      33.168  34.701  28.684  1.00  0.00     0.251 C 
ATOM     32  H   UNL A   1      31.743  34.619  27.277  1.00  0.00     0.163 HD
ATOM     33  O   UNL A   1      32.791  35.788  29.111  1.00  0.00    -0.269 OA
BRANCH  31  34
ATOM     34  C   UNL A   1      34.360  34.052  29.273  1.00  0.00     0.039 A 
ATOM     35  C   UNL A   1      34.167  33.075  30.254  1.00  0.00     0.014 A 
ATOM     36  C   UNL A   1      35.657  34.411  28.890  1.00  0.00     0.014 A 
ATOM     37  C   UNL A   1      35.268  32.426  30.817  1.00  0.00     0.010 A 
ATOM     38  C   UNL A   1      36.753  33.724  29.411  1.00  0.00     0.010 A 
ATOM     39  C   UNL A   1      36.568  32.728  30.381  1.00  0.00    -0.014 A 
BRANCH  39  40
ATOM     40  C   UNL A   1      37.737  31.994  30.929  1.00  0.00     0.031 A 
ATOM     41  C   UNL A   1      38.274  32.318  32.294  1.00  0.00     0.074 A 
ATOM     42  C   UNL A   1      38.342  31.058  30.173  1.00  0.00     0.049 A 
ATOM     43  N   UNL A   1      39.290  31.788  32.928  1.00  0.00    -0.248 NA
ATOM     44  C   UNL A   1      37.594  33.390  33.037  1.00  0.00     0.031 C 
ATOM     45  C   UNL A   1      37.949  30.686  28.812  1.00  0.00     0.029 A 
ATOM     46  N   UNL A   1      39.418  30.250  30.441  1.00  0.00    -0.354 N 
ATOM     47  C   UNL A   1      39.376  32.465  34.138  1.00  0.00     0.074 A 
ATOM     48  C   UNL A   1      38.339  33.475  34.131  1.00  0.00     0.031 C 
ATOM     49  C   UNL A   1      38.757  29.709  28.374  1.00  0.00     0.029 A 
ATOM     50  C   UNL A   1      39.738  29.402  29.409  1.00  0.00     0.049 A 
ATOM     51  H   UNL A   1      39.912  30.276  31.291  1.00  0.00     0.167 HD
ATOM     52  C   UNL A   1      40.227  32.251  35.170  1.00  0.00     0.037 A 
ATOM     53  C   UNL A   1      40.713  28.479  29.310  1.00  0.00     0.037 A 
ATOM     54  C   UNL A   1      41.245  31.233  35.187  1.00  0.00     0.049 A 
ATOM     55  C   UNL A   1      41.638  28.255  30.472  1.00  0.00     0.074 A 
ATOM     56  C   UNL A   1      42.115  30.899  36.212  1.00  0.00     0.029 A 
ATOM     57  N   UNL A   1      41.533  30.386  34.128  1.00  0.00    -0.354 N 
ATOM     58  N   UNL A   1      41.663  28.856  31.636  1.00  0.00    -0.248 NA
ATOM     59  C   UNL A   1      42.666  27.217  30.307  1.00  0.00     0.031 C 
ATOM     60  C   UNL A   1      42.953  29.873  35.759  1.00  0.00     0.029 A 
ATOM     61  C   UNL A   1      42.580  29.543  34.466  1.00  0.00     0.049 A 
ATOM     62  H   UNL A   1      41.063  30.383  33.262  1.00  0.00     0.167 HD
ATOM     63  C   UNL A   1      42.693  28.258  32.350  1.00  0.00     0.074 A 
ATOM     64  C   UNL A   1      43.257  27.234  31.494  1.00  0.00     0.031 C 
ATOM     65  C   UNL A   1      43.134  28.534  33.601  1.00  0.00     0.037 A 
BRANCH  52  66
ATOM     66  C   UNL A   1      40.089  33.135  36.374  1.00  0.00     0.057 A 
ATOM     67  C   UNL A   1      40.859  34.295  36.527  1.00  0.00     0.134 A 
ATOM     68  C   UNL A   1      39.151  32.845  37.373  1.00  0.00     0.134 A 
ATOM     69  F   UNL A   1      41.784  34.622  35.612  1.00  0.00    -0.206 F 
ATOM     70  C   UNL A   1      40.718  35.123  37.642  1.00  0.00     0.040 A 
ATOM     71  C   UNL A   1      38.984  33.678  38.481  1.00  0.00     0.040 A 
ATOM     72  F   UNL A   1      38.378  31.752  37.285  1.00  0.00    -0.206 F 
ATOM     73  C   UNL A   1      39.773  34.818  38.620  1.00  0.00     0.006 A 
ENDBRANCH  52  66
BRANCH  53  74
ATOM     74  C   UNL A   1      40.846  27.674  28.071  1.00  0.00     0.057 A 
ATOM     75  C   UNL A   1      40.209  26.434  27.947  1.00  0.00     0.134 A 
ATOM     76  C   UNL A   1      41.610  28.121  26.988  1.00  0.00     0.134 A 
ATOM     77  F   UNL A   1      39.479  25.946  28.960  1.00  0.00    -0.206 F 
ATOM     78  C   UNL A   1      40.343  25.657  26.795  1.00  0.00     0.040 A 
ATOM     79  C   UNL A   1      41.735  27.365  25.822  1.00  0.00     0.040 A 
ATOM     80  F   UNL A   1      42.238  29.305  27.045  1.00  0.00    -0.206 F 
ATOM     81  C   UNL A   1      41.104  26.126  25.726  1.00  0.00     0.006 A 
ENDBRANCH  53  74
BRANCH  65  82
ATOM     82  C   UNL A   1      44.273  27.704  34.119  1.00  0.00     0.057 A 
ATOM     83  C   UNL A   1      44.058  26.475  34.754  1.00  0.00     0.134 A 
ATOM     84  C   UNL A   1      45.597  28.134  33.967  1.00  0.00     0.134 A 
ATOM     85  F   UNL A   1      42.811  26.016  34.944  1.00  0.00    -0.206 F 
ATOM     86  C   UNL A   1      45.120  25.714  35.245  1.00  0.00     0.040 A 
ATOM     87  C   UNL A   1      46.669  27.370  34.432  1.00  0.00     0.040 A 
ATOM     88  F   UNL A   1      45.871  29.299  33.361  1.00  0.00    -0.206 F 
ATOM     89  C   UNL A   1      46.431  26.159  35.080  1.00  0.00     0.006 A 
ENDBRANCH  65  82
ENDBRANCH  39  40
ENDBRANCH  31  34
ENDBRANCH  29  30
ENDBRANCH  28  29
ENDBRANCH   1  28
TORSDOF 14
ENDMDL
MODEL 2
REMARK VINA RESULT:     -12.7      4.932      9.977
REMARK SMILES Cc1ccnc(C(=O)c2[nH]c3ccc(F)cc3c2CC(=O)NCCCCNC(=O)c2ccc(-c3c4nc(c(-c5c(F)cccc5F)c5ccc([nH]5)c(-c5c(F)cccc5F)c5nc(c(-c6c(F)cccc6F)c6ccc3[nH]6)C=C5)C=C4)cc2)c1
REMARK SMILES IDX 24 1 23 2 22 3 20 4 21 5 19 7 18 8 9 9 10 10 11 11 17 13
REMARK SMILES IDX 12 14 16 15 13 16 14 17 15 18 7 19 8 20 6 21 1 22 2 23 3 24
REMARK SMILES IDX 84 25 4 26 5 27 25 28 26 29 27 30 28 31 29 33 30 34 31 35
REMARK SMILES IDX 83 36 32 37 82 38 33 39 34 40 35 41 76 42 36 43 81 44 75 45
REMARK SMILES IDX 77 46 37 47 80 48 74 49 73 50 38 52 64 53 47 54 63 55 48 56
REMARK SMILES IDX 51 57 62 58 78 59 49 60 50 61 61 63 79 64 52 65 39 66 40 67
REMARK SMILES IDX 45 68 41 69 42 70 44 71 46 72 43 73 65 74 66 75 71 76 67 77
REMARK SMILES IDX 68 78 70 79 72 80 69 81 53 82 54 83 59 84 55 85 56 86 58 87
REMARK SMILES IDX 60 88 57 89
REMARK H PARENT 22 6 10 12 27 32 77 51 51 62
REMARK Flexibility Score: inf
ROOT
ATOM      1  C   UNL A   1      36.578  20.316  24.897  1.00  0.00     0.023 C 
ENDROOT
BRANCH   1   2
ATOM      2  C   UNL A   1      36.870  21.803  24.677  1.00  0.00     0.116 C 
BRANCH   2   3
ATOM      3  N   UNL A   1      35.957  22.471  23.773  1.00  0.00    -0.356 N 
ATOM      4  C   UNL A   1      35.288  23.652  23.892  1.00  0.00     0.224 C 
ATOM      5  O   UNL A   1      34.737  24.080  22.872  1.00  0.00    -0.275 OA
ATOM      6  H   UNL A   1      35.791  21.989  22.930  1.00  0.00     0.163 HD
BRANCH   4   7
ATOM      7  C   UNL A   1      35.254  24.463  25.175  1.00  0.00     0.138 C 
BRANCH   7   8
ATOM      8  C   UNL A   1      33.901  24.775  25.751  1.00  0.00    -0.002 A 
ATOM      9  C   UNL A   1      32.977  23.927  26.370  1.00  0.00     0.093 A 
ATOM     10  N   UNL A   1      31.844  24.684  26.609  1.00  0.00    -0.352 N 
ATOM     11  C   UNL A   1      32.022  25.994  26.255  1.00  0.00     0.046 A 
ATOM     12  H   UNL A   1      31.010  24.324  26.989  1.00  0.00     0.167 HD
ATOM     13  C   UNL A   1      33.266  26.072  25.637  1.00  0.00     0.007 A 
ATOM     14  C   UNL A   1      31.169  27.094  26.411  1.00  0.00     0.030 A 
ATOM     15  C   UNL A   1      33.654  27.315  25.089  1.00  0.00     0.049 A 
ATOM     16  C   UNL A   1      31.604  28.324  25.912  1.00  0.00     0.041 A 
ATOM     17  C   UNL A   1      32.821  28.422  25.254  1.00  0.00     0.123 A 
ATOM     18  F   UNL A   1      33.217  29.610  24.781  1.00  0.00    -0.207 F 
BRANCH   9  19
ATOM     19  C   UNL A   1      32.921  22.503  26.691  1.00  0.00     0.227 C 
ATOM     20  O   UNL A   1      33.153  22.141  27.846  1.00  0.00    -0.285 OA
BRANCH  19  21
ATOM     21  C   UNL A   1      32.747  21.444  25.643  1.00  0.00     0.113 A 
ATOM     22  C   UNL A   1      31.778  20.984  22.001  1.00  0.00     0.044 C 
ATOM     23  C   UNL A   1      32.258  20.726  23.398  1.00  0.00    -0.047 A 
ATOM     24  C   UNL A   1      32.609  19.433  23.780  1.00  0.00     0.023 A 
ATOM     25  C   UNL A   1      32.383  21.756  24.338  1.00  0.00     0.036 A 
ATOM     26  C   UNL A   1      33.020  19.216  25.084  1.00  0.00     0.112 A 
ATOM     27  N   UNL A   1      33.088  20.183  26.022  1.00  0.00    -0.253 NA
ENDBRANCH  19  21
ENDBRANCH   9  19
ENDBRANCH   7   8
ENDBRANCH   4   7
ENDBRANCH   2   3
ENDBRANCH   1   2
BRANCH   1  28
ATOM     28  C   UNL A   1      37.779  19.375  25.001  1.00  0.00     0.023 C 
BRANCH  28  29
ATOM     29  C   UNL A   1      38.996  19.920  25.730  1.00  0.00     0.116 C 
BRANCH  29  30
ATOM     30  N   UNL A   1      40.093  18.973  25.759  1.00  0.00    -0.352 N 
ATOM     31  C   UNL A   1      41.428  19.202  25.983  1.00  0.00     0.251 C 
ATOM     32  H   UNL A   1      39.847  18.034  25.596  1.00  0.00     0.163 HD
ATOM     33  O   UNL A   1      42.236  18.293  25.824  1.00  0.00    -0.269 OA
BRANCH  31  34
ATOM     34  C   UNL A   1      41.902  20.546  26.382  1.00  0.00     0.039 A 
ATOM     35  C   UNL A   1      42.211  21.466  25.376  1.00  0.00     0.014 A 
ATOM     36  C   UNL A   1      42.070  20.898  27.726  1.00  0.00     0.014 A 
ATOM     37  C   UNL A   1      42.640  22.751  25.715  1.00  0.00     0.010 A 
ATOM     38  C   UNL A   1      42.444  22.198  28.065  1.00  0.00     0.010 A 
ATOM     39  C   UNL A   1      42.736  23.134  27.063  1.00  0.00    -0.014 A 
BRANCH  39  40
ATOM     40  C   UNL A   1      43.129  24.519  27.428  1.00  0.00     0.031 A 
ATOM     41  C   UNL A   1      44.568  24.945  27.379  1.00  0.00     0.074 A 
ATOM     42  C   UNL A   1      42.184  25.385  27.843  1.00  0.00     0.049 A 
ATOM     43  N   UNL A   1      45.095  26.108  27.672  1.00  0.00    -0.248 NA
ATOM     44  C   UNL A   1      45.547  23.927  26.968  1.00  0.00     0.031 C 
ATOM     45  C   UNL A   1      40.759  25.079  27.982  1.00  0.00     0.029 A 
ATOM     46  N   UNL A   1      42.283  26.698  28.228  1.00  0.00    -0.354 N 
ATOM     47  C   UNL A   1      46.464  25.960  27.488  1.00  0.00     0.074 A 
ATOM     48  C   UNL A   1      46.692  24.584  27.103  1.00  0.00     0.031 C 
ATOM     49  C   UNL A   1      40.113  26.179  28.399  1.00  0.00     0.029 A 
ATOM     50  C   UNL A   1      41.079  27.258  28.580  1.00  0.00     0.049 A 
ATOM     51  H   UNL A   1      43.133  27.191  28.250  1.00  0.00     0.167 HD
ATOM     52  C   UNL A   1      47.440  26.892  27.607  1.00  0.00     0.037 A 
ATOM     53  C   UNL A   1      40.786  28.504  29.000  1.00  0.00     0.037 A 
ATOM     54  C   UNL A   1      47.212  28.267  27.970  1.00  0.00     0.049 A 
ATOM     55  C   UNL A   1      41.886  29.520  29.115  1.00  0.00     0.074 A 
ATOM     56  C   UNL A   1      48.130  29.301  28.056  1.00  0.00     0.029 A 
ATOM     57  N   UNL A   1      45.978  28.801  28.308  1.00  0.00    -0.354 N 
ATOM     58  N   UNL A   1      43.166  29.385  28.871  1.00  0.00    -0.248 NA
ATOM     59  C   UNL A   1      41.496  30.867  29.558  1.00  0.00     0.031 C 
ATOM     60  C   UNL A   1      47.456  30.451  28.482  1.00  0.00     0.029 A 
ATOM     61  C   UNL A   1      46.113  30.143  28.624  1.00  0.00     0.049 A 
ATOM     62  H   UNL A   1      45.131  28.300  28.323  1.00  0.00     0.167 HD
ATOM     63  C   UNL A   1      43.732  30.629  29.111  1.00  0.00     0.074 A 
ATOM     64  C   UNL A   1      42.652  31.513  29.501  1.00  0.00     0.031 C 
ATOM     65  C   UNL A   1      45.031  31.007  29.018  1.00  0.00     0.037 A 
BRANCH  52  66
ATOM     66  C   UNL A   1      48.849  26.455  27.337  1.00  0.00     0.057 A 
ATOM     67  C   UNL A   1      49.406  26.518  26.053  1.00  0.00     0.134 A 
ATOM     68  C   UNL A   1      49.671  26.000  28.377  1.00  0.00     0.134 A 
ATOM     69  F   UNL A   1      48.668  26.931  25.012  1.00  0.00    -0.206 F 
ATOM     70  C   UNL A   1      50.723  26.123  25.808  1.00  0.00     0.040 A 
ATOM     71  C   UNL A   1      50.996  25.626  28.148  1.00  0.00     0.040 A 
ATOM     72  F   UNL A   1      49.201  25.921  29.631  1.00  0.00    -0.206 F 
ATOM     73  C   UNL A   1      51.524  25.682  26.860  1.00  0.00     0.006 A 
ENDBRANCH  52  66
BRANCH  53  74
ATOM     74  C   UNL A   1      39.383  28.867  29.314  1.00  0.00     0.057 A 
ATOM     75  C   UNL A   1      38.554  29.442  28.345  1.00  0.00     0.134 A 
ATOM     76  C   UNL A   1      38.841  28.652  30.586  1.00  0.00     0.134 A 
ATOM     77  F   UNL A   1      39.025  29.687  27.114  1.00  0.00    -0.206 F 
ATOM     78  C   UNL A   1      37.239  29.807  28.634  1.00  0.00     0.040 A 
ATOM     79  C   UNL A   1      37.521  28.993  30.883  1.00  0.00     0.040 A 
ATOM     80  F   UNL A   1      39.584  28.098  31.555  1.00  0.00    -0.206 F 
ATOM     81  C   UNL A   1      36.717  29.578  29.906  1.00  0.00     0.006 A 
ENDBRANCH  53  74
BRANCH  65  82
ATOM     82  C   UNL A   1      45.345  32.440  29.331  1.00  0.00     0.057 A 
ATOM     83  C   UNL A   1      45.288  33.438  28.350  1.00  0.00     0.134 A 
ATOM     84  C   UNL A   1      45.697  32.827  30.631  1.00  0.00     0.134 A 
ATOM     85  F   UNL A   1      44.973  33.128  27.083  1.00  0.00    -0.206 F 
ATOM     86  C   UNL A   1      45.594  34.768  28.645  1.00  0.00     0.040 A 
ATOM     87  C   UNL A   1      45.982  34.157  30.943  1.00  0.00     0.040 A 
ATOM     88  F   UNL A   1      45.763  31.921  31.617  1.00  0.00    -0.206 F 
ATOM     89  C   UNL A   1      45.939  35.131  29.946  1.00  0.00     0.006 A 
ENDBRANCH  65  82
ENDBRANCH  39  40
ENDBRANCH  31  34
ENDBRANCH  29  30
ENDBRANCH  28  29
ENDBRANCH   1  28
TORSDOF 14
ENDMDL
MODEL 3
REMARK VINA RESULT:     -12.6      4.375      9.300
REMARK SMILES Cc1ccnc(C(=O)c2[nH]c3ccc(F)cc3c2CC(=O)NCCCCNC(=O)c2ccc(-c3c4nc(c(-c5c(F)cccc5F)c5ccc([nH]5)c(-c5c(F)cccc5F)c5nc(c(-c6c(F)cccc6F)c6ccc3[nH]6)C=C5)C=C4)cc2)c1
REMARK SMILES IDX 24 1 23 2 22 3 20 4 21 5 19 7 18 8 9 9 10 10 11 11 17 13
REMARK SMILES IDX 12 14 16 15 13 16 14 17 15 18 7 19 8 20 6 21 1 22 2 23 3 24
REMARK SMILES IDX 84 25 4 26 5 27 25 28 26 29 27 30 28 31 29 33 30 34 31 35
REMARK SMILES IDX 83 36 32 37 82 38 33 39 34 40 35 41 76 42 36 43 81 44 75 45
REMARK SMILES IDX 77 46 37 47 80 48 74 49 73 50 38 52 64 53 47 54 63 55 48 56
REMARK SMILES IDX 51 57 62 58 78 59 49 60 50 61 61 63 79 64 52 65 39 66 40 67
REMARK SMILES IDX 45 68 41 69 42 70 44 71 46 72 43 73 65 74 66 75 71 76 67 77
REMARK SMILES IDX 68 78 70 79 72 80 69 81 53 82 54 83 59 84 55 85 56 86 58 87
REMARK SMILES IDX 60 88 57 89
REMARK H PARENT 22 6 10 12 27 32 77 51 51 62
REMARK Flexibility Score: inf
ROOT
ATOM      1  C   UNL A   1      36.614  20.552  24.749  1.00  0.00     0.023 C 
ENDROOT
BRANCH   1   2
ATOM      2  C   UNL A   1      36.931  22.002  24.373  1.00  0.00     0.116 C 
BRANCH   2   3
ATOM      3  N   UNL A   1      35.907  22.661  23.591  1.00  0.00    -0.356 N 
ATOM      4  C   UNL A   1      35.184  23.790  23.838  1.00  0.00     0.224 C 
ATOM      5  O   UNL A   1      34.524  24.239  22.895  1.00  0.00    -0.275 OA
ATOM      6  H   UNL A   1      35.698  22.219  22.736  1.00  0.00     0.163 HD
BRANCH   4   7
ATOM      7  C   UNL A   1      35.214  24.523  25.167  1.00  0.00     0.138 C 
BRANCH   7   8
ATOM      8  C   UNL A   1      33.887  24.855  25.794  1.00  0.00    -0.002 A 
ATOM      9  C   UNL A   1      32.950  24.012  26.399  1.00  0.00     0.093 A 
ATOM     10  N   UNL A   1      31.852  24.796  26.704  1.00  0.00    -0.352 N 
ATOM     11  C   UNL A   1      32.068  26.114  26.404  1.00  0.00     0.046 A 
ATOM     12  H   UNL A   1      31.016  24.448  27.090  1.00  0.00     0.167 HD
ATOM     13  C   UNL A   1      33.298  26.177  25.756  1.00  0.00     0.007 A 
ATOM     14  C   UNL A   1      31.259  27.234  26.634  1.00  0.00     0.030 A 
ATOM     15  C   UNL A   1      33.715  27.430  25.255  1.00  0.00     0.049 A 
ATOM     16  C   UNL A   1      31.726  28.470  26.179  1.00  0.00     0.041 A 
ATOM     17  C   UNL A   1      32.928  28.556  25.493  1.00  0.00     0.123 A 
ATOM     18  F   UNL A   1      33.355  29.750  25.064  1.00  0.00    -0.207 F 
BRANCH   9  19
ATOM     19  C   UNL A   1      32.852  22.577  26.656  1.00  0.00     0.227 C 
ATOM     20  O   UNL A   1      32.932  22.171  27.817  1.00  0.00    -0.285 OA
BRANCH  19  21
ATOM     21  C   UNL A   1      32.812  21.558  25.556  1.00  0.00     0.113 A 
ATOM     22  C   UNL A   1      33.496  17.888  24.864  1.00  0.00     0.044 C 
ATOM     23  C   UNL A   1      33.064  19.316  24.716  1.00  0.00    -0.047 A 
ATOM     24  C   UNL A   1      32.554  19.761  23.498  1.00  0.00     0.023 A 
ATOM     25  C   UNL A   1      33.143  20.226  25.777  1.00  0.00     0.036 A 
ATOM     26  C   UNL A   1      32.191  21.091  23.377  1.00  0.00     0.112 A 
ATOM     27  N   UNL A   1      32.316  21.998  24.369  1.00  0.00    -0.253 NA
ENDBRANCH  19  21
ENDBRANCH   9  19
ENDBRANCH   7   8
ENDBRANCH   4   7
ENDBRANCH   2   3
ENDBRANCH   1   2
BRANCH   1  28
ATOM     28  C   UNL A   1      37.798  19.606  24.950  1.00  0.00     0.023 C 
BRANCH  28  29
ATOM     29  C   UNL A   1      38.955  20.146  25.774  1.00  0.00     0.116 C 
BRANCH  29  30
ATOM     30  N   UNL A   1      40.115  19.278  25.735  1.00  0.00    -0.352 N 
ATOM     31  C   UNL A   1      41.423  19.567  26.038  1.00  0.00     0.251 C 
ATOM     32  H   UNL A   1      39.943  18.351  25.451  1.00  0.00     0.163 HD
ATOM     33  O   UNL A   1      42.298  18.739  25.804  1.00  0.00    -0.269 OA
BRANCH  31  34
ATOM     34  C   UNL A   1      41.787  20.881  26.614  1.00  0.00     0.039 A 
ATOM     35  C   UNL A   1      42.251  21.877  25.749  1.00  0.00     0.014 A 
ATOM     36  C   UNL A   1      41.703  21.131  27.987  1.00  0.00     0.014 A 
ATOM     37  C   UNL A   1      42.583  23.136  26.254  1.00  0.00     0.010 A 
ATOM     38  C   UNL A   1      41.980  22.405  28.482  1.00  0.00     0.010 A 
ATOM     39  C   UNL A   1      42.427  23.417  27.620  1.00  0.00    -0.014 A 
BRANCH  39  40
ATOM     40  C   UNL A   1      42.716  24.774  28.150  1.00  0.00     0.031 A 
ATOM     41  C   UNL A   1      44.111  25.156  28.556  1.00  0.00     0.074 A 
ATOM     42  C   UNL A   1      41.707  25.652  28.303  1.00  0.00     0.049 A 
ATOM     43  N   UNL A   1      44.547  26.289  29.048  1.00  0.00    -0.248 NA
ATOM     44  C   UNL A   1      45.150  24.125  28.411  1.00  0.00     0.031 C 
ATOM     45  C   UNL A   1      40.301  25.386  27.993  1.00  0.00     0.029 A 
ATOM     46  N   UNL A   1      41.708  26.945  28.760  1.00  0.00    -0.354 N 
ATOM     47  C   UNL A   1      45.904  26.106  29.277  1.00  0.00     0.074 A 
ATOM     48  C   UNL A   1      46.212  24.739  28.915  1.00  0.00     0.031 C 
ATOM     49  C   UNL A   1      39.579  26.489  28.247  1.00  0.00     0.029 A 
ATOM     50  C   UNL A   1      40.464  27.529  28.760  1.00  0.00     0.049 A 
ATOM     51  H   UNL A   1      42.521  27.410  29.059  1.00  0.00     0.167 HD
ATOM     52  C   UNL A   1      46.815  27.002  29.727  1.00  0.00     0.037 A 
ATOM     53  C   UNL A   1      40.082  28.766  29.130  1.00  0.00     0.037 A 
ATOM     54  C   UNL A   1      46.514  28.368  30.068  1.00  0.00     0.049 A 
ATOM     55  C   UNL A   1      41.114  29.742  29.617  1.00  0.00     0.074 A 
ATOM     56  C   UNL A   1      47.382  29.368  30.474  1.00  0.00     0.029 A 
ATOM     57  N   UNL A   1      45.245  28.926  30.044  1.00  0.00    -0.354 N 
ATOM     58  N   UNL A   1      42.405  29.576  29.763  1.00  0.00    -0.248 NA
ATOM     59  C   UNL A   1      40.633  31.082  29.984  1.00  0.00     0.031 C 
ATOM     60  C   UNL A   1      46.632  30.522  30.731  1.00  0.00     0.029 A 
ATOM     61  C   UNL A   1      45.303  30.251  30.449  1.00  0.00     0.049 A 
ATOM     62  H   UNL A   1      44.424  28.452  29.781  1.00  0.00     0.167 HD
ATOM     63  C   UNL A   1      42.895  30.792  30.219  1.00  0.00     0.074 A 
ATOM     64  C   UNL A   1      41.764  31.693  30.308  1.00  0.00     0.031 C 
ATOM     65  C   UNL A   1      44.168  31.133  30.538  1.00  0.00     0.037 A 
BRANCH  52  66
ATOM     66  C   UNL A   1      48.232  26.531  29.873  1.00  0.00     0.057 A 
ATOM     67  C   UNL A   1      48.669  25.858  31.022  1.00  0.00     0.134 A 
ATOM     68  C   UNL A   1      49.160  26.720  28.841  1.00  0.00     0.134 A 
ATOM     69  F   UNL A   1      47.833  25.657  32.052  1.00  0.00    -0.206 F 
ATOM     70  C   UNL A   1      49.985  25.409  31.149  1.00  0.00     0.040 A 
ATOM     71  C   UNL A   1      50.472  26.254  28.947  1.00  0.00     0.040 A 
ATOM     72  F   UNL A   1      48.805  27.351  27.713  1.00  0.00    -0.206 F 
ATOM     73  C   UNL A   1      50.889  25.601  30.105  1.00  0.00     0.006 A 
ENDBRANCH  52  66
BRANCH  53  74
ATOM     74  C   UNL A   1      38.656  29.160  29.025  1.00  0.00     0.057 A 
ATOM     75  C   UNL A   1      37.808  29.098  30.136  1.00  0.00     0.134 A 
ATOM     76  C   UNL A   1      38.109  29.604  27.816  1.00  0.00     0.134 A 
ATOM     77  F   UNL A   1      38.273  28.662  31.316  1.00  0.00    -0.206 F 
ATOM     78  C   UNL A   1      36.460  29.445  30.045  1.00  0.00     0.040 A 
ATOM     79  C   UNL A   1      36.768  29.977  27.716  1.00  0.00     0.040 A 
ATOM     80  F   UNL A   1      38.873  29.693  26.718  1.00  0.00    -0.206 F 
ATOM     81  C   UNL A   1      35.937  29.891  28.832  1.00  0.00     0.006 A 
ENDBRANCH  53  74
BRANCH  65  82
ATOM     82  C   UNL A   1      44.400  32.542  30.998  1.00  0.00     0.057 A 
ATOM     83  C   UNL A   1      44.360  32.890  32.354  1.00  0.00     0.134 A 
ATOM     84  C   UNL A   1      44.678  33.558  30.075  1.00  0.00     0.134 A 
ATOM     85  F   UNL A   1      44.083  31.964  33.285  1.00  0.00    -0.206 F 
ATOM     86  C   UNL A   1      44.563  34.205  32.774  1.00  0.00     0.040 A 
ATOM     87  C   UNL A   1      44.907  34.872  30.485  1.00  0.00     0.040 A 
ATOM     88  F   UNL A   1      44.737  33.290  28.763  1.00  0.00    -0.206 F 
ATOM     89  C   UNL A   1      44.842  35.200  31.839  1.00  0.00     0.006 A 
ENDBRANCH  65  82
ENDBRANCH  39  40
ENDBRANCH  31  34
ENDBRANCH  29  30
ENDBRANCH  28  29
ENDBRANCH   1  28
TORSDOF 14
ENDMDL
