MODEL 1
REMARK VINA RESULT:     -10.7      0.000      0.000
REMARK SMILES CN(Cc1ccc(Cl)cc1Cl)S(=O)(=O)CCCC(=O)NCCCCNC(=O)c1ccc(-c2c3nc(c(-c4c(F)cccc4F)c4ccc([nH]4)c(-c4c(F)cccc4F)c4nc(c(-c5c(F)cccc5F)c5ccc2[nH]5)C=C4)C=C3)cc1
REMARK SMILES IDX 18 1 19 2 20 3 17 5 16 6 15 7 12 8 13 9 14 10 2 11 1 12 3 13
REMARK SMILES IDX 4 14 5 15 10 16 6 17 9 18 11 19 7 20 8 21 21 22 22 23 23 24
REMARK SMILES IDX 24 25 25 26 26 27 27 29 28 30 29 31 81 32 30 33 80 34 31 35
REMARK SMILES IDX 32 36 33 37 74 38 34 39 79 40 73 41 75 42 35 43 78 44 72 45
REMARK SMILES IDX 71 46 36 48 62 49 45 50 61 51 46 52 49 53 60 54 76 55 47 56
REMARK SMILES IDX 48 57 59 59 77 60 50 61 37 62 38 63 43 64 39 65 40 66 42 67
REMARK SMILES IDX 44 68 41 69 63 70 64 71 69 72 65 73 66 74 68 75 70 76 67 77
REMARK SMILES IDX 51 78 52 79 57 80 53 81 54 82 56 83 58 84 55 85
REMARK H PARENT 20 4 25 28 75 47 49 58
REMARK Flexibility Score: inf
ROOT
ATOM      1  C   UNL A   1      30.581  26.648  25.541  1.00  0.00     0.220 C 
ATOM      2  O   UNL A   1      30.019  25.561  25.379  1.00  0.00    -0.275 OA
ATOM      3  N   UNL A   1      31.247  26.814  26.711  1.00  0.00    -0.356 N 
ATOM      4  H   UNL A   1      30.956  26.206  27.429  1.00  0.00     0.163 HD
ENDROOT
BRANCH   1   5
ATOM      5  C   UNL A   1      30.539  27.686  24.428  1.00  0.00     0.101 C 
BRANCH   5   6
ATOM      6  C   UNL A   1      30.435  27.205  22.989  1.00  0.00     0.027 C 
BRANCH   6   7
ATOM      7  C   UNL A   1      31.703  26.992  22.190  1.00  0.00     0.155 C 
BRANCH   7   8
ATOM      8  S   UNL A   1      32.632  25.454  22.249  1.00  0.00     0.214 S 
ATOM      9  O   UNL A   1      33.317  25.334  20.987  1.00  0.00    -0.212 OA
ATOM     10  O   UNL A   1      31.647  24.451  22.635  1.00  0.00    -0.212 OA
BRANCH   8  11
ATOM     11  N   UNL A   1      33.805  25.458  23.475  1.00  0.00    -0.201 NA
ATOM     12  C   UNL A   1      33.964  26.813  24.081  1.00  0.00     0.124 C 
BRANCH  11  13
ATOM     13  C   UNL A   1      33.842  24.396  24.552  1.00  0.00     0.138 C 
BRANCH  13  14
ATOM     14  C   UNL A   1      34.772  23.220  24.354  1.00  0.00    -0.014 A 
ATOM     15  C   UNL A   1      36.086  23.338  23.901  1.00  0.00     0.008 A 
ATOM     16  C   UNL A   1      34.332  21.926  24.626  1.00  0.00     0.047 A 
ATOM     17  C   UNL A   1      36.963  22.251  23.994  1.00  0.00     0.021 A 
ATOM     18  C   UNL A   1      35.225  20.921  24.967  1.00  0.00     0.041 A 
ATOM     19  Cl  UNL A   1      32.915  21.395  23.763  1.00  0.00    -0.084 Cl
ATOM     20  C   UNL A   1      36.554  21.083  24.630  1.00  0.00     0.042 A 
ATOM     21  Cl  UNL A   1      37.648  19.782  24.870  1.00  0.00    -0.084 Cl
ENDBRANCH  13  14
ENDBRANCH  11  13
ENDBRANCH   8  11
ENDBRANCH   7   8
ENDBRANCH   6   7
ENDBRANCH   5   6
ENDBRANCH   1   5
BRANCH   3  22
ATOM     22  C   UNL A   1      32.307  27.719  27.099  1.00  0.00     0.116 C 
BRANCH  22  23
ATOM     23  C   UNL A   1      31.846  29.147  27.390  1.00  0.00     0.023 C 
BRANCH  23  24
ATOM     24  C   UNL A   1      32.557  30.216  26.547  1.00  0.00     0.023 C 
BRANCH  24  25
ATOM     25  C   UNL A   1      33.402  31.225  27.331  1.00  0.00     0.116 C 
BRANCH  25  26
ATOM     26  N   UNL A   1      32.799  32.540  27.484  1.00  0.00    -0.352 N 
ATOM     27  C   UNL A   1      33.263  33.617  28.211  1.00  0.00     0.251 C 
ATOM     28  H   UNL A   1      31.949  32.680  27.008  1.00  0.00     0.163 HD
ATOM     29  O   UNL A   1      32.592  34.640  28.300  1.00  0.00    -0.269 OA
BRANCH  27  30
ATOM     30  C   UNL A   1      34.553  33.520  28.932  1.00  0.00     0.039 A 
ATOM     31  C   UNL A   1      34.558  32.904  30.184  1.00  0.00     0.014 A 
ATOM     32  C   UNL A   1      35.752  33.961  28.366  1.00  0.00     0.014 A 
ATOM     33  C   UNL A   1      35.775  32.597  30.792  1.00  0.00     0.010 A 
ATOM     34  C   UNL A   1      36.968  33.611  28.942  1.00  0.00     0.010 A 
ATOM     35  C   UNL A   1      36.985  32.876  30.130  1.00  0.00    -0.014 A 
BRANCH  35  36
ATOM     36  C   UNL A   1      38.241  32.241  30.590  1.00  0.00     0.031 A 
ATOM     37  C   UNL A   1      39.038  32.807  31.721  1.00  0.00     0.074 A 
ATOM     38  C   UNL A   1      38.676  31.155  29.920  1.00  0.00     0.049 A 
ATOM     39  N   UNL A   1      40.120  32.329  32.278  1.00  0.00    -0.248 NA
ATOM     40  C   UNL A   1      38.575  34.080  32.292  1.00  0.00     0.031 C 
ATOM     41  C   UNL A   1      38.013  30.565  28.752  1.00  0.00     0.029 A 
ATOM     42  N   UNL A   1      39.760  30.342  30.128  1.00  0.00    -0.354 N 
ATOM     43  C   UNL A   1      40.464  33.233  33.273  1.00  0.00     0.074 A 
ATOM     44  C   UNL A   1      39.506  34.317  33.208  1.00  0.00     0.031 C 
ATOM     45  C   UNL A   1      38.668  29.454  28.387  1.00  0.00     0.029 A 
ATOM     46  C   UNL A   1      39.817  29.274  29.266  1.00  0.00     0.049 A 
ATOM     47  H   UNL A   1      40.433  30.509  30.828  1.00  0.00     0.167 HD
ATOM     48  C   UNL A   1      41.475  33.149  34.169  1.00  0.00     0.037 A 
ATOM     49  C   UNL A   1      40.692  28.253  29.200  1.00  0.00     0.037 A 
ATOM     50  C   UNL A   1      42.423  32.064  34.216  1.00  0.00     0.049 A 
ATOM     51  C   UNL A   1      41.807  28.190  30.203  1.00  0.00     0.074 A 
ATOM     52  C   UNL A   1      43.454  31.861  35.117  1.00  0.00     0.029 A 
ATOM     53  N   UNL A   1      42.464  31.007  33.317  1.00  0.00    -0.354 N 
ATOM     54  N   UNL A   1      42.073  29.007  31.194  1.00  0.00    -0.248 NA
ATOM     55  C   UNL A   1      42.741  27.063  30.084  1.00  0.00     0.031 C 
ATOM     56  C   UNL A   1      44.153  30.713  34.729  1.00  0.00     0.029 A 
ATOM     57  C   UNL A   1      43.520  30.165  33.625  1.00  0.00     0.049 A 
ATOM     58  H   UNL A   1      41.836  30.876  32.571  1.00  0.00     0.167 HD
ATOM     59  C   UNL A   1      43.186  28.480  31.833  1.00  0.00     0.074 A 
ATOM     60  C   UNL A   1      43.535  27.264  31.126  1.00  0.00     0.031 C 
ATOM     61  C   UNL A   1      43.856  28.958  32.909  1.00  0.00     0.037 A 
BRANCH  48  62
ATOM     62  C   UNL A   1      41.611  34.256  35.172  1.00  0.00     0.057 A 
ATOM     63  C   UNL A   1      42.393  35.391  34.916  1.00  0.00     0.134 A 
ATOM     64  C   UNL A   1      40.910  34.217  36.384  1.00  0.00     0.134 A 
ATOM     65  F   UNL A   1      43.097  35.489  33.779  1.00  0.00    -0.206 F 
ATOM     66  C   UNL A   1      42.487  36.436  35.836  1.00  0.00     0.040 A 
ATOM     67  C   UNL A   1      40.975  35.268  37.300  1.00  0.00     0.040 A 
ATOM     68  F   UNL A   1      40.139  33.163  36.690  1.00  0.00    -0.206 F 
ATOM     69  C   UNL A   1      41.770  36.380  37.030  1.00  0.00     0.006 A 
ENDBRANCH  48  62
BRANCH  49  70
ATOM     70  C   UNL A   1      40.516  27.190  28.179  1.00  0.00     0.057 A 
ATOM     71  C   UNL A   1      39.718  26.069  28.434  1.00  0.00     0.134 A 
ATOM     72  C   UNL A   1      41.126  27.273  26.921  1.00  0.00     0.134 A 
ATOM     73  F   UNL A   1      39.118  25.925  29.624  1.00  0.00    -0.206 F 
ATOM     74  C   UNL A   1      39.545  25.061  27.483  1.00  0.00     0.040 A 
ATOM     75  C   UNL A   1      40.941  26.287  25.951  1.00  0.00     0.040 A 
ATOM     76  F   UNL A   1      41.893  28.328  26.608  1.00  0.00    -0.206 F 
ATOM     77  C   UNL A   1      40.154  25.172  26.234  1.00  0.00     0.006 A 
ENDBRANCH  49  70
BRANCH  61  78
ATOM     78  C   UNL A   1      45.020  28.151  33.406  1.00  0.00     0.057 A 
ATOM     79  C   UNL A   1      44.861  27.111  34.332  1.00  0.00     0.134 A 
ATOM     80  C   UNL A   1      46.311  28.390  32.919  1.00  0.00     0.134 A 
ATOM     81  F   UNL A   1      43.652  26.839  34.848  1.00  0.00    -0.206 F 
ATOM     82  C   UNL A   1      45.948  26.355  34.771  1.00  0.00     0.040 A 
ATOM     83  C   UNL A   1      47.400  27.620  33.327  1.00  0.00     0.040 A 
ATOM     84  F   UNL A   1      46.532  29.363  32.023  1.00  0.00    -0.206 F 
ATOM     85  C   UNL A   1      47.221  26.603  34.261  1.00  0.00     0.006 A 
ENDBRANCH  61  78
ENDBRANCH  35  36
ENDBRANCH  27  30
ENDBRANCH  25  26
ENDBRANCH  24  25
ENDBRANCH  23  24
ENDBRANCH  22  23
ENDBRANCH   3  22
TORSDOF 17
ENDMDL
MODEL 2
REMARK VINA RESULT:     -10.7      1.152      6.342
REMARK SMILES CN(Cc1ccc(Cl)cc1Cl)S(=O)(=O)CCCC(=O)NCCCCNC(=O)c1ccc(-c2c3nc(c(-c4c(F)cccc4F)c4ccc([nH]4)c(-c4c(F)cccc4F)c4nc(c(-c5c(F)cccc5F)c5ccc2[nH]5)C=C4)C=C3)cc1
REMARK SMILES IDX 18 1 19 2 20 3 17 5 16 6 15 7 12 8 13 9 14 10 2 11 1 12 3 13
REMARK SMILES IDX 4 14 5 15 10 16 6 17 9 18 11 19 7 20 8 21 21 22 22 23 23 24
REMARK SMILES IDX 24 25 25 26 26 27 27 29 28 30 29 31 81 32 30 33 80 34 31 35
REMARK SMILES IDX 32 36 33 37 74 38 34 39 79 40 73 41 75 42 35 43 78 44 72 45
REMARK SMILES IDX 71 46 36 48 62 49 45 50 61 51 46 52 49 53 60 54 76 55 47 56
REMARK SMILES IDX 48 57 59 59 77 60 50 61 37 62 38 63 43 64 39 65 40 66 42 67
REMARK SMILES IDX 44 68 41 69 63 70 64 71 69 72 65 73 66 74 68 75 70 76 67 77
REMARK SMILES IDX 51 78 52 79 57 80 53 81 54 82 56 83 58 84 55 85
REMARK H PARENT 20 4 25 28 75 47 49 58
REMARK Flexibility Score: inf
ROOT
ATOM      1  C   UNL A   1      30.422  25.933  26.058  1.00  0.00     0.220 C 
ATOM      2  O   UNL A   1      29.872  24.937  26.539  1.00  0.00    -0.275 OA
ATOM      3  N   UNL A   1      31.071  26.744  26.931  1.00  0.00    -0.356 N 
ATOM      4  H   UNL A   1      30.776  26.646  27.866  1.00  0.00     0.163 HD
ENDROOT
BRANCH   1   5
ATOM      5  C   UNL A   1      30.384  26.155  24.552  1.00  0.00     0.101 C 
BRANCH   5   6
ATOM      6  C   UNL A   1      30.146  24.957  23.647  1.00  0.00     0.027 C 
BRANCH   6   7
ATOM      7  C   UNL A   1      31.325  24.312  22.952  1.00  0.00     0.155 C 
BRANCH   7   8
ATOM      8  S   UNL A   1      32.510  25.258  21.986  1.00  0.00     0.214 S 
ATOM      9  O   UNL A   1      31.770  26.314  21.341  1.00  0.00    -0.212 OA
ATOM     10  O   UNL A   1      33.197  24.259  21.177  1.00  0.00    -0.212 OA
BRANCH   8  11
ATOM     11  N   UNL A   1      33.701  25.980  22.955  1.00  0.00    -0.201 NA
ATOM     12  C   UNL A   1      33.621  27.470  22.907  1.00  0.00     0.124 C 
BRANCH  11  13
ATOM     13  C   UNL A   1      33.973  25.515  24.368  1.00  0.00     0.138 C 
BRANCH  13  14
ATOM     14  C   UNL A   1      34.891  24.329  24.559  1.00  0.00    -0.014 A 
ATOM     15  C   UNL A   1      35.541  23.676  23.511  1.00  0.00     0.008 A 
ATOM     16  C   UNL A   1      35.130  23.826  25.836  1.00  0.00     0.047 A 
ATOM     17  C   UNL A   1      36.571  22.766  23.780  1.00  0.00     0.021 A 
ATOM     18  C   UNL A   1      36.297  23.137  26.129  1.00  0.00     0.041 A 
ATOM     19  Cl  UNL A   1      33.728  23.326  26.743  1.00  0.00    -0.084 Cl
ATOM     20  C   UNL A   1      37.015  22.588  25.086  1.00  0.00     0.042 A 
ATOM     21  Cl  UNL A   1      38.359  21.576  25.428  1.00  0.00    -0.084 Cl
ENDBRANCH  13  14
ENDBRANCH  11  13
ENDBRANCH   8  11
ENDBRANCH   7   8
ENDBRANCH   6   7
ENDBRANCH   5   6
ENDBRANCH   1   5
BRANCH   3  22
ATOM     22  C   UNL A   1      32.117  27.725  26.742  1.00  0.00     0.116 C 
BRANCH  22  23
ATOM     23  C   UNL A   1      31.620  29.166  26.622  1.00  0.00     0.023 C 
BRANCH  23  24
ATOM     24  C   UNL A   1      32.694  30.160  26.157  1.00  0.00     0.023 C 
BRANCH  24  25
ATOM     25  C   UNL A   1      33.309  31.034  27.254  1.00  0.00     0.116 C 
BRANCH  25  26
ATOM     26  N   UNL A   1      32.700  32.347  27.403  1.00  0.00    -0.352 N 
ATOM     27  C   UNL A   1      33.185  33.445  28.083  1.00  0.00     0.251 C 
ATOM     28  H   UNL A   1      31.828  32.468  26.962  1.00  0.00     0.163 HD
ATOM     29  O   UNL A   1      32.508  34.464  28.178  1.00  0.00    -0.269 OA
BRANCH  27  30
ATOM     30  C   UNL A   1      34.507  33.377  28.747  1.00  0.00     0.039 A 
ATOM     31  C   UNL A   1      34.573  32.798  30.015  1.00  0.00     0.014 A 
ATOM     32  C   UNL A   1      35.676  33.808  28.114  1.00  0.00     0.014 A 
ATOM     33  C   UNL A   1      35.818  32.516  30.576  1.00  0.00     0.010 A 
ATOM     34  C   UNL A   1      36.920  33.483  28.646  1.00  0.00     0.010 A 
ATOM     35  C   UNL A   1      36.995  32.783  29.853  1.00  0.00    -0.014 A 
BRANCH  35  36
ATOM     36  C   UNL A   1      38.275  32.170  30.274  1.00  0.00     0.031 A 
ATOM     37  C   UNL A   1      38.731  30.853  29.730  1.00  0.00     0.074 A 
ATOM     38  C   UNL A   1      39.002  32.816  31.207  1.00  0.00     0.049 A 
ATOM     39  N   UNL A   1      39.854  30.222  29.954  1.00  0.00    -0.248 NA
ATOM     40  C   UNL A   1      37.804  30.143  28.837  1.00  0.00     0.031 C 
ATOM     41  C   UNL A   1      38.611  34.070  31.859  1.00  0.00     0.029 A 
ATOM     42  N   UNL A   1      40.223  32.525  31.759  1.00  0.00    -0.354 N 
ATOM     43  C   UNL A   1      39.778  29.046  29.221  1.00  0.00     0.074 A 
ATOM     44  C   UNL A   1      38.475  29.025  28.589  1.00  0.00     0.031 C 
ATOM     45  C   UNL A   1      39.598  34.471  32.673  1.00  0.00     0.029 A 
ATOM     46  C   UNL A   1      40.672  33.486  32.633  1.00  0.00     0.049 A 
ATOM     47  H   UNL A   1      40.729  31.706  31.549  1.00  0.00     0.167 HD
ATOM     48  C   UNL A   1      40.722  28.087  29.075  1.00  0.00     0.037 A 
ATOM     49  C   UNL A   1      41.828  33.571  33.316  1.00  0.00     0.037 A 
ATOM     50  C   UNL A   1      42.013  28.121  29.716  1.00  0.00     0.049 A 
ATOM     51  C   UNL A   1      42.853  32.487  33.140  1.00  0.00     0.074 A 
ATOM     52  C   UNL A   1      43.058  27.222  29.594  1.00  0.00     0.029 A 
ATOM     53  N   UNL A   1      42.429  29.099  30.610  1.00  0.00    -0.354 N 
ATOM     54  N   UNL A   1      42.805  31.421  32.377  1.00  0.00    -0.248 NA
ATOM     55  C   UNL A   1      44.095  32.619  33.914  1.00  0.00     0.031 C 
ATOM     56  C   UNL A   1      44.083  27.626  30.456  1.00  0.00     0.029 A 
ATOM     57  C   UNL A   1      43.704  28.810  31.068  1.00  0.00     0.049 A 
ATOM     58  H   UNL A   1      41.896  29.882  30.878  1.00  0.00     0.167 HD
ATOM     59  C   UNL A   1      44.017  30.771  32.557  1.00  0.00     0.074 A 
ATOM     60  C   UNL A   1      44.785  31.571  33.490  1.00  0.00     0.031 C 
ATOM     61  C   UNL A   1      44.455  29.616  31.999  1.00  0.00     0.037 A 
BRANCH  48  62
ATOM     62  C   UNL A   1      40.398  26.919  28.191  1.00  0.00     0.057 A 
ATOM     63  C   UNL A   1      39.552  25.885  28.616  1.00  0.00     0.134 A 
ATOM     64  C   UNL A   1      40.890  26.852  26.881  1.00  0.00     0.134 A 
ATOM     65  F   UNL A   1      39.053  25.882  29.861  1.00  0.00    -0.206 F 
ATOM     66  C   UNL A   1      39.223  24.819  27.777  1.00  0.00     0.040 A 
ATOM     67  C   UNL A   1      40.547  25.805  26.025  1.00  0.00     0.040 A 
ATOM     68  F   UNL A   1      41.700  27.811  26.409  1.00  0.00    -0.206 F 
ATOM     69  C   UNL A   1      39.715  24.781  26.473  1.00  0.00     0.006 A 
ENDBRANCH  48  62
BRANCH  49  70
ATOM     70  C   UNL A   1      42.092  34.743  34.186  1.00  0.00     0.057 A 
ATOM     71  C   UNL A   1      41.704  34.746  35.531  1.00  0.00     0.134 A 
ATOM     72  C   UNL A   1      42.750  35.882  33.705  1.00  0.00     0.134 A 
ATOM     73  F   UNL A   1      41.059  33.690  36.049  1.00  0.00    -0.206 F 
ATOM     74  C   UNL A   1      41.945  35.842  36.361  1.00  0.00     0.040 A 
ATOM     75  C   UNL A   1      43.021  36.974  34.529  1.00  0.00     0.040 A 
ATOM     76  F   UNL A   1      43.159  35.938  32.428  1.00  0.00    -0.206 F 
ATOM     77  C   UNL A   1      42.611  36.959  35.861  1.00  0.00     0.006 A 
ENDBRANCH  49  70
BRANCH  61  78
ATOM     78  C   UNL A   1      45.839  29.162  32.359  1.00  0.00     0.057 A 
ATOM     79  C   UNL A   1      46.959  29.519  31.598  1.00  0.00     0.134 A 
ATOM     80  C   UNL A   1      46.058  28.393  33.509  1.00  0.00     0.134 A 
ATOM     81  F   UNL A   1      46.817  30.244  30.477  1.00  0.00    -0.206 F 
ATOM     82  C   UNL A   1      48.244  29.108  31.955  1.00  0.00     0.040 A 
ATOM     83  C   UNL A   1      47.341  28.001  33.893  1.00  0.00     0.040 A 
ATOM     84  F   UNL A   1      45.031  28.024  34.288  1.00  0.00    -0.206 F 
ATOM     85  C   UNL A   1      48.438  28.353  33.111  1.00  0.00     0.006 A 
ENDBRANCH  61  78
ENDBRANCH  35  36
ENDBRANCH  27  30
ENDBRANCH  25  26
ENDBRANCH  24  25
ENDBRANCH  23  24
ENDBRANCH  22  23
ENDBRANCH   3  22
TORSDOF 17
ENDMDL
MODEL 3
REMARK VINA RESULT:     -10.5      1.575      2.298
REMARK SMILES CN(Cc1ccc(Cl)cc1Cl)S(=O)(=O)CCCC(=O)NCCCCNC(=O)c1ccc(-c2c3nc(c(-c4c(F)cccc4F)c4ccc([nH]4)c(-c4c(F)cccc4F)c4nc(c(-c5c(F)cccc5F)c5ccc2[nH]5)C=C4)C=C3)cc1
REMARK SMILES IDX 18 1 19 2 20 3 17 5 16 6 15 7 12 8 13 9 14 10 2 11 1 12 3 13
REMARK SMILES IDX 4 14 5 15 10 16 6 17 9 18 11 19 7 20 8 21 21 22 22 23 23 24
REMARK SMILES IDX 24 25 25 26 26 27 27 29 28 30 29 31 81 32 30 33 80 34 31 35
REMARK SMILES IDX 32 36 33 37 74 38 34 39 79 40 73 41 75 42 35 43 78 44 72 45
REMARK SMILES IDX 71 46 36 48 62 49 45 50 61 51 46 52 49 53 60 54 76 55 47 56
REMARK SMILES IDX 48 57 59 59 77 60 50 61 37 62 38 63 43 64 39 65 40 66 42 67
REMARK SMILES IDX 44 68 41 69 63 70 64 71 69 72 65 73 66 74 68 75 70 76 67 77
REMARK SMILES IDX 51 78 52 79 57 80 53 81 54 82 56 83 58 84 55 85
REMARK H PARENT 20 4 25 28 75 47 49 58
REMARK Flexibility Score: inf
ROOT
ATOM      1  C   UNL A   1      32.572  28.785  23.016  1.00  0.00     0.220 C 
ATOM      2  O   UNL A   1      31.521  29.013  22.409  1.00  0.00    -0.275 OA
ATOM      3  N   UNL A   1      32.682  29.328  24.255  1.00  0.00    -0.356 N 
ATOM      4  H   UNL A   1      32.081  30.091  24.414  1.00  0.00     0.163 HD
ENDROOT
BRANCH   1   5
ATOM      5  C   UNL A   1      33.628  27.893  22.378  1.00  0.00     0.101 C 
BRANCH   5   6
ATOM      6  C   UNL A   1      33.656  26.420  22.752  1.00  0.00     0.027 C 
BRANCH   6   7
ATOM      7  C   UNL A   1      32.443  25.562  22.464  1.00  0.00     0.155 C 
BRANCH   7   8
ATOM      8  S   UNL A   1      31.404  24.891  23.769  1.00  0.00     0.214 S 
ATOM      9  O   UNL A   1      30.256  24.304  23.125  1.00  0.00    -0.212 OA
ATOM     10  O   UNL A   1      31.225  26.003  24.695  1.00  0.00    -0.212 OA
BRANCH   8  11
ATOM     11  N   UNL A   1      32.185  23.668  24.648  1.00  0.00    -0.201 NA
ATOM     12  C   UNL A   1      31.335  23.168  25.769  1.00  0.00     0.124 C 
BRANCH  11  13
ATOM     13  C   UNL A   1      32.884  22.513  23.965  1.00  0.00     0.138 C 
BRANCH  13  14
ATOM     14  C   UNL A   1      34.360  22.321  24.233  1.00  0.00    -0.014 A 
ATOM     15  C   UNL A   1      35.359  23.123  23.680  1.00  0.00     0.008 A 
ATOM     16  C   UNL A   1      34.793  21.297  25.073  1.00  0.00     0.047 A 
ATOM     17  C   UNL A   1      36.667  23.058  24.173  1.00  0.00     0.021 A 
ATOM     18  C   UNL A   1      35.998  21.386  25.751  1.00  0.00     0.041 A 
ATOM     19  Cl  UNL A   1      34.309  19.682  24.632  1.00  0.00    -0.084 Cl
ATOM     20  C   UNL A   1      36.952  22.268  25.282  1.00  0.00     0.042 A 
ATOM     21  Cl  UNL A   1      38.518  22.268  25.985  1.00  0.00    -0.084 Cl
ENDBRANCH  13  14
ENDBRANCH  11  13
ENDBRANCH   8  11
ENDBRANCH   7   8
ENDBRANCH   6   7
ENDBRANCH   5   6
ENDBRANCH   1   5
BRANCH   3  22
ATOM     22  C   UNL A   1      33.519  28.992  25.385  1.00  0.00     0.116 C 
BRANCH  22  23
ATOM     23  C   UNL A   1      32.897  29.297  26.748  1.00  0.00     0.023 C 
BRANCH  23  24
ATOM     24  C   UNL A   1      32.329  30.719  26.870  1.00  0.00     0.023 C 
BRANCH  24  25
ATOM     25  C   UNL A   1      33.307  31.782  27.380  1.00  0.00     0.116 C 
BRANCH  25  26
ATOM     26  N   UNL A   1      32.735  33.110  27.545  1.00  0.00    -0.352 N 
ATOM     27  C   UNL A   1      33.169  34.135  28.361  1.00  0.00     0.251 C 
ATOM     28  H   UNL A   1      31.936  33.303  27.004  1.00  0.00     0.163 HD
ATOM     29  O   UNL A   1      32.526  35.176  28.442  1.00  0.00    -0.269 OA
BRANCH  27  30
ATOM     30  C   UNL A   1      34.386  33.957  29.186  1.00  0.00     0.039 A 
ATOM     31  C   UNL A   1      34.238  33.412  30.462  1.00  0.00     0.014 A 
ATOM     32  C   UNL A   1      35.662  34.252  28.696  1.00  0.00     0.014 A 
ATOM     33  C   UNL A   1      35.370  33.026  31.178  1.00  0.00     0.010 A 
ATOM     34  C   UNL A   1      36.791  33.821  29.383  1.00  0.00     0.010 A 
ATOM     35  C   UNL A   1      36.647  33.154  30.602  1.00  0.00    -0.014 A 
BRANCH  35  36
ATOM     36  C   UNL A   1      37.798  32.431  31.189  1.00  0.00     0.031 A 
ATOM     37  C   UNL A   1      38.332  32.773  32.543  1.00  0.00     0.074 A 
ATOM     38  C   UNL A   1      38.388  31.477  30.440  1.00  0.00     0.049 A 
ATOM     39  N   UNL A   1      39.289  32.189  33.216  1.00  0.00    -0.248 NA
ATOM     40  C   UNL A   1      37.731  33.928  33.226  1.00  0.00     0.031 C 
ATOM     41  C   UNL A   1      37.993  31.117  29.074  1.00  0.00     0.029 A 
ATOM     42  N   UNL A   1      39.426  30.627  30.718  1.00  0.00    -0.354 N 
ATOM     43  C   UNL A   1      39.400  32.894  34.406  1.00  0.00     0.074 A 
ATOM     44  C   UNL A   1      38.449  33.984  34.340  1.00  0.00     0.031 C 
ATOM     45  C   UNL A   1      38.737  30.081  28.659  1.00  0.00     0.029 A 
ATOM     46  C   UNL A   1      39.685  29.730  29.709  1.00  0.00     0.049 A 
ATOM     47  H   UNL A   1      39.937  30.656  31.560  1.00  0.00     0.167 HD
ATOM     48  C   UNL A   1      40.207  32.636  35.461  1.00  0.00     0.037 A 
ATOM     49  C   UNL A   1      40.579  28.727  29.642  1.00  0.00     0.037 A 
ATOM     50  C   UNL A   1      41.152  31.548  35.507  1.00  0.00     0.049 A 
ATOM     51  C   UNL A   1      41.467  28.470  30.826  1.00  0.00     0.074 A 
ATOM     52  C   UNL A   1      41.981  31.173  36.550  1.00  0.00     0.029 A 
ATOM     53  N   UNL A   1      41.402  30.671  34.462  1.00  0.00    -0.354 N 
ATOM     54  N   UNL A   1      41.504  29.092  31.980  1.00  0.00    -0.248 NA
ATOM     55  C   UNL A   1      42.433  27.371  30.702  1.00  0.00     0.031 C 
ATOM     56  C   UNL A   1      42.772  30.105  36.115  1.00  0.00     0.029 A 
ATOM     57  C   UNL A   1      42.393  29.773  34.825  1.00  0.00     0.049 A 
ATOM     58  H   UNL A   1      40.944  30.684  33.591  1.00  0.00     0.167 HD
ATOM     59  C   UNL A   1      42.475  28.443  32.730  1.00  0.00     0.074 A 
ATOM     60  C   UNL A   1      42.991  27.371  31.904  1.00  0.00     0.031 C 
ATOM     61  C   UNL A   1      42.898  28.711  33.989  1.00  0.00     0.037 A 
BRANCH  48  62
ATOM     62  C   UNL A   1      40.107  33.542  36.652  1.00  0.00     0.057 A 
ATOM     63  C   UNL A   1      39.186  33.307  37.683  1.00  0.00     0.134 A 
ATOM     64  C   UNL A   1      40.978  34.630  36.802  1.00  0.00     0.134 A 
ATOM     65  F   UNL A   1      38.317  32.289  37.599  1.00  0.00    -0.206 F 
ATOM     66  C   UNL A   1      39.122  34.132  38.807  1.00  0.00     0.040 A 
ATOM     67  C   UNL A   1      40.941  35.445  37.934  1.00  0.00     0.040 A 
ATOM     68  F   UNL A   1      41.887  34.908  35.857  1.00  0.00    -0.206 F 
ATOM     69  C   UNL A   1      40.008  35.200  38.939  1.00  0.00     0.006 A 
ENDBRANCH  48  62
BRANCH  49  70
ATOM     70  C   UNL A   1      40.643  27.868  28.434  1.00  0.00     0.057 A 
ATOM     71  C   UNL A   1      41.446  28.218  27.342  1.00  0.00     0.134 A 
ATOM     72  C   UNL A   1      39.920  26.673  28.344  1.00  0.00     0.134 A 
ATOM     73  F   UNL A   1      42.153  29.357  27.361  1.00  0.00    -0.206 F 
ATOM     74  C   UNL A   1      41.514  27.419  26.198  1.00  0.00     0.040 A 
ATOM     75  C   UNL A   1      39.999  25.852  27.218  1.00  0.00     0.040 A 
ATOM     76  F   UNL A   1      39.141  26.274  29.362  1.00  0.00    -0.206 F 
ATOM     77  C   UNL A   1      40.794  26.229  26.137  1.00  0.00     0.006 A 
ENDBRANCH  49  70
BRANCH  61  78
ATOM     78  C   UNL A   1      43.955  27.812  34.563  1.00  0.00     0.057 A 
ATOM     79  C   UNL A   1      43.634  26.649  35.274  1.00  0.00     0.134 A 
ATOM     80  C   UNL A   1      45.312  28.093  34.362  1.00  0.00     0.134 A 
ATOM     81  F   UNL A   1      42.352  26.329  35.512  1.00  0.00    -0.206 F 
ATOM     82  C   UNL A   1      44.626  25.810  35.785  1.00  0.00     0.040 A 
ATOM     83  C   UNL A   1      46.312  27.246  34.841  1.00  0.00     0.040 A 
ATOM     84  F   UNL A   1      45.689  29.185  33.681  1.00  0.00    -0.206 F 
ATOM     85  C   UNL A   1      45.969  26.104  35.561  1.00  0.00     0.006 A 
ENDBRANCH  61  78
ENDBRANCH  35  36
ENDBRANCH  27  30
ENDBRANCH  25  26
ENDBRANCH  24  25
ENDBRANCH  23  24
ENDBRANCH  22  23
ENDBRANCH   3  22
TORSDOF 17
ENDMDL
