MODEL 1
REMARK VINA RESULT:     -11.8      0.000      0.000
REMARK SMILES COc1cc2c(cc1OC)C1=C(C#N)C[N@@H+](CC(=O)NCCCCNC(=O)c3ccc(-c4c5nc(c(-c6c(F)cccc6F)c6ccc([nH]6)c(-c6c(F)cccc6F)c6nc(c(-c7c(F)cccc7F)c7ccc4[nH]7)C=C6)C=C5)cc3)CN1CC2
REMARK SMILES IDX 22 1 21 2 20 3 18 4 19 5 17 7 16 8 3 9 4 10 8 11 5 12 7 13
REMARK SMILES IDX 6 14 85 15 11 16 84 17 12 18 83 19 15 20 82 21 2 23 1 24
REMARK SMILES IDX 9 25 10 26 13 27 14 28 23 29 24 30 25 31 26 32 27 34 28 35
REMARK SMILES IDX 29 36 81 37 30 38 80 39 31 40 32 41 33 42 74 43 34 44 79 45
REMARK SMILES IDX 73 46 75 47 35 48 78 49 72 50 71 51 36 53 62 54 45 55 61 56
REMARK SMILES IDX 46 57 49 58 60 59 76 60 47 61 48 62 59 64 77 65 50 66 37 67
REMARK SMILES IDX 38 68 43 69 39 70 40 71 42 72 44 73 41 74 63 75 64 76 69 77
REMARK SMILES IDX 65 78 66 79 68 80 70 81 67 82 51 83 52 84 57 85 53 86 54 87
REMARK SMILES IDX 56 88 58 89 55 90
REMARK H PARENT 20 6 16 22 25 33 75 52 49 63
REMARK Flexibility Score: inf
ROOT
ATOM      1  C   UNL A   1      32.976  29.356  24.478  1.00  0.00     0.023 C 
ENDROOT
BRANCH   1   2
ATOM      2  C   UNL A   1      32.941  28.864  23.042  1.00  0.00     0.116 C 
BRANCH   2   3
ATOM      3  N   UNL A   1      31.864  29.522  22.333  1.00  0.00    -0.351 N 
ATOM      4  C   UNL A   1      30.529  29.237  22.370  1.00  0.00     0.275 C 
ATOM      5  O   UNL A   1      29.808  29.746  21.506  1.00  0.00    -0.269 OA
ATOM      6  H   UNL A   1      32.128  30.272  21.751  1.00  0.00     0.163 HD
BRANCH   4   7
ATOM      7  C   UNL A   1      29.937  28.399  23.510  1.00  0.00     0.365 C 
BRANCH   7   8
ATOM      8  N   UNL A   1      29.788  26.958  23.280  1.00  0.00    -0.306 N 
ATOM      9  C   UNL A   1      35.576  23.068  25.369  1.00  0.00     0.161 A 
ATOM     10  C   UNL A   1      35.461  23.815  24.197  1.00  0.00     0.055 A 
ATOM     11  C   UNL A   1      34.453  22.946  26.188  1.00  0.00     0.161 A 
ATOM     12  C   UNL A   1      34.242  24.426  23.828  1.00  0.00    -0.033 A 
ATOM     13  C   UNL A   1      33.231  23.548  25.798  1.00  0.00     0.061 A 
ATOM     14  C   UNL A   1      33.073  24.290  24.615  1.00  0.00     0.006 A 
ATOM     15  C   UNL A   1      34.240  25.285  22.588  1.00  0.00     0.058 C 
ATOM     16  C   UNL A   1      31.785  24.986  24.168  1.00  0.00     0.068 C 
ATOM     17  C   UNL A   1      32.878  25.251  21.927  1.00  0.00     0.127 C 
ATOM     18  C   UNL A   1      30.634  25.137  24.879  1.00  0.00     0.108 C 
ATOM     19  N   UNL A   1      31.855  25.613  22.904  1.00  0.00    -0.323 N 
ATOM     20  C   UNL A   1      29.539  26.097  24.426  1.00  0.00     0.314 C 
ATOM     21  C   UNL A   1      30.719  26.346  22.357  1.00  0.00     0.390 C 
ATOM     22  H   UNL A   1      28.891  27.009  22.799  1.00  0.00     0.350 HD
BRANCH   9  23
ATOM     23  O   UNL A   1      36.721  22.379  25.661  1.00  0.00    -0.493 OA
ATOM     24  C   UNL A   1      37.157  21.464  24.661  1.00  0.00     0.278 C 
ENDBRANCH   9  23
BRANCH  11  25
ATOM     25  O   UNL A   1      34.352  22.304  27.397  1.00  0.00    -0.493 OA
ATOM     26  C   UNL A   1      33.103  22.289  28.071  1.00  0.00     0.278 C 
ENDBRANCH  11  25
BRANCH  18  27
ATOM     27  C   UNL A   1      30.355  24.547  26.148  1.00  0.00     0.103 C 
ATOM     28  N   UNL A   1      30.082  23.997  27.130  1.00  0.00    -0.192 NA
ENDBRANCH  18  27
ENDBRANCH   7   8
ENDBRANCH   4   7
ENDBRANCH   2   3
ENDBRANCH   1   2
BRANCH   1  29
ATOM     29  C   UNL A   1      32.800  28.318  25.564  1.00  0.00     0.023 C 
BRANCH  29  30
ATOM     30  C   UNL A   1      32.870  28.895  26.955  1.00  0.00     0.116 C 
BRANCH  30  31
ATOM     31  N   UNL A   1      32.515  30.309  27.047  1.00  0.00    -0.352 N 
ATOM     32  C   UNL A   1      33.338  31.366  27.387  1.00  0.00     0.251 C 
ATOM     33  H   UNL A   1      31.580  30.536  26.842  1.00  0.00     0.163 HD
ATOM     34  O   UNL A   1      32.910  32.509  27.475  1.00  0.00    -0.269 OA
BRANCH  32  35
ATOM     35  C   UNL A   1      34.747  31.062  27.704  1.00  0.00     0.039 A 
ATOM     36  C   UNL A   1      35.095  29.754  28.024  1.00  0.00     0.014 A 
ATOM     37  C   UNL A   1      35.655  32.105  27.889  1.00  0.00     0.014 A 
ATOM     38  C   UNL A   1      36.215  29.540  28.805  1.00  0.00     0.010 A 
ATOM     39  C   UNL A   1      36.879  31.844  28.513  1.00  0.00     0.010 A 
ATOM     40  C   UNL A   1      37.138  30.573  29.048  1.00  0.00    -0.014 A 
BRANCH  40  41
ATOM     41  C   UNL A   1      38.346  30.263  29.863  1.00  0.00     0.031 A 
ATOM     42  C   UNL A   1      38.504  30.766  31.276  1.00  0.00     0.074 A 
ATOM     43  C   UNL A   1      39.264  29.421  29.345  1.00  0.00     0.049 A 
ATOM     44  N   UNL A   1      39.476  30.538  32.127  1.00  0.00    -0.248 NA
ATOM     45  C   UNL A   1      37.447  31.642  31.809  1.00  0.00     0.031 C 
ATOM     46  C   UNL A   1      39.224  28.858  27.989  1.00  0.00     0.029 A 
ATOM     47  N   UNL A   1      40.379  28.851  29.901  1.00  0.00    -0.354 N 
ATOM     48  C   UNL A   1      39.153  31.241  33.283  1.00  0.00     0.074 A 
ATOM     49  C   UNL A   1      37.921  31.949  33.008  1.00  0.00     0.031 C 
ATOM     50  C   UNL A   1      40.207  27.960  27.853  1.00  0.00     0.029 A 
ATOM     51  C   UNL A   1      41.015  27.968  29.062  1.00  0.00     0.049 A 
ATOM     52  H   UNL A   1      40.692  29.054  30.811  1.00  0.00     0.167 HD
ATOM     53  C   UNL A   1      39.808  31.276  34.471  1.00  0.00     0.037 A 
ATOM     54  C   UNL A   1      42.149  27.266  29.229  1.00  0.00     0.037 A 
ATOM     55  C   UNL A   1      41.041  30.578  34.740  1.00  0.00     0.049 A 
ATOM     56  C   UNL A   1      42.895  27.405  30.524  1.00  0.00     0.074 A 
ATOM     57  C   UNL A   1      41.799  30.575  35.899  1.00  0.00     0.029 A 
ATOM     58  N   UNL A   1      41.697  29.755  33.837  1.00  0.00    -0.354 N 
ATOM     59  N   UNL A   1      42.574  28.079  31.601  1.00  0.00    -0.248 NA
ATOM     60  C   UNL A   1      44.166  26.679  30.620  1.00  0.00     0.031 C 
ATOM     61  C   UNL A   1      42.936  29.789  35.680  1.00  0.00     0.029 A 
ATOM     62  C   UNL A   1      42.853  29.246  34.410  1.00  0.00     0.049 A 
ATOM     63  H   UNL A   1      41.387  29.558  32.922  1.00  0.00     0.167 HD
ATOM     64  C   UNL A   1      43.590  27.832  32.515  1.00  0.00     0.074 A 
ATOM     65  C   UNL A   1      44.508  26.912  31.877  1.00  0.00     0.031 C 
ATOM     66  C   UNL A   1      43.757  28.327  33.766  1.00  0.00     0.037 A 
BRANCH  53  67
ATOM     67  C   UNL A   1      39.203  32.102  35.574  1.00  0.00     0.057 A 
ATOM     68  C   UNL A   1      39.523  33.458  35.718  1.00  0.00     0.134 A 
ATOM     69  C   UNL A   1      38.337  31.543  36.525  1.00  0.00     0.134 A 
ATOM     70  F   UNL A   1      40.353  34.059  34.854  1.00  0.00    -0.206 F 
ATOM     71  C   UNL A   1      39.009  34.225  36.767  1.00  0.00     0.040 A 
ATOM     72  C   UNL A   1      37.794  32.306  37.561  1.00  0.00     0.040 A 
ATOM     73  F   UNL A   1      37.979  30.252  36.444  1.00  0.00    -0.206 F 
ATOM     74  C   UNL A   1      38.135  33.650  37.687  1.00  0.00     0.006 A 
ENDBRANCH  53  67
BRANCH  54  75
ATOM     75  C   UNL A   1      42.689  26.419  28.133  1.00  0.00     0.057 A 
ATOM     76  C   UNL A   1      43.661  26.908  27.249  1.00  0.00     0.134 A 
ATOM     77  C   UNL A   1      42.316  25.076  27.997  1.00  0.00     0.134 A 
ATOM     78  F   UNL A   1      44.054  28.189  27.312  1.00  0.00    -0.206 F 
ATOM     79  C   UNL A   1      44.254  26.091  26.288  1.00  0.00     0.040 A 
ATOM     80  C   UNL A   1      42.935  24.237  27.070  1.00  0.00     0.040 A 
ATOM     81  F   UNL A   1      41.397  24.544  28.818  1.00  0.00    -0.206 F 
ATOM     82  C   UNL A   1      43.908  24.745  26.213  1.00  0.00     0.006 A 
ENDBRANCH  54  75
BRANCH  66  83
ATOM     83  C   UNL A   1      44.947  27.819  34.532  1.00  0.00     0.057 A 
ATOM     84  C   UNL A   1      46.159  28.520  34.502  1.00  0.00     0.134 A 
ATOM     85  C   UNL A   1      44.881  26.679  35.347  1.00  0.00     0.134 A 
ATOM     86  F   UNL A   1      46.300  29.609  33.733  1.00  0.00    -0.206 F 
ATOM     87  C   UNL A   1      47.251  28.123  35.275  1.00  0.00     0.040 A 
ATOM     88  C   UNL A   1      45.952  26.299  36.157  1.00  0.00     0.040 A 
ATOM     89  F   UNL A   1      43.747  25.967  35.433  1.00  0.00    -0.206 F 
ATOM     90  C   UNL A   1      47.142  27.024  36.123  1.00  0.00     0.006 A 
ENDBRANCH  66  83
ENDBRANCH  40  41
ENDBRANCH  32  35
ENDBRANCH  30  31
ENDBRANCH  29  30
ENDBRANCH   1  29
TORSDOF 15
ENDMDL
MODEL 2
REMARK VINA RESULT:     -11.8      2.790      6.426
REMARK SMILES COc1cc2c(cc1OC)C1=C(C#N)C[N@@H+](CC(=O)NCCCCNC(=O)c3ccc(-c4c5nc(c(-c6c(F)cccc6F)c6ccc([nH]6)c(-c6c(F)cccc6F)c6nc(c(-c7c(F)cccc7F)c7ccc4[nH]7)C=C6)C=C5)cc3)CN1CC2
REMARK SMILES IDX 22 1 21 2 20 3 18 4 19 5 17 7 16 8 3 9 4 10 8 11 5 12 7 13
REMARK SMILES IDX 6 14 85 15 11 16 84 17 12 18 83 19 15 20 82 21 2 23 1 24
REMARK SMILES IDX 9 25 10 26 13 27 14 28 23 29 24 30 25 31 26 32 27 34 28 35
REMARK SMILES IDX 29 36 81 37 30 38 80 39 31 40 32 41 33 42 74 43 34 44 79 45
REMARK SMILES IDX 73 46 75 47 35 48 78 49 72 50 71 51 36 53 62 54 45 55 61 56
REMARK SMILES IDX 46 57 49 58 60 59 76 60 47 61 48 62 59 64 77 65 50 66 37 67
REMARK SMILES IDX 38 68 43 69 39 70 40 71 42 72 44 73 41 74 63 75 64 76 69 77
REMARK SMILES IDX 65 78 66 79 68 80 70 81 67 82 51 83 52 84 57 85 53 86 54 87
REMARK SMILES IDX 56 88 58 89 55 90
REMARK H PARENT 20 6 16 22 25 33 75 52 49 63
REMARK Flexibility Score: inf
ROOT
ATOM      1  C   UNL A   1      32.746  29.233  24.932  1.00  0.00     0.023 C 
ENDROOT
BRANCH   1   2
ATOM      2  C   UNL A   1      32.965  28.938  23.459  1.00  0.00     0.116 C 
BRANCH   2   3
ATOM      3  N   UNL A   1      31.903  29.542  22.683  1.00  0.00    -0.351 N 
ATOM      4  C   UNL A   1      30.587  29.181  22.626  1.00  0.00     0.275 C 
ATOM      5  O   UNL A   1      29.899  29.658  21.718  1.00  0.00    -0.269 OA
ATOM      6  H   UNL A   1      32.162  30.312  22.126  1.00  0.00     0.163 HD
BRANCH   4   7
ATOM      7  C   UNL A   1      29.968  28.296  23.716  1.00  0.00     0.365 C 
BRANCH   7   8
ATOM      8  N   UNL A   1      29.873  26.859  23.442  1.00  0.00    -0.306 N 
ATOM      9  C   UNL A   1      35.809  23.128  25.402  1.00  0.00     0.161 A 
ATOM     10  C   UNL A   1      35.662  23.904  24.253  1.00  0.00     0.055 A 
ATOM     11  C   UNL A   1      34.693  22.939  26.220  1.00  0.00     0.161 A 
ATOM     12  C   UNL A   1      34.420  24.480  23.905  1.00  0.00    -0.033 A 
ATOM     13  C   UNL A   1      33.449  23.506  25.850  1.00  0.00     0.061 A 
ATOM     14  C   UNL A   1      33.259  24.277  24.690  1.00  0.00     0.006 A 
ATOM     15  C   UNL A   1      34.382  25.375  22.691  1.00  0.00     0.058 C 
ATOM     16  C   UNL A   1      31.945  24.937  24.267  1.00  0.00     0.068 C 
ATOM     17  C   UNL A   1      33.020  25.309  22.032  1.00  0.00     0.127 C 
ATOM     18  C   UNL A   1      30.791  25.024  24.985  1.00  0.00     0.108 C 
ATOM     19  N   UNL A   1      31.987  25.603  23.022  1.00  0.00    -0.323 N 
ATOM     20  C   UNL A   1      29.660  25.955  24.563  1.00  0.00     0.314 C 
ATOM     21  C   UNL A   1      30.823  26.310  22.500  1.00  0.00     0.390 C 
ATOM     22  H   UNL A   1      28.972  26.890  22.966  1.00  0.00     0.350 HD
BRANCH   9  23
ATOM     23  O   UNL A   1      36.980  22.473  25.671  1.00  0.00    -0.493 OA
ATOM     24  C   UNL A   1      37.156  21.231  24.998  1.00  0.00     0.278 C 
ENDBRANCH   9  23
BRANCH  11  25
ATOM     25  O   UNL A   1      34.621  22.258  27.409  1.00  0.00    -0.493 OA
ATOM     26  C   UNL A   1      33.507  21.413  27.656  1.00  0.00     0.278 C 
ENDBRANCH  11  25
BRANCH  18  27
ATOM     27  C   UNL A   1      30.539  24.386  26.236  1.00  0.00     0.103 C 
ATOM     28  N   UNL A   1      30.244  23.850  27.219  1.00  0.00    -0.192 NA
ENDBRANCH  18  27
ENDBRANCH   7   8
ENDBRANCH   4   7
ENDBRANCH   2   3
ENDBRANCH   1   2
BRANCH   1  29
ATOM     29  C   UNL A   1      33.227  28.194  25.920  1.00  0.00     0.023 C 
BRANCH  29  30
ATOM     30  C   UNL A   1      33.006  28.592  27.357  1.00  0.00     0.116 C 
BRANCH  30  31
ATOM     31  N   UNL A   1      33.102  30.027  27.614  1.00  0.00    -0.352 N 
ATOM     32  C   UNL A   1      34.223  30.747  27.977  1.00  0.00     0.251 C 
ATOM     33  H   UNL A   1      32.268  30.541  27.516  1.00  0.00     0.163 HD
ATOM     34  O   UNL A   1      34.166  31.947  28.212  1.00  0.00    -0.269 OA
BRANCH  32  35
ATOM     35  C   UNL A   1      35.490  30.007  28.138  1.00  0.00     0.039 A 
ATOM     36  C   UNL A   1      35.853  29.566  29.406  1.00  0.00     0.014 A 
ATOM     37  C   UNL A   1      36.395  29.947  27.078  1.00  0.00     0.014 A 
ATOM     38  C   UNL A   1      37.193  29.364  29.677  1.00  0.00     0.010 A 
ATOM     39  C   UNL A   1      37.714  29.552  27.326  1.00  0.00     0.010 A 
ATOM     40  C   UNL A   1      38.145  29.333  28.643  1.00  0.00    -0.014 A 
BRANCH  40  41
ATOM     41  C   UNL A   1      39.567  29.066  29.001  1.00  0.00     0.031 A 
ATOM     42  C   UNL A   1      40.255  27.778  28.620  1.00  0.00     0.074 A 
ATOM     43  C   UNL A   1      40.272  30.055  29.587  1.00  0.00     0.049 A 
ATOM     44  N   UNL A   1      41.502  27.422  28.819  1.00  0.00    -0.248 NA
ATOM     45  C   UNL A   1      39.451  26.752  27.937  1.00  0.00     0.031 C 
ATOM     46  C   UNL A   1      39.724  31.353  30.000  1.00  0.00     0.029 A 
ATOM     47  N   UNL A   1      41.603  30.152  29.894  1.00  0.00    -0.354 N 
ATOM     48  C   UNL A   1      41.628  26.140  28.295  1.00  0.00     0.074 A 
ATOM     49  C   UNL A   1      40.317  25.756  27.818  1.00  0.00     0.031 C 
ATOM     50  C   UNL A   1      40.720  32.143  30.418  1.00  0.00     0.029 A 
ATOM     51  C   UNL A   1      41.954  31.375  30.415  1.00  0.00     0.049 A 
ATOM     52  H   UNL A   1      42.245  29.419  29.756  1.00  0.00     0.167 HD
ATOM     53  C   UNL A   1      42.736  25.363  28.199  1.00  0.00     0.037 A 
ATOM     54  C   UNL A   1      43.135  31.822  30.876  1.00  0.00     0.037 A 
ATOM     55  C   UNL A   1      44.040  25.744  28.685  1.00  0.00     0.049 A 
ATOM     56  C   UNL A   1      44.317  30.898  30.839  1.00  0.00     0.074 A 
ATOM     57  C   UNL A   1      45.218  25.015  28.665  1.00  0.00     0.029 A 
ATOM     58  N   UNL A   1      44.339  26.961  29.278  1.00  0.00    -0.354 N 
ATOM     59  N   UNL A   1      44.412  29.687  30.344  1.00  0.00    -0.248 NA
ATOM     60  C   UNL A   1      45.559  31.409  31.429  1.00  0.00     0.031 C 
ATOM     61  C   UNL A   1      46.216  25.773  29.287  1.00  0.00     0.029 A 
ATOM     62  C   UNL A   1      45.679  27.001  29.634  1.00  0.00     0.049 A 
ATOM     63  H   UNL A   1      43.695  27.692  29.425  1.00  0.00     0.167 HD
ATOM     64  C   UNL A   1      45.734  29.306  30.535  1.00  0.00     0.074 A 
ATOM     65  C   UNL A   1      46.406  30.433  31.148  1.00  0.00     0.031 C 
ATOM     66  C   UNL A   1      46.338  28.129  30.241  1.00  0.00     0.037 A 
BRANCH  53  67
ATOM     67  C   UNL A   1      42.586  24.017  27.544  1.00  0.00     0.057 A 
ATOM     68  C   UNL A   1      42.351  22.865  28.308  1.00  0.00     0.134 A 
ATOM     69  C   UNL A   1      42.721  23.851  26.158  1.00  0.00     0.134 A 
ATOM     70  F   UNL A   1      42.223  22.944  29.640  1.00  0.00    -0.206 F 
ATOM     71  C   UNL A   1      42.261  21.602  27.718  1.00  0.00     0.040 A 
ATOM     72  C   UNL A   1      42.603  22.597  25.554  1.00  0.00     0.040 A 
ATOM     73  F   UNL A   1      42.937  24.910  25.364  1.00  0.00    -0.206 F 
ATOM     74  C   UNL A   1      42.379  21.466  26.337  1.00  0.00     0.006 A 
ENDBRANCH  53  67
BRANCH  54  75
ATOM     75  C   UNL A   1      43.257  33.180  31.470  1.00  0.00     0.057 A 
ATOM     76  C   UNL A   1      43.547  34.296  30.674  1.00  0.00     0.134 A 
ATOM     77  C   UNL A   1      43.000  33.408  32.827  1.00  0.00     0.134 A 
ATOM     78  F   UNL A   1      43.820  34.149  29.369  1.00  0.00    -0.206 F 
ATOM     79  C   UNL A   1      43.557  35.587  31.200  1.00  0.00     0.040 A 
ATOM     80  C   UNL A   1      42.961  34.699  33.355  1.00  0.00     0.040 A 
ATOM     81  F   UNL A   1      42.706  32.382  33.641  1.00  0.00    -0.206 F 
ATOM     82  C   UNL A   1      43.239  35.793  32.539  1.00  0.00     0.006 A 
ENDBRANCH  54  75
BRANCH  66  83
ATOM     83  C   UNL A   1      47.812  28.045  30.524  1.00  0.00     0.057 A 
ATOM     84  C   UNL A   1      48.269  27.557  31.755  1.00  0.00     0.134 A 
ATOM     85  C   UNL A   1      48.779  28.385  29.566  1.00  0.00     0.134 A 
ATOM     86  F   UNL A   1      47.403  27.228  32.724  1.00  0.00    -0.206 F 
ATOM     87  C   UNL A   1      49.629  27.382  32.012  1.00  0.00     0.040 A 
ATOM     88  C   UNL A   1      50.139  28.172  29.796  1.00  0.00     0.040 A 
ATOM     89  F   UNL A   1      48.411  28.847  28.362  1.00  0.00    -0.206 F 
ATOM     90  C   UNL A   1      50.567  27.668  31.023  1.00  0.00     0.006 A 
ENDBRANCH  66  83
ENDBRANCH  40  41
ENDBRANCH  32  35
ENDBRANCH  30  31
ENDBRANCH  29  30
ENDBRANCH   1  29
TORSDOF 15
ENDMDL
MODEL 3
REMARK VINA RESULT:     -11.8      2.134      2.684
REMARK SMILES COc1cc2c(cc1OC)C1=C(C#N)C[N@@H+](CC(=O)NCCCCNC(=O)c3ccc(-c4c5nc(c(-c6c(F)cccc6F)c6ccc([nH]6)c(-c6c(F)cccc6F)c6nc(c(-c7c(F)cccc7F)c7ccc4[nH]7)C=C6)C=C5)cc3)CN1CC2
REMARK SMILES IDX 22 1 21 2 20 3 18 4 19 5 17 7 16 8 3 9 4 10 8 11 5 12 7 13
REMARK SMILES IDX 6 14 85 15 11 16 84 17 12 18 83 19 15 20 82 21 2 23 1 24
REMARK SMILES IDX 9 25 10 26 13 27 14 28 23 29 24 30 25 31 26 32 27 34 28 35
REMARK SMILES IDX 29 36 81 37 30 38 80 39 31 40 32 41 33 42 74 43 34 44 79 45
REMARK SMILES IDX 73 46 75 47 35 48 78 49 72 50 71 51 36 53 62 54 45 55 61 56
REMARK SMILES IDX 46 57 49 58 60 59 76 60 47 61 48 62 59 64 77 65 50 66 37 67
REMARK SMILES IDX 38 68 43 69 39 70 40 71 42 72 44 73 41 74 63 75 64 76 69 77
REMARK SMILES IDX 65 78 66 79 68 80 70 81 67 82 51 83 52 84 57 85 53 86 54 87
REMARK SMILES IDX 56 88 58 89 55 90
REMARK H PARENT 20 6 16 22 25 33 75 52 49 63
REMARK Flexibility Score: inf
ROOT
ATOM      1  C   UNL A   1      32.404  29.480  27.257  1.00  0.00     0.023 C 
ENDROOT
BRANCH   1   2
ATOM      2  C   UNL A   1      32.452  28.338  26.256  1.00  0.00     0.116 C 
BRANCH   2   3
ATOM      3  N   UNL A   1      32.710  28.867  24.933  1.00  0.00    -0.351 N 
ATOM      4  C   UNL A   1      31.919  28.786  23.822  1.00  0.00     0.275 C 
ATOM      5  O   UNL A   1      32.426  29.078  22.734  1.00  0.00    -0.269 OA
ATOM      6  H   UNL A   1      33.562  29.347  24.820  1.00  0.00     0.163 HD
BRANCH   4   7
ATOM      7  C   UNL A   1      30.428  28.445  23.943  1.00  0.00     0.365 C 
BRANCH   7   8
ATOM      8  N   UNL A   1      30.020  27.078  23.602  1.00  0.00    -0.306 N 
ATOM      9  C   UNL A   1      35.304  22.155  24.518  1.00  0.00     0.161 A 
ATOM     10  C   UNL A   1      35.173  23.037  23.445  1.00  0.00     0.055 A 
ATOM     11  C   UNL A   1      34.282  22.111  25.467  1.00  0.00     0.161 A 
ATOM     12  C   UNL A   1      34.035  23.862  23.304  1.00  0.00    -0.033 A 
ATOM     13  C   UNL A   1      33.138  22.929  25.303  1.00  0.00     0.061 A 
ATOM     14  C   UNL A   1      32.962  23.815  24.227  1.00  0.00     0.006 A 
ATOM     15  C   UNL A   1      34.025  24.845  22.160  1.00  0.00     0.058 C 
ATOM     16  C   UNL A   1      31.761  24.741  24.025  1.00  0.00     0.068 C 
ATOM     17  C   UNL A   1      32.605  25.090  21.690  1.00  0.00     0.127 C 
ATOM     18  C   UNL A   1      30.743  24.983  24.897  1.00  0.00     0.108 C 
ATOM     19  N   UNL A   1      31.780  25.489  22.827  1.00  0.00    -0.323 N 
ATOM     20  C   UNL A   1      29.773  26.140  24.687  1.00  0.00     0.314 C 
ATOM     21  C   UNL A   1      30.722  26.442  22.510  1.00  0.00     0.390 C 
ATOM     22  H   UNL A   1      29.092  27.316  23.256  1.00  0.00     0.350 HD
BRANCH   9  23
ATOM     23  O   UNL A   1      36.348  21.273  24.586  1.00  0.00    -0.493 OA
ATOM     24  C   UNL A   1      37.488  21.727  25.309  1.00  0.00     0.278 C 
ENDBRANCH   9  23
BRANCH  11  25
ATOM     25  O   UNL A   1      34.224  21.359  26.614  1.00  0.00    -0.493 OA
ATOM     26  C   UNL A   1      33.704  21.942  27.798  1.00  0.00     0.278 C 
ENDBRANCH  11  25
BRANCH  18  27
ATOM     27  C   UNL A   1      30.526  24.302  26.132  1.00  0.00     0.103 C 
ATOM     28  N   UNL A   1      30.309  23.831  27.168  1.00  0.00    -0.192 NA
ENDBRANCH  18  27
ENDBRANCH   7   8
ENDBRANCH   4   7
ENDBRANCH   2   3
ENDBRANCH   1   2
BRANCH   1  29
ATOM     29  C   UNL A   1      32.455  30.885  26.698  1.00  0.00     0.023 C 
BRANCH  29  30
ATOM     30  C   UNL A   1      33.288  31.826  27.530  1.00  0.00     0.116 C 
BRANCH  30  31
ATOM     31  N   UNL A   1      32.690  33.140  27.747  1.00  0.00    -0.352 N 
ATOM     32  C   UNL A   1      33.187  34.179  28.510  1.00  0.00     0.251 C 
ATOM     33  H   UNL A   1      31.831  33.306  27.296  1.00  0.00     0.163 HD
ATOM     34  O   UNL A   1      32.566  35.224  28.654  1.00  0.00    -0.269 OA
BRANCH  32  35
ATOM     35  C   UNL A   1      34.472  33.964  29.205  1.00  0.00     0.039 A 
ATOM     36  C   UNL A   1      35.641  34.430  28.612  1.00  0.00     0.014 A 
ATOM     37  C   UNL A   1      34.524  33.125  30.318  1.00  0.00     0.014 A 
ATOM     38  C   UNL A   1      36.836  33.815  28.934  1.00  0.00     0.010 A 
ATOM     39  C   UNL A   1      35.764  32.655  30.762  1.00  0.00     0.010 A 
ATOM     40  C   UNL A   1      36.926  32.932  30.026  1.00  0.00    -0.014 A 
BRANCH  40  41
ATOM     41  C   UNL A   1      38.254  32.338  30.345  1.00  0.00     0.031 A 
ATOM     42  C   UNL A   1      39.174  32.950  31.373  1.00  0.00     0.074 A 
ATOM     43  C   UNL A   1      38.582  31.164  29.767  1.00  0.00     0.049 A 
ATOM     44  N   UNL A   1      40.340  32.520  31.793  1.00  0.00    -0.248 NA
ATOM     45  C   UNL A   1      38.745  34.206  32.009  1.00  0.00     0.031 C 
ATOM     46  C   UNL A   1      37.774  30.464  28.760  1.00  0.00     0.029 A 
ATOM     47  N   UNL A   1      39.645  30.326  29.971  1.00  0.00    -0.354 N 
ATOM     48  C   UNL A   1      40.781  33.447  32.731  1.00  0.00     0.074 A 
ATOM     49  C   UNL A   1      39.784  34.495  32.779  1.00  0.00     0.031 C 
ATOM     50  C   UNL A   1      38.321  29.270  28.505  1.00  0.00     0.029 A 
ATOM     51  C   UNL A   1      39.574  29.166  29.236  1.00  0.00     0.049 A 
ATOM     52  H   UNL A   1      40.388  30.533  30.583  1.00  0.00     0.167 HD
ATOM     53  C   UNL A   1      41.900  33.420  33.497  1.00  0.00     0.037 A 
ATOM     54  C   UNL A   1      40.439  28.143  29.131  1.00  0.00     0.037 A 
ATOM     55  C   UNL A   1      42.898  32.380  33.440  1.00  0.00     0.049 A 
ATOM     56  C   UNL A   1      41.712  28.195  29.925  1.00  0.00     0.074 A 
ATOM     57  C   UNL A   1      44.083  32.277  34.150  1.00  0.00     0.029 A 
ATOM     58  N   UNL A   1      42.828  31.260  32.624  1.00  0.00    -0.354 N 
ATOM     59  N   UNL A   1      42.111  29.084  30.801  1.00  0.00    -0.248 NA
ATOM     60  C   UNL A   1      42.655  27.092  29.709  1.00  0.00     0.031 C 
ATOM     61  C   UNL A   1      44.750  31.121  33.731  1.00  0.00     0.029 A 
ATOM     62  C   UNL A   1      43.950  30.466  32.809  1.00  0.00     0.049 A 
ATOM     63  H   UNL A   1      42.090  31.057  32.005  1.00  0.00     0.167 HD
ATOM     64  C   UNL A   1      43.338  28.630  31.265  1.00  0.00     0.074 A 
ATOM     65  C   UNL A   1      43.590  27.367  30.605  1.00  0.00     0.031 C 
ATOM     66  C   UNL A   1      44.188  29.208  32.149  1.00  0.00     0.037 A 
BRANCH  53  67
ATOM     67  C   UNL A   1      42.108  34.553  34.466  1.00  0.00     0.057 A 
ATOM     68  C   UNL A   1      42.777  35.721  34.076  1.00  0.00     0.134 A 
ATOM     69  C   UNL A   1      41.687  34.470  35.800  1.00  0.00     0.134 A 
ATOM     70  F   UNL A   1      43.220  35.867  32.819  1.00  0.00    -0.206 F 
ATOM     71  C   UNL A   1      43.022  36.760  34.978  1.00  0.00     0.040 A 
ATOM     72  C   UNL A   1      41.900  35.513  36.704  1.00  0.00     0.040 A 
ATOM     73  F   UNL A   1      41.031  33.385  36.241  1.00  0.00    -0.206 F 
ATOM     74  C   UNL A   1      42.575  36.661  36.294  1.00  0.00     0.006 A 
ENDBRANCH  53  67
BRANCH  54  75
ATOM     75  C   UNL A   1      40.175  27.014  28.201  1.00  0.00     0.057 A 
ATOM     76  C   UNL A   1      40.752  26.975  26.924  1.00  0.00     0.134 A 
ATOM     77  C   UNL A   1      39.414  25.907  28.595  1.00  0.00     0.134 A 
ATOM     78  F   UNL A   1      41.479  28.009  26.475  1.00  0.00    -0.206 F 
ATOM     79  C   UNL A   1      40.600  25.873  26.085  1.00  0.00     0.040 A 
ATOM     80  C   UNL A   1      39.293  24.778  27.784  1.00  0.00     0.040 A 
ATOM     81  F   UNL A   1      38.843  25.878  29.809  1.00  0.00    -0.206 F 
ATOM     82  C   UNL A   1      39.889  24.760  26.525  1.00  0.00     0.006 A 
ENDBRANCH  54  75
BRANCH  66  83
ATOM     83  C   UNL A   1      45.429  28.430  32.489  1.00  0.00     0.057 A 
ATOM     84  C   UNL A   1      46.617  28.647  31.779  1.00  0.00     0.134 A 
ATOM     85  C   UNL A   1      45.472  27.516  33.553  1.00  0.00     0.134 A 
ATOM     86  F   UNL A   1      46.646  29.494  30.740  1.00  0.00    -0.206 F 
ATOM     87  C   UNL A   1      47.806  28.008  32.131  1.00  0.00     0.040 A 
ATOM     88  C   UNL A   1      46.665  26.906  33.942  1.00  0.00     0.040 A 
ATOM     89  F   UNL A   1      44.374  27.270  34.284  1.00  0.00    -0.206 F 
ATOM     90  C   UNL A   1      47.838  27.152  33.229  1.00  0.00     0.006 A 
ENDBRANCH  66  83
ENDBRANCH  40  41
ENDBRANCH  32  35
ENDBRANCH  30  31
ENDBRANCH  29  30
ENDBRANCH   1  29
TORSDOF 15
ENDMDL
