MODEL 1
REMARK VINA RESULT:     -12.6      0.000      0.000
REMARK SMILES O=C(NCCCCNC(=O)[C@@H](NC(=O)c1ccc(C[NH+]2CCCCC2)cc1)c1ccccc1F)c1ccc(-c2c3nc(c(-c4c(F)cccc4F)c4ccc([nH]4)c(-c4c(F)cccc4F)c4nc(c(-c5c(F)cccc5F)c5ccc2[nH]5)C=C4)C=C3)cc1
REMARK SMILES IDX 6 1 5 2 4 3 3 4 1 5 2 6 35 8 36 9 88 10 37 11 87 12 38 13
REMARK SMILES IDX 39 14 40 15 81 16 41 17 86 18 80 19 82 20 42 21 85 22 79 23
REMARK SMILES IDX 78 24 43 26 69 27 52 28 68 29 53 30 56 31 67 32 83 33 54 34
REMARK SMILES IDX 55 35 66 37 84 38 57 39 44 40 45 41 50 42 46 43 47 44 49 45
REMARK SMILES IDX 51 46 48 47 70 48 71 49 76 50 72 51 73 52 75 53 77 54 74 55
REMARK SMILES IDX 58 56 59 57 64 58 60 59 61 60 63 61 65 62 62 63 7 64 8 65
REMARK SMILES IDX 9 66 10 68 11 69 12 70 13 71 14 73 15 74 16 75 27 76 17 77
REMARK SMILES IDX 26 78 18 79 19 80 20 81 21 82 25 83 22 85 24 86 23 87 28 88
REMARK SMILES IDX 29 89 33 90 30 91 32 92 34 93 31 94
REMARK H PARENT 3 7 82 25 56 36 8 67 12 72 20 84
REMARK Flexibility Score: inf
ROOT
ATOM      1  C   UNL A   1      31.825  29.772  27.225  1.00  0.00     0.023 C 
ENDROOT
BRANCH   1   2
ATOM      2  C   UNL A   1      31.737  31.175  26.629  1.00  0.00     0.023 C 
BRANCH   2   3
ATOM      3  C   UNL A   1      32.935  32.080  26.907  1.00  0.00     0.116 C 
BRANCH   3   4
ATOM      4  N   UNL A   1      32.556  33.417  27.342  1.00  0.00    -0.352 N 
ATOM      5  O   UNL A   1      32.596  35.258  28.651  1.00  0.00    -0.269 OA
ATOM      6  C   UNL A   1      33.107  34.195  28.332  1.00  0.00     0.251 C 
ATOM      7  H   UNL A   1      31.799  33.821  26.858  1.00  0.00     0.163 HD
BRANCH   6   8
ATOM      8  C   UNL A   1      34.312  33.708  29.031  1.00  0.00     0.039 A 
ATOM      9  C   UNL A   1      35.577  34.182  28.670  1.00  0.00     0.014 A 
ATOM     10  C   UNL A   1      34.170  32.734  30.020  1.00  0.00     0.014 A 
ATOM     11  C   UNL A   1      36.711  33.579  29.199  1.00  0.00     0.010 A 
ATOM     12  C   UNL A   1      35.309  32.181  30.604  1.00  0.00     0.010 A 
ATOM     13  C   UNL A   1      36.587  32.575  30.173  1.00  0.00    -0.014 A 
BRANCH  13  14
ATOM     14  C   UNL A   1      37.796  31.965  30.770  1.00  0.00     0.031 A 
ATOM     15  C   UNL A   1      38.560  30.900  30.040  1.00  0.00     0.074 A 
ATOM     16  C   UNL A   1      38.183  32.358  31.997  1.00  0.00     0.049 A 
ATOM     17  N   UNL A   1      39.573  30.182  30.452  1.00  0.00    -0.248 NA
ATOM     18  C   UNL A   1      38.123  30.592  28.670  1.00  0.00     0.031 C 
ATOM     19  C   UNL A   1      37.517  33.387  32.799  1.00  0.00     0.029 A 
ATOM     20  N   UNL A   1      39.215  31.931  32.790  1.00  0.00    -0.354 N 
ATOM     21  C   UNL A   1      39.877  29.318  29.407  1.00  0.00     0.074 A 
ATOM     22  C   UNL A   1      38.930  29.592  28.346  1.00  0.00     0.031 C 
ATOM     23  C   UNL A   1      38.157  33.511  33.969  1.00  0.00     0.029 A 
ATOM     24  C   UNL A   1      39.237  32.532  34.023  1.00  0.00     0.049 A 
ATOM     25  H   UNL A   1      39.875  31.258  32.503  1.00  0.00     0.167 HD
ATOM     26  C   UNL A   1      40.855  28.383  29.345  1.00  0.00     0.037 A 
ATOM     27  C   UNL A   1      40.012  32.295  35.097  1.00  0.00     0.037 A 
ATOM     28  C   UNL A   1      41.800  28.130  30.403  1.00  0.00     0.049 A 
ATOM     29  C   UNL A   1      41.068  31.235  35.017  1.00  0.00     0.074 A 
ATOM     30  C   UNL A   1      42.859  27.239  30.419  1.00  0.00     0.029 A 
ATOM     31  N   UNL A   1      41.792  28.763  31.637  1.00  0.00    -0.354 N 
ATOM     32  N   UNL A   1      41.366  30.445  34.014  1.00  0.00    -0.248 NA
ATOM     33  C   UNL A   1      41.894  31.030  36.213  1.00  0.00     0.031 C 
ATOM     34  C   UNL A   1      43.462  27.301  31.679  1.00  0.00     0.029 A 
ATOM     35  C   UNL A   1      42.811  28.265  32.432  1.00  0.00     0.049 A 
ATOM     36  H   UNL A   1      41.155  29.465  31.908  1.00  0.00     0.167 HD
ATOM     37  C   UNL A   1      42.425  29.663  34.448  1.00  0.00     0.074 A 
ATOM     38  C   UNL A   1      42.722  30.077  35.805  1.00  0.00     0.031 C 
ATOM     39  C   UNL A   1      43.094  28.692  33.779  1.00  0.00     0.037 A 
BRANCH  26  40
ATOM     40  C   UNL A   1      40.932  27.543  28.102  1.00  0.00     0.057 A 
ATOM     41  C   UNL A   1      41.685  27.930  26.986  1.00  0.00     0.134 A 
ATOM     42  C   UNL A   1      40.257  26.318  28.031  1.00  0.00     0.134 A 
ATOM     43  F   UNL A   1      42.347  29.098  26.984  1.00  0.00    -0.206 F 
ATOM     44  C   UNL A   1      41.740  27.143  25.833  1.00  0.00     0.040 A 
ATOM     45  C   UNL A   1      40.324  25.511  26.894  1.00  0.00     0.040 A 
ATOM     46  F   UNL A   1      39.524  25.883  29.066  1.00  0.00    -0.206 F 
ATOM     47  C   UNL A   1      41.062  25.927  25.787  1.00  0.00     0.006 A 
ENDBRANCH  26  40
BRANCH  27  48
ATOM     48  C   UNL A   1      39.783  33.078  36.334  1.00  0.00     0.057 A 
ATOM     49  C   UNL A   1      40.465  34.275  36.569  1.00  0.00     0.134 A 
ATOM     50  C   UNL A   1      38.823  32.681  37.275  1.00  0.00     0.134 A 
ATOM     51  F   UNL A   1      41.402  34.697  35.708  1.00  0.00    -0.206 F 
ATOM     52  C   UNL A   1      40.200  35.054  37.696  1.00  0.00     0.040 A 
ATOM     53  C   UNL A   1      38.531  33.462  38.392  1.00  0.00     0.040 A 
ATOM     54  F   UNL A   1      38.127  31.548  37.094  1.00  0.00    -0.206 F 
ATOM     55  C   UNL A   1      39.222  34.652  38.605  1.00  0.00     0.006 A 
ENDBRANCH  27  48
BRANCH  39  56
ATOM     56  C   UNL A   1      44.236  28.032  34.490  1.00  0.00     0.057 A 
ATOM     57  C   UNL A   1      44.072  26.839  35.202  1.00  0.00     0.134 A 
ATOM     58  C   UNL A   1      45.528  28.567  34.406  1.00  0.00     0.134 A 
ATOM     59  F   UNL A   1      42.857  26.286  35.330  1.00  0.00    -0.206 F 
ATOM     60  C   UNL A   1      45.154  26.202  35.813  1.00  0.00     0.040 A 
ATOM     61  C   UNL A   1      46.620  27.930  34.994  1.00  0.00     0.040 A 
ATOM     62  F   UNL A   1      45.751  29.706  33.732  1.00  0.00    -0.206 F 
ATOM     63  C   UNL A   1      46.434  26.744  35.702  1.00  0.00     0.006 A 
ENDBRANCH  39  56
ENDBRANCH  13  14
ENDBRANCH   6   8
ENDBRANCH   3   4
ENDBRANCH   2   3
ENDBRANCH   1   2
BRANCH   1  64
ATOM     64  C   UNL A   1      31.767  28.651  26.201  1.00  0.00     0.116 C 
BRANCH  64  65
ATOM     65  N   UNL A   1      33.037  28.368  25.569  1.00  0.00    -0.354 N 
ATOM     66  C   UNL A   1      33.334  27.486  24.566  1.00  0.00     0.247 C 
ATOM     67  H   UNL A   1      33.800  28.887  25.912  1.00  0.00     0.163 HD
ATOM     68  O   UNL A   1      34.410  27.661  23.983  1.00  0.00    -0.272 OA
BRANCH  66  69
ATOM     69  C   UNL A   1      32.336  26.390  24.084  1.00  0.00     0.205 C 
BRANCH  69  70
ATOM     70  N   UNL A   1      32.520  26.076  22.650  1.00  0.00    -0.336 N 
ATOM     71  C   UNL A   1      33.003  25.031  21.915  1.00  0.00     0.252 C 
ATOM     72  H   UNL A   1      32.214  26.814  22.075  1.00  0.00     0.165 HD
ATOM     73  O   UNL A   1      33.215  25.167  20.714  1.00  0.00    -0.269 OA
BRANCH  71  74
ATOM     74  C   UNL A   1      33.331  23.763  22.561  1.00  0.00     0.039 A 
ATOM     75  C   UNL A   1      34.616  23.581  23.075  1.00  0.00     0.014 A 
ATOM     76  C   UNL A   1      32.345  22.792  22.707  1.00  0.00     0.014 A 
ATOM     77  C   UNL A   1      34.868  22.480  23.888  1.00  0.00     0.010 A 
ATOM     78  C   UNL A   1      32.608  21.682  23.504  1.00  0.00     0.010 A 
ATOM     79  C   UNL A   1      33.852  21.544  24.145  1.00  0.00     0.006 A 
BRANCH  79  80
ATOM     80  C   UNL A   1      34.066  20.426  25.143  1.00  0.00     0.299 C 
BRANCH  80  81
ATOM     81  N   UNL A   1      33.655  19.083  24.722  1.00  0.00    -0.331 N 
ATOM     82  C   UNL A   1      34.787  18.259  24.285  1.00  0.00     0.262 C 
ATOM     83  C   UNL A   1      32.819  18.407  25.718  1.00  0.00     0.262 C 
ATOM     84  H   UNL A   1      33.063  19.212  23.902  1.00  0.00     0.348 HD
ATOM     85  C   UNL A   1      34.317  16.916  23.731  1.00  0.00     0.062 C 
ATOM     86  C   UNL A   1      32.297  17.073  25.189  1.00  0.00     0.062 C 
ATOM     87  C   UNL A   1      33.449  16.181  24.745  1.00  0.00     0.012 C 
ENDBRANCH  80  81
ENDBRANCH  79  80
ENDBRANCH  71  74
ENDBRANCH  69  70
BRANCH  69  88
ATOM     88  C   UNL A   1      32.158  25.294  25.120  1.00  0.00     0.020 A 
ATOM     89  C   UNL A   1      33.188  24.853  25.965  1.00  0.00     0.009 A 
ATOM     90  C   UNL A   1      30.892  24.727  25.320  1.00  0.00     0.129 A 
ATOM     91  C   UNL A   1      32.967  23.885  26.953  1.00  0.00     0.001 A 
ATOM     92  C   UNL A   1      30.658  23.763  26.303  1.00  0.00     0.039 A 
ATOM     93  F   UNL A   1      29.861  25.106  24.551  1.00  0.00    -0.207 F 
ATOM     94  C   UNL A   1      31.700  23.339  27.123  1.00  0.00     0.003 A 
ENDBRANCH  69  88
ENDBRANCH  66  69
ENDBRANCH  64  65
ENDBRANCH   1  64
TORSDOF 16
ENDMDL
MODEL 2
REMARK VINA RESULT:     -12.5      1.435      2.293
REMARK SMILES O=C(NCCCCNC(=O)[C@@H](NC(=O)c1ccc(C[NH+]2CCCCC2)cc1)c1ccccc1F)c1ccc(-c2c3nc(c(-c4c(F)cccc4F)c4ccc([nH]4)c(-c4c(F)cccc4F)c4nc(c(-c5c(F)cccc5F)c5ccc2[nH]5)C=C4)C=C3)cc1
REMARK SMILES IDX 6 1 5 2 4 3 3 4 1 5 2 6 35 8 36 9 88 10 37 11 87 12 38 13
REMARK SMILES IDX 39 14 40 15 81 16 41 17 86 18 80 19 82 20 42 21 85 22 79 23
REMARK SMILES IDX 78 24 43 26 69 27 52 28 68 29 53 30 56 31 67 32 83 33 54 34
REMARK SMILES IDX 55 35 66 37 84 38 57 39 44 40 45 41 50 42 46 43 47 44 49 45
REMARK SMILES IDX 51 46 48 47 70 48 71 49 76 50 72 51 73 52 75 53 77 54 74 55
REMARK SMILES IDX 58 56 59 57 64 58 60 59 61 60 63 61 65 62 62 63 7 64 8 65
REMARK SMILES IDX 9 66 10 68 11 69 12 70 13 71 14 73 15 74 16 75 27 76 17 77
REMARK SMILES IDX 26 78 18 79 19 80 20 81 21 82 25 83 22 85 24 86 23 87 28 88
REMARK SMILES IDX 29 89 33 90 30 91 32 92 34 93 31 94
REMARK H PARENT 3 7 82 25 56 36 8 67 12 72 20 84
REMARK Flexibility Score: inf
ROOT
ATOM      1  C   UNL A   1      31.780  30.387  26.481  1.00  0.00     0.023 C 
ENDROOT
BRANCH   1   2
ATOM      2  C   UNL A   1      31.551  31.883  26.681  1.00  0.00     0.023 C 
BRANCH   2   3
ATOM      3  C   UNL A   1      32.728  32.651  27.279  1.00  0.00     0.116 C 
BRANCH   3   4
ATOM      4  N   UNL A   1      32.393  34.019  27.646  1.00  0.00    -0.352 N 
ATOM      5  O   UNL A   1      32.533  35.939  28.830  1.00  0.00    -0.269 OA
ATOM      6  C   UNL A   1      33.010  34.849  28.552  1.00  0.00     0.251 C 
ATOM      7  H   UNL A   1      31.616  34.405  27.180  1.00  0.00     0.163 HD
BRANCH   6   8
ATOM      8  C   UNL A   1      34.245  34.386  29.214  1.00  0.00     0.039 A 
ATOM      9  C   UNL A   1      35.489  34.595  28.611  1.00  0.00     0.014 A 
ATOM     10  C   UNL A   1      34.144  33.696  30.422  1.00  0.00     0.014 A 
ATOM     11  C   UNL A   1      36.619  33.990  29.145  1.00  0.00     0.010 A 
ATOM     12  C   UNL A   1      35.292  33.151  30.996  1.00  0.00     0.010 A 
ATOM     13  C   UNL A   1      36.531  33.265  30.344  1.00  0.00    -0.014 A 
BRANCH  13  14
ATOM     14  C   UNL A   1      37.745  32.659  30.938  1.00  0.00     0.031 A 
ATOM     15  C   UNL A   1      38.395  31.463  30.305  1.00  0.00     0.074 A 
ATOM     16  C   UNL A   1      38.238  33.178  32.077  1.00  0.00     0.049 A 
ATOM     17  N   UNL A   1      39.394  30.740  30.742  1.00  0.00    -0.248 NA
ATOM     18  C   UNL A   1      37.845  31.015  29.017  1.00  0.00     0.031 C 
ATOM     19  C   UNL A   1      37.689  34.340  32.778  1.00  0.00     0.029 A 
ATOM     20  N   UNL A   1      39.299  32.789  32.851  1.00  0.00    -0.354 N 
ATOM     21  C   UNL A   1      39.574  29.734  29.801  1.00  0.00     0.074 A 
ATOM     22  C   UNL A   1      38.571  29.932  28.776  1.00  0.00     0.031 C 
ATOM     23  C   UNL A   1      38.417  34.570  33.880  1.00  0.00     0.029 A 
ATOM     24  C   UNL A   1      39.443  33.538  33.992  1.00  0.00     0.049 A 
ATOM     25  H   UNL A   1      39.899  32.045  32.613  1.00  0.00     0.167 HD
ATOM     26  C   UNL A   1      40.492  28.738  29.799  1.00  0.00     0.037 A 
ATOM     27  C   UNL A   1      40.278  33.389  35.036  1.00  0.00     0.037 A 
ATOM     28  C   UNL A   1      41.495  28.560  30.818  1.00  0.00     0.049 A 
ATOM     29  C   UNL A   1      41.265  32.263  35.027  1.00  0.00     0.074 A 
ATOM     30  C   UNL A   1      42.501  27.613  30.883  1.00  0.00     0.029 A 
ATOM     31  N   UNL A   1      41.610  29.344  31.958  1.00  0.00    -0.354 N 
ATOM     32  N   UNL A   1      41.447  31.335  34.119  1.00  0.00    -0.248 NA
ATOM     33  C   UNL A   1      42.162  32.158  36.185  1.00  0.00     0.031 C 
ATOM     34  C   UNL A   1      43.196  27.795  32.084  1.00  0.00     0.029 A 
ATOM     35  C   UNL A   1      42.653  28.885  32.744  1.00  0.00     0.049 A 
ATOM     36  H   UNL A   1      41.033  30.113  32.175  1.00  0.00     0.167 HD
ATOM     37  C   UNL A   1      42.489  30.547  34.582  1.00  0.00     0.074 A 
ATOM     38  C   UNL A   1      42.905  31.110  35.852  1.00  0.00     0.031 C 
ATOM     39  C   UNL A   1      43.055  29.460  34.004  1.00  0.00     0.037 A 
BRANCH  26  40
ATOM     40  C   UNL A   1      40.434  27.745  28.674  1.00  0.00     0.057 A 
ATOM     41  C   UNL A   1      39.663  26.578  28.750  1.00  0.00     0.134 A 
ATOM     42  C   UNL A   1      41.144  27.972  27.488  1.00  0.00     0.134 A 
ATOM     43  F   UNL A   1      38.967  26.294  29.862  1.00  0.00    -0.206 F 
ATOM     44  C   UNL A   1      39.625  25.658  27.699  1.00  0.00     0.040 A 
ATOM     45  C   UNL A   1      41.094  27.073  26.422  1.00  0.00     0.040 A 
ATOM     46  F   UNL A   1      41.895  29.074  27.345  1.00  0.00    -0.206 F 
ATOM     47  C   UNL A   1      40.339  25.907  26.529  1.00  0.00     0.006 A 
ENDBRANCH  26  40
BRANCH  27  48
ATOM     48  C   UNL A   1      40.181  34.334  36.172  1.00  0.00     0.057 A 
ATOM     49  C   UNL A   1      40.850  35.561  36.152  1.00  0.00     0.134 A 
ATOM     50  C   UNL A   1      39.358  34.062  37.273  1.00  0.00     0.134 A 
ATOM     51  F   UNL A   1      41.660  35.870  35.129  1.00  0.00    -0.206 F 
ATOM     52  C   UNL A   1      40.704  36.487  37.186  1.00  0.00     0.040 A 
ATOM     53  C   UNL A   1      39.184  34.987  38.301  1.00  0.00     0.040 A 
ATOM     54  F   UNL A   1      38.679  32.906  37.340  1.00  0.00    -0.206 F 
ATOM     55  C   UNL A   1      39.859  36.204  38.259  1.00  0.00     0.006 A 
ENDBRANCH  27  48
BRANCH  39  56
ATOM     56  C   UNL A   1      44.207  28.823  34.721  1.00  0.00     0.057 A 
ATOM     57  C   UNL A   1      45.526  29.243  34.516  1.00  0.00     0.134 A 
ATOM     58  C   UNL A   1      43.983  27.820  35.672  1.00  0.00     0.134 A 
ATOM     59  F   UNL A   1      45.805  30.190  33.609  1.00  0.00    -0.206 F 
ATOM     60  C   UNL A   1      46.586  28.681  35.229  1.00  0.00     0.040 A 
ATOM     61  C   UNL A   1      45.032  27.266  36.406  1.00  0.00     0.040 A 
ATOM     62  F   UNL A   1      42.740  27.379  35.917  1.00  0.00    -0.206 F 
ATOM     63  C   UNL A   1      46.338  27.696  36.185  1.00  0.00     0.006 A 
ENDBRANCH  39  56
ENDBRANCH  13  14
ENDBRANCH   6   8
ENDBRANCH   3   4
ENDBRANCH   2   3
ENDBRANCH   1   2
BRANCH   1  64
ATOM     64  C   UNL A   1      31.912  29.961  25.028  1.00  0.00     0.116 C 
BRANCH  64  65
ATOM     65  N   UNL A   1      30.679  30.051  24.277  1.00  0.00    -0.354 N 
ATOM     66  C   UNL A   1      30.093  29.129  23.451  1.00  0.00     0.247 C 
ATOM     67  H   UNL A   1      30.189  30.898  24.374  1.00  0.00     0.163 HD
ATOM     68  O   UNL A   1      28.898  29.309  23.190  1.00  0.00    -0.272 OA
BRANCH  66  69
ATOM     69  C   UNL A   1      30.834  27.851  22.953  1.00  0.00     0.205 C 
BRANCH  69  70
ATOM     70  N   UNL A   1      32.112  28.187  22.286  1.00  0.00    -0.336 N 
ATOM     71  C   UNL A   1      33.421  27.814  22.400  1.00  0.00     0.252 C 
ATOM     72  H   UNL A   1      31.985  28.854  21.574  1.00  0.00     0.165 HD
ATOM     73  O   UNL A   1      34.296  28.446  21.817  1.00  0.00    -0.269 OA
BRANCH  71  74
ATOM     74  C   UNL A   1      33.799  26.699  23.264  1.00  0.00     0.039 A 
ATOM     75  C   UNL A   1      33.966  26.932  24.631  1.00  0.00     0.014 A 
ATOM     76  C   UNL A   1      33.922  25.422  22.724  1.00  0.00     0.014 A 
ATOM     77  C   UNL A   1      34.098  25.844  25.489  1.00  0.00     0.010 A 
ATOM     78  C   UNL A   1      34.073  24.340  23.585  1.00  0.00     0.010 A 
ATOM     79  C   UNL A   1      34.107  24.536  24.977  1.00  0.00     0.006 A 
BRANCH  79  80
ATOM     80  C   UNL A   1      34.100  23.342  25.907  1.00  0.00     0.299 C 
BRANCH  80  81
ATOM     81  N   UNL A   1      33.848  22.034  25.294  1.00  0.00    -0.331 N 
ATOM     82  C   UNL A   1      34.919  21.069  25.567  1.00  0.00     0.262 C 
ATOM     83  C   UNL A   1      32.520  21.505  25.613  1.00  0.00     0.262 C 
ATOM     84  H   UNL A   1      33.854  22.188  24.286  1.00  0.00     0.348 HD
ATOM     85  C   UNL A   1      34.696  19.761  24.812  1.00  0.00     0.062 C 
ATOM     86  C   UNL A   1      32.240  20.213  24.848  1.00  0.00     0.062 C 
ATOM     87  C   UNL A   1      33.323  19.177  25.126  1.00  0.00     0.012 C 
ENDBRANCH  80  81
ENDBRANCH  79  80
ENDBRANCH  71  74
ENDBRANCH  69  70
BRANCH  69  88
ATOM     88  C   UNL A   1      30.737  26.715  23.955  1.00  0.00     0.020 A 
ATOM     89  C   UNL A   1      30.623  26.912  25.341  1.00  0.00     0.009 A 
ATOM     90  C   UNL A   1      30.678  25.391  23.500  1.00  0.00     0.129 A 
ATOM     91  C   UNL A   1      30.469  25.839  26.227  1.00  0.00     0.001 A 
ATOM     92  C   UNL A   1      30.522  24.312  24.373  1.00  0.00     0.039 A 
ATOM     93  F   UNL A   1      30.776  25.131  22.188  1.00  0.00    -0.207 F 
ATOM     94  C   UNL A   1      30.418  24.536  25.743  1.00  0.00     0.003 A 
ENDBRANCH  69  88
ENDBRANCH  66  69
ENDBRANCH  64  65
ENDBRANCH   1  64
TORSDOF 16
ENDMDL
MODEL 3
REMARK VINA RESULT:     -12.4      1.322      2.111
REMARK SMILES O=C(NCCCCNC(=O)[C@@H](NC(=O)c1ccc(C[NH+]2CCCCC2)cc1)c1ccccc1F)c1ccc(-c2c3nc(c(-c4c(F)cccc4F)c4ccc([nH]4)c(-c4c(F)cccc4F)c4nc(c(-c5c(F)cccc5F)c5ccc2[nH]5)C=C4)C=C3)cc1
REMARK SMILES IDX 6 1 5 2 4 3 3 4 1 5 2 6 35 8 36 9 88 10 37 11 87 12 38 13
REMARK SMILES IDX 39 14 40 15 81 16 41 17 86 18 80 19 82 20 42 21 85 22 79 23
REMARK SMILES IDX 78 24 43 26 69 27 52 28 68 29 53 30 56 31 67 32 83 33 54 34
REMARK SMILES IDX 55 35 66 37 84 38 57 39 44 40 45 41 50 42 46 43 47 44 49 45
REMARK SMILES IDX 51 46 48 47 70 48 71 49 76 50 72 51 73 52 75 53 77 54 74 55
REMARK SMILES IDX 58 56 59 57 64 58 60 59 61 60 63 61 65 62 62 63 7 64 8 65
REMARK SMILES IDX 9 66 10 68 11 69 12 70 13 71 14 73 15 74 16 75 27 76 17 77
REMARK SMILES IDX 26 78 18 79 19 80 20 81 21 82 25 83 22 85 24 86 23 87 28 88
REMARK SMILES IDX 29 89 33 90 30 91 32 92 34 93 31 94
REMARK H PARENT 3 7 82 25 56 36 8 67 12 72 20 84
REMARK Flexibility Score: inf
ROOT
ATOM      1  C   UNL A   1      30.702  29.628  24.175  1.00  0.00     0.023 C 
ENDROOT
BRANCH   1   2
ATOM      2  C   UNL A   1      31.436  28.940  25.324  1.00  0.00     0.023 C 
BRANCH   2   3
ATOM      3  C   UNL A   1      32.544  29.762  25.979  1.00  0.00     0.116 C 
BRANCH   3   4
ATOM      4  N   UNL A   1      32.126  31.112  26.328  1.00  0.00    -0.352 N 
ATOM      5  O   UNL A   1      32.204  33.086  27.427  1.00  0.00    -0.269 OA
ATOM      6  C   UNL A   1      32.747  32.028  27.144  1.00  0.00     0.251 C 
ATOM      7  H   UNL A   1      31.281  31.413  25.922  1.00  0.00     0.163 HD
BRANCH   6   8
ATOM      8  C   UNL A   1      34.071  31.696  27.706  1.00  0.00     0.039 A 
ATOM      9  C   UNL A   1      34.380  30.378  28.052  1.00  0.00     0.014 A 
ATOM     10  C   UNL A   1      34.986  32.726  27.928  1.00  0.00     0.014 A 
ATOM     11  C   UNL A   1      35.549  30.109  28.752  1.00  0.00     0.010 A 
ATOM     12  C   UNL A   1      36.193  32.442  28.566  1.00  0.00     0.010 A 
ATOM     13  C   UNL A   1      36.467  31.139  29.013  1.00  0.00    -0.014 A 
BRANCH  13  14
ATOM     14  C   UNL A   1      37.735  30.843  29.719  1.00  0.00     0.031 A 
ATOM     15  C   UNL A   1      38.801  30.011  29.068  1.00  0.00     0.074 A 
ATOM     16  C   UNL A   1      37.903  31.305  30.971  1.00  0.00     0.049 A 
ATOM     17  N   UNL A   1      39.922  29.564  29.574  1.00  0.00    -0.248 NA
ATOM     18  C   UNL A   1      38.574  29.621  27.668  1.00  0.00     0.031 C 
ATOM     19  C   UNL A   1      36.935  32.125  31.701  1.00  0.00     0.029 A 
ATOM     20  N   UNL A   1      38.937  31.140  31.854  1.00  0.00    -0.354 N 
ATOM     21  C   UNL A   1      40.520  28.816  28.567  1.00  0.00     0.074 A 
ATOM     22  C   UNL A   1      39.630  28.858  27.426  1.00  0.00     0.031 C 
ATOM     23  C   UNL A   1      37.420  32.392  32.921  1.00  0.00     0.029 A 
ATOM     24  C   UNL A   1      38.702  31.714  33.078  1.00  0.00     0.049 A 
ATOM     25  H   UNL A   1      39.766  30.658  31.632  1.00  0.00     0.167 HD
ATOM     26  C   UNL A   1      41.703  28.157  28.599  1.00  0.00     0.037 A 
ATOM     27  C   UNL A   1      39.416  31.665  34.217  1.00  0.00     0.037 A 
ATOM     28  C   UNL A   1      42.586  28.135  29.737  1.00  0.00     0.049 A 
ATOM     29  C   UNL A   1      40.707  30.904  34.239  1.00  0.00     0.074 A 
ATOM     30  C   UNL A   1      43.829  27.537  29.853  1.00  0.00     0.029 A 
ATOM     31  N   UNL A   1      42.314  28.732  30.960  1.00  0.00    -0.354 N 
ATOM     32  N   UNL A   1      41.278  30.225  33.274  1.00  0.00    -0.248 NA
ATOM     33  C   UNL A   1      41.451  30.897  35.504  1.00  0.00     0.031 C 
ATOM     34  C   UNL A   1      44.287  27.733  31.160  1.00  0.00     0.029 A 
ATOM     35  C   UNL A   1      43.353  28.494  31.844  1.00  0.00     0.049 A 
ATOM     36  H   UNL A   1      41.501  29.248  31.167  1.00  0.00     0.167 HD
ATOM     37  C   UNL A   1      42.457  29.727  33.805  1.00  0.00     0.074 A 
ATOM     38  C   UNL A   1      42.523  30.186  35.179  1.00  0.00     0.031 C 
ATOM     39  C   UNL A   1      43.403  28.963  33.207  1.00  0.00     0.037 A 
BRANCH  26  40
ATOM     40  C   UNL A   1      42.094  27.377  27.376  1.00  0.00     0.057 A 
ATOM     41  C   UNL A   1      42.766  27.970  26.298  1.00  0.00     0.134 A 
ATOM     42  C   UNL A   1      41.811  26.009  27.286  1.00  0.00     0.134 A 
ATOM     43  F   UNL A   1      43.057  29.279  26.315  1.00  0.00    -0.206 F 
ATOM     44  C   UNL A   1      43.115  27.234  25.163  1.00  0.00     0.040 A 
ATOM     45  C   UNL A   1      42.178  25.258  26.167  1.00  0.00     0.040 A 
ATOM     46  F   UNL A   1      41.178  25.377  28.286  1.00  0.00    -0.206 F 
ATOM     47  C   UNL A   1      42.825  25.873  25.098  1.00  0.00     0.006 A 
ENDBRANCH  26  40
BRANCH  27  48
ATOM     48  C   UNL A   1      38.893  32.350  35.422  1.00  0.00     0.057 A 
ATOM     49  C   UNL A   1      38.190  31.649  36.405  1.00  0.00     0.134 A 
ATOM     50  C   UNL A   1      39.148  33.709  35.650  1.00  0.00     0.134 A 
ATOM     51  F   UNL A   1      37.909  30.349  36.234  1.00  0.00    -0.206 F 
ATOM     52  C   UNL A   1      37.759  32.272  37.576  1.00  0.00     0.040 A 
ATOM     53  C   UNL A   1      38.744  34.339  36.827  1.00  0.00     0.040 A 
ATOM     54  F   UNL A   1      39.831  34.430  34.748  1.00  0.00    -0.206 F 
ATOM     55  C   UNL A   1      38.047  33.620  37.794  1.00  0.00     0.006 A 
ENDBRANCH  27  48
BRANCH  39  56
ATOM     56  C   UNL A   1      44.608  28.601  34.020  1.00  0.00     0.057 A 
ATOM     57  C   UNL A   1      45.728  29.438  34.093  1.00  0.00     0.134 A 
ATOM     58  C   UNL A   1      44.621  27.429  34.787  1.00  0.00     0.134 A 
ATOM     59  F   UNL A   1      45.781  30.566  33.371  1.00  0.00    -0.206 F 
ATOM     60  C   UNL A   1      46.823  29.118  34.897  1.00  0.00     0.040 A 
ATOM     61  C   UNL A   1      45.700  27.109  35.611  1.00  0.00     0.040 A 
ATOM     62  F   UNL A   1      43.575  26.589  34.764  1.00  0.00    -0.206 F 
ATOM     63  C   UNL A   1      46.806  27.954  35.667  1.00  0.00     0.006 A 
ENDBRANCH  39  56
ENDBRANCH  13  14
ENDBRANCH   6   8
ENDBRANCH   3   4
ENDBRANCH   2   3
ENDBRANCH   1   2
BRANCH   1  64
ATOM     64  C   UNL A   1      30.947  29.004  22.811  1.00  0.00     0.116 C 
BRANCH  64  65
ATOM     65  N   UNL A   1      32.335  28.688  22.553  1.00  0.00    -0.354 N 
ATOM     66  C   UNL A   1      32.910  27.487  22.238  1.00  0.00     0.247 C 
ATOM     67  H   UNL A   1      32.957  29.449  22.612  1.00  0.00     0.163 HD
ATOM     68  O   UNL A   1      34.045  27.534  21.750  1.00  0.00    -0.272 OA
BRANCH  66  69
ATOM     69  C   UNL A   1      32.153  26.130  22.365  1.00  0.00     0.205 C 
BRANCH  69  70
ATOM     70  N   UNL A   1      32.512  25.200  21.270  1.00  0.00    -0.336 N 
ATOM     71  C   UNL A   1      33.039  23.945  21.165  1.00  0.00     0.252 C 
ATOM     72  H   UNL A   1      32.320  25.589  20.387  1.00  0.00     0.165 HD
ATOM     73  O   UNL A   1      33.415  23.523  20.076  1.00  0.00    -0.269 OA
BRANCH  71  74
ATOM     74  C   UNL A   1      33.219  23.117  22.355  1.00  0.00     0.039 A 
ATOM     75  C   UNL A   1      32.177  22.277  22.755  1.00  0.00     0.014 A 
ATOM     76  C   UNL A   1      34.439  23.132  23.023  1.00  0.00     0.014 A 
ATOM     77  C   UNL A   1      32.421  21.324  23.739  1.00  0.00     0.010 A 
ATOM     78  C   UNL A   1      34.670  22.189  24.021  1.00  0.00     0.010 A 
ATOM     79  C   UNL A   1      33.683  21.243  24.349  1.00  0.00     0.006 A 
BRANCH  79  80
ATOM     80  C   UNL A   1      34.007  20.120  25.311  1.00  0.00     0.299 C 
BRANCH  80  81
ATOM     81  N   UNL A   1      33.646  18.764  24.885  1.00  0.00    -0.331 N 
ATOM     82  C   UNL A   1      34.809  17.983  24.451  1.00  0.00     0.262 C 
ATOM     83  C   UNL A   1      32.831  18.057  25.875  1.00  0.00     0.262 C 
ATOM     84  H   UNL A   1      33.054  18.875  24.062  1.00  0.00     0.348 HD
ATOM     85  C   UNL A   1      34.390  16.625  23.891  1.00  0.00     0.062 C 
ATOM     86  C   UNL A   1      32.358  16.707  25.340  1.00  0.00     0.062 C 
ATOM     87  C   UNL A   1      33.544  15.857  24.900  1.00  0.00     0.012 C 
ENDBRANCH  80  81
ENDBRANCH  79  80
ENDBRANCH  71  74
ENDBRANCH  69  70
BRANCH  69  88
ATOM     88  C   UNL A   1      32.069  25.663  23.807  1.00  0.00     0.020 A 
ATOM     89  C   UNL A   1      33.120  25.800  24.728  1.00  0.00     0.009 A 
ATOM     90  C   UNL A   1      30.867  25.133  24.296  1.00  0.00     0.129 A 
ATOM     91  C   UNL A   1      32.979  25.417  26.067  1.00  0.00     0.001 A 
ATOM     92  C   UNL A   1      30.715  24.749  25.630  1.00  0.00     0.039 A 
ATOM     93  F   UNL A   1      29.821  24.978  23.472  1.00  0.00    -0.207 F 
ATOM     94  C   UNL A   1      31.775  24.890  26.520  1.00  0.00     0.003 A 
ENDBRANCH  69  88
ENDBRANCH  66  69
ENDBRANCH  64  65
ENDBRANCH   1  64
TORSDOF 16
ENDMDL
