MODEL 1
REMARK VINA RESULT:     -11.1      0.000      0.000
REMARK SMILES O=C(NCCCCNC(=O)c1cccnc1NC[C@H](c1ccccc1)[NH+]1CCOCC1)c1ccc(-c2c3nc(c(-c4c(F)cccc4F)c4ccc([nH]4)c(-c4c(F)cccc4F)c4nc(c(-c5c(F)cccc5F)c5ccc2[nH]5)C=C4)C=C3)cc1
REMARK SMILES IDX 6 1 5 2 4 3 3 4 1 5 2 6 32 8 33 9 85 10 34 11 84 12 35 13
REMARK SMILES IDX 36 14 37 15 78 16 38 17 83 18 77 19 79 20 39 21 82 22 76 23
REMARK SMILES IDX 75 24 40 26 66 27 49 28 65 29 50 30 53 31 64 32 80 33 51 34
REMARK SMILES IDX 52 35 63 37 81 38 54 39 41 40 42 41 47 42 43 43 44 44 46 45
REMARK SMILES IDX 48 46 45 47 67 48 68 49 73 50 69 51 70 52 72 53 74 54 71 55
REMARK SMILES IDX 55 56 56 57 61 58 57 59 58 60 60 61 62 62 59 63 7 64 8 65
REMARK SMILES IDX 9 66 10 68 11 69 12 70 16 71 13 72 15 73 14 74 17 75 18 77
REMARK SMILES IDX 19 78 26 79 27 80 31 81 28 83 30 84 29 85 20 86 21 87 25 88
REMARK SMILES IDX 22 89 24 90 23 91
REMARK H PARENT 3 7 79 25 53 36 8 67 17 76 26 82
REMARK Flexibility Score: inf
ROOT
ATOM      1  C   UNL A   1      39.231  22.578  26.408  1.00  0.00     0.023 C 
ENDROOT
BRANCH   1   2
ATOM      2  C   UNL A   1      39.195  21.228  25.696  1.00  0.00     0.023 C 
BRANCH   2   3
ATOM      3  C   UNL A   1      39.714  20.050  26.509  1.00  0.00     0.116 C 
BRANCH   3   4
ATOM      4  N   UNL A   1      40.837  19.362  25.889  1.00  0.00    -0.352 N 
ATOM      5  O   UNL A   1      42.958  19.125  25.142  1.00  0.00    -0.269 OA
ATOM      6  C   UNL A   1      42.144  19.784  25.771  1.00  0.00     0.251 C 
ATOM      7  H   UNL A   1      40.637  18.479  25.503  1.00  0.00     0.163 HD
BRANCH   6   8
ATOM      8  C   UNL A   1      42.540  21.069  26.387  1.00  0.00     0.039 A 
ATOM      9  C   UNL A   1      42.561  21.208  27.775  1.00  0.00     0.014 A 
ATOM     10  C   UNL A   1      42.849  22.157  25.565  1.00  0.00     0.014 A 
ATOM     11  C   UNL A   1      42.723  22.466  28.335  1.00  0.00     0.010 A 
ATOM     12  C   UNL A   1      43.110  23.406  26.137  1.00  0.00     0.010 A 
ATOM     13  C   UNL A   1      43.013  23.579  27.525  1.00  0.00    -0.014 A 
BRANCH  13  14
ATOM     14  C   UNL A   1      43.267  24.885  28.184  1.00  0.00     0.031 A 
ATOM     15  C   UNL A   1      44.658  25.341  28.526  1.00  0.00     0.074 A 
ATOM     16  C   UNL A   1      42.215  25.698  28.402  1.00  0.00     0.049 A 
ATOM     17  N   UNL A   1      45.044  26.491  29.020  1.00  0.00    -0.248 NA
ATOM     18  C   UNL A   1      45.755  24.391  28.293  1.00  0.00     0.031 C 
ATOM     19  C   UNL A   1      40.817  25.351  28.132  1.00  0.00     0.029 A 
ATOM     20  N   UNL A   1      42.154  26.990  28.856  1.00  0.00    -0.354 N 
ATOM     21  C   UNL A   1      46.423  26.399  29.169  1.00  0.00     0.074 A 
ATOM     22  C   UNL A   1      46.804  25.072  28.737  1.00  0.00     0.031 C 
ATOM     23  C   UNL A   1      40.046  26.423  28.359  1.00  0.00     0.029 A 
ATOM     24  C   UNL A   1      40.884  27.513  28.845  1.00  0.00     0.049 A 
ATOM     25  H   UNL A   1      42.944  27.493  29.159  1.00  0.00     0.167 HD
ATOM     26  C   UNL A   1      47.288  27.341  29.617  1.00  0.00     0.037 A 
ATOM     27  C   UNL A   1      40.438  28.733  29.193  1.00  0.00     0.037 A 
ATOM     28  C   UNL A   1      46.905  28.667  30.034  1.00  0.00     0.049 A 
ATOM     29  C   UNL A   1      41.423  29.757  29.669  1.00  0.00     0.074 A 
ATOM     30  C   UNL A   1      47.711  29.693  30.499  1.00  0.00     0.029 A 
ATOM     31  N   UNL A   1      45.606  29.151  30.034  1.00  0.00    -0.354 N 
ATOM     32  N   UNL A   1      42.723  29.656  29.791  1.00  0.00    -0.248 NA
ATOM     33  C   UNL A   1      40.877  31.064  30.057  1.00  0.00     0.031 C 
ATOM     34  C   UNL A   1      46.896  30.788  30.805  1.00  0.00     0.029 A 
ATOM     35  C   UNL A   1      45.587  30.457  30.497  1.00  0.00     0.049 A 
ATOM     36  H   UNL A   1      44.814  28.642  29.746  1.00  0.00     0.167 HD
ATOM     37  C   UNL A   1      43.153  30.882  30.275  1.00  0.00     0.074 A 
ATOM     38  C   UNL A   1      41.979  31.724  30.385  1.00  0.00     0.031 C 
ATOM     39  C   UNL A   1      44.407  31.273  30.612  1.00  0.00     0.037 A 
BRANCH  26  40
ATOM     40  C   UNL A   1      48.743  26.976  29.685  1.00  0.00     0.057 A 
ATOM     41  C   UNL A   1      49.624  27.260  28.633  1.00  0.00     0.134 A 
ATOM     42  C   UNL A   1      49.283  26.395  30.841  1.00  0.00     0.134 A 
ATOM     43  F   UNL A   1      49.169  27.806  27.496  1.00  0.00    -0.206 F 
ATOM     44  C   UNL A   1      50.987  26.970  28.724  1.00  0.00     0.040 A 
ATOM     45  C   UNL A   1      50.646  26.119  30.951  1.00  0.00     0.040 A 
ATOM     46  F   UNL A   1      48.495  26.104  31.887  1.00  0.00    -0.206 F 
ATOM     47  C   UNL A   1      51.503  26.406  29.889  1.00  0.00     0.006 A 
ENDBRANCH  26  40
BRANCH  27  48
ATOM     48  C   UNL A   1      38.990  29.038  29.109  1.00  0.00     0.057 A 
ATOM     49  C   UNL A   1      38.162  28.954  30.233  1.00  0.00     0.134 A 
ATOM     50  C   UNL A   1      38.403  29.440  27.903  1.00  0.00     0.134 A 
ATOM     51  F   UNL A   1      38.664  28.561  31.413  1.00  0.00    -0.206 F 
ATOM     52  C   UNL A   1      36.798  29.242  30.158  1.00  0.00     0.040 A 
ATOM     53  C   UNL A   1      37.049  29.758  27.819  1.00  0.00     0.040 A 
ATOM     54  F   UNL A   1      39.147  29.551  26.792  1.00  0.00    -0.206 F 
ATOM     55  C   UNL A   1      36.240  29.652  28.949  1.00  0.00     0.006 A 
ENDBRANCH  27  48
BRANCH  39  56
ATOM     56  C   UNL A   1      44.555  32.671  31.132  1.00  0.00     0.057 A 
ATOM     57  C   UNL A   1      44.789  33.751  30.272  1.00  0.00     0.134 A 
ATOM     58  C   UNL A   1      44.466  32.939  32.504  1.00  0.00     0.134 A 
ATOM     59  F   UNL A   1      44.900  33.555  28.949  1.00  0.00    -0.206 F 
ATOM     60  C   UNL A   1      44.962  35.046  30.760  1.00  0.00     0.040 A 
ATOM     61  C   UNL A   1      44.614  34.233  33.001  1.00  0.00     0.040 A 
ATOM     62  F   UNL A   1      44.238  31.948  33.378  1.00  0.00    -0.206 F 
ATOM     63  C   UNL A   1      44.872  35.290  32.130  1.00  0.00     0.006 A 
ENDBRANCH  39  56
ENDBRANCH  13  14
ENDBRANCH   6   8
ENDBRANCH   3   4
ENDBRANCH   2   3
ENDBRANCH   1   2
BRANCH   1  64
ATOM     64  C   UNL A   1      37.941  23.387  26.317  1.00  0.00     0.116 C 
BRANCH  64  65
ATOM     65  N   UNL A   1      37.583  23.699  24.942  1.00  0.00    -0.352 N 
ATOM     66  C   UNL A   1      36.605  23.127  24.164  1.00  0.00     0.255 C 
ATOM     67  H   UNL A   1      38.110  24.412  24.514  1.00  0.00     0.163 HD
ATOM     68  O   UNL A   1      36.593  23.317  22.951  1.00  0.00    -0.269 OA
BRANCH  66  69
ATOM     69  C   UNL A   1      35.588  22.270  24.799  1.00  0.00     0.082 A 
ATOM     70  C   UNL A   1      35.673  20.879  24.651  1.00  0.00     0.019 A 
ATOM     71  C   UNL A   1      34.566  22.822  25.576  1.00  0.00     0.139 A 
ATOM     72  C   UNL A   1      34.670  20.077  25.170  1.00  0.00     0.021 A 
ATOM     73  N   UNL A   1      33.569  22.033  26.049  1.00  0.00    -0.239 NA
ATOM     74  C   UNL A   1      33.633  20.700  25.834  1.00  0.00     0.113 A 
BRANCH  71  75
ATOM     75  N   UNL A   1      34.524  24.186  25.858  1.00  0.00    -0.363 N 
ATOM     76  H   UNL A   1      35.352  24.696  26.011  1.00  0.00     0.162 HD
BRANCH  75  77
ATOM     77  C   UNL A   1      33.215  24.843  25.920  1.00  0.00     0.184 C 
BRANCH  77  78
ATOM     78  C   UNL A   1      33.149  26.144  25.036  1.00  0.00     0.234 C 
BRANCH  78  79
ATOM     79  N   UNL A   1      32.239  25.934  23.885  1.00  0.00    -0.323 N 
ATOM     80  C   UNL A   1      32.142  24.551  23.394  1.00  0.00     0.291 C 
ATOM     81  C   UNL A   1      32.338  26.880  22.762  1.00  0.00     0.291 C 
ATOM     82  H   UNL A   1      31.357  26.157  24.344  1.00  0.00     0.348 HD
ATOM     83  C   UNL A   1      33.093  24.196  22.242  1.00  0.00     0.221 C 
ATOM     84  C   UNL A   1      33.269  26.444  21.612  1.00  0.00     0.221 C 
ATOM     85  O   UNL A   1      32.957  25.122  21.158  1.00  0.00    -0.370 OA
ENDBRANCH  78  79
BRANCH  78  86
ATOM     86  C   UNL A   1      32.943  27.445  25.808  1.00  0.00     0.011 A 
ATOM     87  C   UNL A   1      33.801  28.548  25.667  1.00  0.00     0.010 A 
ATOM     88  C   UNL A   1      31.853  27.570  26.686  1.00  0.00     0.010 A 
ATOM     89  C   UNL A   1      33.587  29.728  26.384  1.00  0.00     0.001 A 
ATOM     90  C   UNL A   1      31.642  28.746  27.410  1.00  0.00     0.001 A 
ATOM     91  C   UNL A   1      32.511  29.823  27.261  1.00  0.00     0.000 A 
ENDBRANCH  78  86
ENDBRANCH  77  78
ENDBRANCH  75  77
ENDBRANCH  71  75
ENDBRANCH  66  69
ENDBRANCH  64  65
ENDBRANCH   1  64
TORSDOF 16
ENDMDL
MODEL 2
REMARK VINA RESULT:     -10.9      1.198      6.280
REMARK SMILES O=C(NCCCCNC(=O)c1cccnc1NC[C@H](c1ccccc1)[NH+]1CCOCC1)c1ccc(-c2c3nc(c(-c4c(F)cccc4F)c4ccc([nH]4)c(-c4c(F)cccc4F)c4nc(c(-c5c(F)cccc5F)c5ccc2[nH]5)C=C4)C=C3)cc1
REMARK SMILES IDX 6 1 5 2 4 3 3 4 1 5 2 6 32 8 33 9 85 10 34 11 84 12 35 13
REMARK SMILES IDX 36 14 37 15 78 16 38 17 83 18 77 19 79 20 39 21 82 22 76 23
REMARK SMILES IDX 75 24 40 26 66 27 49 28 65 29 50 30 53 31 64 32 80 33 51 34
REMARK SMILES IDX 52 35 63 37 81 38 54 39 41 40 42 41 47 42 43 43 44 44 46 45
REMARK SMILES IDX 48 46 45 47 67 48 68 49 73 50 69 51 70 52 72 53 74 54 71 55
REMARK SMILES IDX 55 56 56 57 61 58 57 59 58 60 60 61 62 62 59 63 7 64 8 65
REMARK SMILES IDX 9 66 10 68 11 69 12 70 16 71 13 72 15 73 14 74 17 75 18 77
REMARK SMILES IDX 19 78 26 79 27 80 31 81 28 83 30 84 29 85 20 86 21 87 25 88
REMARK SMILES IDX 22 89 24 90 23 91
REMARK H PARENT 3 7 79 25 53 36 8 67 17 76 26 82
REMARK Flexibility Score: inf
ROOT
ATOM      1  C   UNL A   1      36.622  20.281  25.008  1.00  0.00     0.023 C 
ENDROOT
BRANCH   1   2
ATOM      2  C   UNL A   1      38.089  20.034  24.664  1.00  0.00     0.023 C 
BRANCH   2   3
ATOM      3  C   UNL A   1      39.069  20.242  25.811  1.00  0.00     0.116 C 
BRANCH   3   4
ATOM      4  N   UNL A   1      40.132  19.248  25.859  1.00  0.00    -0.352 N 
ATOM      5  O   UNL A   1      42.252  18.501  26.099  1.00  0.00    -0.269 OA
ATOM      6  C   UNL A   1      41.457  19.425  26.191  1.00  0.00     0.251 C 
ATOM      7  H   UNL A   1      39.869  18.330  25.624  1.00  0.00     0.163 HD
BRANCH   6   8
ATOM      8  C   UNL A   1      41.916  20.764  26.624  1.00  0.00     0.039 A 
ATOM      9  C   UNL A   1      41.833  21.136  27.966  1.00  0.00     0.014 A 
ATOM     10  C   UNL A   1      42.390  21.668  25.669  1.00  0.00     0.014 A 
ATOM     11  C   UNL A   1      42.061  22.456  28.325  1.00  0.00     0.010 A 
ATOM     12  C   UNL A   1      42.715  22.973  26.052  1.00  0.00     0.010 A 
ATOM     13  C   UNL A   1      42.517  23.388  27.377  1.00  0.00    -0.014 A 
BRANCH  13  14
ATOM     14  C   UNL A   1      42.833  24.765  27.835  1.00  0.00     0.031 A 
ATOM     15  C   UNL A   1      41.754  25.779  28.096  1.00  0.00     0.074 A 
ATOM     16  C   UNL A   1      44.122  25.066  28.089  1.00  0.00     0.049 A 
ATOM     17  N   UNL A   1      41.869  26.989  28.584  1.00  0.00    -0.248 NA
ATOM     18  C   UNL A   1      40.374  25.395  27.765  1.00  0.00     0.031 C 
ATOM     19  C   UNL A   1      45.255  24.169  27.849  1.00  0.00     0.029 A 
ATOM     20  N   UNL A   1      44.693  26.183  28.640  1.00  0.00    -0.354 N 
ATOM     21  C   UNL A   1      40.583  27.515  28.607  1.00  0.00     0.074 A 
ATOM     22  C   UNL A   1      39.705  26.502  28.060  1.00  0.00     0.031 C 
ATOM     23  C   UNL A   1      46.375  24.741  28.313  1.00  0.00     0.029 A 
ATOM     24  C   UNL A   1      46.049  26.066  28.828  1.00  0.00     0.049 A 
ATOM     25  H   UNL A   1      44.181  26.990  28.878  1.00  0.00     0.167 HD
ATOM     26  C   UNL A   1      40.175  28.728  29.052  1.00  0.00     0.037 A 
ATOM     27  C   UNL A   1      46.936  26.929  29.352  1.00  0.00     0.037 A 
ATOM     28  C   UNL A   1      41.051  29.729  29.607  1.00  0.00     0.049 A 
ATOM     29  C   UNL A   1      46.451  28.256  29.850  1.00  0.00     0.074 A 
ATOM     30  C   UNL A   1      40.730  30.987  30.090  1.00  0.00     0.029 A 
ATOM     31  N   UNL A   1      42.422  29.584  29.758  1.00  0.00    -0.354 N 
ATOM     32  N   UNL A   1      45.230  28.731  29.875  1.00  0.00    -0.248 NA
ATOM     33  C   UNL A   1      47.467  29.169  30.391  1.00  0.00     0.031 C 
ATOM     34  C   UNL A   1      41.910  31.613  30.506  1.00  0.00     0.029 A 
ATOM     35  C   UNL A   1      42.962  30.731  30.318  1.00  0.00     0.049 A 
ATOM     36  H   UNL A   1      42.936  28.783  29.505  1.00  0.00     0.167 HD
ATOM     37  C   UNL A   1      45.329  29.999  30.428  1.00  0.00     0.074 A 
ATOM     38  C   UNL A   1      46.724  30.202  30.762  1.00  0.00     0.031 C 
ATOM     39  C   UNL A   1      44.355  30.920  30.629  1.00  0.00     0.037 A 
BRANCH  26  40
ATOM     40  C   UNL A   1      38.712  29.051  28.956  1.00  0.00     0.057 A 
ATOM     41  C   UNL A   1      37.858  28.935  30.061  1.00  0.00     0.134 A 
ATOM     42  C   UNL A   1      38.164  29.547  27.765  1.00  0.00     0.134 A 
ATOM     43  F   UNL A   1      38.317  28.456  31.227  1.00  0.00    -0.206 F 
ATOM     44  C   UNL A   1      36.509  29.290  29.982  1.00  0.00     0.040 A 
ATOM     45  C   UNL A   1      36.823  29.923  27.680  1.00  0.00     0.040 A 
ATOM     46  F   UNL A   1      38.928  29.689  26.672  1.00  0.00    -0.206 F 
ATOM     47  C   UNL A   1      35.990  29.794  28.791  1.00  0.00     0.006 A 
ENDBRANCH  26  40
BRANCH  27  48
ATOM     48  C   UNL A   1      48.371  26.560  29.419  1.00  0.00     0.057 A 
ATOM     49  C   UNL A   1      48.884  25.829  30.494  1.00  0.00     0.134 A 
ATOM     50  C   UNL A   1      49.259  26.918  28.397  1.00  0.00     0.134 A 
ATOM     51  F   UNL A   1      48.085  25.470  31.510  1.00  0.00    -0.206 F 
ATOM     52  C   UNL A   1      50.234  25.478  30.560  1.00  0.00     0.040 A 
ATOM     53  C   UNL A   1      50.603  26.551  28.435  1.00  0.00     0.040 A 
ATOM     54  F   UNL A   1      48.824  27.610  27.333  1.00  0.00    -0.206 F 
ATOM     55  C   UNL A   1      51.096  25.835  29.524  1.00  0.00     0.006 A 
ENDBRANCH  27  48
BRANCH  39  56
ATOM     56  C   UNL A   1      44.780  32.223  31.234  1.00  0.00     0.057 A 
ATOM     57  C   UNL A   1      44.789  32.417  32.621  1.00  0.00     0.134 A 
ATOM     58  C   UNL A   1      45.179  33.293  30.425  1.00  0.00     0.134 A 
ATOM     59  F   UNL A   1      44.401  31.435  33.449  1.00  0.00    -0.206 F 
ATOM     60  C   UNL A   1      45.150  33.642  33.182  1.00  0.00     0.040 A 
ATOM     61  C   UNL A   1      45.565  34.515  30.975  1.00  0.00     0.040 A 
ATOM     62  F   UNL A   1      45.197  33.167  29.089  1.00  0.00    -0.206 F 
ATOM     63  C   UNL A   1      45.543  34.696  32.357  1.00  0.00     0.006 A 
ENDBRANCH  39  56
ENDBRANCH  13  14
ENDBRANCH   6   8
ENDBRANCH   3   4
ENDBRANCH   2   3
ENDBRANCH   1   2
BRANCH   1  64
ATOM     64  C   UNL A   1      36.333  21.632  25.656  1.00  0.00     0.116 C 
BRANCH  64  65
ATOM     65  N   UNL A   1      35.481  21.507  26.829  1.00  0.00    -0.352 N 
ATOM     66  C   UNL A   1      34.108  21.522  26.892  1.00  0.00     0.255 C 
ATOM     67  H   UNL A   1      35.949  21.397  27.688  1.00  0.00     0.163 HD
ATOM     68  O   UNL A   1      33.542  21.661  27.972  1.00  0.00    -0.269 OA
BRANCH  66  69
ATOM     69  C   UNL A   1      33.327  21.388  25.648  1.00  0.00     0.082 A 
ATOM     70  C   UNL A   1      33.197  20.127  25.053  1.00  0.00     0.019 A 
ATOM     71  C   UNL A   1      32.684  22.492  25.081  1.00  0.00     0.139 A 
ATOM     72  C   UNL A   1      32.540  20.012  23.838  1.00  0.00     0.021 A 
ATOM     73  N   UNL A   1      32.076  22.377  23.874  1.00  0.00    -0.239 NA
ATOM     74  C   UNL A   1      32.023  21.164  23.281  1.00  0.00     0.113 A 
BRANCH  71  75
ATOM     75  N   UNL A   1      32.678  23.733  25.713  1.00  0.00    -0.363 N 
ATOM     76  H   UNL A   1      31.996  23.952  26.390  1.00  0.00     0.162 HD
BRANCH  75  77
ATOM     77  C   UNL A   1      33.712  24.706  25.347  1.00  0.00     0.184 C 
BRANCH  77  78
ATOM     78  C   UNL A   1      33.117  25.991  24.661  1.00  0.00     0.234 C 
BRANCH  78  79
ATOM     79  N   UNL A   1      31.983  25.621  23.781  1.00  0.00    -0.323 N 
ATOM     80  C   UNL A   1      32.342  25.216  22.414  1.00  0.00     0.291 C 
ATOM     81  C   UNL A   1      30.814  26.517  23.769  1.00  0.00     0.291 C 
ATOM     82  H   UNL A   1      31.672  24.785  24.275  1.00  0.00     0.348 HD
ATOM     83  C   UNL A   1      32.314  26.339  21.368  1.00  0.00     0.221 C 
ATOM     84  C   UNL A   1      30.819  27.593  22.664  1.00  0.00     0.221 C 
ATOM     85  O   UNL A   1      31.052  27.016  21.373  1.00  0.00    -0.370 OA
ENDBRANCH  78  79
BRANCH  78  86
ATOM     86  C   UNL A   1      32.866  27.172  25.596  1.00  0.00     0.011 A 
ATOM     87  C   UNL A   1      31.988  27.093  26.689  1.00  0.00     0.010 A 
ATOM     88  C   UNL A   1      33.540  28.386  25.382  1.00  0.00     0.010 A 
ATOM     89  C   UNL A   1      31.780  28.188  27.531  1.00  0.00     0.001 A 
ATOM     90  C   UNL A   1      33.327  29.485  26.218  1.00  0.00     0.001 A 
ATOM     91  C   UNL A   1      32.445  29.386  27.290  1.00  0.00     0.000 A 
ENDBRANCH  78  86
ENDBRANCH  77  78
ENDBRANCH  75  77
ENDBRANCH  71  75
ENDBRANCH  66  69
ENDBRANCH  64  65
ENDBRANCH   1  64
TORSDOF 16
ENDMDL
MODEL 3
REMARK VINA RESULT:     -10.9      1.730      2.303
REMARK SMILES O=C(NCCCCNC(=O)c1cccnc1NC[C@H](c1ccccc1)[NH+]1CCOCC1)c1ccc(-c2c3nc(c(-c4c(F)cccc4F)c4ccc([nH]4)c(-c4c(F)cccc4F)c4nc(c(-c5c(F)cccc5F)c5ccc2[nH]5)C=C4)C=C3)cc1
REMARK SMILES IDX 6 1 5 2 4 3 3 4 1 5 2 6 32 8 33 9 85 10 34 11 84 12 35 13
REMARK SMILES IDX 36 14 37 15 78 16 38 17 83 18 77 19 79 20 39 21 82 22 76 23
REMARK SMILES IDX 75 24 40 26 66 27 49 28 65 29 50 30 53 31 64 32 80 33 51 34
REMARK SMILES IDX 52 35 63 37 81 38 54 39 41 40 42 41 47 42 43 43 44 44 46 45
REMARK SMILES IDX 48 46 45 47 67 48 68 49 73 50 69 51 70 52 72 53 74 54 71 55
REMARK SMILES IDX 55 56 56 57 61 58 57 59 58 60 60 61 62 62 59 63 7 64 8 65
REMARK SMILES IDX 9 66 10 68 11 69 12 70 16 71 13 72 15 73 14 74 17 75 18 77
REMARK SMILES IDX 19 78 26 79 27 80 31 81 28 83 30 84 29 85 20 86 21 87 25 88
REMARK SMILES IDX 22 89 24 90 23 91
REMARK H PARENT 3 7 79 25 53 36 8 67 17 76 26 82
REMARK Flexibility Score: inf
ROOT
ATOM      1  C   UNL A   1      36.691  20.171  25.008  1.00  0.00     0.023 C 
ENDROOT
BRANCH   1   2
ATOM      2  C   UNL A   1      38.161  20.019  24.625  1.00  0.00     0.023 C 
BRANCH   2   3
ATOM      3  C   UNL A   1      39.145  20.090  25.784  1.00  0.00     0.116 C 
BRANCH   3   4
ATOM      4  N   UNL A   1      40.157  19.044  25.758  1.00  0.00    -0.352 N 
ATOM      5  O   UNL A   1      42.248  18.190  25.842  1.00  0.00    -0.269 OA
ATOM      6  C   UNL A   1      41.511  19.153  25.988  1.00  0.00     0.251 C 
ATOM      7  H   UNL A   1      39.831  18.139  25.550  1.00  0.00     0.163 HD
BRANCH   6   8
ATOM      8  C   UNL A   1      42.068  20.468  26.376  1.00  0.00     0.039 A 
ATOM      9  C   UNL A   1      42.228  20.794  27.723  1.00  0.00     0.014 A 
ATOM     10  C   UNL A   1      42.390  21.396  25.382  1.00  0.00     0.014 A 
ATOM     11  C   UNL A   1      42.545  22.096  28.078  1.00  0.00     0.010 A 
ATOM     12  C   UNL A   1      42.807  22.682  25.743  1.00  0.00     0.010 A 
ATOM     13  C   UNL A   1      42.852  23.053  27.095  1.00  0.00    -0.014 A 
BRANCH  13  14
ATOM     14  C   UNL A   1      43.274  24.408  27.534  1.00  0.00     0.031 A 
ATOM     15  C   UNL A   1      44.707  24.855  27.453  1.00  0.00     0.074 A 
ATOM     16  C   UNL A   1      42.318  25.267  27.940  1.00  0.00     0.049 A 
ATOM     17  N   UNL A   1      45.213  26.034  27.715  1.00  0.00    -0.248 NA
ATOM     18  C   UNL A   1      45.702  23.857  27.033  1.00  0.00     0.031 C 
ATOM     19  C   UNL A   1      40.898  24.935  28.082  1.00  0.00     0.029 A 
ATOM     20  N   UNL A   1      42.383  26.596  28.266  1.00  0.00    -0.354 N 
ATOM     21  C   UNL A   1      46.582  25.919  27.504  1.00  0.00     0.074 A 
ATOM     22  C   UNL A   1      46.832  24.547  27.118  1.00  0.00     0.031 C 
ATOM     23  C   UNL A   1      40.216  26.044  28.398  1.00  0.00     0.029 A 
ATOM     24  C   UNL A   1      41.156  27.150  28.540  1.00  0.00     0.049 A 
ATOM     25  H   UNL A   1      43.226  27.103  28.301  1.00  0.00     0.167 HD
ATOM     26  C   UNL A   1      47.536  26.874  27.616  1.00  0.00     0.037 A 
ATOM     27  C   UNL A   1      40.820  28.410  28.872  1.00  0.00     0.037 A 
ATOM     28  C   UNL A   1      47.280  28.243  27.988  1.00  0.00     0.049 A 
ATOM     29  C   UNL A   1      41.898  29.446  28.971  1.00  0.00     0.074 A 
ATOM     30  C   UNL A   1      48.182  29.285  28.123  1.00  0.00     0.029 A 
ATOM     31  N   UNL A   1      46.028  28.761  28.282  1.00  0.00    -0.354 N 
ATOM     32  N   UNL A   1      43.184  29.321  28.756  1.00  0.00    -0.248 NA
ATOM     33  C   UNL A   1      41.477  30.798  29.360  1.00  0.00     0.031 C 
ATOM     34  C   UNL A   1      47.479  30.426  28.525  1.00  0.00     0.029 A 
ATOM     35  C   UNL A   1      46.134  30.104  28.605  1.00  0.00     0.049 A 
ATOM     36  H   UNL A   1      45.187  28.249  28.263  1.00  0.00     0.167 HD
ATOM     37  C   UNL A   1      43.730  30.574  28.990  1.00  0.00     0.074 A 
ATOM     38  C   UNL A   1      42.628  31.455  29.321  1.00  0.00     0.031 C 
ATOM     39  C   UNL A   1      45.029  30.960  28.946  1.00  0.00     0.037 A 
BRANCH  26  40
ATOM     40  C   UNL A   1      48.957  26.477  27.335  1.00  0.00     0.057 A 
ATOM     41  C   UNL A   1      49.802  26.000  28.345  1.00  0.00     0.134 A 
ATOM     42  C   UNL A   1      49.465  26.509  26.029  1.00  0.00     0.134 A 
ATOM     43  F   UNL A   1      49.382  25.955  29.617  1.00  0.00    -0.206 F 
ATOM     44  C   UNL A   1      51.105  25.579  28.068  1.00  0.00     0.040 A 
ATOM     45  C   UNL A   1      50.758  26.072  25.737  1.00  0.00     0.040 A 
ATOM     46  F   UNL A   1      48.705  26.948  25.013  1.00  0.00    -0.206 F 
ATOM     47  C   UNL A   1      51.583  25.607  26.759  1.00  0.00     0.006 A 
ENDBRANCH  26  40
BRANCH  27  48
ATOM     48  C   UNL A   1      39.402  28.746  29.142  1.00  0.00     0.057 A 
ATOM     49  C   UNL A   1      38.856  28.622  30.423  1.00  0.00     0.134 A 
ATOM     50  C   UNL A   1      38.564  29.217  28.124  1.00  0.00     0.134 A 
ATOM     51  F   UNL A   1      39.607  28.163  31.436  1.00  0.00    -0.206 F 
ATOM     52  C   UNL A   1      37.522  28.940  30.682  1.00  0.00     0.040 A 
ATOM     53  C   UNL A   1      37.237  29.565  28.373  1.00  0.00     0.040 A 
ATOM     54  F   UNL A   1      39.032  29.369  26.877  1.00  0.00    -0.206 F 
ATOM     55  C   UNL A   1      36.710  29.419  29.655  1.00  0.00     0.006 A 
ENDBRANCH  27  48
BRANCH  39  56
ATOM     56  C   UNL A   1      45.312  32.395  29.271  1.00  0.00     0.057 A 
ATOM     57  C   UNL A   1      45.248  33.393  28.291  1.00  0.00     0.134 A 
ATOM     58  C   UNL A   1      45.654  32.782  30.572  1.00  0.00     0.134 A 
ATOM     59  F   UNL A   1      44.941  33.083  27.022  1.00  0.00    -0.206 F 
ATOM     60  C   UNL A   1      45.547  34.724  28.587  1.00  0.00     0.040 A 
ATOM     61  C   UNL A   1      45.932  34.112  30.885  1.00  0.00     0.040 A 
ATOM     62  F   UNL A   1      45.727  31.873  31.557  1.00  0.00    -0.206 F 
ATOM     63  C   UNL A   1      45.887  35.087  29.889  1.00  0.00     0.006 A 
ENDBRANCH  39  56
ENDBRANCH  13  14
ENDBRANCH   6   8
ENDBRANCH   3   4
ENDBRANCH   2   3
ENDBRANCH   1   2
BRANCH   1  64
ATOM     64  C   UNL A   1      36.306  21.547  25.545  1.00  0.00     0.116 C 
BRANCH  64  65
ATOM     65  N   UNL A   1      35.408  21.460  26.686  1.00  0.00    -0.352 N 
ATOM     66  C   UNL A   1      34.035  21.396  26.688  1.00  0.00     0.255 C 
ATOM     67  H   UNL A   1      35.840  21.444  27.570  1.00  0.00     0.163 HD
ATOM     68  O   UNL A   1      33.411  21.582  27.729  1.00  0.00    -0.269 OA
BRANCH  66  69
ATOM     69  C   UNL A   1      33.324  21.121  25.426  1.00  0.00     0.082 A 
ATOM     70  C   UNL A   1      33.115  19.793  25.032  1.00  0.00     0.019 A 
ATOM     71  C   UNL A   1      32.822  22.163  24.642  1.00  0.00     0.139 A 
ATOM     72  C   UNL A   1      32.527  19.532  23.804  1.00  0.00     0.021 A 
ATOM     73  N   UNL A   1      32.281  21.900  23.426  1.00  0.00    -0.239 NA
ATOM     74  C   UNL A   1      32.153  20.613  23.033  1.00  0.00     0.113 A 
BRANCH  71  75
ATOM     75  N   UNL A   1      32.890  23.489  25.066  1.00  0.00    -0.363 N 
ATOM     76  H   UNL A   1      33.513  23.760  25.779  1.00  0.00     0.162 HD
BRANCH  75  77
ATOM     77  C   UNL A   1      32.012  24.471  24.423  1.00  0.00     0.184 C 
BRANCH  77  78
ATOM     78  C   UNL A   1      32.720  25.858  24.194  1.00  0.00     0.234 C 
BRANCH  78  79
ATOM     79  N   UNL A   1      32.308  26.432  22.891  1.00  0.00    -0.323 N 
ATOM     80  C   UNL A   1      33.113  27.565  22.410  1.00  0.00     0.291 C 
ATOM     81  C   UNL A   1      30.873  26.689  22.687  1.00  0.00     0.291 C 
ATOM     82  H   UNL A   1      32.522  25.632  22.296  1.00  0.00     0.348 HD
ATOM     83  C   UNL A   1      32.577  28.955  22.781  1.00  0.00     0.221 C 
ATOM     84  C   UNL A   1      30.403  28.118  23.029  1.00  0.00     0.221 C 
ATOM     85  O   UNL A   1      31.211  29.105  22.376  1.00  0.00    -0.370 OA
ENDBRANCH  78  79
BRANCH  78  86
ATOM     86  C   UNL A   1      32.671  26.817  25.381  1.00  0.00     0.011 A 
ATOM     87  C   UNL A   1      33.776  27.592  25.768  1.00  0.00     0.010 A 
ATOM     88  C   UNL A   1      31.482  26.956  26.117  1.00  0.00     0.010 A 
ATOM     89  C   UNL A   1      33.703  28.464  26.857  1.00  0.00     0.001 A 
ATOM     90  C   UNL A   1      31.409  27.822  27.210  1.00  0.00     0.001 A 
ATOM     91  C   UNL A   1      32.521  28.573  27.582  1.00  0.00     0.000 A 
ENDBRANCH  78  86
ENDBRANCH  77  78
ENDBRANCH  75  77
ENDBRANCH  71  75
ENDBRANCH  66  69
ENDBRANCH  64  65
ENDBRANCH   1  64
TORSDOF 16
ENDMDL
