MODEL 1
REMARK VINA RESULT:     -13.0      0.000      0.000
REMARK SMILES CN1C(=O)[C@@H]2CC=CC[C@]2(C(=O)NCCCCNC(=O)c2ccc(-c3c4nc(c(-c5c(F)cccc5F)c5ccc([nH]5)c(-c5c(F)cccc5F)c5nc(c(-c6c(F)cccc6F)c6ccc3[nH]6)C=C5)C=C4)cc2)[C@H]1c1ccccc1
REMARK SMILES IDX 16 1 15 2 14 3 13 4 11 5 12 6 10 8 1 9 2 10 3 11 75 12 4 13
REMARK SMILES IDX 5 14 6 15 9 16 7 17 8 18 76 19 77 20 81 21 78 22 80 23 79 24
REMARK SMILES IDX 17 25 18 26 19 27 20 29 21 30 22 31 74 32 23 33 73 34 24 35
REMARK SMILES IDX 25 36 26 37 67 38 27 39 72 40 66 41 68 42 28 43 71 44 65 45
REMARK SMILES IDX 64 46 29 48 55 49 38 50 54 51 39 52 42 53 53 54 69 55 40 56
REMARK SMILES IDX 41 57 52 59 70 60 43 61 30 62 31 63 36 64 32 65 33 66 35 67
REMARK SMILES IDX 37 68 34 69 56 70 57 71 62 72 58 73 59 74 61 75 63 76 60 77
REMARK SMILES IDX 44 78 45 79 50 80 46 81 47 82 49 83 51 84 48 85
REMARK H PARENT 13 7 18 28 68 47 42 58
REMARK Flexibility Score: inf
ROOT
ATOM      1  C   UNL A   1      31.759  29.804  25.334  1.00  0.00     0.023 C 
ENDROOT
BRANCH   1   2
ATOM      2  C   UNL A   1      32.766  29.251  24.332  1.00  0.00     0.023 C 
BRANCH   2   3
ATOM      3  C   UNL A   1      33.472  27.954  24.715  1.00  0.00     0.116 C 
BRANCH   3   4
ATOM      4  N   UNL A   1      33.908  26.998  23.696  1.00  0.00    -0.356 N 
ATOM      5  C   UNL A   1      33.264  25.875  23.167  1.00  0.00     0.229 C 
ATOM      6  O   UNL A   1      33.551  25.542  22.015  1.00  0.00    -0.274 OA
ATOM      7  H   UNL A   1      34.801  27.174  23.322  1.00  0.00     0.163 HD
BRANCH   5   8
ATOM      8  C   UNL A   1      32.341  24.995  24.051  1.00  0.00     0.089 C 
ATOM      9  C   UNL A   1      32.499  21.630  25.716  1.00  0.00     0.147 C 
ATOM     10  N   UNL A   1      32.456  23.051  25.442  1.00  0.00    -0.337 N 
ATOM     11  C   UNL A   1      31.914  24.020  26.253  1.00  0.00     0.227 C 
ATOM     12  C   UNL A   1      33.042  23.601  24.259  1.00  0.00     0.131 C 
ATOM     13  O   UNL A   1      31.418  23.817  27.344  1.00  0.00    -0.275 OA
ATOM     14  C   UNL A   1      32.099  25.380  25.562  1.00  0.00     0.101 C 
ATOM     15  C   UNL A   1      30.962  26.312  25.980  1.00  0.00     0.041 C 
ATOM     16  C   UNL A   1      30.995  25.020  23.255  1.00  0.00     0.047 C 
ATOM     17  C   UNL A   1      29.910  26.528  24.959  1.00  0.00    -0.030 C 
ATOM     18  C   UNL A   1      29.922  25.952  23.755  1.00  0.00    -0.030 C 
BRANCH  12  19
ATOM     19  C   UNL A   1      34.588  23.622  24.375  1.00  0.00    -0.024 A 
ATOM     20  C   UNL A   1      35.432  23.017  23.429  1.00  0.00     0.006 A 
ATOM     21  C   UNL A   1      35.204  24.134  25.532  1.00  0.00     0.006 A 
ATOM     22  C   UNL A   1      36.770  22.738  23.713  1.00  0.00     0.000 A 
ATOM     23  C   UNL A   1      36.540  23.840  25.830  1.00  0.00     0.000 A 
ATOM     24  C   UNL A   1      37.312  23.107  24.935  1.00  0.00     0.000 A 
ENDBRANCH  12  19
ENDBRANCH   5   8
ENDBRANCH   3   4
ENDBRANCH   2   3
ENDBRANCH   1   2
BRANCH   1  25
ATOM     25  C   UNL A   1      32.305  30.342  26.651  1.00  0.00     0.116 C 
BRANCH  25  26
ATOM     26  N   UNL A   1      32.083  31.758  26.913  1.00  0.00    -0.352 N 
ATOM     27  C   UNL A   1      32.981  32.635  27.498  1.00  0.00     0.251 C 
ATOM     28  H   UNL A   1      31.210  32.127  26.649  1.00  0.00     0.163 HD
ATOM     29  O   UNL A   1      32.687  33.806  27.705  1.00  0.00    -0.269 OA
BRANCH  27  30
ATOM     30  C   UNL A   1      34.297  32.104  27.917  1.00  0.00     0.039 A 
ATOM     31  C   UNL A   1      35.372  32.979  28.079  1.00  0.00     0.014 A 
ATOM     32  C   UNL A   1      34.414  30.759  28.278  1.00  0.00     0.014 A 
ATOM     33  C   UNL A   1      36.545  32.517  28.680  1.00  0.00     0.010 A 
ATOM     34  C   UNL A   1      35.536  30.334  28.975  1.00  0.00     0.010 A 
ATOM     35  C   UNL A   1      36.623  31.200  29.169  1.00  0.00    -0.014 A 
BRANCH  35  36
ATOM     36  C   UNL A   1      37.850  30.700  29.842  1.00  0.00     0.031 A 
ATOM     37  C   UNL A   1      38.121  31.077  31.275  1.00  0.00     0.074 A 
ATOM     38  C   UNL A   1      38.740  29.950  29.163  1.00  0.00     0.049 A 
ATOM     39  N   UNL A   1      39.131  30.750  32.040  1.00  0.00    -0.248 NA
ATOM     40  C   UNL A   1      37.146  31.972  31.920  1.00  0.00     0.031 C 
ATOM     41  C   UNL A   1      38.633  29.574  27.752  1.00  0.00     0.029 A 
ATOM     42  N   UNL A   1      39.913  29.367  29.572  1.00  0.00    -0.354 N 
ATOM     43  C   UNL A   1      38.915  31.408  33.246  1.00  0.00     0.074 A 
ATOM     44  C   UNL A   1      37.729  32.216  33.083  1.00  0.00     0.031 C 
ATOM     45  C   UNL A   1      39.675  28.791  27.425  1.00  0.00     0.029 A 
ATOM     46  C   UNL A   1      40.538  28.634  28.592  1.00  0.00     0.049 A 
ATOM     47  H   UNL A   1      40.274  29.465  30.484  1.00  0.00     0.167 HD
ATOM     48  C   UNL A   1      39.617  31.319  34.400  1.00  0.00     0.037 A 
ATOM     49  C   UNL A   1      41.672  27.909  28.635  1.00  0.00     0.037 A 
ATOM     50  C   UNL A   1      40.784  30.495  34.568  1.00  0.00     0.049 A 
ATOM     51  C   UNL A   1      42.428  27.808  29.933  1.00  0.00     0.074 A 
ATOM     52  C   UNL A   1      41.537  30.287  35.710  1.00  0.00     0.029 A 
ATOM     53  N   UNL A   1      41.370  29.744  33.559  1.00  0.00    -0.354 N 
ATOM     54  N   UNL A   1      42.166  28.367  31.090  1.00  0.00    -0.248 NA
ATOM     55  C   UNL A   1      43.627  26.960  29.934  1.00  0.00     0.031 C 
ATOM     56  C   UNL A   1      42.608  29.451  35.379  1.00  0.00     0.029 A 
ATOM     57  C   UNL A   1      42.486  29.086  34.047  1.00  0.00     0.049 A 
ATOM     58  H   UNL A   1      41.040  29.688  32.633  1.00  0.00     0.167 HD
ATOM     59  C   UNL A   1      43.143  27.908  31.965  1.00  0.00     0.074 A 
ATOM     60  C   UNL A   1      43.994  27.014  31.206  1.00  0.00     0.031 C 
ATOM     61  C   UNL A   1      43.319  28.195  33.280  1.00  0.00     0.037 A 
BRANCH  48  62
ATOM     62  C   UNL A   1      39.131  32.136  35.565  1.00  0.00     0.057 A 
ATOM     63  C   UNL A   1      38.289  31.598  36.549  1.00  0.00     0.134 A 
ATOM     64  C   UNL A   1      39.507  33.477  35.704  1.00  0.00     0.134 A 
ATOM     65  F   UNL A   1      37.875  30.324  36.469  1.00  0.00    -0.206 F 
ATOM     66  C   UNL A   1      37.809  32.374  37.605  1.00  0.00     0.040 A 
ATOM     67  C   UNL A   1      39.061  34.253  36.774  1.00  0.00     0.040 A 
ATOM     68  F   UNL A   1      40.313  34.056  34.801  1.00  0.00    -0.206 F 
ATOM     69  C   UNL A   1      38.200  33.705  37.723  1.00  0.00     0.006 A 
ENDBRANCH  48  62
BRANCH  49  70
ATOM     70  C   UNL A   1      42.137  27.179  27.427  1.00  0.00     0.057 A 
ATOM     71  C   UNL A   1      42.919  27.813  26.453  1.00  0.00     0.134 A 
ATOM     72  C   UNL A   1      41.805  25.837  27.209  1.00  0.00     0.134 A 
ATOM     73  F   UNL A   1      43.256  29.104  26.593  1.00  0.00    -0.206 F 
ATOM     74  C   UNL A   1      43.331  27.149  25.296  1.00  0.00     0.040 A 
ATOM     75  C   UNL A   1      42.234  25.151  26.072  1.00  0.00     0.040 A 
ATOM     76  F   UNL A   1      41.068  25.168  28.109  1.00  0.00    -0.206 F 
ATOM     77  C   UNL A   1      42.993  25.811  25.106  1.00  0.00     0.006 A 
ENDBRANCH  49  70
BRANCH  61  78
ATOM     78  C   UNL A   1      44.440  27.493  33.991  1.00  0.00     0.057 A 
ATOM     79  C   UNL A   1      45.720  28.052  34.106  1.00  0.00     0.134 A 
ATOM     80  C   UNL A   1      44.227  26.243  34.588  1.00  0.00     0.134 A 
ATOM     81  F   UNL A   1      45.995  29.242  33.551  1.00  0.00    -0.206 F 
ATOM     82  C   UNL A   1      46.756  27.375  34.752  1.00  0.00     0.040 A 
ATOM     83  C   UNL A   1      45.245  25.571  35.266  1.00  0.00     0.040 A 
ATOM     84  F   UNL A   1      43.022  25.656  34.528  1.00  0.00    -0.206 F 
ATOM     85  C   UNL A   1      46.518  26.134  35.339  1.00  0.00     0.006 A 
ENDBRANCH  61  78
ENDBRANCH  35  36
ENDBRANCH  27  30
ENDBRANCH  25  26
ENDBRANCH   1  25
TORSDOF 12
ENDMDL
MODEL 2
REMARK VINA RESULT:     -12.9      4.450      9.293
REMARK SMILES CN1C(=O)[C@@H]2CC=CC[C@]2(C(=O)NCCCCNC(=O)c2ccc(-c3c4nc(c(-c5c(F)cccc5F)c5ccc([nH]5)c(-c5c(F)cccc5F)c5nc(c(-c6c(F)cccc6F)c6ccc3[nH]6)C=C5)C=C4)cc2)[C@H]1c1ccccc1
REMARK SMILES IDX 16 1 15 2 14 3 13 4 11 5 12 6 10 8 1 9 2 10 3 11 75 12 4 13
REMARK SMILES IDX 5 14 6 15 9 16 7 17 8 18 76 19 77 20 81 21 78 22 80 23 79 24
REMARK SMILES IDX 17 25 18 26 19 27 20 29 21 30 22 31 74 32 23 33 73 34 24 35
REMARK SMILES IDX 25 36 26 37 67 38 27 39 72 40 66 41 68 42 28 43 71 44 65 45
REMARK SMILES IDX 64 46 29 48 55 49 38 50 54 51 39 52 42 53 53 54 69 55 40 56
REMARK SMILES IDX 41 57 52 59 70 60 43 61 30 62 31 63 36 64 32 65 33 66 35 67
REMARK SMILES IDX 37 68 34 69 56 70 57 71 62 72 58 73 59 74 61 75 63 76 60 77
REMARK SMILES IDX 44 78 45 79 50 80 46 81 47 82 49 83 51 84 48 85
REMARK H PARENT 13 7 18 28 68 47 42 58
REMARK Flexibility Score: inf
ROOT
ATOM      1  C   UNL A   1      38.001  20.174  25.001  1.00  0.00     0.023 C 
ENDROOT
BRANCH   1   2
ATOM      2  C   UNL A   1      37.419  21.462  24.428  1.00  0.00     0.023 C 
BRANCH   2   3
ATOM      3  C   UNL A   1      37.150  22.592  25.417  1.00  0.00     0.116 C 
BRANCH   3   4
ATOM      4  N   UNL A   1      36.179  22.436  26.501  1.00  0.00    -0.356 N 
ATOM      5  C   UNL A   1      34.797  22.221  26.460  1.00  0.00     0.229 C 
ATOM      6  O   UNL A   1      34.284  21.621  27.406  1.00  0.00    -0.274 OA
ATOM      7  H   UNL A   1      36.559  22.492  27.406  1.00  0.00     0.163 HD
BRANCH   5   8
ATOM      8  C   UNL A   1      33.925  22.851  25.342  1.00  0.00     0.089 C 
ATOM      9  C   UNL A   1      32.340  21.747  22.118  1.00  0.00     0.147 C 
ATOM     10  N   UNL A   1      32.581  22.184  23.478  1.00  0.00    -0.337 N 
ATOM     11  C   UNL A   1      31.743  22.959  24.244  1.00  0.00     0.227 C 
ATOM     12  C   UNL A   1      33.756  21.790  24.191  1.00  0.00     0.131 C 
ATOM     13  O   UNL A   1      30.652  23.364  23.890  1.00  0.00    -0.275 OA
ATOM     14  C   UNL A   1      32.404  23.167  25.615  1.00  0.00     0.101 C 
ATOM     15  C   UNL A   1      31.953  24.511  26.189  1.00  0.00     0.041 C 
ATOM     16  C   UNL A   1      34.708  24.164  25.010  1.00  0.00     0.047 C 
ATOM     17  C   UNL A   1      32.959  25.597  26.126  1.00  0.00    -0.030 C 
ATOM     18  C   UNL A   1      34.176  25.445  25.599  1.00  0.00    -0.030 C 
BRANCH  12  19
ATOM     19  C   UNL A   1      33.654  20.308  24.636  1.00  0.00    -0.024 A 
ATOM     20  C   UNL A   1      34.734  19.414  24.561  1.00  0.00     0.006 A 
ATOM     21  C   UNL A   1      32.409  19.763  25.001  1.00  0.00     0.006 A 
ATOM     22  C   UNL A   1      34.548  18.031  24.626  1.00  0.00     0.000 A 
ATOM     23  C   UNL A   1      32.213  18.377  25.047  1.00  0.00     0.000 A 
ATOM     24  C   UNL A   1      33.277  17.512  24.821  1.00  0.00     0.000 A 
ENDBRANCH  12  19
ENDBRANCH   5   8
ENDBRANCH   3   4
ENDBRANCH   2   3
ENDBRANCH   1   2
BRANCH   1  25
ATOM     25  C   UNL A   1      39.276  20.289  25.826  1.00  0.00     0.116 C 
BRANCH  25  26
ATOM     26  N   UNL A   1      40.191  19.156  25.763  1.00  0.00    -0.352 N 
ATOM     27  C   UNL A   1      41.551  19.185  26.019  1.00  0.00     0.251 C 
ATOM     28  H   UNL A   1      39.804  18.286  25.515  1.00  0.00     0.163 HD
ATOM     29  O   UNL A   1      42.243  18.180  25.908  1.00  0.00    -0.269 OA
BRANCH  27  30
ATOM     30  C   UNL A   1      42.162  20.483  26.382  1.00  0.00     0.039 A 
ATOM     31  C   UNL A   1      42.508  21.386  25.375  1.00  0.00     0.014 A 
ATOM     32  C   UNL A   1      42.256  20.847  27.727  1.00  0.00     0.014 A 
ATOM     33  C   UNL A   1      42.877  22.687  25.723  1.00  0.00     0.010 A 
ATOM     34  C   UNL A   1      42.513  22.170  28.061  1.00  0.00     0.010 A 
ATOM     35  C   UNL A   1      42.845  23.102  27.066  1.00  0.00    -0.014 A 
BRANCH  35  36
ATOM     36  C   UNL A   1      43.201  24.492  27.452  1.00  0.00     0.031 A 
ATOM     37  C   UNL A   1      44.638  24.939  27.389  1.00  0.00     0.074 A 
ATOM     38  C   UNL A   1      42.252  25.338  27.899  1.00  0.00     0.049 A 
ATOM     39  N   UNL A   1      45.157  26.103  27.684  1.00  0.00    -0.248 NA
ATOM     40  C   UNL A   1      45.628  23.931  26.974  1.00  0.00     0.031 C 
ATOM     41  C   UNL A   1      40.836  25.009  28.077  1.00  0.00     0.029 A 
ATOM     42  N   UNL A   1      42.337  26.652  28.287  1.00  0.00    -0.354 N 
ATOM     43  C   UNL A   1      46.528  25.960  27.502  1.00  0.00     0.074 A 
ATOM     44  C   UNL A   1      46.767  24.578  27.154  1.00  0.00     0.031 C 
ATOM     45  C   UNL A   1      40.180  26.103  28.499  1.00  0.00     0.029 A 
ATOM     46  C   UNL A   1      41.130  27.200  28.650  1.00  0.00     0.049 A 
ATOM     47  H   UNL A   1      43.183  27.155  28.303  1.00  0.00     0.167 HD
ATOM     48  C   UNL A   1      47.498  26.900  27.579  1.00  0.00     0.037 A 
ATOM     49  C   UNL A   1      40.826  28.450  29.049  1.00  0.00     0.037 A 
ATOM     50  C   UNL A   1      47.255  28.281  27.902  1.00  0.00     0.049 A 
ATOM     51  C   UNL A   1      41.917  29.485  29.110  1.00  0.00     0.074 A 
ATOM     52  C   UNL A   1      48.157  29.328  27.951  1.00  0.00     0.029 A 
ATOM     53  N   UNL A   1      46.014  28.804  28.237  1.00  0.00    -0.354 N 
ATOM     54  N   UNL A   1      43.197  29.357  28.853  1.00  0.00    -0.248 NA
ATOM     55  C   UNL A   1      41.516  30.844  29.500  1.00  0.00     0.031 C 
ATOM     56  C   UNL A   1      47.472  30.475  28.365  1.00  0.00     0.029 A 
ATOM     57  C   UNL A   1      46.130  30.156  28.510  1.00  0.00     0.049 A 
ATOM     58  H   UNL A   1      45.175  28.289  28.273  1.00  0.00     0.167 HD
ATOM     59  C   UNL A   1      43.746  30.624  29.010  1.00  0.00     0.074 A 
ATOM     60  C   UNL A   1      42.656  31.507  29.372  1.00  0.00     0.031 C 
ATOM     61  C   UNL A   1      45.035  31.023  28.864  1.00  0.00     0.037 A 
BRANCH  48  62
ATOM     62  C   UNL A   1      48.908  26.456  27.304  1.00  0.00     0.057 A 
ATOM     63  C   UNL A   1      49.441  26.437  26.007  1.00  0.00     0.134 A 
ATOM     64  C   UNL A   1      49.743  26.042  28.348  1.00  0.00     0.134 A 
ATOM     65  F   UNL A   1      48.691  26.805  24.957  1.00  0.00    -0.206 F 
ATOM     66  C   UNL A   1      50.738  25.984  25.755  1.00  0.00     0.040 A 
ATOM     67  C   UNL A   1      51.053  25.620  28.112  1.00  0.00     0.040 A 
ATOM     68  F   UNL A   1      49.301  26.038  29.615  1.00  0.00    -0.206 F 
ATOM     69  C   UNL A   1      51.549  25.580  26.811  1.00  0.00     0.006 A 
ENDBRANCH  48  62
BRANCH  49  70
ATOM     70  C   UNL A   1      39.421  28.808  29.374  1.00  0.00     0.057 A 
ATOM     71  C   UNL A   1      38.914  28.652  30.671  1.00  0.00     0.134 A 
ATOM     72  C   UNL A   1      38.547  29.303  28.399  1.00  0.00     0.134 A 
ATOM     73  F   UNL A   1      39.695  28.165  31.647  1.00  0.00    -0.206 F 
ATOM     74  C   UNL A   1      37.585  28.950  30.980  1.00  0.00     0.040 A 
ATOM     75  C   UNL A   1      37.224  29.633  28.699  1.00  0.00     0.040 A 
ATOM     76  F   UNL A   1      38.973  29.486  27.140  1.00  0.00    -0.206 F 
ATOM     77  C   UNL A   1      36.738  29.448  29.993  1.00  0.00     0.006 A 
ENDBRANCH  49  70
BRANCH  61  78
ATOM     78  C   UNL A   1      45.324  32.486  29.041  1.00  0.00     0.057 A 
ATOM     79  C   UNL A   1      45.209  33.405  27.990  1.00  0.00     0.134 A 
ATOM     80  C   UNL A   1      45.708  32.984  30.294  1.00  0.00     0.134 A 
ATOM     81  F   UNL A   1      44.855  32.995  26.762  1.00  0.00    -0.206 F 
ATOM     82  C   UNL A   1      45.504  34.758  28.168  1.00  0.00     0.040 A 
ATOM     83  C   UNL A   1      45.973  34.340  30.493  1.00  0.00     0.040 A 
ATOM     84  F   UNL A   1      45.824  32.162  31.347  1.00  0.00    -0.206 F 
ATOM     85  C   UNL A   1      45.882  35.229  29.424  1.00  0.00     0.006 A 
ENDBRANCH  61  78
ENDBRANCH  35  36
ENDBRANCH  27  30
ENDBRANCH  25  26
ENDBRANCH   1  25
TORSDOF 12
ENDMDL
MODEL 3
REMARK VINA RESULT:     -12.9      3.975      8.505
REMARK SMILES CN1C(=O)[C@@H]2CC=CC[C@]2(C(=O)NCCCCNC(=O)c2ccc(-c3c4nc(c(-c5c(F)cccc5F)c5ccc([nH]5)c(-c5c(F)cccc5F)c5nc(c(-c6c(F)cccc6F)c6ccc3[nH]6)C=C5)C=C4)cc2)[C@H]1c1ccccc1
REMARK SMILES IDX 16 1 15 2 14 3 13 4 11 5 12 6 10 8 1 9 2 10 3 11 75 12 4 13
REMARK SMILES IDX 5 14 6 15 9 16 7 17 8 18 76 19 77 20 81 21 78 22 80 23 79 24
REMARK SMILES IDX 17 25 18 26 19 27 20 29 21 30 22 31 74 32 23 33 73 34 24 35
REMARK SMILES IDX 25 36 26 37 67 38 27 39 72 40 66 41 68 42 28 43 71 44 65 45
REMARK SMILES IDX 64 46 29 48 55 49 38 50 54 51 39 52 42 53 53 54 69 55 40 56
REMARK SMILES IDX 41 57 52 59 70 60 43 61 30 62 31 63 36 64 32 65 33 66 35 67
REMARK SMILES IDX 37 68 34 69 56 70 57 71 62 72 58 73 59 74 61 75 63 76 60 77
REMARK SMILES IDX 44 78 45 79 50 80 46 81 47 82 49 83 51 84 48 85
REMARK H PARENT 13 7 18 28 68 47 42 58
REMARK Flexibility Score: inf
ROOT
ATOM      1  C   UNL A   1      38.788  21.370  25.464  1.00  0.00     0.023 C 
ENDROOT
BRANCH   1   2
ATOM      2  C   UNL A   1      38.378  22.720  26.042  1.00  0.00     0.023 C 
BRANCH   2   3
ATOM      3  C   UNL A   1      36.951  23.182  25.760  1.00  0.00     0.116 C 
BRANCH   3   4
ATOM      4  N   UNL A   1      35.940  23.208  26.819  1.00  0.00    -0.356 N 
ATOM      5  C   UNL A   1      34.547  23.104  26.749  1.00  0.00     0.229 C 
ATOM      6  O   UNL A   1      33.959  22.640  27.727  1.00  0.00    -0.274 OA
ATOM      7  H   UNL A   1      36.299  23.316  27.728  1.00  0.00     0.163 HD
BRANCH   5   8
ATOM      8  C   UNL A   1      33.763  23.697  25.549  1.00  0.00     0.089 C 
ATOM      9  C   UNL A   1      32.722  22.595  22.110  1.00  0.00     0.147 C 
ATOM     10  N   UNL A   1      32.742  22.989  23.503  1.00  0.00    -0.337 N 
ATOM     11  C   UNL A   1      31.738  23.641  24.179  1.00  0.00     0.227 C 
ATOM     12  C   UNL A   1      33.852  22.680  24.350  1.00  0.00     0.131 C 
ATOM     13  O   UNL A   1      30.664  23.952  23.699  1.00  0.00    -0.275 OA
ATOM     14  C   UNL A   1      32.194  23.848  25.631  1.00  0.00     0.101 C 
ATOM     15  C   UNL A   1      31.538  25.112  26.187  1.00  0.00     0.041 C 
ATOM     16  C   UNL A   1      34.440  25.096  25.367  1.00  0.00     0.047 C 
ATOM     17  C   UNL A   1      32.424  26.294  26.293  1.00  0.00    -0.030 C 
ATOM     18  C   UNL A   1      33.707  26.288  25.925  1.00  0.00    -0.030 C 
BRANCH  12  19
ATOM     19  C   UNL A   1      33.849  21.176  24.727  1.00  0.00    -0.024 A 
ATOM     20  C   UNL A   1      35.011  20.387  24.719  1.00  0.00     0.006 A 
ATOM     21  C   UNL A   1      32.633  20.506  24.953  1.00  0.00     0.006 A 
ATOM     22  C   UNL A   1      34.949  18.991  24.714  1.00  0.00     0.000 A 
ATOM     23  C   UNL A   1      32.563  19.107  24.929  1.00  0.00     0.000 A 
ATOM     24  C   UNL A   1      33.720  18.352  24.770  1.00  0.00     0.000 A 
ENDBRANCH  12  19
ENDBRANCH   5   8
ENDBRANCH   3   4
ENDBRANCH   2   3
ENDBRANCH   1   2
BRANCH   1  25
ATOM     25  C   UNL A   1      39.316  20.324  26.438  1.00  0.00     0.116 C 
BRANCH  25  26
ATOM     26  N   UNL A   1      40.342  19.424  25.926  1.00  0.00    -0.352 N 
ATOM     27  C   UNL A   1      41.707  19.653  25.925  1.00  0.00     0.251 C 
ATOM     28  H   UNL A   1      40.035  18.570  25.545  1.00  0.00     0.163 HD
ATOM     29  O   UNL A   1      42.490  18.844  25.441  1.00  0.00    -0.269 OA
BRANCH  27  30
ATOM     30  C   UNL A   1      42.196  20.934  26.481  1.00  0.00     0.039 A 
ATOM     31  C   UNL A   1      42.513  21.983  25.617  1.00  0.00     0.014 A 
ATOM     32  C   UNL A   1      42.204  21.126  27.865  1.00  0.00     0.014 A 
ATOM     33  C   UNL A   1      42.763  23.252  26.145  1.00  0.00     0.010 A 
ATOM     34  C   UNL A   1      42.340  22.409  28.377  1.00  0.00     0.010 A 
ATOM     35  C   UNL A   1      42.639  23.485  27.526  1.00  0.00    -0.014 A 
BRANCH  35  36
ATOM     36  C   UNL A   1      42.867  24.835  28.103  1.00  0.00     0.031 A 
ATOM     37  C   UNL A   1      44.257  25.246  28.514  1.00  0.00     0.074 A 
ATOM     38  C   UNL A   1      41.831  25.673  28.302  1.00  0.00     0.049 A 
ATOM     39  N   UNL A   1      44.666  26.373  29.038  1.00  0.00    -0.248 NA
ATOM     40  C   UNL A   1      45.321  24.243  28.347  1.00  0.00     0.031 C 
ATOM     41  C   UNL A   1      40.427  25.371  28.015  1.00  0.00     0.029 A 
ATOM     42  N   UNL A   1      41.799  26.955  28.792  1.00  0.00    -0.354 N 
ATOM     43  C   UNL A   1      46.026  26.206  29.271  1.00  0.00     0.074 A 
ATOM     44  C   UNL A   1      46.354  24.846  28.912  1.00  0.00     0.031 C 
ATOM     45  C   UNL A   1      39.678  26.451  28.297  1.00  0.00     0.029 A 
ATOM     46  C   UNL A   1      40.542  27.509  28.810  1.00  0.00     0.049 A 
ATOM     47  H   UNL A   1      42.603  27.433  29.102  1.00  0.00     0.167 HD
ATOM     48  C   UNL A   1      46.931  27.113  29.709  1.00  0.00     0.037 A 
ATOM     49  C   UNL A   1      40.136  28.737  29.189  1.00  0.00     0.037 A 
ATOM     50  C   UNL A   1      46.607  28.473  30.044  1.00  0.00     0.049 A 
ATOM     51  C   UNL A   1      41.161  29.736  29.654  1.00  0.00     0.074 A 
ATOM     52  C   UNL A   1      47.456  29.490  30.441  1.00  0.00     0.029 A 
ATOM     53  N   UNL A   1      45.326  29.006  30.022  1.00  0.00    -0.354 N 
ATOM     54  N   UNL A   1      42.457  29.591  29.790  1.00  0.00    -0.248 NA
ATOM     55  C   UNL A   1      40.667  31.075  30.002  1.00  0.00     0.031 C 
ATOM     56  C   UNL A   1      46.682  30.624  30.710  1.00  0.00     0.029 A 
ATOM     57  C   UNL A   1      45.359  30.332  30.417  1.00  0.00     0.049 A 
ATOM     58  H   UNL A   1      44.514  28.512  29.764  1.00  0.00     0.167 HD
ATOM     59  C   UNL A   1      42.938  30.829  30.200  1.00  0.00     0.074 A 
ATOM     60  C   UNL A   1      41.794  31.714  30.277  1.00  0.00     0.031 C 
ATOM     61  C   UNL A   1      44.212  31.202  30.483  1.00  0.00     0.037 A 
BRANCH  48  62
ATOM     62  C   UNL A   1      48.356  26.651  29.845  1.00  0.00     0.057 A 
ATOM     63  C   UNL A   1      48.826  26.023  31.007  1.00  0.00     0.134 A 
ATOM     64  C   UNL A   1      49.269  26.837  28.801  1.00  0.00     0.134 A 
ATOM     65  F   UNL A   1      48.008  25.828  32.054  1.00  0.00    -0.206 F 
ATOM     66  C   UNL A   1      50.160  25.634  31.141  1.00  0.00     0.040 A 
ATOM     67  C   UNL A   1      50.597  26.421  28.909  1.00  0.00     0.040 A 
ATOM     68  F   UNL A   1      48.889  27.428  27.657  1.00  0.00    -0.206 F 
ATOM     69  C   UNL A   1      51.048  25.828  30.087  1.00  0.00     0.006 A 
ENDBRANCH  48  62
BRANCH  49  70
ATOM     70  C   UNL A   1      38.700  29.109  29.096  1.00  0.00     0.057 A 
ATOM     71  C   UNL A   1      38.142  29.549  27.889  1.00  0.00     0.134 A 
ATOM     72  C   UNL A   1      37.854  29.045  30.209  1.00  0.00     0.134 A 
ATOM     73  F   UNL A   1      38.903  29.650  26.790  1.00  0.00    -0.206 F 
ATOM     74  C   UNL A   1      36.803  29.936  27.798  1.00  0.00     0.040 A 
ATOM     75  C   UNL A   1      36.507  29.400  30.127  1.00  0.00     0.040 A 
ATOM     76  F   UNL A   1      38.324  28.621  31.392  1.00  0.00    -0.206 F 
ATOM     77  C   UNL A   1      35.980  29.856  28.920  1.00  0.00     0.006 A 
ENDBRANCH  49  70
BRANCH  61  78
ATOM     78  C   UNL A   1      44.440  32.641  30.847  1.00  0.00     0.057 A 
ATOM     79  C   UNL A   1      44.424  33.089  32.174  1.00  0.00     0.134 A 
ATOM     80  C   UNL A   1      44.699  33.591  29.849  1.00  0.00     0.134 A 
ATOM     81  F   UNL A   1      44.175  32.234  33.179  1.00  0.00    -0.206 F 
ATOM     82  C   UNL A   1      44.617  34.435  32.493  1.00  0.00     0.040 A 
ATOM     83  C   UNL A   1      44.927  34.933  30.157  1.00  0.00     0.040 A 
ATOM     84  F   UNL A   1      44.743  33.229  28.559  1.00  0.00    -0.206 F 
ATOM     85  C   UNL A   1      44.874  35.360  31.483  1.00  0.00     0.006 A 
ENDBRANCH  61  78
ENDBRANCH  35  36
ENDBRANCH  27  30
ENDBRANCH  25  26
ENDBRANCH   1  25
TORSDOF 12
ENDMDL
