MODEL 1
REMARK VINA RESULT:     -12.0      0.000      0.000
REMARK SMILES CCc1nc(C(=O)N2CC[NH+]([C@H](C)C(=O)NCCCCNC(=O)c3ccc(-c4c5nc(c(-c6c(F)cccc6F)c6ccc([nH]6)c(-c6c(F)cccc6F)c6nc(c(-c7c(F)cccc7F)c7ccc4[nH]7)C=C6)C=C5)cc3)CC2)n[nH]1
REMARK SMILES IDX 18 1 17 2 16 3 14 4 15 5 12 7 13 8 11 9 6 10 7 11 8 12 9 13
REMARK SMILES IDX 79 14 10 15 78 16 5 18 3 19 4 20 81 21 80 22 2 24 1 25 19 26
REMARK SMILES IDX 20 27 21 28 22 29 23 31 24 32 25 33 77 34 26 35 76 36 27 37
REMARK SMILES IDX 28 38 29 39 70 40 30 41 75 42 69 43 71 44 31 45 74 46 68 47
REMARK SMILES IDX 67 48 32 50 58 51 41 52 57 53 42 54 45 55 56 56 72 57 43 58
REMARK SMILES IDX 44 59 55 61 73 62 46 63 33 64 34 65 39 66 35 67 36 68 38 69
REMARK SMILES IDX 40 70 37 71 59 72 60 73 65 74 61 75 62 76 64 77 66 78 63 79
REMARK SMILES IDX 47 80 48 81 53 82 49 83 50 84 52 85 54 86 51 87
REMARK H PARENT 16 6 11 17 81 23 21 30 71 49 45 60
REMARK Flexibility Score: inf
ROOT
ATOM      1  C   UNL A   1      36.778  20.975  24.786  1.00  0.00     0.023 C 
ENDROOT
BRANCH   1   2
ATOM      2  C   UNL A   1      35.341  20.612  25.131  1.00  0.00     0.116 C 
BRANCH   2   3
ATOM      3  N   UNL A   1      34.913  21.078  26.433  1.00  0.00    -0.351 N 
ATOM      4  C   UNL A   1      34.386  22.285  26.806  1.00  0.00     0.278 C 
ATOM      5  O   UNL A   1      33.871  22.339  27.929  1.00  0.00    -0.268 OA
ATOM      6  H   UNL A   1      35.015  20.426  27.164  1.00  0.00     0.163 HD
BRANCH   4   7
ATOM      7  C   UNL A   1      34.439  23.537  25.893  1.00  0.00     0.271 C 
ATOM      8  C   UNL A   1      35.865  24.082  25.724  1.00  0.00     0.086 C 
BRANCH   7   9
ATOM      9  N   UNL A   1      33.558  23.462  24.688  1.00  0.00    -0.322 N 
ATOM     10  C   UNL A   1      32.487  25.674  21.513  1.00  0.00     0.293 C 
ATOM     11  O   UNL A   1      33.026  25.578  20.407  1.00  0.00    -0.265 OA
ATOM     12  N   UNL A   1      32.307  24.534  22.306  1.00  0.00    -0.325 N 
ATOM     13  C   UNL A   1      33.274  23.454  22.179  1.00  0.00     0.181 C 
ATOM     14  C   UNL A   1      31.506  24.428  23.523  1.00  0.00     0.181 C 
ATOM     15  C   UNL A   1      34.238  23.545  23.382  1.00  0.00     0.284 C 
ATOM     16  C   UNL A   1      32.411  24.402  24.773  1.00  0.00     0.284 C 
ATOM     17  H   UNL A   1      33.199  22.507  24.716  1.00  0.00     0.348 HD
BRANCH  10  18
ATOM     18  C   UNL A   1      32.124  27.001  22.076  1.00  0.00     0.239 A 
ATOM     19  C   UNL A   1      30.903  28.590  22.818  1.00  0.00     0.124 A 
ATOM     20  N   UNL A   1      30.843  27.533  22.038  1.00  0.00    -0.208 NA
ATOM     21  N   UNL A   1      32.180  28.717  23.278  1.00  0.00    -0.263 N 
ATOM     22  N   UNL A   1      32.968  27.732  22.832  1.00  0.00    -0.148 NA
ATOM     23  H   UNL A   1      32.486  29.444  23.867  1.00  0.00     0.192 HD
BRANCH  19  24
ATOM     24  C   UNL A   1      29.812  29.523  23.207  1.00  0.00     0.073 C 
ATOM     25  C   UNL A   1      28.552  29.325  22.376  1.00  0.00     0.012 C 
ENDBRANCH  19  24
ENDBRANCH  10  18
ENDBRANCH   7   9
ENDBRANCH   4   7
ENDBRANCH   2   3
ENDBRANCH   1   2
BRANCH   1  26
ATOM     26  C   UNL A   1      37.794  19.850  24.968  1.00  0.00     0.023 C 
BRANCH  26  27
ATOM     27  C   UNL A   1      39.053  20.211  25.751  1.00  0.00     0.116 C 
BRANCH  27  28
ATOM     28  N   UNL A   1      40.038  19.141  25.794  1.00  0.00    -0.352 N 
ATOM     29  C   UNL A   1      41.392  19.199  26.045  1.00  0.00     0.251 C 
ATOM     30  H   UNL A   1      39.685  18.239  25.617  1.00  0.00     0.163 HD
ATOM     31  O   UNL A   1      42.086  18.203  25.934  1.00  0.00    -0.269 OA
BRANCH  29  32
ATOM     32  C   UNL A   1      42.010  20.496  26.402  1.00  0.00     0.039 A 
ATOM     33  C   UNL A   1      42.475  21.320  25.375  1.00  0.00     0.014 A 
ATOM     34  C   UNL A   1      42.088  20.912  27.732  1.00  0.00     0.014 A 
ATOM     35  C   UNL A   1      42.926  22.606  25.674  1.00  0.00     0.010 A 
ATOM     36  C   UNL A   1      42.459  22.223  28.020  1.00  0.00     0.010 A 
ATOM     37  C   UNL A   1      42.869  23.086  26.993  1.00  0.00    -0.014 A 
BRANCH  37  38
ATOM     38  C   UNL A   1      43.219  24.493  27.317  1.00  0.00     0.031 A 
ATOM     39  C   UNL A   1      44.655  24.937  27.295  1.00  0.00     0.074 A 
ATOM     40  C   UNL A   1      42.253  25.349  27.705  1.00  0.00     0.049 A 
ATOM     41  N   UNL A   1      45.169  26.088  27.645  1.00  0.00    -0.248 NA
ATOM     42  C   UNL A   1      45.648  23.947  26.847  1.00  0.00     0.031 C 
ATOM     43  C   UNL A   1      40.828  25.028  27.820  1.00  0.00     0.029 A 
ATOM     44  N   UNL A   1      42.326  26.665  28.089  1.00  0.00    -0.354 N 
ATOM     45  C   UNL A   1      46.540  25.957  27.470  1.00  0.00     0.074 A 
ATOM     46  C   UNL A   1      46.785  24.598  27.036  1.00  0.00     0.031 C 
ATOM     47  C   UNL A   1      40.162  26.119  28.230  1.00  0.00     0.029 A 
ATOM     48  C   UNL A   1      41.113  27.206  28.442  1.00  0.00     0.049 A 
ATOM     49  H   UNL A   1      43.168  27.175  28.110  1.00  0.00     0.167 HD
ATOM     50  C   UNL A   1      47.507  26.891  27.628  1.00  0.00     0.037 A 
ATOM     51  C   UNL A   1      40.803  28.436  28.896  1.00  0.00     0.037 A 
ATOM     52  C   UNL A   1      47.264  28.250  28.034  1.00  0.00     0.049 A 
ATOM     53  C   UNL A   1      41.897  29.455  29.060  1.00  0.00     0.074 A 
ATOM     54  C   UNL A   1      48.175  29.281  28.191  1.00  0.00     0.029 A 
ATOM     55  N   UNL A   1      46.016  28.769  28.342  1.00  0.00    -0.354 N 
ATOM     56  N   UNL A   1      43.183  29.330  28.841  1.00  0.00    -0.248 NA
ATOM     57  C   UNL A   1      41.494  30.790  29.528  1.00  0.00     0.031 C 
ATOM     58  C   UNL A   1      47.481  30.417  28.618  1.00  0.00     0.029 A 
ATOM     59  C   UNL A   1      46.134  30.104  28.692  1.00  0.00     0.049 A 
ATOM     60  H   UNL A   1      45.172  28.264  28.316  1.00  0.00     0.167 HD
ATOM     61  C   UNL A   1      43.737  30.573  29.114  1.00  0.00     0.074 A 
ATOM     62  C   UNL A   1      42.647  31.443  29.502  1.00  0.00     0.031 C 
ATOM     63  C   UNL A   1      45.035  30.959  29.055  1.00  0.00     0.037 A 
BRANCH  50  64
ATOM     64  C   UNL A   1      48.920  26.480  27.337  1.00  0.00     0.057 A 
ATOM     65  C   UNL A   1      49.759  25.986  28.345  1.00  0.00     0.134 A 
ATOM     66  C   UNL A   1      49.434  26.537  26.037  1.00  0.00     0.134 A 
ATOM     67  F   UNL A   1      49.331  25.920  29.615  1.00  0.00    -0.206 F 
ATOM     68  C   UNL A   1      51.066  25.580  28.072  1.00  0.00     0.040 A 
ATOM     69  C   UNL A   1      50.731  26.109  25.746  1.00  0.00     0.040 A 
ATOM     70  F   UNL A   1      48.681  26.995  25.025  1.00  0.00    -0.206 F 
ATOM     71  C   UNL A   1      51.552  25.633  26.767  1.00  0.00     0.006 A 
ENDBRANCH  50  64
BRANCH  51  72
ATOM     72  C   UNL A   1      39.396  28.783  29.222  1.00  0.00     0.057 A 
ATOM     73  C   UNL A   1      38.550  29.345  28.258  1.00  0.00     0.134 A 
ATOM     74  C   UNL A   1      38.876  28.594  30.507  1.00  0.00     0.134 A 
ATOM     75  F   UNL A   1      38.999  29.568  27.014  1.00  0.00    -0.206 F 
ATOM     76  C   UNL A   1      37.246  29.734  28.568  1.00  0.00     0.040 A 
ATOM     77  C   UNL A   1      37.564  28.955  30.824  1.00  0.00     0.040 A 
ATOM     78  F   UNL A   1      39.632  28.053  31.472  1.00  0.00    -0.206 F 
ATOM     79  C   UNL A   1      36.749  29.536  29.855  1.00  0.00     0.006 A 
ENDBRANCH  51  72
BRANCH  63  80
ATOM     80  C   UNL A   1      45.339  32.392  29.373  1.00  0.00     0.057 A 
ATOM     81  C   UNL A   1      45.287  33.393  28.396  1.00  0.00     0.134 A 
ATOM     82  C   UNL A   1      45.650  32.779  30.683  1.00  0.00     0.134 A 
ATOM     83  F   UNL A   1      45.008  33.085  27.120  1.00  0.00    -0.206 F 
ATOM     84  C   UNL A   1      45.555  34.727  28.706  1.00  0.00     0.040 A 
ATOM     85  C   UNL A   1      45.896  34.113  31.010  1.00  0.00     0.040 A 
ATOM     86  F   UNL A   1      45.708  31.869  31.667  1.00  0.00    -0.206 F 
ATOM     87  C   UNL A   1      45.853  35.091  30.019  1.00  0.00     0.006 A 
ENDBRANCH  63  80
ENDBRANCH  37  38
ENDBRANCH  29  32
ENDBRANCH  27  28
ENDBRANCH  26  27
ENDBRANCH   1  26
TORSDOF 14
ENDMDL
MODEL 2
REMARK VINA RESULT:     -12.0      1.276      6.238
REMARK SMILES CCc1nc(C(=O)N2CC[NH+]([C@H](C)C(=O)NCCCCNC(=O)c3ccc(-c4c5nc(c(-c6c(F)cccc6F)c6ccc([nH]6)c(-c6c(F)cccc6F)c6nc(c(-c7c(F)cccc7F)c7ccc4[nH]7)C=C6)C=C5)cc3)CC2)n[nH]1
REMARK SMILES IDX 18 1 17 2 16 3 14 4 15 5 12 7 13 8 11 9 6 10 7 11 8 12 9 13
REMARK SMILES IDX 79 14 10 15 78 16 5 18 3 19 4 20 81 21 80 22 2 24 1 25 19 26
REMARK SMILES IDX 20 27 21 28 22 29 23 31 24 32 25 33 77 34 26 35 76 36 27 37
REMARK SMILES IDX 28 38 29 39 70 40 30 41 75 42 69 43 71 44 31 45 74 46 68 47
REMARK SMILES IDX 67 48 32 50 58 51 41 52 57 53 42 54 45 55 56 56 72 57 43 58
REMARK SMILES IDX 44 59 55 61 73 62 46 63 33 64 34 65 39 66 35 67 36 68 38 69
REMARK SMILES IDX 40 70 37 71 59 72 60 73 65 74 61 75 62 76 64 77 66 78 63 79
REMARK SMILES IDX 47 80 48 81 53 82 49 83 50 84 52 85 54 86 51 87
REMARK H PARENT 16 6 11 17 81 23 21 30 71 49 45 60
REMARK Flexibility Score: inf
ROOT
ATOM      1  C   UNL A   1      36.349  19.936  24.964  1.00  0.00     0.023 C 
ENDROOT
BRANCH   1   2
ATOM      2  C   UNL A   1      34.952  20.519  25.111  1.00  0.00     0.116 C 
BRANCH   2   3
ATOM      3  N   UNL A   1      34.666  21.039  26.432  1.00  0.00    -0.351 N 
ATOM      4  C   UNL A   1      34.296  22.298  26.821  1.00  0.00     0.278 C 
ATOM      5  O   UNL A   1      33.869  22.414  27.975  1.00  0.00    -0.268 OA
ATOM      6  H   UNL A   1      34.750  20.385  27.163  1.00  0.00     0.163 HD
BRANCH   4   7
ATOM      7  C   UNL A   1      34.417  23.529  25.887  1.00  0.00     0.271 C 
ATOM      8  C   UNL A   1      35.864  24.029  25.756  1.00  0.00     0.086 C 
BRANCH   7   9
ATOM      9  N   UNL A   1      33.574  23.457  24.655  1.00  0.00    -0.322 N 
ATOM     10  C   UNL A   1      32.435  25.751  21.562  1.00  0.00     0.293 C 
ATOM     11  O   UNL A   1      33.008  25.748  20.470  1.00  0.00    -0.265 OA
ATOM     12  N   UNL A   1      32.314  24.562  22.293  1.00  0.00    -0.325 N 
ATOM     13  C   UNL A   1      33.356  23.558  22.141  1.00  0.00     0.181 C 
ATOM     14  C   UNL A   1      31.491  24.340  23.479  1.00  0.00     0.181 C 
ATOM     15  C   UNL A   1      34.280  23.652  23.375  1.00  0.00     0.284 C 
ATOM     16  C   UNL A   1      32.364  24.311  24.753  1.00  0.00     0.284 C 
ATOM     17  H   UNL A   1      33.281  22.479  24.625  1.00  0.00     0.348 HD
BRANCH  10  18
ATOM     18  C   UNL A   1      31.967  27.020  22.179  1.00  0.00     0.239 A 
ATOM     19  C   UNL A   1      30.622  28.544  22.837  1.00  0.00     0.124 A 
ATOM     20  N   UNL A   1      30.714  27.573  21.957  1.00  0.00    -0.208 NA
ATOM     21  N   UNL A   1      31.789  28.605  23.539  1.00  0.00    -0.263 N 
ATOM     22  N   UNL A   1      32.650  27.658  23.151  1.00  0.00    -0.148 NA
ATOM     23  H   UNL A   1      31.975  29.265  24.246  1.00  0.00     0.192 HD
BRANCH  19  24
ATOM     24  C   UNL A   1      29.473  29.450  23.107  1.00  0.00     0.073 C 
ATOM     25  C   UNL A   1      28.132  28.739  22.996  1.00  0.00     0.012 C 
ENDBRANCH  19  24
ENDBRANCH  10  18
ENDBRANCH   7   9
ENDBRANCH   4   7
ENDBRANCH   2   3
ENDBRANCH   1   2
BRANCH   1  26
ATOM     26  C   UNL A   1      37.447  20.950  24.653  1.00  0.00     0.023 C 
BRANCH  26  27
ATOM     27  C   UNL A   1      38.572  21.047  25.680  1.00  0.00     0.116 C 
BRANCH  27  28
ATOM     28  N   UNL A   1      39.508  19.933  25.625  1.00  0.00    -0.352 N 
ATOM     29  C   UNL A   1      40.837  19.880  25.987  1.00  0.00     0.251 C 
ATOM     30  H   UNL A   1      39.136  19.091  25.277  1.00  0.00     0.163 HD
ATOM     31  O   UNL A   1      41.497  18.879  25.770  1.00  0.00    -0.269 OA
BRANCH  29  32
ATOM     32  C   UNL A   1      41.472  21.069  26.596  1.00  0.00     0.039 A 
ATOM     33  C   UNL A   1      42.043  22.027  25.755  1.00  0.00     0.014 A 
ATOM     34  C   UNL A   1      41.465  21.259  27.979  1.00  0.00     0.014 A 
ATOM     35  C   UNL A   1      42.517  23.224  26.295  1.00  0.00     0.010 A 
ATOM     36  C   UNL A   1      41.859  22.485  28.506  1.00  0.00     0.010 A 
ATOM     37  C   UNL A   1      42.378  23.484  27.668  1.00  0.00    -0.014 A 
BRANCH  37  38
ATOM     38  C   UNL A   1      42.753  24.800  28.245  1.00  0.00     0.031 A 
ATOM     39  C   UNL A   1      41.710  25.866  28.432  1.00  0.00     0.074 A 
ATOM     40  C   UNL A   1      44.044  25.061  28.529  1.00  0.00     0.049 A 
ATOM     41  N   UNL A   1      41.858  27.107  28.822  1.00  0.00    -0.248 NA
ATOM     42  C   UNL A   1      40.322  25.498  28.113  1.00  0.00     0.031 C 
ATOM     43  C   UNL A   1      45.161  24.131  28.342  1.00  0.00     0.029 A 
ATOM     44  N   UNL A   1      44.640  26.195  29.023  1.00  0.00    -0.354 N 
ATOM     45  C   UNL A   1      40.587  27.667  28.784  1.00  0.00     0.074 A 
ATOM     46  C   UNL A   1      39.690  26.650  28.281  1.00  0.00     0.031 C 
ATOM     47  C   UNL A   1      46.300  24.726  28.730  1.00  0.00     0.029 A 
ATOM     48  C   UNL A   1      46.004  26.089  29.159  1.00  0.00     0.049 A 
ATOM     49  H   UNL A   1      44.138  27.009  29.258  1.00  0.00     0.167 HD
ATOM     50  C   UNL A   1      40.197  28.907  29.161  1.00  0.00     0.037 A 
ATOM     51  C   UNL A   1      46.914  26.992  29.572  1.00  0.00     0.037 A 
ATOM     52  C   UNL A   1      41.084  29.912  29.686  1.00  0.00     0.049 A 
ATOM     53  C   UNL A   1      46.452  28.363  29.988  1.00  0.00     0.074 A 
ATOM     54  C   UNL A   1      40.778  31.188  30.127  1.00  0.00     0.029 A 
ATOM     55  N   UNL A   1      42.452  29.750  29.847  1.00  0.00    -0.354 N 
ATOM     56  N   UNL A   1      45.239  28.860  29.994  1.00  0.00    -0.248 NA
ATOM     57  C   UNL A   1      47.486  29.295  30.460  1.00  0.00     0.031 C 
ATOM     58  C   UNL A   1      41.964  31.807  30.531  1.00  0.00     0.029 A 
ATOM     59  C   UNL A   1      43.003  30.904  30.377  1.00  0.00     0.049 A 
ATOM     60  H   UNL A   1      42.955  28.936  29.619  1.00  0.00     0.167 HD
ATOM     61  C   UNL A   1      45.360  30.148  30.498  1.00  0.00     0.074 A 
ATOM     62  C   UNL A   1      46.761  30.352  30.798  1.00  0.00     0.031 C 
ATOM     63  C   UNL A   1      44.397  31.081  30.689  1.00  0.00     0.037 A 
BRANCH  50  64
ATOM     64  C   UNL A   1      38.740  29.240  29.041  1.00  0.00     0.057 A 
ATOM     65  C   UNL A   1      38.167  29.576  27.807  1.00  0.00     0.134 A 
ATOM     66  C   UNL A   1      37.894  29.183  30.154  1.00  0.00     0.134 A 
ATOM     67  F   UNL A   1      38.927  29.662  26.705  1.00  0.00    -0.206 F 
ATOM     68  C   UNL A   1      36.806  29.863  27.689  1.00  0.00     0.040 A 
ATOM     69  C   UNL A   1      36.526  29.441  30.044  1.00  0.00     0.040 A 
ATOM     70  F   UNL A   1      38.378  28.863  31.364  1.00  0.00    -0.206 F 
ATOM     71  C   UNL A   1      35.980  29.787  28.808  1.00  0.00     0.006 A 
ENDBRANCH  50  64
BRANCH  51  72
ATOM     72  C   UNL A   1      48.354  26.636  29.626  1.00  0.00     0.057 A 
ATOM     73  C   UNL A   1      49.211  26.926  28.557  1.00  0.00     0.134 A 
ATOM     74  C   UNL A   1      48.901  25.970  30.729  1.00  0.00     0.134 A 
ATOM     75  F   UNL A   1      48.740  27.544  27.464  1.00  0.00    -0.206 F 
ATOM     76  C   UNL A   1      50.552  26.540  28.569  1.00  0.00     0.040 A 
ATOM     77  C   UNL A   1      50.247  25.601  30.765  1.00  0.00     0.040 A 
ATOM     78  F   UNL A   1      48.136  25.671  31.788  1.00  0.00    -0.206 F 
ATOM     79  C   UNL A   1      51.074  25.877  29.678  1.00  0.00     0.006 A 
ENDBRANCH  51  72
BRANCH  63  80
ATOM     80  C   UNL A   1      44.818  32.388  31.290  1.00  0.00     0.057 A 
ATOM     81  C   UNL A   1      45.206  33.475  30.497  1.00  0.00     0.134 A 
ATOM     82  C   UNL A   1      44.798  32.572  32.678  1.00  0.00     0.134 A 
ATOM     83  F   UNL A   1      45.259  33.358  29.161  1.00  0.00    -0.206 F 
ATOM     84  C   UNL A   1      45.579  34.694  31.066  1.00  0.00     0.040 A 
ATOM     85  C   UNL A   1      45.146  33.793  33.257  1.00  0.00     0.040 A 
ATOM     86  F   UNL A   1      44.428  31.572  33.493  1.00  0.00    -0.206 F 
ATOM     87  C   UNL A   1      45.543  34.857  32.450  1.00  0.00     0.006 A 
ENDBRANCH  63  80
ENDBRANCH  37  38
ENDBRANCH  29  32
ENDBRANCH  27  28
ENDBRANCH  26  27
ENDBRANCH   1  26
TORSDOF 14
ENDMDL
MODEL 3
REMARK VINA RESULT:     -12.0      4.969     10.212
REMARK SMILES CCc1nc(C(=O)N2CC[NH+]([C@H](C)C(=O)NCCCCNC(=O)c3ccc(-c4c5nc(c(-c6c(F)cccc6F)c6ccc([nH]6)c(-c6c(F)cccc6F)c6nc(c(-c7c(F)cccc7F)c7ccc4[nH]7)C=C6)C=C5)cc3)CC2)n[nH]1
REMARK SMILES IDX 18 1 17 2 16 3 14 4 15 5 12 7 13 8 11 9 6 10 7 11 8 12 9 13
REMARK SMILES IDX 79 14 10 15 78 16 5 18 3 19 4 20 81 21 80 22 2 24 1 25 19 26
REMARK SMILES IDX 20 27 21 28 22 29 23 31 24 32 25 33 77 34 26 35 76 36 27 37
REMARK SMILES IDX 28 38 29 39 70 40 30 41 75 42 69 43 71 44 31 45 74 46 68 47
REMARK SMILES IDX 67 48 32 50 58 51 41 52 57 53 42 54 45 55 56 56 72 57 43 58
REMARK SMILES IDX 44 59 55 61 73 62 46 63 33 64 34 65 39 66 35 67 36 68 38 69
REMARK SMILES IDX 40 70 37 71 59 72 60 73 65 74 61 75 62 76 64 77 66 78 63 79
REMARK SMILES IDX 47 80 48 81 53 82 49 83 50 84 52 85 54 86 51 87
REMARK H PARENT 16 6 11 17 81 23 21 30 71 49 45 60
REMARK Flexibility Score: inf
ROOT
ATOM      1  C   UNL A   1      31.795  30.482  26.562  1.00  0.00     0.023 C 
ENDROOT
BRANCH   1   2
ATOM      2  C   UNL A   1      31.407  29.908  25.207  1.00  0.00     0.116 C 
BRANCH   2   3
ATOM      3  N   UNL A   1      32.511  29.798  24.277  1.00  0.00    -0.351 N 
ATOM      4  C   UNL A   1      33.316  28.729  23.990  1.00  0.00     0.278 C 
ATOM      5  O   UNL A   1      34.019  28.825  22.978  1.00  0.00    -0.268 OA
ATOM      6  H   UNL A   1      32.713  30.619  23.772  1.00  0.00     0.163 HD
BRANCH   4   7
ATOM      7  C   UNL A   1      33.375  27.465  24.885  1.00  0.00     0.271 C 
ATOM      8  C   UNL A   1      34.001  27.744  26.259  1.00  0.00     0.086 C 
BRANCH   7   9
ATOM      9  N   UNL A   1      32.154  26.604  24.820  1.00  0.00    -0.322 N 
ATOM     10  C   UNL A   1      30.702  23.198  26.373  1.00  0.00     0.293 C 
ATOM     11  O   UNL A   1      29.965  23.164  27.362  1.00  0.00    -0.265 OA
ATOM     12  N   UNL A   1      30.593  24.248  25.453  1.00  0.00    -0.325 N 
ATOM     13  C   UNL A   1      30.158  25.546  25.947  1.00  0.00     0.181 C 
ATOM     14  C   UNL A   1      31.220  24.332  24.137  1.00  0.00     0.181 C 
ATOM     15  C   UNL A   1      31.410  26.439  26.083  1.00  0.00     0.284 C 
ATOM     16  C   UNL A   1      32.424  25.299  24.165  1.00  0.00     0.284 C 
ATOM     17  H   UNL A   1      31.518  27.139  24.229  1.00  0.00     0.348 HD
BRANCH  10  18
ATOM     18  C   UNL A   1      31.790  22.201  26.194  1.00  0.00     0.239 A 
ATOM     19  C   UNL A   1      32.899  20.586  25.342  1.00  0.00     0.124 A 
ATOM     20  N   UNL A   1      31.677  21.065  25.405  1.00  0.00    -0.208 NA
ATOM     21  N   UNL A   1      33.715  21.376  26.095  1.00  0.00    -0.263 N 
ATOM     22  N   UNL A   1      33.047  22.400  26.640  1.00  0.00    -0.148 NA
ATOM     23  H   UNL A   1      34.678  21.215  26.223  1.00  0.00     0.192 HD
BRANCH  19  24
ATOM     24  C   UNL A   1      33.399  19.409  24.582  1.00  0.00     0.073 C 
ATOM     25  C   UNL A   1      32.451  18.989  23.468  1.00  0.00     0.012 C 
ENDBRANCH  19  24
ENDBRANCH  10  18
ENDBRANCH   7   9
ENDBRANCH   4   7
ENDBRANCH   2   3
ENDBRANCH   1   2
BRANCH   1  26
ATOM     26  C   UNL A   1      31.567  31.983  26.722  1.00  0.00     0.023 C 
BRANCH  26  27
ATOM     27  C   UNL A   1      32.757  32.784  27.241  1.00  0.00     0.116 C 
BRANCH  27  28
ATOM     28  N   UNL A   1      32.416  34.142  27.639  1.00  0.00    -0.352 N 
ATOM     29  C   UNL A   1      33.000  34.957  28.584  1.00  0.00     0.251 C 
ATOM     30  H   UNL A   1      31.653  34.538  27.160  1.00  0.00     0.163 HD
ATOM     31  O   UNL A   1      32.508  36.038  28.858  1.00  0.00    -0.269 OA
BRANCH  29  32
ATOM     32  C   UNL A   1      34.204  34.487  29.304  1.00  0.00     0.039 A 
ATOM     33  C   UNL A   1      34.040  33.847  30.534  1.00  0.00     0.014 A 
ATOM     34  C   UNL A   1      35.477  34.637  28.751  1.00  0.00     0.014 A 
ATOM     35  C   UNL A   1      35.143  33.265  31.162  1.00  0.00     0.010 A 
ATOM     36  C   UNL A   1      36.560  33.986  29.334  1.00  0.00     0.010 A 
ATOM     37  C   UNL A   1      36.402  33.284  30.538  1.00  0.00    -0.014 A 
BRANCH  37  38
ATOM     38  C   UNL A   1      37.562  32.561  31.121  1.00  0.00     0.031 A 
ATOM     39  C   UNL A   1      38.193  33.052  32.394  1.00  0.00     0.074 A 
ATOM     40  C   UNL A   1      38.092  31.511  30.465  1.00  0.00     0.049 A 
ATOM     41  N   UNL A   1      39.270  32.621  33.001  1.00  0.00    -0.248 NA
ATOM     42  C   UNL A   1      37.546  34.195  33.057  1.00  0.00     0.031 C 
ATOM     43  C   UNL A   1      37.606  30.970  29.192  1.00  0.00     0.029 A 
ATOM     44  N   UNL A   1      39.170  30.717  30.769  1.00  0.00    -0.354 N 
ATOM     45  C   UNL A   1      39.432  33.444  34.107  1.00  0.00     0.074 A 
ATOM     46  C   UNL A   1      38.379  34.434  34.059  1.00  0.00     0.031 C 
ATOM     47  C   UNL A   1      38.372  29.926  28.836  1.00  0.00     0.029 A 
ATOM     48  C   UNL A   1      39.424  29.745  29.831  1.00  0.00     0.049 A 
ATOM     49  H   UNL A   1      39.711  30.833  31.584  1.00  0.00     0.167 HD
ATOM     50  C   UNL A   1      40.359  33.366  35.092  1.00  0.00     0.037 A 
ATOM     51  C   UNL A   1      40.401  28.819  29.774  1.00  0.00     0.037 A 
ATOM     52  C   UNL A   1      41.392  32.366  35.156  1.00  0.00     0.049 A 
ATOM     53  C   UNL A   1      41.416  28.754  30.883  1.00  0.00     0.074 A 
ATOM     54  C   UNL A   1      42.357  32.185  36.131  1.00  0.00     0.029 A 
ATOM     55  N   UNL A   1      41.589  31.374  34.207  1.00  0.00    -0.354 N 
ATOM     56  N   UNL A   1      41.525  29.508  31.949  1.00  0.00    -0.248 NA
ATOM     57  C   UNL A   1      42.439  27.702  30.783  1.00  0.00     0.031 C 
ATOM     58  C   UNL A   1      43.155  31.098  35.759  1.00  0.00     0.029 A 
ATOM     59  C   UNL A   1      42.663  30.580  34.573  1.00  0.00     0.049 A 
ATOM     60  H   UNL A   1      41.046  31.253  33.396  1.00  0.00     0.167 HD
ATOM     61  C   UNL A   1      42.607  29.005  32.660  1.00  0.00     0.074 A 
ATOM     62  C   UNL A   1      43.112  27.874  31.912  1.00  0.00     0.031 C 
ATOM     63  C   UNL A   1      43.138  29.446  33.826  1.00  0.00     0.037 A 
BRANCH  50  64
ATOM     64  C   UNL A   1      40.282  34.379  36.195  1.00  0.00     0.057 A 
ATOM     65  C   UNL A   1      41.018  35.571  36.145  1.00  0.00     0.134 A 
ATOM     66  C   UNL A   1      39.437  34.185  37.294  1.00  0.00     0.134 A 
ATOM     67  F   UNL A   1      41.856  35.809  35.125  1.00  0.00    -0.206 F 
ATOM     68  C   UNL A   1      40.929  36.525  37.159  1.00  0.00     0.040 A 
ATOM     69  C   UNL A   1      39.320  35.144  38.301  1.00  0.00     0.040 A 
ATOM     70  F   UNL A   1      38.702  33.068  37.400  1.00  0.00    -0.206 F 
ATOM     71  C   UNL A   1      40.071  36.317  38.237  1.00  0.00     0.006 A 
ENDBRANCH  50  64
BRANCH  51  72
ATOM     72  C   UNL A   1      40.469  27.869  28.635  1.00  0.00     0.057 A 
ATOM     73  C   UNL A   1      41.217  28.166  27.490  1.00  0.00     0.134 A 
ATOM     74  C   UNL A   1      39.764  26.660  28.650  1.00  0.00     0.134 A 
ATOM     75  F   UNL A   1      41.898  29.319  27.410  1.00  0.00    -0.206 F 
ATOM     76  C   UNL A   1      41.239  27.311  26.388  1.00  0.00     0.040 A 
ATOM     77  C   UNL A   1      39.798  25.782  27.565  1.00  0.00     0.040 A 
ATOM     78  F   UNL A   1      39.036  26.313  29.720  1.00  0.00    -0.206 F 
ATOM     79  C   UNL A   1      40.528  26.112  26.425  1.00  0.00     0.006 A 
ENDBRANCH  51  72
BRANCH  63  80
ATOM     80  C   UNL A   1      44.296  28.675  34.386  1.00  0.00     0.057 A 
ATOM     81  C   UNL A   1      45.622  29.015  34.089  1.00  0.00     0.134 A 
ATOM     82  C   UNL A   1      44.081  27.605  35.263  1.00  0.00     0.134 A 
ATOM     83  F   UNL A   1      45.894  30.022  33.245  1.00  0.00    -0.206 F 
ATOM     84  C   UNL A   1      46.694  28.303  34.630  1.00  0.00     0.040 A 
ATOM     85  C   UNL A   1      45.145  26.901  35.828  1.00  0.00     0.040 A 
ATOM     86  F   UNL A   1      42.835  27.234  35.593  1.00  0.00    -0.206 F 
ATOM     87  C   UNL A   1      46.456  27.247  35.508  1.00  0.00     0.006 A 
ENDBRANCH  63  80
ENDBRANCH  37  38
ENDBRANCH  29  32
ENDBRANCH  27  28
ENDBRANCH  26  27
ENDBRANCH   1  26
TORSDOF 14
ENDMDL
