MODEL 1
REMARK VINA RESULT:     -13.2      0.000      0.000
REMARK SMILES O=C(NCCCCNC(=O)c1ccc(-n2cc(CSc3nc4ccccc4c(=O)n3-c3ccc(Cl)cc3)nn2)cc1)c1ccc(-c2c3nc(c(-c4c(F)cccc4F)c4ccc([nH]4)c(-c4c(F)cccc4F)c4nc(c(-c5c(F)cccc5F)c5ccc2[nH]5)C=C4)C=C3)cc1
REMARK SMILES IDX 7 1 6 2 5 3 4 4 3 5 1 6 2 7 42 9 43 10 95 11 44 12 94 13
REMARK SMILES IDX 45 14 46 15 47 16 88 17 48 18 93 19 87 20 89 21 49 22 92 23
REMARK SMILES IDX 86 24 85 25 50 27 76 28 59 29 75 30 60 31 63 32 74 33 90 34
REMARK SMILES IDX 61 35 62 36 73 38 91 39 64 40 51 41 52 42 57 43 53 44 54 45
REMARK SMILES IDX 56 46 58 47 55 48 77 49 78 50 83 51 79 52 80 53 82 54 84 55
REMARK SMILES IDX 81 56 65 57 66 58 71 59 67 60 68 61 70 62 72 63 69 64 8 65
REMARK SMILES IDX 9 66 10 68 11 69 12 70 41 71 13 72 40 73 14 74 15 75 16 76
REMARK SMILES IDX 39 77 17 78 38 79 18 80 19 81 20 82 21 83 30 84 22 85 28 86
REMARK SMILES IDX 23 87 27 88 29 89 24 90 26 91 25 92 31 93 32 94 37 95 33 96
REMARK SMILES IDX 36 97 34 98 35 99
REMARK H PARENT 3 8 89 26 63 37 8 67
REMARK Flexibility Score: inf
ROOT
ATOM      1  C   UNL A   1      32.155  30.552  26.116  1.00  0.00     0.116 C 
ENDROOT
BRANCH   1   2
ATOM      2  C   UNL A   1      32.047  29.365  27.069  1.00  0.00     0.023 C 
BRANCH   2   3
ATOM      3  C   UNL A   1      33.202  28.362  27.020  1.00  0.00     0.023 C 
BRANCH   3   4
ATOM      4  C   UNL A   1      34.600  28.956  27.189  1.00  0.00     0.116 C 
BRANCH   4   5
ATOM      5  N   UNL A   1      34.795  29.745  28.388  1.00  0.00    -0.352 N 
ATOM      6  O   UNL A   1      35.670  31.019  29.968  1.00  0.00    -0.269 OA
ATOM      7  C   UNL A   1      35.888  30.195  29.076  1.00  0.00     0.251 C 
ATOM      8  H   UNL A   1      33.947  30.021  28.803  1.00  0.00     0.163 HD
BRANCH   7   9
ATOM      9  C   UNL A   1      37.284  29.717  28.875  1.00  0.00     0.039 A 
ATOM     10  C   UNL A   1      38.068  29.938  27.743  1.00  0.00     0.014 A 
ATOM     11  C   UNL A   1      37.829  28.967  29.935  1.00  0.00     0.014 A 
ATOM     12  C   UNL A   1      39.329  29.357  27.636  1.00  0.00     0.010 A 
ATOM     13  C   UNL A   1      39.094  28.396  29.841  1.00  0.00     0.010 A 
ATOM     14  C   UNL A   1      39.833  28.570  28.675  1.00  0.00    -0.014 A 
BRANCH  14  15
ATOM     15  C   UNL A   1      41.219  28.112  28.587  1.00  0.00     0.031 A 
ATOM     16  C   UNL A   1      41.394  26.817  27.869  1.00  0.00     0.074 A 
ATOM     17  C   UNL A   1      42.285  28.855  28.947  1.00  0.00     0.049 A 
ATOM     18  N   UNL A   1      41.917  25.718  28.308  1.00  0.00    -0.248 NA
ATOM     19  C   UNL A   1      40.829  26.708  26.513  1.00  0.00     0.031 C 
ATOM     20  C   UNL A   1      42.294  30.258  29.366  1.00  0.00     0.029 A 
ATOM     21  N   UNL A   1      43.613  28.537  28.907  1.00  0.00    -0.354 N 
ATOM     22  C   UNL A   1      41.921  24.838  27.226  1.00  0.00     0.074 A 
ATOM     23  C   UNL A   1      41.110  25.442  26.205  1.00  0.00     0.031 C 
ATOM     24  C   UNL A   1      43.562  30.724  29.331  1.00  0.00     0.029 A 
ATOM     25  C   UNL A   1      44.465  29.631  29.006  1.00  0.00     0.049 A 
ATOM     26  H   UNL A   1      43.938  27.612  28.814  1.00  0.00     0.167 HD
ATOM     27  C   UNL A   1      42.789  23.791  27.166  1.00  0.00     0.037 A 
ATOM     28  C   UNL A   1      45.803  29.651  28.777  1.00  0.00     0.037 A 
ATOM     29  C   UNL A   1      43.293  23.447  28.471  1.00  0.00     0.049 A 
ATOM     30  C   UNL A   1      46.299  28.257  28.838  1.00  0.00     0.074 A 
ATOM     31  C   UNL A   1      42.726  23.065  29.672  1.00  0.00     0.029 A 
ATOM     32  N   UNL A   1      44.588  23.784  28.768  1.00  0.00    -0.354 N 
ATOM     33  N   UNL A   1      46.389  27.555  29.931  1.00  0.00    -0.248 NA
ATOM     34  C   UNL A   1      46.342  27.494  27.601  1.00  0.00     0.031 C 
ATOM     35  C   UNL A   1      43.549  23.658  30.675  1.00  0.00     0.029 A 
ATOM     36  C   UNL A   1      44.588  24.323  30.025  1.00  0.00     0.049 A 
ATOM     37  H   UNL A   1      45.372  23.661  28.186  1.00  0.00     0.167 HD
ATOM     38  C   UNL A   1      46.048  26.270  29.546  1.00  0.00     0.074 A 
ATOM     39  C   UNL A   1      46.146  26.268  28.090  1.00  0.00     0.031 C 
ATOM     40  C   UNL A   1      45.444  25.415  30.423  1.00  0.00     0.037 A 
BRANCH  27  41
ATOM     41  C   UNL A   1      43.494  23.354  25.897  1.00  0.00     0.057 A 
ATOM     42  C   UNL A   1      43.574  21.979  25.600  1.00  0.00     0.134 A 
ATOM     43  C   UNL A   1      44.362  24.174  25.148  1.00  0.00     0.134 A 
ATOM     44  F   UNL A   1      42.801  21.089  26.242  1.00  0.00    -0.206 F 
ATOM     45  C   UNL A   1      44.521  21.454  24.712  1.00  0.00     0.040 A 
ATOM     46  C   UNL A   1      45.275  23.663  24.219  1.00  0.00     0.040 A 
ATOM     47  F   UNL A   1      44.454  25.494  25.338  1.00  0.00    -0.206 F 
ATOM     48  C   UNL A   1      45.386  22.297  24.029  1.00  0.00     0.006 A 
ENDBRANCH  27  41
BRANCH  28  49
ATOM     49  C   UNL A   1      46.653  30.748  28.256  1.00  0.00     0.057 A 
ATOM     50  C   UNL A   1      46.455  31.274  26.971  1.00  0.00     0.134 A 
ATOM     51  C   UNL A   1      47.490  31.494  29.103  1.00  0.00     0.134 A 
ATOM     52  F   UNL A   1      45.642  30.661  26.099  1.00  0.00    -0.206 F 
ATOM     53  C   UNL A   1      47.030  32.485  26.562  1.00  0.00     0.040 A 
ATOM     54  C   UNL A   1      48.079  32.699  28.705  1.00  0.00     0.040 A 
ATOM     55  F   UNL A   1      47.692  31.129  30.377  1.00  0.00    -0.206 F 
ATOM     56  C   UNL A   1      47.836  33.208  27.436  1.00  0.00     0.006 A 
ENDBRANCH  28  49
BRANCH  40  57
ATOM     57  C   UNL A   1      45.452  25.777  31.880  1.00  0.00     0.057 A 
ATOM     58  C   UNL A   1      46.530  25.544  32.747  1.00  0.00     0.134 A 
ATOM     59  C   UNL A   1      44.374  26.509  32.389  1.00  0.00     0.134 A 
ATOM     60  F   UNL A   1      47.648  24.941  32.323  1.00  0.00    -0.206 F 
ATOM     61  C   UNL A   1      46.508  25.976  34.076  1.00  0.00     0.040 A 
ATOM     62  C   UNL A   1      44.357  26.979  33.703  1.00  0.00     0.040 A 
ATOM     63  F   UNL A   1      43.333  26.818  31.601  1.00  0.00    -0.206 F 
ATOM     64  C   UNL A   1      45.422  26.702  34.556  1.00  0.00     0.006 A 
ENDBRANCH  40  57
ENDBRANCH  14  15
ENDBRANCH   7   9
ENDBRANCH   4   5
ENDBRANCH   3   4
ENDBRANCH   2   3
ENDBRANCH   1   2
BRANCH   1  65
ATOM     65  N   UNL A   1      31.065  30.606  25.158  1.00  0.00    -0.352 N 
ATOM     66  C   UNL A   1      30.783  29.768  24.103  1.00  0.00     0.251 C 
ATOM     67  H   UNL A   1      30.434  31.352  25.282  1.00  0.00     0.163 HD
ATOM     68  O   UNL A   1      29.879  30.032  23.331  1.00  0.00    -0.269 OA
BRANCH  66  69
ATOM     69  C   UNL A   1      31.596  28.549  23.897  1.00  0.00     0.039 A 
ATOM     70  C   UNL A   1      32.911  28.692  23.447  1.00  0.00     0.016 A 
ATOM     71  C   UNL A   1      31.055  27.277  24.102  1.00  0.00     0.016 A 
ATOM     72  C   UNL A   1      33.707  27.561  23.247  1.00  0.00     0.029 A 
ATOM     73  C   UNL A   1      31.845  26.143  23.897  1.00  0.00     0.029 A 
ATOM     74  C   UNL A   1      33.173  26.281  23.461  1.00  0.00     0.066 A 
BRANCH  74  75
ATOM     75  N   UNL A   1      33.963  25.142  23.165  1.00  0.00    -0.220 N 
ATOM     76  C   UNL A   1      35.121  24.734  23.779  1.00  0.00     0.141 A 
ATOM     77  N   UNL A   1      33.633  24.242  22.207  1.00  0.00    -0.062 NA
ATOM     78  C   UNL A   1      35.380  23.480  23.267  1.00  0.00     0.093 A 
ATOM     79  N   UNL A   1      34.487  23.227  22.266  1.00  0.00    -0.134 NA
BRANCH  78  80
ATOM     80  C   UNL A   1      36.509  22.577  23.568  1.00  0.00     0.138 C 
BRANCH  80  81
ATOM     81  S   UNL A   1      36.506  21.520  25.022  1.00  0.00    -0.081 SA
BRANCH  81  82
ATOM     82  C   UNL A   1      35.277  20.286  24.920  1.00  0.00     0.176 A 
ATOM     83  N   UNL A   1      35.791  19.090  24.934  1.00  0.00    -0.223 NA
ATOM     84  N   UNL A   1      33.901  20.492  24.885  1.00  0.00    -0.255 N 
ATOM     85  C   UNL A   1      34.938  17.988  24.825  1.00  0.00     0.079 A 
ATOM     86  C   UNL A   1      33.190  19.525  24.157  1.00  0.00     0.266 A 
ATOM     87  C   UNL A   1      35.367  16.709  25.179  1.00  0.00     0.029 A 
ATOM     88  C   UNL A   1      33.668  18.141  24.290  1.00  0.00     0.066 A 
ATOM     89  O   UNL A   1      32.214  19.732  23.437  1.00  0.00    -0.268 OA
ATOM     90  C   UNL A   1      34.551  15.597  24.939  1.00  0.00     0.002 A 
ATOM     91  C   UNL A   1      32.861  17.038  23.993  1.00  0.00     0.016 A 
ATOM     92  C   UNL A   1      33.313  15.758  24.314  1.00  0.00     0.001 A 
BRANCH  84  93
ATOM     93  C   UNL A   1      33.148  21.572  25.504  1.00  0.00     0.051 A 
ATOM     94  C   UNL A   1      31.738  21.594  25.413  1.00  0.00     0.028 A 
ATOM     95  C   UNL A   1      33.709  22.605  26.268  1.00  0.00     0.028 A 
ATOM     96  C   UNL A   1      30.966  22.668  25.871  1.00  0.00     0.022 A 
ATOM     97  C   UNL A   1      32.956  23.717  26.681  1.00  0.00     0.022 A 
ATOM     98  C   UNL A   1      31.589  23.759  26.450  1.00  0.00     0.041 A 
ATOM     99  Cl  UNL A   1      30.681  25.150  26.878  1.00  0.00    -0.084 Cl
ENDBRANCH  84  93
ENDBRANCH  81  82
ENDBRANCH  80  81
ENDBRANCH  78  80
ENDBRANCH  74  75
ENDBRANCH  66  69
ENDBRANCH   1  65
TORSDOF 16
ENDMDL
MODEL 2
REMARK VINA RESULT:     -12.7      4.105      9.398
REMARK SMILES O=C(NCCCCNC(=O)c1ccc(-n2cc(CSc3nc4ccccc4c(=O)n3-c3ccc(Cl)cc3)nn2)cc1)c1ccc(-c2c3nc(c(-c4c(F)cccc4F)c4ccc([nH]4)c(-c4c(F)cccc4F)c4nc(c(-c5c(F)cccc5F)c5ccc2[nH]5)C=C4)C=C3)cc1
REMARK SMILES IDX 7 1 6 2 5 3 4 4 3 5 1 6 2 7 42 9 43 10 95 11 44 12 94 13
REMARK SMILES IDX 45 14 46 15 47 16 88 17 48 18 93 19 87 20 89 21 49 22 92 23
REMARK SMILES IDX 86 24 85 25 50 27 76 28 59 29 75 30 60 31 63 32 74 33 90 34
REMARK SMILES IDX 61 35 62 36 73 38 91 39 64 40 51 41 52 42 57 43 53 44 54 45
REMARK SMILES IDX 56 46 58 47 55 48 77 49 78 50 83 51 79 52 80 53 82 54 84 55
REMARK SMILES IDX 81 56 65 57 66 58 71 59 67 60 68 61 70 62 72 63 69 64 8 65
REMARK SMILES IDX 9 66 10 68 11 69 12 70 41 71 13 72 40 73 14 74 15 75 16 76
REMARK SMILES IDX 39 77 17 78 38 79 18 80 19 81 20 82 21 83 30 84 22 85 28 86
REMARK SMILES IDX 23 87 27 88 29 89 24 90 26 91 25 92 31 93 32 94 37 95 33 96
REMARK SMILES IDX 36 97 34 98 35 99
REMARK H PARENT 3 8 89 26 63 37 8 67
REMARK Flexibility Score: inf
ROOT
ATOM      1  C   UNL A   1      33.522  27.470  23.746  1.00  0.00     0.116 C 
ENDROOT
BRANCH   1   2
ATOM      2  C   UNL A   1      33.598  28.582  24.789  1.00  0.00     0.023 C 
BRANCH   2   3
ATOM      3  C   UNL A   1      33.568  28.129  26.251  1.00  0.00     0.023 C 
BRANCH   3   4
ATOM      4  C   UNL A   1      34.506  28.882  27.195  1.00  0.00     0.116 C 
BRANCH   4   5
ATOM      5  N   UNL A   1      34.004  30.151  27.680  1.00  0.00    -0.352 N 
ATOM      6  O   UNL A   1      33.858  32.211  28.468  1.00  0.00    -0.269 OA
ATOM      7  C   UNL A   1      34.537  31.183  28.403  1.00  0.00     0.251 C 
ATOM      8  H   UNL A   1      33.065  30.308  27.433  1.00  0.00     0.163 HD
BRANCH   7   9
ATOM      9  C   UNL A   1      35.818  31.127  29.160  1.00  0.00     0.039 A 
ATOM     10  C   UNL A   1      35.980  30.638  30.456  1.00  0.00     0.014 A 
ATOM     11  C   UNL A   1      36.946  31.631  28.485  1.00  0.00     0.014 A 
ATOM     12  C   UNL A   1      37.216  30.728  31.093  1.00  0.00     0.010 A 
ATOM     13  C   UNL A   1      38.187  31.709  29.109  1.00  0.00     0.010 A 
ATOM     14  C   UNL A   1      38.313  31.281  30.427  1.00  0.00    -0.014 A 
BRANCH  14  15
ATOM     15  C   UNL A   1      39.622  31.210  31.075  1.00  0.00     0.031 A 
ATOM     16  C   UNL A   1      40.193  32.535  31.453  1.00  0.00     0.074 A 
ATOM     17  C   UNL A   1      40.206  30.062  31.475  1.00  0.00     0.049 A 
ATOM     18  N   UNL A   1      41.315  33.063  31.081  1.00  0.00    -0.248 NA
ATOM     19  C   UNL A   1      39.363  33.423  32.284  1.00  0.00     0.031 C 
ATOM     20  C   UNL A   1      39.630  28.717  31.463  1.00  0.00     0.029 A 
ATOM     21  N   UNL A   1      41.414  29.876  32.086  1.00  0.00    -0.354 N 
ATOM     22  C   UNL A   1      41.420  34.266  31.778  1.00  0.00     0.074 A 
ATOM     23  C   UNL A   1      40.136  34.504  32.379  1.00  0.00     0.031 C 
ATOM     24  C   UNL A   1      40.389  27.901  32.227  1.00  0.00     0.029 A 
ATOM     25  C   UNL A   1      41.563  28.629  32.684  1.00  0.00     0.049 A 
ATOM     26  H   UNL A   1      42.116  30.565  32.104  1.00  0.00     0.167 HD
ATOM     27  C   UNL A   1      42.628  34.851  32.007  1.00  0.00     0.037 A 
ATOM     28  C   UNL A   1      42.544  28.243  33.539  1.00  0.00     0.037 A 
ATOM     29  C   UNL A   1      43.625  34.381  31.080  1.00  0.00     0.049 A 
ATOM     30  C   UNL A   1      43.673  29.191  33.399  1.00  0.00     0.074 A 
ATOM     31  C   UNL A   1      43.757  34.364  29.705  1.00  0.00     0.029 A 
ATOM     32  N   UNL A   1      44.580  33.515  31.549  1.00  0.00    -0.354 N 
ATOM     33  N   UNL A   1      44.457  29.255  32.361  1.00  0.00    -0.248 NA
ATOM     34  C   UNL A   1      43.700  30.352  34.274  1.00  0.00     0.031 C 
ATOM     35  C   UNL A   1      44.431  33.142  29.411  1.00  0.00     0.029 A 
ATOM     36  C   UNL A   1      44.709  32.514  30.625  1.00  0.00     0.049 A 
ATOM     37  H   UNL A   1      45.079  33.598  32.393  1.00  0.00     0.167 HD
ATOM     38  C   UNL A   1      44.719  30.607  32.209  1.00  0.00     0.074 A 
ATOM     39  C   UNL A   1      44.329  31.217  33.476  1.00  0.00     0.031 C 
ATOM     40  C   UNL A   1      44.959  31.137  30.974  1.00  0.00     0.037 A 
BRANCH  27  41
ATOM     41  C   UNL A   1      43.004  35.524  33.311  1.00  0.00     0.057 A 
ATOM     42  C   UNL A   1      42.762  34.847  34.523  1.00  0.00     0.134 A 
ATOM     43  C   UNL A   1      43.274  36.901  33.446  1.00  0.00     0.134 A 
ATOM     44  F   UNL A   1      42.491  33.533  34.536  1.00  0.00    -0.206 F 
ATOM     45  C   UNL A   1      42.685  35.510  35.754  1.00  0.00     0.040 A 
ATOM     46  C   UNL A   1      43.253  37.562  34.678  1.00  0.00     0.040 A 
ATOM     47  F   UNL A   1      43.475  37.705  32.396  1.00  0.00    -0.206 F 
ATOM     48  C   UNL A   1      42.916  36.876  35.832  1.00  0.00     0.006 A 
ENDBRANCH  27  41
BRANCH  28  49
ATOM     49  C   UNL A   1      42.492  27.269  34.654  1.00  0.00     0.057 A 
ATOM     50  C   UNL A   1      41.757  27.536  35.819  1.00  0.00     0.134 A 
ATOM     51  C   UNL A   1      42.925  25.942  34.492  1.00  0.00     0.134 A 
ATOM     52  F   UNL A   1      41.263  28.761  36.049  1.00  0.00    -0.206 F 
ATOM     53  C   UNL A   1      41.445  26.537  36.752  1.00  0.00     0.040 A 
ATOM     54  C   UNL A   1      42.629  24.937  35.421  1.00  0.00     0.040 A 
ATOM     55  F   UNL A   1      43.569  25.552  33.384  1.00  0.00    -0.206 F 
ATOM     56  C   UNL A   1      41.872  25.230  36.548  1.00  0.00     0.006 A 
ENDBRANCH  28  49
BRANCH  40  57
ATOM     57  C   UNL A   1      45.249  30.191  29.844  1.00  0.00     0.057 A 
ATOM     58  C   UNL A   1      44.267  29.598  29.038  1.00  0.00     0.134 A 
ATOM     59  C   UNL A   1      46.583  29.979  29.481  1.00  0.00     0.134 A 
ATOM     60  F   UNL A   1      42.963  29.825  29.246  1.00  0.00    -0.206 F 
ATOM     61  C   UNL A   1      44.603  28.787  27.950  1.00  0.00     0.040 A 
ATOM     62  C   UNL A   1      46.931  29.203  28.374  1.00  0.00     0.040 A 
ATOM     63  F   UNL A   1      47.575  30.561  30.173  1.00  0.00    -0.206 F 
ATOM     64  C   UNL A   1      45.939  28.593  27.611  1.00  0.00     0.006 A 
ENDBRANCH  40  57
ENDBRANCH  14  15
ENDBRANCH   7   9
ENDBRANCH   4   5
ENDBRANCH   3   4
ENDBRANCH   2   3
ENDBRANCH   1   2
BRANCH   1  65
ATOM     65  N   UNL A   1      32.393  26.581  23.952  1.00  0.00    -0.352 N 
ATOM     66  C   UNL A   1      32.379  25.238  24.253  1.00  0.00     0.251 C 
ATOM     67  H   UNL A   1      31.507  27.001  23.864  1.00  0.00     0.163 HD
ATOM     68  O   UNL A   1      31.327  24.625  24.282  1.00  0.00    -0.269 OA
BRANCH  66  69
ATOM     69  C   UNL A   1      33.651  24.533  24.524  1.00  0.00     0.039 A 
ATOM     70  C   UNL A   1      34.096  24.444  25.845  1.00  0.00     0.016 A 
ATOM     71  C   UNL A   1      34.420  24.007  23.483  1.00  0.00     0.016 A 
ATOM     72  C   UNL A   1      35.292  23.781  26.134  1.00  0.00     0.029 A 
ATOM     73  C   UNL A   1      35.620  23.348  23.767  1.00  0.00     0.029 A 
ATOM     74  C   UNL A   1      36.063  23.240  25.095  1.00  0.00     0.066 A 
BRANCH  74  75
ATOM     75  N   UNL A   1      37.318  22.653  25.396  1.00  0.00    -0.220 N 
ATOM     76  C   UNL A   1      38.350  23.191  26.124  1.00  0.00     0.141 A 
ATOM     77  N   UNL A   1      37.660  21.400  25.010  1.00  0.00    -0.062 NA
ATOM     78  C   UNL A   1      39.248  22.158  26.297  1.00  0.00     0.093 A 
ATOM     79  N   UNL A   1      38.829  21.090  25.557  1.00  0.00    -0.134 NA
BRANCH  78  80
ATOM     80  C   UNL A   1      40.548  22.175  26.997  1.00  0.00     0.138 C 
BRANCH  80  81
ATOM     81  S   UNL A   1      41.996  22.959  26.274  1.00  0.00    -0.081 SA
BRANCH  81  82
ATOM     82  C   UNL A   1      41.952  24.694  26.462  1.00  0.00     0.176 A 
ATOM     83  N   UNL A   1      40.814  25.098  26.949  1.00  0.00    -0.223 NA
ATOM     84  N   UNL A   1      42.992  25.578  26.197  1.00  0.00    -0.255 N 
ATOM     85  C   UNL A   1      40.607  26.468  27.129  1.00  0.00     0.079 A 
ATOM     86  C   UNL A   1      42.575  26.850  25.772  1.00  0.00     0.266 A 
ATOM     87  C   UNL A   1      39.583  26.938  27.952  1.00  0.00     0.029 A 
ATOM     88  C   UNL A   1      41.375  27.386  26.430  1.00  0.00     0.066 A 
ATOM     89  O   UNL A   1      43.123  27.543  24.916  1.00  0.00    -0.268 OA
ATOM     90  C   UNL A   1      39.301  28.308  28.017  1.00  0.00     0.002 A 
ATOM     91  C   UNL A   1      41.074  28.752  26.441  1.00  0.00     0.016 A 
ATOM     92  C   UNL A   1      40.024  29.211  27.235  1.00  0.00     0.001 A 
BRANCH  84  93
ATOM     93  C   UNL A   1      44.422  25.331  26.313  1.00  0.00     0.051 A 
ATOM     94  C   UNL A   1      44.984  25.004  27.567  1.00  0.00     0.028 A 
ATOM     95  C   UNL A   1      45.323  25.327  25.240  1.00  0.00     0.028 A 
ATOM     96  C   UNL A   1      46.364  24.884  27.770  1.00  0.00     0.022 A 
ATOM     97  C   UNL A   1      46.713  25.268  25.437  1.00  0.00     0.022 A 
ATOM     98  C   UNL A   1      47.229  25.081  26.709  1.00  0.00     0.041 A 
ATOM     99  Cl  UNL A   1      48.926  25.091  26.966  1.00  0.00    -0.084 Cl
ENDBRANCH  84  93
ENDBRANCH  81  82
ENDBRANCH  80  81
ENDBRANCH  78  80
ENDBRANCH  74  75
ENDBRANCH  66  69
ENDBRANCH   1  65
TORSDOF 16
ENDMDL
MODEL 3
REMARK VINA RESULT:     -12.6      3.154      7.527
REMARK SMILES O=C(NCCCCNC(=O)c1ccc(-n2cc(CSc3nc4ccccc4c(=O)n3-c3ccc(Cl)cc3)nn2)cc1)c1ccc(-c2c3nc(c(-c4c(F)cccc4F)c4ccc([nH]4)c(-c4c(F)cccc4F)c4nc(c(-c5c(F)cccc5F)c5ccc2[nH]5)C=C4)C=C3)cc1
REMARK SMILES IDX 7 1 6 2 5 3 4 4 3 5 1 6 2 7 42 9 43 10 95 11 44 12 94 13
REMARK SMILES IDX 45 14 46 15 47 16 88 17 48 18 93 19 87 20 89 21 49 22 92 23
REMARK SMILES IDX 86 24 85 25 50 27 76 28 59 29 75 30 60 31 63 32 74 33 90 34
REMARK SMILES IDX 61 35 62 36 73 38 91 39 64 40 51 41 52 42 57 43 53 44 54 45
REMARK SMILES IDX 56 46 58 47 55 48 77 49 78 50 83 51 79 52 80 53 82 54 84 55
REMARK SMILES IDX 81 56 65 57 66 58 71 59 67 60 68 61 70 62 72 63 69 64 8 65
REMARK SMILES IDX 9 66 10 68 11 69 12 70 41 71 13 72 40 73 14 74 15 75 16 76
REMARK SMILES IDX 39 77 17 78 38 79 18 80 19 81 20 82 21 83 30 84 22 85 28 86
REMARK SMILES IDX 23 87 27 88 29 89 24 90 26 91 25 92 31 93 32 94 37 95 33 96
REMARK SMILES IDX 36 97 34 98 35 99
REMARK H PARENT 3 8 89 26 63 37 8 67
REMARK Flexibility Score: inf
ROOT
ATOM      1  C   UNL A   1      38.912  32.756  33.262  1.00  0.00     0.116 C 
ENDROOT
BRANCH   1   2
ATOM      2  C   UNL A   1      39.506  34.112  32.892  1.00  0.00     0.023 C 
BRANCH   2   3
ATOM      3  C   UNL A   1      40.350  34.790  33.974  1.00  0.00     0.023 C 
BRANCH   3   4
ATOM      4  C   UNL A   1      41.863  34.632  33.826  1.00  0.00     0.116 C 
BRANCH   4   5
ATOM      5  N   UNL A   1      42.450  35.333  32.703  1.00  0.00    -0.352 N 
ATOM      6  O   UNL A   1      43.152  35.885  30.681  1.00  0.00    -0.269 OA
ATOM      7  C   UNL A   1      42.879  34.965  31.458  1.00  0.00     0.251 C 
ATOM      8  H   UNL A   1      42.566  36.295  32.874  1.00  0.00     0.163 HD
BRANCH   7   9
ATOM      9  C   UNL A   1      43.104  33.564  31.008  1.00  0.00     0.039 A 
ATOM     10  C   UNL A   1      42.274  32.838  30.153  1.00  0.00     0.014 A 
ATOM     11  C   UNL A   1      44.259  32.939  31.516  1.00  0.00     0.014 A 
ATOM     12  C   UNL A   1      42.543  31.498  29.882  1.00  0.00     0.010 A 
ATOM     13  C   UNL A   1      44.542  31.606  31.235  1.00  0.00     0.010 A 
ATOM     14  C   UNL A   1      43.665  30.878  30.438  1.00  0.00    -0.014 A 
BRANCH  14  15
ATOM     15  C   UNL A   1      43.993  29.522  30.000  1.00  0.00     0.031 A 
ATOM     16  C   UNL A   1      44.799  29.459  28.747  1.00  0.00     0.074 A 
ATOM     17  C   UNL A   1      43.764  28.414  30.734  1.00  0.00     0.049 A 
ATOM     18  N   UNL A   1      44.507  28.871  27.632  1.00  0.00    -0.248 NA
ATOM     19  C   UNL A   1      46.054  30.228  28.705  1.00  0.00     0.031 C 
ATOM     20  C   UNL A   1      43.276  28.343  32.112  1.00  0.00     0.029 A 
ATOM     21  N   UNL A   1      44.028  27.108  30.433  1.00  0.00    -0.354 N 
ATOM     22  C   UNL A   1      45.622  29.034  26.811  1.00  0.00     0.074 A 
ATOM     23  C   UNL A   1      46.470  29.996  27.460  1.00  0.00     0.031 C 
ATOM     24  C   UNL A   1      43.483  27.096  32.593  1.00  0.00     0.029 A 
ATOM     25  C   UNL A   1      44.004  26.253  31.529  1.00  0.00     0.049 A 
ATOM     26  H   UNL A   1      44.220  26.799  29.518  1.00  0.00     0.167 HD
ATOM     27  C   UNL A   1      45.874  28.184  25.777  1.00  0.00     0.037 A 
ATOM     28  C   UNL A   1      44.437  24.968  31.575  1.00  0.00     0.037 A 
ATOM     29  C   UNL A   1      44.685  27.482  25.370  1.00  0.00     0.049 A 
ATOM     30  C   UNL A   1      44.529  24.466  30.185  1.00  0.00     0.074 A 
ATOM     31  C   UNL A   1      43.432  27.853  24.918  1.00  0.00     0.029 A 
ATOM     32  N   UNL A   1      44.575  26.157  25.704  1.00  0.00    -0.354 N 
ATOM     33  N   UNL A   1      43.504  24.204  29.427  1.00  0.00    -0.248 NA
ATOM     34  C   UNL A   1      45.798  24.615  29.489  1.00  0.00     0.031 C 
ATOM     35  C   UNL A   1      42.539  26.885  25.466  1.00  0.00     0.029 A 
ATOM     36  C   UNL A   1      43.306  25.961  26.176  1.00  0.00     0.049 A 
ATOM     37  H   UNL A   1      45.278  25.473  25.621  1.00  0.00     0.167 HD
ATOM     38  C   UNL A   1      43.900  24.599  28.160  1.00  0.00     0.074 A 
ATOM     39  C   UNL A   1      45.351  24.729  28.237  1.00  0.00     0.031 C 
ATOM     40  C   UNL A   1      42.988  25.056  27.253  1.00  0.00     0.037 A 
BRANCH  27  41
ATOM     41  C   UNL A   1      47.259  27.686  25.416  1.00  0.00     0.057 A 
ATOM     42  C   UNL A   1      47.631  27.629  24.059  1.00  0.00     0.134 A 
ATOM     43  C   UNL A   1      48.097  26.965  26.291  1.00  0.00     0.134 A 
ATOM     44  F   UNL A   1      46.918  28.271  23.121  1.00  0.00    -0.206 F 
ATOM     45  C   UNL A   1      48.684  26.828  23.599  1.00  0.00     0.040 A 
ATOM     46  C   UNL A   1      49.184  26.205  25.847  1.00  0.00     0.040 A 
ATOM     47  F   UNL A   1      47.861  26.869  27.604  1.00  0.00    -0.206 F 
ATOM     48  C   UNL A   1      49.455  26.100  24.494  1.00  0.00     0.006 A 
ENDBRANCH  27  41
BRANCH  28  49
ATOM     49  C   UNL A   1      45.024  24.211  32.707  1.00  0.00     0.057 A 
ATOM     50  C   UNL A   1      46.162  24.678  33.382  1.00  0.00     0.134 A 
ATOM     51  C   UNL A   1      44.324  23.166  33.333  1.00  0.00     0.134 A 
ATOM     52  F   UNL A   1      46.877  25.700  32.889  1.00  0.00    -0.206 F 
ATOM     53  C   UNL A   1      46.563  24.158  34.620  1.00  0.00     0.040 A 
ATOM     54  C   UNL A   1      44.719  22.631  34.565  1.00  0.00     0.040 A 
ATOM     55  F   UNL A   1      43.180  22.692  32.820  1.00  0.00    -0.206 F 
ATOM     56  C   UNL A   1      45.833  23.138  35.221  1.00  0.00     0.006 A 
ENDBRANCH  28  49
BRANCH  40  57
ATOM     57  C   UNL A   1      41.532  24.821  27.538  1.00  0.00     0.057 A 
ATOM     58  C   UNL A   1      40.728  25.678  28.304  1.00  0.00     0.134 A 
ATOM     59  C   UNL A   1      40.894  23.753  26.899  1.00  0.00     0.134 A 
ATOM     60  F   UNL A   1      41.229  26.784  28.871  1.00  0.00    -0.206 F 
ATOM     61  C   UNL A   1      39.359  25.447  28.468  1.00  0.00     0.040 A 
ATOM     62  C   UNL A   1      39.521  23.534  27.024  1.00  0.00     0.040 A 
ATOM     63  F   UNL A   1      41.590  22.925  26.105  1.00  0.00    -0.206 F 
ATOM     64  C   UNL A   1      38.750  24.375  27.821  1.00  0.00     0.006 A 
ENDBRANCH  40  57
ENDBRANCH  14  15
ENDBRANCH   7   9
ENDBRANCH   4   5
ENDBRANCH   3   4
ENDBRANCH   2   3
ENDBRANCH   1   2
BRANCH   1  65
ATOM     65  N   UNL A   1      39.838  31.658  33.046  1.00  0.00    -0.352 N 
ATOM     66  C   UNL A   1      39.743  30.588  32.186  1.00  0.00     0.251 C 
ATOM     67  H   UNL A   1      40.654  31.684  33.596  1.00  0.00     0.163 HD
ATOM     68  O   UNL A   1      40.572  29.696  32.219  1.00  0.00    -0.269 OA
BRANCH  66  69
ATOM     69  C   UNL A   1      38.616  30.513  31.230  1.00  0.00     0.039 A 
ATOM     70  C   UNL A   1      38.755  31.130  29.985  1.00  0.00     0.016 A 
ATOM     71  C   UNL A   1      37.418  29.881  31.575  1.00  0.00     0.016 A 
ATOM     72  C   UNL A   1      37.711  31.072  29.058  1.00  0.00     0.029 A 
ATOM     73  C   UNL A   1      36.369  29.827  30.653  1.00  0.00     0.029 A 
ATOM     74  C   UNL A   1      36.510  30.431  29.393  1.00  0.00     0.066 A 
BRANCH  74  75
ATOM     75  N   UNL A   1      35.428  30.462  28.478  1.00  0.00    -0.220 N 
ATOM     76  C   UNL A   1      35.044  29.488  27.590  1.00  0.00     0.141 A 
ATOM     77  N   UNL A   1      34.566  31.504  28.386  1.00  0.00    -0.062 NA
ATOM     78  C   UNL A   1      33.834  29.915  27.085  1.00  0.00     0.093 A 
ATOM     79  N   UNL A   1      33.592  31.176  27.545  1.00  0.00    -0.134 NA
BRANCH  78  80
ATOM     80  C   UNL A   1      32.972  29.260  26.080  1.00  0.00     0.138 C 
BRANCH  80  81
ATOM     81  S   UNL A   1      33.610  28.764  24.474  1.00  0.00    -0.081 SA
BRANCH  81  82
ATOM     82  C   UNL A   1      33.454  27.044  24.221  1.00  0.00     0.176 A 
ATOM     83  N   UNL A   1      34.398  26.380  24.822  1.00  0.00    -0.223 NA
ATOM     84  N   UNL A   1      32.435  26.403  23.523  1.00  0.00    -0.255 N 
ATOM     85  C   UNL A   1      34.434  24.989  24.688  1.00  0.00     0.079 A 
ATOM     86  C   UNL A   1      32.830  25.214  22.888  1.00  0.00     0.266 A 
ATOM     87  C   UNL A   1      35.181  24.202  25.565  1.00  0.00     0.029 A 
ATOM     88  C   UNL A   1      33.781  24.374  23.630  1.00  0.00     0.066 A 
ATOM     89  O   UNL A   1      32.449  24.820  21.787  1.00  0.00    -0.268 OA
ATOM     90  C   UNL A   1      35.316  22.827  25.339  1.00  0.00     0.002 A 
ATOM     91  C   UNL A   1      33.949  23.012  23.359  1.00  0.00     0.016 A 
ATOM     92  C   UNL A   1      34.730  22.239  24.217  1.00  0.00     0.001 A 
BRANCH  84  93
ATOM     93  C   UNL A   1      31.048  26.822  23.387  1.00  0.00     0.051 A 
ATOM     94  C   UNL A   1      30.725  27.955  22.608  1.00  0.00     0.028 A 
ATOM     95  C   UNL A   1      29.950  26.142  23.930  1.00  0.00     0.028 A 
ATOM     96  C   UNL A   1      29.431  28.487  22.544  1.00  0.00     0.022 A 
ATOM     97  C   UNL A   1      28.657  26.695  23.924  1.00  0.00     0.022 A 
ATOM     98  C   UNL A   1      28.411  27.885  23.258  1.00  0.00     0.041 A 
ATOM     99  Cl  UNL A   1      26.855  28.605  23.318  1.00  0.00    -0.084 Cl
ENDBRANCH  84  93
ENDBRANCH  81  82
ENDBRANCH  80  81
ENDBRANCH  78  80
ENDBRANCH  74  75
ENDBRANCH  66  69
ENDBRANCH   1  65
TORSDOF 16
ENDMDL
