MODEL 1
REMARK VINA RESULT:     -11.2      0.000      0.000
REMARK SMILES CCCCCCCNC(=O)Oc1cccc(-c2ccc([C@@H](C)C(=O)NCCCCNC(=O)c3ccc(-c4c5nc(c(-c6c(F)cccc6F)c6ccc([nH]6)c(-c6c(F)cccc6F)c6nc(c(-c7c(F)cccc7F)c7ccc4[nH]7)C=C6)C=C5)cc3)cc2F)c1
REMARK SMILES IDX 17 1 18 2 19 3 20 4 87 5 88 6 89 7 16 8 12 9 13 10 90 11
REMARK SMILES IDX 14 12 15 13 11 14 9 15 8 16 10 18 7 19 6 20 5 21 4 22 3 23
REMARK SMILES IDX 2 24 1 25 21 26 22 27 23 28 24 29 25 30 26 32 27 33 28 34
REMARK SMILES IDX 29 35 30 36 31 37 32 39 33 40 34 41 86 42 35 43 85 44 36 45
REMARK SMILES IDX 37 46 38 47 79 48 39 49 84 50 78 51 80 52 40 53 83 54 77 55
REMARK SMILES IDX 76 56 41 58 67 59 50 60 66 61 51 62 54 63 65 64 81 65 52 66
REMARK SMILES IDX 53 67 64 69 82 70 55 71 42 72 43 73 48 74 44 75 45 76 47 77
REMARK SMILES IDX 49 78 46 79 68 80 69 81 74 82 70 83 71 84 73 85 75 86 72 87
REMARK SMILES IDX 56 88 57 89 62 90 58 91 59 92 61 93 63 94 60 95
REMARK H PARENT 8 17 25 31 30 38 80 57 54 68
REMARK Flexibility Score: inf
ROOT
ATOM      1  C   UNL A   1      37.272  22.934  25.463  1.00  0.00     0.018 A 
ATOM      2  C   UNL A   1      38.121  23.829  26.135  1.00  0.00     0.012 A 
ATOM      3  C   UNL A   1      39.378  23.441  26.616  1.00  0.00     0.005 A 
ATOM      4  C   UNL A   1      39.808  22.116  26.524  1.00  0.00    -0.033 A 
ATOM      5  C   UNL A   1      38.988  21.219  25.827  1.00  0.00     0.044 A 
ATOM      6  C   UNL A   1      37.764  21.629  25.290  1.00  0.00     0.131 A 
ATOM      7  F   UNL A   1      37.065  20.719  24.594  1.00  0.00    -0.206 F 
ENDROOT
BRANCH   1   8
ATOM      8  C   UNL A   1      35.930  23.363  24.993  1.00  0.00    -0.012 A 
ATOM      9  C   UNL A   1      33.814  24.519  25.339  1.00  0.00     0.133 A 
ATOM     10  C   UNL A   1      33.385  24.204  24.056  1.00  0.00     0.047 A 
ATOM     11  C   UNL A   1      35.065  24.113  25.809  1.00  0.00     0.056 A 
ATOM     12  C   UNL A   1      34.224  23.473  23.226  1.00  0.00     0.004 A 
ATOM     13  C   UNL A   1      35.473  23.048  23.695  1.00  0.00     0.009 A 
BRANCH   9  14
ATOM     14  O   UNL A   1      32.872  25.126  26.184  1.00  0.00    -0.410 OA
BRANCH  14  15
ATOM     15  C   UNL A   1      31.820  24.375  26.683  1.00  0.00     0.412 C 
ATOM     16  N   UNL A   1      30.602  24.939  26.421  1.00  0.00    -0.321 N 
ATOM     17  H   UNL A   1      29.811  24.470  26.773  1.00  0.00     0.167 HD
ATOM     18  O   UNL A   1      31.913  23.326  27.307  1.00  0.00    -0.224 OA
BRANCH  16  19
ATOM     19  C   UNL A   1      30.359  26.161  25.678  1.00  0.00     0.119 C 
BRANCH  19  20
ATOM     20  C   UNL A   1      29.718  25.885  24.317  1.00  0.00     0.021 C 
BRANCH  20  21
ATOM     21  C   UNL A   1      29.166  27.127  23.606  1.00  0.00     0.002 C 
BRANCH  21  22
ATOM     22  C   UNL A   1      30.211  28.179  23.221  1.00  0.00     0.000 C 
BRANCH  22  23
ATOM     23  C   UNL A   1      29.689  29.617  23.136  1.00  0.00    -0.000 C 
BRANCH  23  24
ATOM     24  C   UNL A   1      28.217  29.755  22.735  1.00  0.00    -0.003 C 
ATOM     25  C   UNL A   1      27.514  30.917  23.420  1.00  0.00     0.004 C 
ENDBRANCH  23  24
ENDBRANCH  22  23
ENDBRANCH  21  22
ENDBRANCH  20  21
ENDBRANCH  19  20
ENDBRANCH  16  19
ENDBRANCH  14  15
ENDBRANCH   9  14
ENDBRANCH   1   8
BRANCH   4  26
ATOM     26  C   UNL A   1      41.083  21.608  27.178  1.00  0.00     0.105 C 
ATOM     27  C   UNL A   1      41.133  20.111  27.478  1.00  0.00     0.023 C 
BRANCH  26  28
ATOM     28  C   UNL A   1      42.365  22.155  26.527  1.00  0.00     0.227 C 
ATOM     29  O   UNL A   1      42.528  22.051  25.305  1.00  0.00    -0.274 OA
ATOM     30  N   UNL A   1      43.361  22.775  27.218  1.00  0.00    -0.356 N 
ATOM     31  H   UNL A   1      44.086  23.126  26.654  1.00  0.00     0.163 HD
BRANCH  30  32
ATOM     32  C   UNL A   1      43.543  23.010  28.635  1.00  0.00     0.116 C 
BRANCH  32  33
ATOM     33  C   UNL A   1      44.232  24.347  28.916  1.00  0.00     0.023 C 
BRANCH  33  34
ATOM     34  C   UNL A   1      45.236  24.791  27.856  1.00  0.00     0.023 C 
BRANCH  34  35
ATOM     35  C   UNL A   1      44.819  26.007  27.042  1.00  0.00     0.116 C 
BRANCH  35  36
ATOM     36  N   UNL A   1      43.927  25.708  25.928  1.00  0.00    -0.352 N 
ATOM     37  C   UNL A   1      42.597  26.050  25.808  1.00  0.00     0.251 C 
ATOM     38  H   UNL A   1      44.318  25.204  25.179  1.00  0.00     0.163 HD
ATOM     39  O   UNL A   1      41.930  25.686  24.848  1.00  0.00    -0.269 OA
BRANCH  37  40
ATOM     40  C   UNL A   1      41.982  26.832  26.899  1.00  0.00     0.039 A 
ATOM     41  C   UNL A   1      41.262  26.164  27.892  1.00  0.00     0.014 A 
ATOM     42  C   UNL A   1      42.230  28.203  26.993  1.00  0.00     0.014 A 
ATOM     43  C   UNL A   1      40.865  26.860  29.034  1.00  0.00     0.010 A 
ATOM     44  C   UNL A   1      41.905  28.872  28.165  1.00  0.00     0.010 A 
ATOM     45  C   UNL A   1      41.226  28.207  29.200  1.00  0.00    -0.014 A 
BRANCH  45  46
ATOM     46  C   UNL A   1      40.908  28.963  30.435  1.00  0.00     0.031 A 
ATOM     47  C   UNL A   1      39.765  29.938  30.425  1.00  0.00     0.074 A 
ATOM     48  C   UNL A   1      41.704  28.862  31.517  1.00  0.00     0.049 A 
ATOM     49  N   UNL A   1      39.427  30.830  31.320  1.00  0.00    -0.248 NA
ATOM     50  C   UNL A   1      38.912  29.933  29.226  1.00  0.00     0.031 C 
ATOM     51  C   UNL A   1      42.865  27.979  31.640  1.00  0.00     0.029 A 
ATOM     52  N   UNL A   1      41.666  29.530  32.715  1.00  0.00    -0.354 N 
ATOM     53  C   UNL A   1      38.347  31.513  30.777  1.00  0.00     0.074 A 
ATOM     54  C   UNL A   1      38.117  30.966  29.457  1.00  0.00     0.031 C 
ATOM     55  C   UNL A   1      43.419  28.148  32.853  1.00  0.00     0.029 A 
ATOM     56  C   UNL A   1      42.682  29.181  33.573  1.00  0.00     0.049 A 
ATOM     57  H   UNL A   1      40.977  30.196  32.940  1.00  0.00     0.167 HD
ATOM     58  C   UNL A   1      37.599  32.493  31.336  1.00  0.00     0.037 A 
ATOM     59  C   UNL A   1      42.990  29.654  34.795  1.00  0.00     0.037 A 
ATOM     60  C   UNL A   1      37.808  33.008  32.662  1.00  0.00     0.049 A 
ATOM     61  C   UNL A   1      42.146  30.743  35.397  1.00  0.00     0.074 A 
ATOM     62  C   UNL A   1      37.074  33.964  33.342  1.00  0.00     0.029 A 
ATOM     63  N   UNL A   1      38.824  32.600  33.513  1.00  0.00    -0.354 N 
ATOM     64  N   UNL A   1      41.103  31.354  34.891  1.00  0.00    -0.248 NA
ATOM     65  C   UNL A   1      42.522  31.209  36.739  1.00  0.00     0.031 C 
ATOM     66  C   UNL A   1      37.666  34.159  34.594  1.00  0.00     0.029 A 
ATOM     67  C   UNL A   1      38.742  33.292  34.709  1.00  0.00     0.049 A 
ATOM     68  H   UNL A   1      39.502  31.920  33.299  1.00  0.00     0.167 HD
ATOM     69  C   UNL A   1      40.675  32.249  35.864  1.00  0.00     0.074 A 
ATOM     70  C   UNL A   1      41.572  32.099  36.991  1.00  0.00     0.031 C 
ATOM     71  C   UNL A   1      39.631  33.112  35.829  1.00  0.00     0.037 A 
BRANCH  58  72
ATOM     72  C   UNL A   1      36.487  33.065  30.505  1.00  0.00     0.057 A 
ATOM     73  C   UNL A   1      35.147  32.720  30.728  1.00  0.00     0.134 A 
ATOM     74  C   UNL A   1      36.759  33.970  29.472  1.00  0.00     0.134 A 
ATOM     75  F   UNL A   1      34.821  31.846  31.691  1.00  0.00    -0.206 F 
ATOM     76  C   UNL A   1      34.121  33.228  29.930  1.00  0.00     0.040 A 
ATOM     77  C   UNL A   1      35.739  34.507  28.687  1.00  0.00     0.040 A 
ATOM     78  F   UNL A   1      38.020  34.345  29.207  1.00  0.00    -0.206 F 
ATOM     79  C   UNL A   1      34.416  34.129  28.909  1.00  0.00     0.006 A 
ENDBRANCH  58  72
BRANCH  59  80
ATOM     80  C   UNL A   1      44.136  29.082  35.547  1.00  0.00     0.057 A 
ATOM     81  C   UNL A   1      43.949  28.012  36.430  1.00  0.00     0.134 A 
ATOM     82  C   UNL A   1      45.434  29.584  35.406  1.00  0.00     0.134 A 
ATOM     83  F   UNL A   1      42.724  27.502  36.622  1.00  0.00    -0.206 F 
ATOM     84  C   UNL A   1      45.009  27.472  37.159  1.00  0.00     0.040 A 
ATOM     85  C   UNL A   1      46.508  29.040  36.112  1.00  0.00     0.040 A 
ATOM     86  F   UNL A   1      45.679  30.605  34.571  1.00  0.00    -0.206 F 
ATOM     87  C   UNL A   1      46.296  27.983  36.997  1.00  0.00     0.006 A 
ENDBRANCH  59  80
BRANCH  71  88
ATOM     88  C   UNL A   1      39.365  33.922  37.062  1.00  0.00     0.057 A 
ATOM     89  C   UNL A   1      38.647  33.406  38.148  1.00  0.00     0.134 A 
ATOM     90  C   UNL A   1      39.885  35.217  37.184  1.00  0.00     0.134 A 
ATOM     91  F   UNL A   1      38.113  32.177  38.087  1.00  0.00    -0.206 F 
ATOM     92  C   UNL A   1      38.446  34.155  39.308  1.00  0.00     0.040 A 
ATOM     93  C   UNL A   1      39.710  35.966  38.347  1.00  0.00     0.040 A 
ATOM     94  F   UNL A   1      40.588  35.766  36.182  1.00  0.00    -0.206 F 
ATOM     95  C   UNL A   1      38.985  35.437  39.413  1.00  0.00     0.006 A 
ENDBRANCH  71  88
ENDBRANCH  45  46
ENDBRANCH  37  40
ENDBRANCH  35  36
ENDBRANCH  34  35
ENDBRANCH  33  34
ENDBRANCH  32  33
ENDBRANCH  30  32
ENDBRANCH  26  28
ENDBRANCH   4  26
TORSDOF 21
ENDMDL
MODEL 2
REMARK VINA RESULT:     -11.1      2.632      9.231
REMARK SMILES CCCCCCCNC(=O)Oc1cccc(-c2ccc([C@@H](C)C(=O)NCCCCNC(=O)c3ccc(-c4c5nc(c(-c6c(F)cccc6F)c6ccc([nH]6)c(-c6c(F)cccc6F)c6nc(c(-c7c(F)cccc7F)c7ccc4[nH]7)C=C6)C=C5)cc3)cc2F)c1
REMARK SMILES IDX 17 1 18 2 19 3 20 4 87 5 88 6 89 7 16 8 12 9 13 10 90 11
REMARK SMILES IDX 14 12 15 13 11 14 9 15 8 16 10 18 7 19 6 20 5 21 4 22 3 23
REMARK SMILES IDX 2 24 1 25 21 26 22 27 23 28 24 29 25 30 26 32 27 33 28 34
REMARK SMILES IDX 29 35 30 36 31 37 32 39 33 40 34 41 86 42 35 43 85 44 36 45
REMARK SMILES IDX 37 46 38 47 79 48 39 49 84 50 78 51 80 52 40 53 83 54 77 55
REMARK SMILES IDX 76 56 41 58 67 59 50 60 66 61 51 62 54 63 65 64 81 65 52 66
REMARK SMILES IDX 53 67 64 69 82 70 55 71 42 72 43 73 48 74 44 75 45 76 47 77
REMARK SMILES IDX 49 78 46 79 68 80 69 81 74 82 70 83 71 84 73 85 75 86 72 87
REMARK SMILES IDX 56 88 57 89 62 90 58 91 59 92 61 93 63 94 60 95
REMARK H PARENT 8 17 25 31 30 38 80 57 54 68
REMARK Flexibility Score: inf
ROOT
ATOM      1  C   UNL A   1      36.452  23.443  25.074  1.00  0.00     0.018 A 
ATOM      2  C   UNL A   1      35.309  23.973  25.696  1.00  0.00     0.012 A 
ATOM      3  C   UNL A   1      34.100  24.142  25.009  1.00  0.00     0.005 A 
ATOM      4  C   UNL A   1      34.003  23.870  23.643  1.00  0.00    -0.033 A 
ATOM      5  C   UNL A   1      35.123  23.310  23.016  1.00  0.00     0.044 A 
ATOM      6  C   UNL A   1      36.307  23.081  23.724  1.00  0.00     0.131 A 
ATOM      7  F   UNL A   1      37.314  22.495  23.059  1.00  0.00    -0.206 F 
ENDROOT
BRANCH   1   8
ATOM      8  C   UNL A   1      37.730  23.306  25.817  1.00  0.00    -0.012 A 
ATOM      9  C   UNL A   1      39.557  21.954  26.694  1.00  0.00     0.133 A 
ATOM     10  C   UNL A   1      40.193  23.076  27.211  1.00  0.00     0.047 A 
ATOM     11  C   UNL A   1      38.347  22.056  26.005  1.00  0.00     0.056 A 
ATOM     12  C   UNL A   1      39.610  24.323  27.031  1.00  0.00     0.004 A 
ATOM     13  C   UNL A   1      38.390  24.432  26.355  1.00  0.00     0.009 A 
BRANCH   9  14
ATOM     14  O   UNL A   1      40.108  20.709  27.033  1.00  0.00    -0.410 OA
BRANCH  14  15
ATOM     15  C   UNL A   1      40.433  19.812  26.027  1.00  0.00     0.412 C 
ATOM     16  N   UNL A   1      41.775  19.783  25.764  1.00  0.00    -0.321 N 
ATOM     17  H   UNL A   1      42.072  19.186  25.039  1.00  0.00     0.167 HD
ATOM     18  O   UNL A   1      39.648  19.112  25.401  1.00  0.00    -0.224 OA
BRANCH  16  19
ATOM     19  C   UNL A   1      42.805  20.543  26.446  1.00  0.00     0.119 C 
BRANCH  19  20
ATOM     20  C   UNL A   1      43.310  21.711  25.597  1.00  0.00     0.021 C 
BRANCH  20  21
ATOM     21  C   UNL A   1      44.791  22.054  25.797  1.00  0.00     0.002 C 
BRANCH  21  22
ATOM     22  C   UNL A   1      45.672  21.896  24.553  1.00  0.00     0.000 C 
BRANCH  22  23
ATOM     23  C   UNL A   1      46.505  20.611  24.503  1.00  0.00    -0.000 C 
BRANCH  23  24
ATOM     24  C   UNL A   1      45.702  19.309  24.578  1.00  0.00    -0.003 C 
ATOM     25  C   UNL A   1      44.986  18.969  23.280  1.00  0.00     0.004 C 
ENDBRANCH  23  24
ENDBRANCH  22  23
ENDBRANCH  21  22
ENDBRANCH  20  21
ENDBRANCH  19  20
ENDBRANCH  16  19
ENDBRANCH  14  15
ENDBRANCH   9  14
ENDBRANCH   1   8
BRANCH   4  26
ATOM     26  C   UNL A   1      32.769  24.196  22.816  1.00  0.00     0.105 C 
ATOM     27  C   UNL A   1      31.452  24.294  23.584  1.00  0.00     0.023 C 
BRANCH  26  28
ATOM     28  C   UNL A   1      32.990  25.340  21.812  1.00  0.00     0.227 C 
ATOM     29  O   UNL A   1      32.863  25.129  20.600  1.00  0.00    -0.274 OA
ATOM     30  N   UNL A   1      33.314  26.613  22.173  1.00  0.00    -0.356 N 
ATOM     31  H   UNL A   1      33.359  27.246  21.421  1.00  0.00     0.163 HD
BRANCH  30  32
ATOM     32  C   UNL A   1      33.605  27.199  23.463  1.00  0.00     0.116 C 
BRANCH  32  33
ATOM     33  C   UNL A   1      32.340  27.674  24.181  1.00  0.00     0.023 C 
BRANCH  33  34
ATOM     34  C   UNL A   1      32.299  27.378  25.678  1.00  0.00     0.023 C 
BRANCH  34  35
ATOM     35  C   UNL A   1      33.086  28.347  26.549  1.00  0.00     0.116 C 
BRANCH  35  36
ATOM     36  N   UNL A   1      32.506  29.682  26.636  1.00  0.00    -0.352 N 
ATOM     37  C   UNL A   1      33.106  30.823  27.124  1.00  0.00     0.251 C 
ATOM     38  H   UNL A   1      31.582  29.779  26.311  1.00  0.00     0.163 HD
ATOM     39  O   UNL A   1      32.494  31.880  27.206  1.00  0.00    -0.269 OA
BRANCH  37  40
ATOM     40  C   UNL A   1      34.503  30.724  27.593  1.00  0.00     0.039 A 
ATOM     41  C   UNL A   1      35.259  31.891  27.728  1.00  0.00     0.014 A 
ATOM     42  C   UNL A   1      35.007  29.492  28.013  1.00  0.00     0.014 A 
ATOM     43  C   UNL A   1      36.496  31.834  28.372  1.00  0.00     0.010 A 
ATOM     44  C   UNL A   1      36.198  29.452  28.723  1.00  0.00     0.010 A 
ATOM     45  C   UNL A   1      36.951  30.623  28.917  1.00  0.00    -0.014 A 
BRANCH  45  46
ATOM     46  C   UNL A   1      38.214  30.530  29.689  1.00  0.00     0.031 A 
ATOM     47  C   UNL A   1      39.377  29.777  29.108  1.00  0.00     0.074 A 
ATOM     48  C   UNL A   1      38.279  31.016  30.943  1.00  0.00     0.049 A 
ATOM     49  N   UNL A   1      40.498  29.415  29.675  1.00  0.00    -0.248 NA
ATOM     50  C   UNL A   1      39.239  29.340  27.709  1.00  0.00     0.031 C 
ATOM     51  C   UNL A   1      37.208  31.735  31.635  1.00  0.00     0.029 A 
ATOM     52  N   UNL A   1      39.290  30.956  31.869  1.00  0.00    -0.354 N 
ATOM     53  C   UNL A   1      41.181  28.679  28.715  1.00  0.00     0.074 A 
ATOM     54  C   UNL A   1      40.329  28.605  27.549  1.00  0.00     0.031 C 
ATOM     55  C   UNL A   1      37.625  32.065  32.869  1.00  0.00     0.029 A 
ATOM     56  C   UNL A   1      38.972  31.541  33.071  1.00  0.00     0.049 A 
ATOM     57  H   UNL A   1      40.162  30.535  31.690  1.00  0.00     0.167 HD
ATOM     58  C   UNL A   1      42.417  28.132  28.792  1.00  0.00     0.037 A 
ATOM     59  C   UNL A   1      39.683  31.630  34.212  1.00  0.00     0.037 A 
ATOM     60  C   UNL A   1      43.276  28.240  29.940  1.00  0.00     0.049 A 
ATOM     61  C   UNL A   1      41.054  31.015  34.274  1.00  0.00     0.074 A 
ATOM     62  C   UNL A   1      44.566  27.767  30.100  1.00  0.00     0.029 A 
ATOM     63  N   UNL A   1      42.931  28.874  31.123  1.00  0.00    -0.354 N 
ATOM     64  N   UNL A   1      41.706  30.355  33.348  1.00  0.00    -0.248 NA
ATOM     65  C   UNL A   1      41.787  31.156  35.540  1.00  0.00     0.031 C 
ATOM     66  C   UNL A   1      44.991  28.087  31.393  1.00  0.00     0.029 A 
ATOM     67  C   UNL A   1      43.980  28.796  32.023  1.00  0.00     0.049 A 
ATOM     68  H   UNL A   1      42.068  29.313  31.299  1.00  0.00     0.167 HD
ATOM     69  C   UNL A   1      42.938  30.035  33.904  1.00  0.00     0.074 A 
ATOM     70  C   UNL A   1      42.942  30.574  35.248  1.00  0.00     0.031 C 
ATOM     71  C   UNL A   1      43.974  29.360  33.349  1.00  0.00     0.037 A 
BRANCH  58  72
ATOM     72  C   UNL A   1      42.905  27.372  27.593  1.00  0.00     0.057 A 
ATOM     73  C   UNL A   1      42.837  25.973  27.527  1.00  0.00     0.134 A 
ATOM     74  C   UNL A   1      43.448  28.045  26.492  1.00  0.00     0.134 A 
ATOM     75  F   UNL A   1      42.342  25.268  28.555  1.00  0.00    -0.206 F 
ATOM     76  C   UNL A   1      43.324  25.270  26.424  1.00  0.00     0.040 A 
ATOM     77  C   UNL A   1      43.912  27.355  25.371  1.00  0.00     0.040 A 
ATOM     78  F   UNL A   1      43.540  29.384  26.488  1.00  0.00    -0.206 F 
ATOM     79  C   UNL A   1      43.859  25.963  25.340  1.00  0.00     0.006 A 
ENDBRANCH  58  72
BRANCH  59  80
ATOM     80  C   UNL A   1      39.124  32.352  35.383  1.00  0.00     0.057 A 
ATOM     81  C   UNL A   1      38.336  31.683  36.327  1.00  0.00     0.134 A 
ATOM     82  C   UNL A   1      39.360  33.716  35.589  1.00  0.00     0.134 A 
ATOM     83  F   UNL A   1      38.060  30.380  36.172  1.00  0.00    -0.206 F 
ATOM     84  C   UNL A   1      37.788  32.347  37.424  1.00  0.00     0.040 A 
ATOM     85  C   UNL A   1      38.836  34.388  36.694  1.00  0.00     0.040 A 
ATOM     86  F   UNL A   1      40.112  34.412  34.724  1.00  0.00    -0.206 F 
ATOM     87  C   UNL A   1      38.042  33.704  37.614  1.00  0.00     0.006 A 
ENDBRANCH  59  80
BRANCH  71  88
ATOM     88  C   UNL A   1      45.220  29.213  34.170  1.00  0.00     0.057 A 
ATOM     89  C   UNL A   1      46.233  30.178  34.158  1.00  0.00     0.134 A 
ATOM     90  C   UNL A   1      45.377  28.116  35.027  1.00  0.00     0.134 A 
ATOM     91  F   UNL A   1      46.147  31.245  33.350  1.00  0.00    -0.206 F 
ATOM     92  C   UNL A   1      47.367  30.051  34.962  1.00  0.00     0.040 A 
ATOM     93  C   UNL A   1      46.494  27.990  35.852  1.00  0.00     0.040 A 
ATOM     94  F   UNL A   1      44.437  27.161  35.090  1.00  0.00    -0.206 F 
ATOM     95  C   UNL A   1      47.496  28.958  35.819  1.00  0.00     0.006 A 
ENDBRANCH  71  88
ENDBRANCH  45  46
ENDBRANCH  37  40
ENDBRANCH  35  36
ENDBRANCH  34  35
ENDBRANCH  33  34
ENDBRANCH  32  33
ENDBRANCH  30  32
ENDBRANCH  26  28
ENDBRANCH   4  26
TORSDOF 21
ENDMDL
MODEL 3
REMARK VINA RESULT:     -11.0      3.898      9.030
REMARK SMILES CCCCCCCNC(=O)Oc1cccc(-c2ccc([C@@H](C)C(=O)NCCCCNC(=O)c3ccc(-c4c5nc(c(-c6c(F)cccc6F)c6ccc([nH]6)c(-c6c(F)cccc6F)c6nc(c(-c7c(F)cccc7F)c7ccc4[nH]7)C=C6)C=C5)cc3)cc2F)c1
REMARK SMILES IDX 17 1 18 2 19 3 20 4 87 5 88 6 89 7 16 8 12 9 13 10 90 11
REMARK SMILES IDX 14 12 15 13 11 14 9 15 8 16 10 18 7 19 6 20 5 21 4 22 3 23
REMARK SMILES IDX 2 24 1 25 21 26 22 27 23 28 24 29 25 30 26 32 27 33 28 34
REMARK SMILES IDX 29 35 30 36 31 37 32 39 33 40 34 41 86 42 35 43 85 44 36 45
REMARK SMILES IDX 37 46 38 47 79 48 39 49 84 50 78 51 80 52 40 53 83 54 77 55
REMARK SMILES IDX 76 56 41 58 67 59 50 60 66 61 51 62 54 63 65 64 81 65 52 66
REMARK SMILES IDX 53 67 64 69 82 70 55 71 42 72 43 73 48 74 44 75 45 76 47 77
REMARK SMILES IDX 49 78 46 79 68 80 69 81 74 82 70 83 71 84 73 85 75 86 72 87
REMARK SMILES IDX 56 88 57 89 62 90 58 91 59 92 61 93 63 94 60 95
REMARK H PARENT 8 17 25 31 30 38 80 57 54 68
REMARK Flexibility Score: inf
ROOT
ATOM      1  C   UNL A   1      33.315  28.667  26.645  1.00  0.00     0.018 A 
ATOM      2  C   UNL A   1      32.267  28.156  27.429  1.00  0.00     0.012 A 
ATOM      3  C   UNL A   1      31.355  27.217  26.929  1.00  0.00     0.005 A 
ATOM      4  C   UNL A   1      31.397  26.810  25.595  1.00  0.00    -0.033 A 
ATOM      5  C   UNL A   1      32.456  27.284  24.810  1.00  0.00     0.044 A 
ATOM      6  C   UNL A   1      33.402  28.170  25.334  1.00  0.00     0.131 A 
ATOM      7  F   UNL A   1      34.412  28.535  24.528  1.00  0.00    -0.206 F 
ENDROOT
BRANCH   1   8
ATOM      8  C   UNL A   1      34.247  29.687  27.189  1.00  0.00    -0.012 A 
ATOM      9  C   UNL A   1      34.767  31.977  27.837  1.00  0.00     0.133 A 
ATOM     10  C   UNL A   1      36.035  31.610  28.270  1.00  0.00     0.047 A 
ATOM     11  C   UNL A   1      33.879  31.039  27.306  1.00  0.00     0.056 A 
ATOM     12  C   UNL A   1      36.420  30.279  28.174  1.00  0.00     0.004 A 
ATOM     13  C   UNL A   1      35.541  29.336  27.630  1.00  0.00     0.009 A 
BRANCH   9  14
ATOM     14  O   UNL A   1      34.484  33.352  27.815  1.00  0.00    -0.410 OA
BRANCH  14  15
ATOM     15  C   UNL A   1      33.258  33.802  28.278  1.00  0.00     0.412 C 
ATOM     16  N   UNL A   1      33.311  34.225  29.578  1.00  0.00    -0.321 N 
ATOM     17  H   UNL A   1      32.465  34.532  29.979  1.00  0.00     0.167 HD
ATOM     18  O   UNL A   1      32.211  33.827  27.644  1.00  0.00    -0.224 OA
BRANCH  16  19
ATOM     19  C   UNL A   1      34.487  34.265  30.424  1.00  0.00     0.119 C 
BRANCH  19  20
ATOM     20  C   UNL A   1      34.503  33.119  31.437  1.00  0.00     0.021 C 
BRANCH  20  21
ATOM     21  C   UNL A   1      34.054  33.508  32.851  1.00  0.00     0.002 C 
BRANCH  21  22
ATOM     22  C   UNL A   1      34.753  34.735  33.445  1.00  0.00     0.000 C 
BRANCH  22  23
ATOM     23  C   UNL A   1      36.181  34.493  33.948  1.00  0.00    -0.000 C 
BRANCH  23  24
ATOM     24  C   UNL A   1      36.286  33.919  35.363  1.00  0.00    -0.003 C 
ATOM     25  C   UNL A   1      37.698  33.494  35.736  1.00  0.00     0.004 C 
ENDBRANCH  23  24
ENDBRANCH  22  23
ENDBRANCH  21  22
ENDBRANCH  20  21
ENDBRANCH  19  20
ENDBRANCH  16  19
ENDBRANCH  14  15
ENDBRANCH   9  14
ENDBRANCH   1   8
BRANCH   4  26
ATOM     26  C   UNL A   1      30.334  25.929  24.960  1.00  0.00     0.105 C 
ATOM     27  C   UNL A   1      29.257  26.651  24.151  1.00  0.00     0.023 C 
BRANCH  26  28
ATOM     28  C   UNL A   1      30.907  24.685  24.260  1.00  0.00     0.227 C 
ATOM     29  O   UNL A   1      30.684  24.498  23.057  1.00  0.00    -0.274 OA
ATOM     30  N   UNL A   1      31.677  23.751  24.884  1.00  0.00    -0.356 N 
ATOM     31  H   UNL A   1      32.021  23.048  24.288  1.00  0.00     0.163 HD
BRANCH  30  32
ATOM     32  C   UNL A   1      32.079  23.608  26.267  1.00  0.00     0.116 C 
BRANCH  32  33
ATOM     33  C   UNL A   1      33.576  23.856  26.463  1.00  0.00     0.023 C 
BRANCH  33  34
ATOM     34  C   UNL A   1      34.493  22.858  25.761  1.00  0.00     0.023 C 
BRANCH  34  35
ATOM     35  C   UNL A   1      35.973  23.003  26.086  1.00  0.00     0.116 C 
BRANCH  35  36
ATOM     36  N   UNL A   1      36.806  21.915  25.590  1.00  0.00    -0.352 N 
ATOM     37  C   UNL A   1      38.173  21.786  25.714  1.00  0.00     0.251 C 
ATOM     38  H   UNL A   1      36.341  21.191  25.113  1.00  0.00     0.163 HD
ATOM     39  O   UNL A   1      38.775  20.853  25.198  1.00  0.00    -0.269 OA
BRANCH  37  40
ATOM     40  C   UNL A   1      38.903  22.838  26.450  1.00  0.00     0.039 A 
ATOM     41  C   UNL A   1      39.978  22.475  27.266  1.00  0.00     0.014 A 
ATOM     42  C   UNL A   1      38.595  24.181  26.226  1.00  0.00     0.014 A 
ATOM     43  C   UNL A   1      40.805  23.470  27.789  1.00  0.00     0.010 A 
ATOM     44  C   UNL A   1      39.466  25.162  26.681  1.00  0.00     0.010 A 
ATOM     45  C   UNL A   1      40.583  24.816  27.461  1.00  0.00    -0.014 A 
BRANCH  45  46
ATOM     46  C   UNL A   1      41.487  25.899  27.916  1.00  0.00     0.031 A 
ATOM     47  C   UNL A   1      40.967  26.939  28.868  1.00  0.00     0.074 A 
ATOM     48  C   UNL A   1      42.724  26.014  27.396  1.00  0.00     0.049 A 
ATOM     49  N   UNL A   1      41.514  28.064  29.249  1.00  0.00    -0.248 NA
ATOM     50  C   UNL A   1      39.630  26.696  29.434  1.00  0.00     0.031 C 
ATOM     51  C   UNL A   1      43.334  25.092  26.438  1.00  0.00     0.029 A 
ATOM     52  N   UNL A   1      43.683  26.977  27.587  1.00  0.00    -0.354 N 
ATOM     53  C   UNL A   1      40.576  28.676  30.069  1.00  0.00     0.074 A 
ATOM     54  C   UNL A   1      39.408  27.824  30.092  1.00  0.00     0.031 C 
ATOM     55  C   UNL A   1      44.571  25.523  26.138  1.00  0.00     0.029 A 
ATOM     56  C   UNL A   1      44.822  26.775  26.845  1.00  0.00     0.049 A 
ATOM     57  H   UNL A   1      43.568  27.740  28.198  1.00  0.00     0.167 HD
ATOM     58  C   UNL A   1      40.686  29.836  30.760  1.00  0.00     0.037 A 
ATOM     59  C   UNL A   1      45.936  27.524  26.737  1.00  0.00     0.037 A 
ATOM     60  C   UNL A   1      41.863  30.662  30.764  1.00  0.00     0.049 A 
ATOM     61  C   UNL A   1      46.037  28.808  27.513  1.00  0.00     0.074 A 
ATOM     62  C   UNL A   1      42.096  31.828  31.471  1.00  0.00     0.029 A 
ATOM     63  N   UNL A   1      43.010  30.401  30.029  1.00  0.00    -0.354 N 
ATOM     64  N   UNL A   1      45.160  29.358  28.317  1.00  0.00    -0.248 NA
ATOM     65  C   UNL A   1      47.282  29.575  27.367  1.00  0.00     0.031 C 
ATOM     66  C   UNL A   1      43.374  32.292  31.139  1.00  0.00     0.029 A 
ATOM     67  C   UNL A   1      43.951  31.390  30.258  1.00  0.00     0.049 A 
ATOM     68  H   UNL A   1      43.136  29.628  29.433  1.00  0.00     0.167 HD
ATOM     69  C   UNL A   1      45.759  30.515  28.801  1.00  0.00     0.074 A 
ATOM     70  C   UNL A   1      47.075  30.586  28.201  1.00  0.00     0.031 C 
ATOM     71  C   UNL A   1      45.265  31.431  29.668  1.00  0.00     0.037 A 
BRANCH  58  72
ATOM     72  C   UNL A   1      39.497  30.268  31.567  1.00  0.00     0.057 A 
ATOM     73  C   UNL A   1      39.219  29.718  32.826  1.00  0.00     0.134 A 
ATOM     74  C   UNL A   1      38.620  31.246  31.081  1.00  0.00     0.134 A 
ATOM     75  F   UNL A   1      40.011  28.765  33.341  1.00  0.00    -0.206 F 
ATOM     76  C   UNL A   1      38.093  30.099  33.556  1.00  0.00     0.040 A 
ATOM     77  C   UNL A   1      37.507  31.656  31.815  1.00  0.00     0.040 A 
ATOM     78  F   UNL A   1      38.829  31.816  29.884  1.00  0.00    -0.206 F 
ATOM     79  C   UNL A   1      37.235  31.075  33.052  1.00  0.00     0.006 A 
ENDBRANCH  58  72
BRANCH  59  80
ATOM     80  C   UNL A   1      47.060  27.068  25.881  1.00  0.00     0.057 A 
ATOM     81  C   UNL A   1      47.116  27.419  24.527  1.00  0.00     0.134 A 
ATOM     82  C   UNL A   1      48.098  26.277  26.386  1.00  0.00     0.134 A 
ATOM     83  F   UNL A   1      46.140  28.158  23.982  1.00  0.00    -0.206 F 
ATOM     84  C   UNL A   1      48.155  26.986  23.702  1.00  0.00     0.040 A 
ATOM     85  C   UNL A   1      49.155  25.855  25.577  1.00  0.00     0.040 A 
ATOM     86  F   UNL A   1      48.106  25.912  27.677  1.00  0.00    -0.206 F 
ATOM     87  C   UNL A   1      49.182  26.206  24.228  1.00  0.00     0.006 A 
ENDBRANCH  59  80
BRANCH  71  88
ATOM     88  C   UNL A   1      46.167  32.560  30.066  1.00  0.00     0.057 A 
ATOM     89  C   UNL A   1      47.054  32.457  31.144  1.00  0.00     0.134 A 
ATOM     90  C   UNL A   1      46.188  33.746  29.320  1.00  0.00     0.134 A 
ATOM     91  F   UNL A   1      47.074  31.352  31.905  1.00  0.00    -0.206 F 
ATOM     92  C   UNL A   1      47.921  33.499  31.474  1.00  0.00     0.040 A 
ATOM     93  C   UNL A   1      47.066  34.785  29.626  1.00  0.00     0.040 A 
ATOM     94  F   UNL A   1      45.368  33.904  28.269  1.00  0.00    -0.206 F 
ATOM     95  C   UNL A   1      47.935  34.665  30.709  1.00  0.00     0.006 A 
ENDBRANCH  71  88
ENDBRANCH  45  46
ENDBRANCH  37  40
ENDBRANCH  35  36
ENDBRANCH  34  35
ENDBRANCH  33  34
ENDBRANCH  32  33
ENDBRANCH  30  32
ENDBRANCH  26  28
ENDBRANCH   4  26
TORSDOF 21
ENDMDL
