MODEL 1
REMARK VINA RESULT:     -12.7      0.000      0.000
REMARK SMILES O=C(CN1C(=O)/C(=C\c2c(F)cccc2Cl)Oc2ccccc21)NCCCCNC(=O)c1ccc(-c2c3nc(c(-c4c(F)cccc4F)c4ccc([nH]4)c(-c4c(F)cccc4F)c4nc(c(-c5c(F)cccc5F)c5ccc2[nH]5)C=C4)C=C3)cc1
REMARK SMILES IDX 26 1 25 2 24 3 1 4 2 5 3 7 4 8 5 9 23 10 6 11 7 12 18 13
REMARK SMILES IDX 22 14 8 15 17 16 19 17 21 18 20 19 9 20 10 21 15 22 11 23
REMARK SMILES IDX 12 24 14 25 16 26 13 27 27 28 28 29 29 30 30 31 31 33 32 34
REMARK SMILES IDX 33 35 85 36 34 37 84 38 35 39 36 40 37 41 78 42 38 43 83 44
REMARK SMILES IDX 77 45 79 46 39 47 82 48 76 49 75 50 40 52 66 53 49 54 65 55
REMARK SMILES IDX 50 56 53 57 64 58 80 59 51 60 52 61 63 63 81 64 54 65 41 66
REMARK SMILES IDX 42 67 47 68 43 69 44 70 46 71 48 72 45 73 67 74 68 75 73 76
REMARK SMILES IDX 69 77 70 78 72 79 74 80 71 81 55 82 56 83 61 84 57 85 58 86
REMARK SMILES IDX 60 87 62 88 59 89
REMARK H PARENT 24 6 29 32 79 51 53 62
REMARK Flexibility Score: inf
ROOT
ATOM      1  C   UNL A   1      40.389  21.318  27.012  1.00  0.00     0.023 C 
ENDROOT
BRANCH   1   2
ATOM      2  C   UNL A   1      39.569  22.193  26.057  1.00  0.00     0.116 C 
BRANCH   2   3
ATOM      3  N   UNL A   1      38.170  22.297  26.422  1.00  0.00    -0.355 N 
ATOM      4  O   UNL A   1      37.401  21.783  24.335  1.00  0.00    -0.273 OA
ATOM      5  C   UNL A   1      37.163  22.056  25.513  1.00  0.00     0.240 C 
ATOM      6  H   UNL A   1      37.932  22.549  27.344  1.00  0.00     0.163 HD
BRANCH   5   7
ATOM      7  C   UNL A   1      35.739  22.392  25.968  1.00  0.00     0.226 C 
BRANCH   7   8
ATOM      8  N   UNL A   1      34.687  22.457  24.956  1.00  0.00    -0.293 N 
ATOM      9  C   UNL A   1      34.368  23.721  24.479  1.00  0.00     0.294 C 
ATOM     10  C   UNL A   1      33.941  21.319  24.547  1.00  0.00     0.088 A 
ATOM     11  O   UNL A   1      35.095  24.698  24.652  1.00  0.00    -0.265 OA
ATOM     12  C   UNL A   1      33.040  23.825  23.789  1.00  0.00     0.193 C 
ATOM     13  C   UNL A   1      32.901  21.486  23.622  1.00  0.00     0.151 A 
ATOM     14  C   UNL A   1      34.222  20.025  25.002  1.00  0.00     0.030 A 
ATOM     15  C   UNL A   1      32.296  24.945  23.858  1.00  0.00     0.065 C 
ATOM     16  O   UNL A   1      32.516  22.714  23.145  1.00  0.00    -0.449 OA
ATOM     17  C   UNL A   1      32.168  20.393  23.154  1.00  0.00     0.049 A 
ATOM     18  C   UNL A   1      33.485  18.929  24.539  1.00  0.00     0.002 A 
ATOM     19  C   UNL A   1      32.460  19.112  23.616  1.00  0.00     0.004 A 
BRANCH  15  20
ATOM     20  C   UNL A   1      32.628  26.127  24.670  1.00  0.00     0.033 A 
ATOM     21  C   UNL A   1      32.299  26.146  26.029  1.00  0.00     0.132 A 
ATOM     22  C   UNL A   1      33.203  27.281  24.112  1.00  0.00     0.051 A 
ATOM     23  F   UNL A   1      31.758  25.061  26.606  1.00  0.00    -0.206 F 
ATOM     24  C   UNL A   1      32.505  27.281  26.812  1.00  0.00     0.040 A 
ATOM     25  C   UNL A   1      33.420  28.421  24.895  1.00  0.00     0.021 A 
ATOM     26  Cl  UNL A   1      33.657  27.357  22.442  1.00  0.00    -0.084 Cl
ATOM     27  C   UNL A   1      33.063  28.424  26.243  1.00  0.00     0.005 A 
ENDBRANCH  15  20
ENDBRANCH   7   8
ENDBRANCH   5   7
ENDBRANCH   2   3
ENDBRANCH   1   2
BRANCH   1  28
ATOM     28  C   UNL A   1      41.825  21.030  26.569  1.00  0.00     0.023 C 
BRANCH  28  29
ATOM     29  C   UNL A   1      42.865  22.060  26.994  1.00  0.00     0.116 C 
BRANCH  29  30
ATOM     30  N   UNL A   1      43.508  22.728  25.873  1.00  0.00    -0.352 N 
ATOM     31  C   UNL A   1      43.577  24.070  25.578  1.00  0.00     0.251 C 
ATOM     32  H   UNL A   1      43.961  22.134  25.233  1.00  0.00     0.163 HD
ATOM     33  O   UNL A   1      44.089  24.442  24.526  1.00  0.00    -0.269 OA
BRANCH  31  34
ATOM     34  C   UNL A   1      42.988  25.068  26.500  1.00  0.00     0.039 A 
ATOM     35  C   UNL A   1      43.498  26.365  26.589  1.00  0.00     0.014 A 
ATOM     36  C   UNL A   1      41.912  24.685  27.309  1.00  0.00     0.014 A 
ATOM     37  C   UNL A   1      43.052  27.216  27.597  1.00  0.00     0.010 A 
ATOM     38  C   UNL A   1      41.416  25.567  28.274  1.00  0.00     0.010 A 
ATOM     39  C   UNL A   1      42.023  26.817  28.466  1.00  0.00    -0.014 A 
BRANCH  39  40
ATOM     40  C   UNL A   1      41.632  27.705  29.592  1.00  0.00     0.031 A 
ATOM     41  C   UNL A   1      40.419  28.592  29.480  1.00  0.00     0.074 A 
ATOM     42  C   UNL A   1      42.326  27.667  30.744  1.00  0.00     0.049 A 
ATOM     43  N   UNL A   1      39.882  29.376  30.382  1.00  0.00    -0.248 NA
ATOM     44  C   UNL A   1      39.715  28.600  28.187  1.00  0.00     0.031 C 
ATOM     45  C   UNL A   1      43.514  26.849  30.987  1.00  0.00     0.029 A 
ATOM     46  N   UNL A   1      42.113  28.311  31.937  1.00  0.00    -0.354 N 
ATOM     47  C   UNL A   1      38.797  29.984  29.762  1.00  0.00     0.074 A 
ATOM     48  C   UNL A   1      38.764  29.497  28.399  1.00  0.00     0.031 C 
ATOM     49  C   UNL A   1      43.891  26.995  32.267  1.00  0.00     0.029 A 
ATOM     50  C   UNL A   1      42.999  27.947  32.920  1.00  0.00     0.049 A 
ATOM     51  H   UNL A   1      41.394  28.969  32.075  1.00  0.00     0.167 HD
ATOM     52  C   UNL A   1      37.900  30.857  30.280  1.00  0.00     0.037 A 
ATOM     53  C   UNL A   1      43.083  28.336  34.206  1.00  0.00     0.037 A 
ATOM     54  C   UNL A   1      37.908  31.324  31.641  1.00  0.00     0.049 A 
ATOM     55  C   UNL A   1      42.101  29.335  34.743  1.00  0.00     0.074 A 
ATOM     56  C   UNL A   1      37.005  32.165  32.272  1.00  0.00     0.029 A 
ATOM     57  N   UNL A   1      38.869  30.993  32.583  1.00  0.00    -0.354 N 
ATOM     58  N   UNL A   1      41.064  29.874  34.154  1.00  0.00    -0.248 NA
ATOM     59  C   UNL A   1      42.314  29.789  36.126  1.00  0.00     0.031 C 
ATOM     60  C   UNL A   1      37.441  32.369  33.587  1.00  0.00     0.029 A 
ATOM     61  C   UNL A   1      38.597  31.632  33.782  1.00  0.00     0.049 A 
ATOM     62  H   UNL A   1      39.633  30.392  32.423  1.00  0.00     0.167 HD
ATOM     63  C   UNL A   1      40.493  30.722  35.093  1.00  0.00     0.074 A 
ATOM     64  C   UNL A   1      41.290  30.612  36.298  1.00  0.00     0.031 C 
ATOM     65  C   UNL A   1      39.405  31.521  34.968  1.00  0.00     0.037 A 
BRANCH  52  66
ATOM     66  C   UNL A   1      36.839  31.377  29.358  1.00  0.00     0.057 A 
ATOM     67  C   UNL A   1      36.910  32.681  28.852  1.00  0.00     0.134 A 
ATOM     68  C   UNL A   1      35.738  30.596  28.982  1.00  0.00     0.134 A 
ATOM     69  F   UNL A   1      37.937  33.481  29.176  1.00  0.00    -0.206 F 
ATOM     70  C   UNL A   1      35.928  33.188  28.001  1.00  0.00     0.040 A 
ATOM     71  C   UNL A   1      34.758  31.086  28.116  1.00  0.00     0.040 A 
ATOM     72  F   UNL A   1      35.620  29.333  29.421  1.00  0.00    -0.206 F 
ATOM     73  C   UNL A   1      34.851  32.388  27.627  1.00  0.00     0.006 A 
ENDBRANCH  52  66
BRANCH  53  74
ATOM     74  C   UNL A   1      44.131  27.763  35.083  1.00  0.00     0.057 A 
ATOM     75  C   UNL A   1      43.919  26.581  35.801  1.00  0.00     0.134 A 
ATOM     76  C   UNL A   1      45.373  28.393  35.221  1.00  0.00     0.134 A 
ATOM     77  F   UNL A   1      42.747  25.935  35.708  1.00  0.00    -0.206 F 
ATOM     78  C   UNL A   1      44.901  26.050  36.636  1.00  0.00     0.040 A 
ATOM     79  C   UNL A   1      46.371  27.863  36.038  1.00  0.00     0.040 A 
ATOM     80  F   UNL A   1      45.637  29.519  34.541  1.00  0.00    -0.206 F 
ATOM     81  C   UNL A   1      46.134  26.690  36.753  1.00  0.00     0.006 A 
ENDBRANCH  53  74
BRANCH  65  82
ATOM     82  C   UNL A   1      39.017  32.328  36.169  1.00  0.00     0.057 A 
ATOM     83  C   UNL A   1      38.154  31.803  37.137  1.00  0.00     0.134 A 
ATOM     84  C   UNL A   1      39.495  33.630  36.361  1.00  0.00     0.134 A 
ATOM     85  F   UNL A   1      37.660  30.562  37.009  1.00  0.00    -0.206 F 
ATOM     86  C   UNL A   1      37.779  32.546  38.258  1.00  0.00     0.040 A 
ATOM     87  C   UNL A   1      39.141  34.376  37.486  1.00  0.00     0.040 A 
ATOM     88  F   UNL A   1      40.339  34.182  35.476  1.00  0.00    -0.206 F 
ATOM     89  C   UNL A   1      38.277  33.834  38.437  1.00  0.00     0.006 A 
ENDBRANCH  65  82
ENDBRANCH  39  40
ENDBRANCH  31  34
ENDBRANCH  29  30
ENDBRANCH  28  29
ENDBRANCH   1  28
TORSDOF 13
ENDMDL
MODEL 2
REMARK VINA RESULT:     -12.6      3.152      8.610
REMARK SMILES O=C(CN1C(=O)/C(=C\c2c(F)cccc2Cl)Oc2ccccc21)NCCCCNC(=O)c1ccc(-c2c3nc(c(-c4c(F)cccc4F)c4ccc([nH]4)c(-c4c(F)cccc4F)c4nc(c(-c5c(F)cccc5F)c5ccc2[nH]5)C=C4)C=C3)cc1
REMARK SMILES IDX 26 1 25 2 24 3 1 4 2 5 3 7 4 8 5 9 23 10 6 11 7 12 18 13
REMARK SMILES IDX 22 14 8 15 17 16 19 17 21 18 20 19 9 20 10 21 15 22 11 23
REMARK SMILES IDX 12 24 14 25 16 26 13 27 27 28 28 29 29 30 30 31 31 33 32 34
REMARK SMILES IDX 33 35 85 36 34 37 84 38 35 39 36 40 37 41 78 42 38 43 83 44
REMARK SMILES IDX 77 45 79 46 39 47 82 48 76 49 75 50 40 52 66 53 49 54 65 55
REMARK SMILES IDX 50 56 53 57 64 58 80 59 51 60 52 61 63 63 81 64 54 65 41 66
REMARK SMILES IDX 42 67 47 68 43 69 44 70 46 71 48 72 45 73 67 74 68 75 73 76
REMARK SMILES IDX 69 77 70 78 72 79 74 80 71 81 55 82 56 83 61 84 57 85 58 86
REMARK SMILES IDX 60 87 62 88 59 89
REMARK H PARENT 24 6 29 32 79 51 53 62
REMARK Flexibility Score: inf
ROOT
ATOM      1  C   UNL A   1      34.766  31.196  27.843  1.00  0.00     0.023 C 
ENDROOT
BRANCH   1   2
ATOM      2  C   UNL A   1      34.576  29.705  27.542  1.00  0.00     0.116 C 
BRANCH   2   3
ATOM      3  N   UNL A   1      34.117  29.439  26.193  1.00  0.00    -0.355 N 
ATOM      4  O   UNL A   1      31.910  29.358  26.767  1.00  0.00    -0.273 OA
ATOM      5  C   UNL A   1      32.779  29.305  25.895  1.00  0.00     0.240 C 
ATOM      6  H   UNL A   1      34.780  29.352  25.469  1.00  0.00     0.163 HD
BRANCH   5   7
ATOM      7  C   UNL A   1      32.441  28.831  24.478  1.00  0.00     0.226 C 
BRANCH   7   8
ATOM      8  N   UNL A   1      31.190  28.103  24.272  1.00  0.00    -0.293 N 
ATOM      9  C   UNL A   1      31.221  26.740  24.534  1.00  0.00     0.294 C 
ATOM     10  C   UNL A   1      30.026  28.710  23.731  1.00  0.00     0.088 A 
ATOM     11  O   UNL A   1      32.127  26.207  25.174  1.00  0.00    -0.265 OA
ATOM     12  C   UNL A   1      30.100  25.949  23.927  1.00  0.00     0.193 C 
ATOM     13  C   UNL A   1      28.892  27.918  23.501  1.00  0.00     0.151 A 
ATOM     14  C   UNL A   1      29.947  30.079  23.447  1.00  0.00     0.030 A 
ATOM     15  C   UNL A   1      30.278  24.683  23.505  1.00  0.00     0.065 C 
ATOM     16  O   UNL A   1      28.876  26.561  23.704  1.00  0.00    -0.449 OA
ATOM     17  C   UNL A   1      27.708  28.476  23.012  1.00  0.00     0.049 A 
ATOM     18  C   UNL A   1      28.765  30.639  22.951  1.00  0.00     0.002 A 
ATOM     19  C   UNL A   1      27.646  29.840  22.735  1.00  0.00     0.004 A 
BRANCH  15  20
ATOM     20  C   UNL A   1      31.568  23.975  23.491  1.00  0.00     0.033 A 
ATOM     21  C   UNL A   1      32.484  24.230  22.465  1.00  0.00     0.132 A 
ATOM     22  C   UNL A   1      31.891  22.987  24.436  1.00  0.00     0.051 A 
ATOM     23  F   UNL A   1      32.222  25.173  21.547  1.00  0.00    -0.206 F 
ATOM     24  C   UNL A   1      33.674  23.511  22.358  1.00  0.00     0.040 A 
ATOM     25  C   UNL A   1      33.088  22.268  24.338  1.00  0.00     0.021 A 
ATOM     26  Cl  UNL A   1      30.831  22.603  25.751  1.00  0.00    -0.084 Cl
ATOM     27  C   UNL A   1      33.975  22.524  23.294  1.00  0.00     0.005 A 
ENDBRANCH  15  20
ENDBRANCH   7   8
ENDBRANCH   5   7
ENDBRANCH   2   3
ENDBRANCH   1   2
BRANCH   1  28
ATOM     28  C   UNL A   1      33.485  31.972  28.155  1.00  0.00     0.023 C 
BRANCH  28  29
ATOM     29  C   UNL A   1      33.070  33.005  27.114  1.00  0.00     0.116 C 
BRANCH  29  30
ATOM     30  N   UNL A   1      32.606  34.256  27.693  1.00  0.00    -0.352 N 
ATOM     31  C   UNL A   1      33.117  34.973  28.750  1.00  0.00     0.251 C 
ATOM     32  H   UNL A   1      31.810  34.647  27.266  1.00  0.00     0.163 HD
ATOM     33  O   UNL A   1      32.528  35.969  29.160  1.00  0.00    -0.269 OA
BRANCH  31  34
ATOM     34  C   UNL A   1      34.351  34.520  29.433  1.00  0.00     0.039 A 
ATOM     35  C   UNL A   1      35.607  34.671  28.841  1.00  0.00     0.014 A 
ATOM     36  C   UNL A   1      34.240  33.909  30.687  1.00  0.00     0.014 A 
ATOM     37  C   UNL A   1      36.719  34.064  29.417  1.00  0.00     0.010 A 
ATOM     38  C   UNL A   1      35.372  33.363  31.300  1.00  0.00     0.010 A 
ATOM     39  C   UNL A   1      36.610  33.382  30.640  1.00  0.00    -0.014 A 
BRANCH  39  40
ATOM     40  C   UNL A   1      37.791  32.663  31.184  1.00  0.00     0.031 A 
ATOM     41  C   UNL A   1      38.353  33.028  32.534  1.00  0.00     0.074 A 
ATOM     42  C   UNL A   1      38.320  31.634  30.497  1.00  0.00     0.049 A 
ATOM     43  N   UNL A   1      39.329  32.464  33.203  1.00  0.00    -0.248 NA
ATOM     44  C   UNL A   1      37.740  34.173  33.224  1.00  0.00     0.031 C 
ATOM     45  C   UNL A   1      37.868  31.173  29.185  1.00  0.00     0.029 A 
ATOM     46  N   UNL A   1      39.335  30.770  30.824  1.00  0.00    -0.354 N 
ATOM     47  C   UNL A   1      39.461  33.197  34.376  1.00  0.00     0.074 A 
ATOM     48  C   UNL A   1      38.481  34.262  34.319  1.00  0.00     0.031 C 
ATOM     49  C   UNL A   1      38.562  30.076  28.843  1.00  0.00     0.029 A 
ATOM     50  C   UNL A   1      39.535  29.783  29.890  1.00  0.00     0.049 A 
ATOM     51  H   UNL A   1      39.868  30.849  31.648  1.00  0.00     0.167 HD
ATOM     52  C   UNL A   1      40.309  32.998  35.413  1.00  0.00     0.037 A 
ATOM     53  C   UNL A   1      40.404  28.756  29.879  1.00  0.00     0.037 A 
ATOM     54  C   UNL A   1      41.265  31.925  35.491  1.00  0.00     0.049 A 
ATOM     55  C   UNL A   1      41.359  28.581  31.023  1.00  0.00     0.074 A 
ATOM     56  C   UNL A   1      42.127  31.610  36.530  1.00  0.00     0.029 A 
ATOM     57  N   UNL A   1      41.490  30.995  34.490  1.00  0.00    -0.354 N 
ATOM     58  N   UNL A   1      41.448  29.263  32.137  1.00  0.00    -0.248 NA
ATOM     59  C   UNL A   1      42.345  27.498  30.897  1.00  0.00     0.031 C 
ATOM     60  C   UNL A   1      42.897  30.507  36.140  1.00  0.00     0.029 A 
ATOM     61  C   UNL A   1      42.494  30.119  34.873  1.00  0.00     0.049 A 
ATOM     62  H   UNL A   1      41.007  30.961  33.632  1.00  0.00     0.167 HD
ATOM     63  C   UNL A   1      42.491  28.687  32.851  1.00  0.00     0.074 A 
ATOM     64  C   UNL A   1      42.992  27.589  32.050  1.00  0.00     0.031 C 
ATOM     65  C   UNL A   1      42.989  29.039  34.061  1.00  0.00     0.037 A 
BRANCH  52  66
ATOM     66  C   UNL A   1      40.246  33.977  36.547  1.00  0.00     0.057 A 
ATOM     67  C   UNL A   1      39.365  33.774  37.615  1.00  0.00     0.134 A 
ATOM     68  C   UNL A   1      41.045  35.128  36.575  1.00  0.00     0.134 A 
ATOM     69  F   UNL A   1      38.570  32.694  37.648  1.00  0.00    -0.206 F 
ATOM     70  C   UNL A   1      39.283  34.679  38.675  1.00  0.00     0.040 A 
ATOM     71  C   UNL A   1      40.986  36.030  37.638  1.00  0.00     0.040 A 
ATOM     72  F   UNL A   1      41.920  35.371  35.587  1.00  0.00    -0.206 F 
ATOM     73  C   UNL A   1      40.099  35.808  38.691  1.00  0.00     0.006 A 
ENDBRANCH  52  66
BRANCH  53  74
ATOM     74  C   UNL A   1      40.398  27.796  28.750  1.00  0.00     0.057 A 
ATOM     75  C   UNL A   1      39.646  26.618  28.794  1.00  0.00     0.134 A 
ATOM     76  C   UNL A   1      41.151  28.044  27.597  1.00  0.00     0.134 A 
ATOM     77  F   UNL A   1      38.905  26.328  29.874  1.00  0.00    -0.206 F 
ATOM     78  C   UNL A   1      39.652  25.710  27.735  1.00  0.00     0.040 A 
ATOM     79  C   UNL A   1      41.152  27.154  26.523  1.00  0.00     0.040 A 
ATOM     80  F   UNL A   1      41.877  29.167  27.493  1.00  0.00    -0.206 F 
ATOM     81  C   UNL A   1      40.404  25.979  26.593  1.00  0.00     0.006 A 
ENDBRANCH  53  74
BRANCH  65  82
ATOM     82  C   UNL A   1      44.126  28.219  34.588  1.00  0.00     0.057 A 
ATOM     83  C   UNL A   1      43.889  27.058  35.334  1.00  0.00     0.134 A 
ATOM     84  C   UNL A   1      45.458  28.586  34.363  1.00  0.00     0.134 A 
ATOM     85  F   UNL A   1      42.634  26.655  35.586  1.00  0.00    -0.206 F 
ATOM     86  C   UNL A   1      44.939  26.289  35.836  1.00  0.00     0.040 A 
ATOM     87  C   UNL A   1      46.517  27.815  34.845  1.00  0.00     0.040 A 
ATOM     88  F   UNL A   1      45.750  29.678  33.641  1.00  0.00    -0.206 F 
ATOM     89  C   UNL A   1      46.257  26.664  35.587  1.00  0.00     0.006 A 
ENDBRANCH  65  82
ENDBRANCH  39  40
ENDBRANCH  31  34
ENDBRANCH  29  30
ENDBRANCH  28  29
ENDBRANCH   1  28
TORSDOF 13
ENDMDL
MODEL 3
REMARK VINA RESULT:     -12.5      4.000      7.230
REMARK SMILES O=C(CN1C(=O)/C(=C\c2c(F)cccc2Cl)Oc2ccccc21)NCCCCNC(=O)c1ccc(-c2c3nc(c(-c4c(F)cccc4F)c4ccc([nH]4)c(-c4c(F)cccc4F)c4nc(c(-c5c(F)cccc5F)c5ccc2[nH]5)C=C4)C=C3)cc1
REMARK SMILES IDX 26 1 25 2 24 3 1 4 2 5 3 7 4 8 5 9 23 10 6 11 7 12 18 13
REMARK SMILES IDX 22 14 8 15 17 16 19 17 21 18 20 19 9 20 10 21 15 22 11 23
REMARK SMILES IDX 12 24 14 25 16 26 13 27 27 28 28 29 29 30 30 31 31 33 32 34
REMARK SMILES IDX 33 35 85 36 34 37 84 38 35 39 36 40 37 41 78 42 38 43 83 44
REMARK SMILES IDX 77 45 79 46 39 47 82 48 76 49 75 50 40 52 66 53 49 54 65 55
REMARK SMILES IDX 50 56 53 57 64 58 80 59 51 60 52 61 63 63 81 64 54 65 41 66
REMARK SMILES IDX 42 67 47 68 43 69 44 70 46 71 48 72 45 73 67 74 68 75 73 76
REMARK SMILES IDX 69 77 70 78 72 79 74 80 71 81 55 82 56 83 61 84 57 85 58 86
REMARK SMILES IDX 60 87 62 88 59 89
REMARK H PARENT 24 6 29 32 79 51 53 62
REMARK Flexibility Score: inf
ROOT
ATOM      1  C   UNL A   1      39.456  22.896  26.735  1.00  0.00     0.023 C 
ENDROOT
BRANCH   1   2
ATOM      2  C   UNL A   1      38.346  23.797  26.182  1.00  0.00     0.116 C 
BRANCH   2   3
ATOM      3  N   UNL A   1      37.010  23.310  26.462  1.00  0.00    -0.355 N 
ATOM      4  O   UNL A   1      36.633  22.589  24.329  1.00  0.00    -0.273 OA
ATOM      5  C   UNL A   1      36.241  22.706  25.492  1.00  0.00     0.240 C 
ATOM      6  H   UNL A   1      36.641  23.415  27.369  1.00  0.00     0.163 HD
BRANCH   5   7
ATOM      7  C   UNL A   1      34.782  22.417  25.861  1.00  0.00     0.226 C 
BRANCH   7   8
ATOM      8  N   UNL A   1      33.842  22.118  24.782  1.00  0.00    -0.293 N 
ATOM      9  C   UNL A   1      33.228  23.209  24.182  1.00  0.00     0.294 C 
ATOM     10  C   UNL A   1      33.478  20.794  24.423  1.00  0.00     0.088 A 
ATOM     11  O   UNL A   1      33.638  24.360  24.318  1.00  0.00    -0.265 OA
ATOM     12  C   UNL A   1      31.985  22.891  23.402  1.00  0.00     0.193 C 
ATOM     13  C   UNL A   1      32.514  20.602  23.422  1.00  0.00     0.151 A 
ATOM     14  C   UNL A   1      34.067  19.662  25.001  1.00  0.00     0.030 A 
ATOM     15  C   UNL A   1      30.957  23.758  23.330  1.00  0.00     0.065 C 
ATOM     16  O   UNL A   1      31.846  21.640  22.822  1.00  0.00    -0.449 OA
ATOM     17  C   UNL A   1      32.154  19.319  23.002  1.00  0.00     0.049 A 
ATOM     18  C   UNL A   1      33.703  18.376  24.586  1.00  0.00     0.002 A 
ATOM     19  C   UNL A   1      32.749  18.204  23.587  1.00  0.00     0.004 A 
BRANCH  15  20
ATOM     20  C   UNL A   1      30.880  25.033  24.060  1.00  0.00     0.033 A 
ATOM     21  C   UNL A   1      31.118  26.233  23.382  1.00  0.00     0.132 A 
ATOM     22  C   UNL A   1      30.647  25.090  25.445  1.00  0.00     0.051 A 
ATOM     23  F   UNL A   1      31.335  26.226  22.057  1.00  0.00    -0.206 F 
ATOM     24  C   UNL A   1      31.153  27.454  24.054  1.00  0.00     0.040 A 
ATOM     25  C   UNL A   1      30.672  26.314  26.124  1.00  0.00     0.021 A 
ATOM     26  Cl  UNL A   1      30.330  23.664  26.375  1.00  0.00    -0.084 Cl
ATOM     27  C   UNL A   1      30.934  27.495  25.430  1.00  0.00     0.005 A 
ENDBRANCH  15  20
ENDBRANCH   7   8
ENDBRANCH   5   7
ENDBRANCH   2   3
ENDBRANCH   1   2
BRANCH   1  28
ATOM     28  C   UNL A   1      39.528  21.494  26.125  1.00  0.00     0.023 C 
BRANCH  28  29
ATOM     29  C   UNL A   1      40.401  20.494  26.873  1.00  0.00     0.116 C 
BRANCH  29  30
ATOM     30  N   UNL A   1      41.495  19.968  26.072  1.00  0.00    -0.352 N 
ATOM     31  C   UNL A   1      42.702  20.546  25.753  1.00  0.00     0.251 C 
ATOM     32  H   UNL A   1      41.351  19.067  25.704  1.00  0.00     0.163 HD
ATOM     33  O   UNL A   1      43.469  19.981  24.978  1.00  0.00    -0.269 OA
BRANCH  31  34
ATOM     34  C   UNL A   1      43.062  21.874  26.301  1.00  0.00     0.039 A 
ATOM     35  C   UNL A   1      43.325  22.053  27.660  1.00  0.00     0.014 A 
ATOM     36  C   UNL A   1      43.115  22.969  25.431  1.00  0.00     0.014 A 
ATOM     37  C   UNL A   1      43.468  23.339  28.173  1.00  0.00     0.010 A 
ATOM     38  C   UNL A   1      43.331  24.253  25.937  1.00  0.00     0.010 A 
ATOM     39  C   UNL A   1      43.449  24.456  27.321  1.00  0.00    -0.014 A 
BRANCH  39  40
ATOM     40  C   UNL A   1      43.508  25.821  27.904  1.00  0.00     0.031 A 
ATOM     41  C   UNL A   1      44.833  26.514  28.094  1.00  0.00     0.074 A 
ATOM     42  C   UNL A   1      42.367  26.470  28.201  1.00  0.00     0.049 A 
ATOM     43  N   UNL A   1      45.077  27.730  28.516  1.00  0.00    -0.248 NA
ATOM     44  C   UNL A   1      46.042  25.742  27.767  1.00  0.00     0.031 C 
ATOM     45  C   UNL A   1      41.020  25.918  28.058  1.00  0.00     0.029 A 
ATOM     46  N   UNL A   1      42.159  27.748  28.655  1.00  0.00    -0.354 N 
ATOM     47  C   UNL A   1      46.460  27.860  28.527  1.00  0.00     0.074 A 
ATOM     48  C   UNL A   1      47.005  26.592  28.091  1.00  0.00     0.031 C 
ATOM     49  C   UNL A   1      40.123  26.869  28.362  1.00  0.00     0.029 A 
ATOM     50  C   UNL A   1      40.831  28.081  28.761  1.00  0.00     0.049 A 
ATOM     51  H   UNL A   1      42.891  28.367  28.883  1.00  0.00     0.167 HD
ATOM     52  C   UNL A   1      47.211  28.939  28.855  1.00  0.00     0.037 A 
ATOM     53  C   UNL A   1      40.249  29.235  29.136  1.00  0.00     0.037 A 
ATOM     54  C   UNL A   1      46.677  30.212  29.261  1.00  0.00     0.049 A 
ATOM     55  C   UNL A   1      41.104  30.402  29.533  1.00  0.00     0.074 A 
ATOM     56  C   UNL A   1      47.360  31.381  29.558  1.00  0.00     0.029 A 
ATOM     57  N   UNL A   1      45.329  30.484  29.431  1.00  0.00    -0.354 N 
ATOM     58  N   UNL A   1      42.408  30.519  29.506  1.00  0.00    -0.248 NA
ATOM     59  C   UNL A   1      40.401  31.596  30.026  1.00  0.00     0.031 C 
ATOM     60  C   UNL A   1      46.424  32.350  29.941  1.00  0.00     0.029 A 
ATOM     61  C   UNL A   1      45.159  31.793  29.854  1.00  0.00     0.049 A 
ATOM     62  H   UNL A   1      44.599  29.841  29.275  1.00  0.00     0.167 HD
ATOM     63  C   UNL A   1      42.684  31.799  29.968  1.00  0.00     0.074 A 
ATOM     64  C   UNL A   1      41.409  32.426  30.251  1.00  0.00     0.031 C 
ATOM     65  C   UNL A   1      43.886  32.400  30.142  1.00  0.00     0.037 A 
BRANCH  52  66
ATOM     66  C   UNL A   1      48.700  28.779  28.801  1.00  0.00     0.057 A 
ATOM     67  C   UNL A   1      49.416  28.385  29.939  1.00  0.00     0.134 A 
ATOM     68  C   UNL A   1      49.429  29.029  27.631  1.00  0.00     0.134 A 
ATOM     69  F   UNL A   1      48.778  28.133  31.092  1.00  0.00    -0.206 F 
ATOM     70  C   UNL A   1      50.803  28.241  29.913  1.00  0.00     0.040 A 
ATOM     71  C   UNL A   1      50.816  28.870  27.589  1.00  0.00     0.040 A 
ATOM     72  F   UNL A   1      48.799  29.396  26.504  1.00  0.00    -0.206 F 
ATOM     73  C   UNL A   1      51.507  28.478  28.734  1.00  0.00     0.006 A 
ENDBRANCH  52  66
BRANCH  53  74
ATOM     74  C   UNL A   1      38.772  29.350  29.137  1.00  0.00     0.057 A 
ATOM     75  C   UNL A   1      38.055  29.580  27.958  1.00  0.00     0.134 A 
ATOM     76  C   UNL A   1      38.045  29.230  30.326  1.00  0.00     0.134 A 
ATOM     77  F   UNL A   1      38.699  29.703  26.788  1.00  0.00    -0.206 F 
ATOM     78  C   UNL A   1      36.665  29.700  27.962  1.00  0.00     0.040 A 
ATOM     79  C   UNL A   1      36.654  29.330  30.343  1.00  0.00     0.040 A 
ATOM     80  F   UNL A   1      38.680  28.991  31.483  1.00  0.00    -0.206 F 
ATOM     81  C   UNL A   1      35.960  29.571  29.158  1.00  0.00     0.006 A 
ENDBRANCH  53  74
BRANCH  65  82
ATOM     82  C   UNL A   1      43.870  33.807  30.654  1.00  0.00     0.057 A 
ATOM     83  C   UNL A   1      43.929  34.071  32.028  1.00  0.00     0.134 A 
ATOM     84  C   UNL A   1      43.789  34.901  29.785  1.00  0.00     0.134 A 
ATOM     85  F   UNL A   1      44.006  33.065  32.912  1.00  0.00    -0.206 F 
ATOM     86  C   UNL A   1      43.909  35.377  32.519  1.00  0.00     0.040 A 
ATOM     87  C   UNL A   1      43.786  36.212  30.263  1.00  0.00     0.040 A 
ATOM     88  F   UNL A   1      43.747  34.713  28.457  1.00  0.00    -0.206 F 
ATOM     89  C   UNL A   1      43.843  36.452  31.636  1.00  0.00     0.006 A 
ENDBRANCH  65  82
ENDBRANCH  39  40
ENDBRANCH  31  34
ENDBRANCH  29  30
ENDBRANCH  28  29
ENDBRANCH   1  28
TORSDOF 13
ENDMDL
