MODEL 1
REMARK VINA RESULT:     -11.1      0.000      0.000
REMARK SMILES CC[C@@]1(C(=O)NCCCCNC(=O)c2ccc(-c3c4nc(c(-c5c(F)cccc5F)c5ccc([nH]5)c(-c5c(F)cccc5F)c5nc(c(-c6c(F)cccc6F)c6ccc3[nH]6)C=C5)C=C4)cc2)CCN(C(=O)N(C)CCc2cccs2)C1
REMARK SMILES IDX 7 1 6 2 4 3 5 4 3 6 68 7 82 8 69 9 70 10 2 11 1 12 71 13
REMARK SMILES IDX 72 14 73 15 74 16 75 17 76 18 77 19 78 20 81 21 79 22 80 23
REMARK SMILES IDX 8 24 9 25 10 26 11 27 12 28 13 30 14 31 15 32 67 33 16 34
REMARK SMILES IDX 66 35 17 36 18 37 19 38 60 39 20 40 65 41 59 42 61 43 21 44
REMARK SMILES IDX 64 45 58 46 57 47 22 49 48 50 31 51 47 52 32 53 35 54 46 55
REMARK SMILES IDX 62 56 33 57 34 58 45 60 63 61 36 62 23 63 24 64 29 65 25 66
REMARK SMILES IDX 26 67 28 68 30 69 27 70 49 71 50 72 55 73 51 74 52 75 54 76
REMARK SMILES IDX 56 77 53 78 37 79 38 80 43 81 39 82 40 83 42 84 44 85 41 86
REMARK H PARENT 6 5 11 29 61 48 35 59
REMARK Flexibility Score: inf
ROOT
ATOM      1  C   UNL A   1      36.408  21.872  25.696  1.00  0.00     0.116 C 
ENDROOT
BRANCH   1   2
ATOM      2  N   UNL A   1      35.369  22.080  26.692  1.00  0.00    -0.356 N 
ATOM      3  C   UNL A   1      34.076  22.511  26.546  1.00  0.00     0.228 C 
ATOM      4  O   UNL A   1      33.339  22.360  27.524  1.00  0.00    -0.274 OA
ATOM      5  H   UNL A   1      35.637  21.880  27.618  1.00  0.00     0.163 HD
BRANCH   3   6
ATOM      6  C   UNL A   1      33.593  23.280  25.294  1.00  0.00     0.068 C 
ATOM      7  C   UNL A   1      34.573  24.427  24.924  1.00  0.00     0.040 C 
ATOM      8  C   UNL A   1      32.297  24.042  25.550  1.00  0.00     0.138 C 
ATOM      9  C   UNL A   1      34.023  25.678  25.600  1.00  0.00     0.122 C 
ATOM     10  N   UNL A   1      32.607  25.438  25.775  1.00  0.00    -0.324 N 
BRANCH   6  11
ATOM     11  C   UNL A   1      33.524  22.236  24.144  1.00  0.00     0.015 C 
ATOM     12  C   UNL A   1      32.707  20.971  24.398  1.00  0.00     0.005 C 
ENDBRANCH   6  11
BRANCH  10  13
ATOM     13  C   UNL A   1      31.560  26.224  26.190  1.00  0.00     0.319 C 
ATOM     14  O   UNL A   1      30.551  25.677  26.650  1.00  0.00    -0.248 OA
BRANCH  13  15
ATOM     15  N   UNL A   1      31.572  27.583  26.004  1.00  0.00    -0.327 N 
ATOM     16  C   UNL A   1      31.908  28.594  26.986  1.00  0.00     0.148 C 
BRANCH  15  17
ATOM     17  C   UNL A   1      31.161  28.065  24.670  1.00  0.00     0.126 C 
BRANCH  17  18
ATOM     18  C   UNL A   1      30.966  29.595  24.578  1.00  0.00     0.068 C 
BRANCH  18  19
ATOM     19  C   UNL A   1      29.765  30.020  23.772  1.00  0.00     0.006 A 
ATOM     20  C   UNL A   1      29.061  31.208  23.842  1.00  0.00     0.015 A 
ATOM     21  S   UNL A   1      29.114  28.981  22.572  1.00  0.00    -0.149 S 
ATOM     22  C   UNL A   1      28.052  31.301  22.839  1.00  0.00     0.012 A 
ATOM     23  C   UNL A   1      27.981  30.161  22.073  1.00  0.00     0.065 A 
ENDBRANCH  18  19
ENDBRANCH  17  18
ENDBRANCH  15  17
ENDBRANCH  13  15
ENDBRANCH  10  13
ENDBRANCH   3   6
ENDBRANCH   1   2
BRANCH   1  24
ATOM     24  C   UNL A   1      36.472  20.473  25.096  1.00  0.00     0.023 C 
BRANCH  24  25
ATOM     25  C   UNL A   1      37.865  19.950  24.757  1.00  0.00     0.023 C 
BRANCH  25  26
ATOM     26  C   UNL A   1      38.964  20.265  25.768  1.00  0.00     0.116 C 
BRANCH  26  27
ATOM     27  N   UNL A   1      40.051  19.297  25.764  1.00  0.00    -0.352 N 
ATOM     28  C   UNL A   1      41.388  19.458  26.046  1.00  0.00     0.251 C 
ATOM     29  H   UNL A   1      39.788  18.380  25.521  1.00  0.00     0.163 HD
ATOM     30  O   UNL A   1      42.173  18.533  25.853  1.00  0.00    -0.269 OA
BRANCH  28  31
ATOM     31  C   UNL A   1      41.900  20.753  26.546  1.00  0.00     0.039 A 
ATOM     32  C   UNL A   1      42.426  21.671  25.630  1.00  0.00     0.014 A 
ATOM     33  C   UNL A   1      41.863  21.072  27.904  1.00  0.00     0.014 A 
ATOM     34  C   UNL A   1      42.821  22.938  26.066  1.00  0.00     0.010 A 
ATOM     35  C   UNL A   1      42.171  22.365  28.323  1.00  0.00     0.010 A 
ATOM     36  C   UNL A   1      42.647  23.316  27.407  1.00  0.00    -0.014 A 
BRANCH  36  37
ATOM     37  C   UNL A   1      42.936  24.702  27.864  1.00  0.00     0.031 A 
ATOM     38  C   UNL A   1      44.339  25.107  28.229  1.00  0.00     0.074 A 
ATOM     39  C   UNL A   1      41.921  25.576  28.025  1.00  0.00     0.049 A 
ATOM     40  N   UNL A   1      44.770  26.241  28.721  1.00  0.00    -0.248 NA
ATOM     41  C   UNL A   1      45.393  24.096  28.045  1.00  0.00     0.031 C 
ATOM     42  C   UNL A   1      40.508  25.291  27.765  1.00  0.00     0.029 A 
ATOM     43  N   UNL A   1      41.919  26.877  28.464  1.00  0.00    -0.354 N 
ATOM     44  C   UNL A   1      46.134  26.072  28.924  1.00  0.00     0.074 A 
ATOM     45  C   UNL A   1      46.453  24.713  28.547  1.00  0.00     0.031 C 
ATOM     46  C   UNL A   1      39.780  26.388  28.032  1.00  0.00     0.029 A 
ATOM     47  C   UNL A   1      40.664  27.439  28.522  1.00  0.00     0.049 A 
ATOM     48  H   UNL A   1      42.738  27.364  28.712  1.00  0.00     0.167 HD
ATOM     49  C   UNL A   1      47.042  26.974  29.367  1.00  0.00     0.037 A 
ATOM     50  C   UNL A   1      40.269  28.658  28.940  1.00  0.00     0.037 A 
ATOM     51  C   UNL A   1      46.729  28.338  29.709  1.00  0.00     0.049 A 
ATOM     52  C   UNL A   1      41.302  29.642  29.416  1.00  0.00     0.074 A 
ATOM     53  C   UNL A   1      47.595  29.350  30.084  1.00  0.00     0.029 A 
ATOM     54  N   UNL A   1      45.452  28.877  29.722  1.00  0.00    -0.354 N 
ATOM     55  N   UNL A   1      42.600  29.495  29.516  1.00  0.00    -0.248 NA
ATOM     56  C   UNL A   1      40.815  30.966  29.832  1.00  0.00     0.031 C 
ATOM     57  C   UNL A   1      46.837  30.487  30.381  1.00  0.00     0.029 A 
ATOM     58  C   UNL A   1      45.506  30.200  30.129  1.00  0.00     0.049 A 
ATOM     59  H   UNL A   1      44.631  28.393  29.479  1.00  0.00     0.167 HD
ATOM     60  C   UNL A   1      43.088  30.713  29.975  1.00  0.00     0.074 A 
ATOM     61  C   UNL A   1      41.947  31.593  30.117  1.00  0.00     0.031 C 
ATOM     62  C   UNL A   1      44.364  31.070  30.256  1.00  0.00     0.037 A 
BRANCH  49  63
ATOM     63  C   UNL A   1      48.468  26.526  29.508  1.00  0.00     0.057 A 
ATOM     64  C   UNL A   1      49.401  26.686  28.475  1.00  0.00     0.134 A 
ATOM     65  C   UNL A   1      48.930  25.994  30.718  1.00  0.00     0.134 A 
ATOM     66  F   UNL A   1      49.022  27.181  27.288  1.00  0.00    -0.206 F 
ATOM     67  C   UNL A   1      50.738  26.317  28.636  1.00  0.00     0.040 A 
ATOM     68  C   UNL A   1      50.270  25.648  30.901  1.00  0.00     0.040 A 
ATOM     69  F   UNL A   1      48.091  25.821  31.752  1.00  0.00    -0.206 F 
ATOM     70  C   UNL A   1      51.178  25.807  29.856  1.00  0.00     0.006 A 
ENDBRANCH  49  63
BRANCH  50  71
ATOM     71  C   UNL A   1      38.827  29.022  28.930  1.00  0.00     0.057 A 
ATOM     72  C   UNL A   1      38.211  29.520  27.775  1.00  0.00     0.134 A 
ATOM     73  C   UNL A   1      38.041  28.919  30.084  1.00  0.00     0.134 A 
ATOM     74  F   UNL A   1      38.914  29.663  26.642  1.00  0.00    -0.206 F 
ATOM     75  C   UNL A   1      36.876  29.930  27.775  1.00  0.00     0.040 A 
ATOM     76  C   UNL A   1      36.697  29.295  30.090  1.00  0.00     0.040 A 
ATOM     77  F   UNL A   1      38.567  28.442  31.222  1.00  0.00    -0.206 F 
ATOM     78  C   UNL A   1      36.114  29.815  28.936  1.00  0.00     0.006 A 
ENDBRANCH  50  71
BRANCH  62  79
ATOM     79  C   UNL A   1      44.604  32.482  30.704  1.00  0.00     0.057 A 
ATOM     80  C   UNL A   1      44.737  33.538  29.792  1.00  0.00     0.134 A 
ATOM     81  C   UNL A   1      44.660  32.796  32.068  1.00  0.00     0.134 A 
ATOM     82  F   UNL A   1      44.705  33.304  28.471  1.00  0.00    -0.206 F 
ATOM     83  C   UNL A   1      44.944  34.850  30.221  1.00  0.00     0.040 A 
ATOM     84  C   UNL A   1      44.834  34.108  32.509  1.00  0.00     0.040 A 
ATOM     85  F   UNL A   1      44.529  31.835  32.994  1.00  0.00    -0.206 F 
ATOM     86  C   UNL A   1      44.984  35.139  31.584  1.00  0.00     0.006 A 
ENDBRANCH  62  79
ENDBRANCH  36  37
ENDBRANCH  28  31
ENDBRANCH  26  27
ENDBRANCH  25  26
ENDBRANCH  24  25
ENDBRANCH   1  24
TORSDOF 17
ENDMDL
MODEL 2
REMARK VINA RESULT:     -11.0      4.459      9.261
REMARK SMILES CC[C@@]1(C(=O)NCCCCNC(=O)c2ccc(-c3c4nc(c(-c5c(F)cccc5F)c5ccc([nH]5)c(-c5c(F)cccc5F)c5nc(c(-c6c(F)cccc6F)c6ccc3[nH]6)C=C5)C=C4)cc2)CCN(C(=O)N(C)CCc2cccs2)C1
REMARK SMILES IDX 7 1 6 2 4 3 5 4 3 6 68 7 82 8 69 9 70 10 2 11 1 12 71 13
REMARK SMILES IDX 72 14 73 15 74 16 75 17 76 18 77 19 78 20 81 21 79 22 80 23
REMARK SMILES IDX 8 24 9 25 10 26 11 27 12 28 13 30 14 31 15 32 67 33 16 34
REMARK SMILES IDX 66 35 17 36 18 37 19 38 60 39 20 40 65 41 59 42 61 43 21 44
REMARK SMILES IDX 64 45 58 46 57 47 22 49 48 50 31 51 47 52 32 53 35 54 46 55
REMARK SMILES IDX 62 56 33 57 34 58 45 60 63 61 36 62 23 63 24 64 29 65 25 66
REMARK SMILES IDX 26 67 28 68 30 69 27 70 49 71 50 72 55 73 51 74 52 75 54 76
REMARK SMILES IDX 56 77 53 78 37 79 38 80 43 81 39 82 40 83 42 84 44 85 41 86
REMARK H PARENT 6 5 11 29 61 48 35 59
REMARK Flexibility Score: inf
ROOT
ATOM      1  C   UNL A   1      32.821  29.635  25.918  1.00  0.00     0.116 C 
ENDROOT
BRANCH   1   2
ATOM      2  N   UNL A   1      33.620  29.328  24.742  1.00  0.00    -0.356 N 
ATOM      3  C   UNL A   1      33.529  28.283  23.860  1.00  0.00     0.228 C 
ATOM      4  O   UNL A   1      34.173  28.398  22.812  1.00  0.00    -0.274 OA
ATOM      5  H   UNL A   1      34.339  29.971  24.550  1.00  0.00     0.163 HD
BRANCH   3   6
ATOM      6  C   UNL A   1      32.795  26.965  24.203  1.00  0.00     0.068 C 
ATOM      7  C   UNL A   1      32.972  26.596  25.701  1.00  0.00     0.040 C 
ATOM      8  C   UNL A   1      33.416  25.760  23.505  1.00  0.00     0.138 C 
ATOM      9  C   UNL A   1      34.169  25.653  25.760  1.00  0.00     0.122 C 
ATOM     10  N   UNL A   1      34.256  25.050  24.447  1.00  0.00    -0.324 N 
BRANCH   6  11
ATOM     11  C   UNL A   1      31.295  27.209  23.880  1.00  0.00     0.015 C 
ATOM     12  C   UNL A   1      30.269  26.669  24.875  1.00  0.00     0.005 C 
ENDBRANCH   6  11
BRANCH  10  13
ATOM     13  C   UNL A   1      35.021  24.038  23.921  1.00  0.00     0.319 C 
ATOM     14  O   UNL A   1      34.930  23.787  22.714  1.00  0.00    -0.248 OA
BRANCH  13  15
ATOM     15  N   UNL A   1      35.795  23.239  24.725  1.00  0.00    -0.327 N 
ATOM     16  C   UNL A   1      37.039  23.600  25.374  1.00  0.00     0.148 C 
BRANCH  15  17
ATOM     17  C   UNL A   1      35.326  21.852  24.917  1.00  0.00     0.126 C 
BRANCH  17  18
ATOM     18  C   UNL A   1      34.576  21.611  26.247  1.00  0.00     0.068 C 
BRANCH  18  19
ATOM     19  C   UNL A   1      33.164  22.136  26.267  1.00  0.00     0.006 A 
ATOM     20  C   UNL A   1      32.537  22.876  27.253  1.00  0.00     0.015 A 
ATOM     21  S   UNL A   1      32.113  21.853  24.940  1.00  0.00    -0.149 S 
ATOM     22  C   UNL A   1      31.230  23.294  26.870  1.00  0.00     0.012 A 
ATOM     23  C   UNL A   1      30.878  22.815  25.630  1.00  0.00     0.065 A 
ENDBRANCH  18  19
ENDBRANCH  17  18
ENDBRANCH  15  17
ENDBRANCH  13  15
ENDBRANCH  10  13
ENDBRANCH   3   6
ENDBRANCH   1   2
BRANCH   1  24
ATOM     24  C   UNL A   1      31.621  30.542  25.678  1.00  0.00     0.023 C 
BRANCH  24  25
ATOM     25  C   UNL A   1      31.410  31.660  26.694  1.00  0.00     0.023 C 
BRANCH  25  26
ATOM     26  C   UNL A   1      32.659  32.431  27.113  1.00  0.00     0.116 C 
BRANCH  26  27
ATOM     27  N   UNL A   1      32.393  33.817  27.469  1.00  0.00    -0.352 N 
ATOM     28  C   UNL A   1      32.995  34.627  28.404  1.00  0.00     0.251 C 
ATOM     29  H   UNL A   1      31.668  34.244  26.959  1.00  0.00     0.163 HD
ATOM     30  O   UNL A   1      32.529  35.738  28.646  1.00  0.00    -0.269 OA
BRANCH  28  31
ATOM     31  C   UNL A   1      34.181  34.158  29.154  1.00  0.00     0.039 A 
ATOM     32  C   UNL A   1      33.990  33.455  30.349  1.00  0.00     0.014 A 
ATOM     33  C   UNL A   1      35.475  34.400  28.691  1.00  0.00     0.014 A 
ATOM     34  C   UNL A   1      35.091  32.914  31.020  1.00  0.00     0.010 A 
ATOM     35  C   UNL A   1      36.561  33.785  29.309  1.00  0.00     0.010 A 
ATOM     36  C   UNL A   1      36.380  33.028  30.477  1.00  0.00    -0.014 A 
BRANCH  36  37
ATOM     37  C   UNL A   1      37.546  32.348  31.105  1.00  0.00     0.031 A 
ATOM     38  C   UNL A   1      38.229  31.205  30.403  1.00  0.00     0.074 A 
ATOM     39  C   UNL A   1      37.940  32.707  32.344  1.00  0.00     0.049 A 
ATOM     40  N   UNL A   1      39.205  30.441  30.825  1.00  0.00    -0.248 NA
ATOM     41  C   UNL A   1      37.735  30.856  29.061  1.00  0.00     0.031 C 
ATOM     42  C   UNL A   1      37.323  33.758  33.158  1.00  0.00     0.029 A 
ATOM     43  N   UNL A   1      38.943  32.217  33.144  1.00  0.00    -0.354 N 
ATOM     44  C   UNL A   1      39.424  29.512  29.815  1.00  0.00     0.074 A 
ATOM     45  C   UNL A   1      38.451  29.777  28.779  1.00  0.00     0.031 C 
ATOM     46  C   UNL A   1      37.971  33.844  34.332  1.00  0.00     0.029 A 
ATOM     47  C   UNL A   1      39.019  32.830  34.373  1.00  0.00     0.049 A 
ATOM     48  H   UNL A   1      39.552  31.496  32.864  1.00  0.00     0.167 HD
ATOM     49  C   UNL A   1      40.363  28.539  29.749  1.00  0.00     0.037 A 
ATOM     50  C   UNL A   1      39.830  32.591  35.422  1.00  0.00     0.037 A 
ATOM     51  C   UNL A   1      41.355  28.299  30.766  1.00  0.00     0.049 A 
ATOM     52  C   UNL A   1      40.871  31.511  35.315  1.00  0.00     0.074 A 
ATOM     53  C   UNL A   1      42.401  27.394  30.749  1.00  0.00     0.029 A 
ATOM     54  N   UNL A   1      41.419  28.964  31.980  1.00  0.00    -0.354 N 
ATOM     55  N   UNL A   1      41.123  30.701  34.316  1.00  0.00    -0.248 NA
ATOM     56  C   UNL A   1      41.746  31.314  36.480  1.00  0.00     0.031 C 
ATOM     57  C   UNL A   1      43.064  27.469  31.977  1.00  0.00     0.029 A 
ATOM     58  C   UNL A   1      42.470  28.466  32.733  1.00  0.00     0.049 A 
ATOM     59  H   UNL A   1      40.810  29.682  32.265  1.00  0.00     0.167 HD
ATOM     60  C   UNL A   1      42.202  29.923  34.718  1.00  0.00     0.074 A 
ATOM     61  C   UNL A   1      42.568  30.370  36.045  1.00  0.00     0.031 C 
ATOM     62  C   UNL A   1      42.831  28.927  34.049  1.00  0.00     0.037 A 
BRANCH  49  63
ATOM     63  C   UNL A   1      40.376  27.654  28.536  1.00  0.00     0.057 A 
ATOM     64  C   UNL A   1      41.149  27.954  27.407  1.00  0.00     0.134 A 
ATOM     65  C   UNL A   1      39.660  26.450  28.527  1.00  0.00     0.134 A 
ATOM     66  F   UNL A   1      41.851  29.096  27.348  1.00  0.00    -0.206 F 
ATOM     67  C   UNL A   1      41.197  27.097  26.307  1.00  0.00     0.040 A 
ATOM     68  C   UNL A   1      39.722  25.571  27.444  1.00  0.00     0.040 A 
ATOM     69  F   UNL A   1      38.905  26.097  29.579  1.00  0.00    -0.206 F 
ATOM     70  C   UNL A   1      40.491  25.896  26.328  1.00  0.00     0.006 A 
ENDBRANCH  49  63
BRANCH  50  71
ATOM     71  C   UNL A   1      39.695  33.387  36.671  1.00  0.00     0.057 A 
ATOM     72  C   UNL A   1      38.815  32.998  37.689  1.00  0.00     0.134 A 
ATOM     73  C   UNL A   1      40.412  34.575  36.861  1.00  0.00     0.134 A 
ATOM     74  F   UNL A   1      38.083  31.882  37.560  1.00  0.00    -0.206 F 
ATOM     75  C   UNL A   1      38.630  33.776  38.834  1.00  0.00     0.040 A 
ATOM     76  C   UNL A   1      40.261  35.345  38.015  1.00  0.00     0.040 A 
ATOM     77  F   UNL A   1      41.277  34.999  35.928  1.00  0.00    -0.206 F 
ATOM     78  C   UNL A   1      39.358  34.953  39.000  1.00  0.00     0.006 A 
ENDBRANCH  50  71
BRANCH  62  79
ATOM     79  C   UNL A   1      44.007  28.279  34.722  1.00  0.00     0.057 A 
ATOM     80  C   UNL A   1      45.307  28.785  34.592  1.00  0.00     0.134 A 
ATOM     81  C   UNL A   1      43.828  27.159  35.543  1.00  0.00     0.134 A 
ATOM     82  F   UNL A   1      45.549  29.849  33.811  1.00  0.00    -0.206 F 
ATOM     83  C   UNL A   1      46.390  28.184  35.236  1.00  0.00     0.040 A 
ATOM     84  C   UNL A   1      44.898  26.568  36.216  1.00  0.00     0.040 A 
ATOM     85  F   UNL A   1      42.608  26.630  35.719  1.00  0.00    -0.206 F 
ATOM     86  C   UNL A   1      46.185  27.077  36.057  1.00  0.00     0.006 A 
ENDBRANCH  62  79
ENDBRANCH  36  37
ENDBRANCH  28  31
ENDBRANCH  26  27
ENDBRANCH  25  26
ENDBRANCH  24  25
ENDBRANCH   1  24
TORSDOF 17
ENDMDL
MODEL 3
REMARK VINA RESULT:     -10.9      1.600      6.381
REMARK SMILES CC[C@@]1(C(=O)NCCCCNC(=O)c2ccc(-c3c4nc(c(-c5c(F)cccc5F)c5ccc([nH]5)c(-c5c(F)cccc5F)c5nc(c(-c6c(F)cccc6F)c6ccc3[nH]6)C=C5)C=C4)cc2)CCN(C(=O)N(C)CCc2cccs2)C1
REMARK SMILES IDX 7 1 6 2 4 3 5 4 3 6 68 7 82 8 69 9 70 10 2 11 1 12 71 13
REMARK SMILES IDX 72 14 73 15 74 16 75 17 76 18 77 19 78 20 81 21 79 22 80 23
REMARK SMILES IDX 8 24 9 25 10 26 11 27 12 28 13 30 14 31 15 32 67 33 16 34
REMARK SMILES IDX 66 35 17 36 18 37 19 38 60 39 20 40 65 41 59 42 61 43 21 44
REMARK SMILES IDX 64 45 58 46 57 47 22 49 48 50 31 51 47 52 32 53 35 54 46 55
REMARK SMILES IDX 62 56 33 57 34 58 45 60 63 61 36 62 23 63 24 64 29 65 25 66
REMARK SMILES IDX 26 67 28 68 30 69 27 70 49 71 50 72 55 73 51 74 52 75 54 76
REMARK SMILES IDX 56 77 53 78 37 79 38 80 43 81 39 82 40 83 42 84 44 85 41 86
REMARK H PARENT 6 5 11 29 61 48 35 59
REMARK Flexibility Score: inf
ROOT
ATOM      1  C   UNL A   1      36.518  21.645  25.715  1.00  0.00     0.116 C 
ENDROOT
BRANCH   1   2
ATOM      2  N   UNL A   1      35.503  21.629  26.757  1.00  0.00    -0.356 N 
ATOM      3  C   UNL A   1      34.140  21.742  26.666  1.00  0.00     0.228 C 
ATOM      4  O   UNL A   1      33.500  21.447  27.680  1.00  0.00    -0.274 OA
ATOM      5  H   UNL A   1      35.849  21.519  27.672  1.00  0.00     0.163 HD
BRANCH   3   6
ATOM      6  C   UNL A   1      33.436  22.347  25.428  1.00  0.00     0.068 C 
ATOM      7  C   UNL A   1      34.158  23.633  24.942  1.00  0.00     0.040 C 
ATOM      8  C   UNL A   1      32.042  22.871  25.755  1.00  0.00     0.138 C 
ATOM      9  C   UNL A   1      33.434  24.795  25.612  1.00  0.00     0.122 C 
ATOM     10  N   UNL A   1      32.102  24.310  25.904  1.00  0.00    -0.324 N 
BRANCH   6  11
ATOM     11  C   UNL A   1      33.483  21.251  24.326  1.00  0.00     0.015 C 
ATOM     12  C   UNL A   1      32.638  19.999  24.550  1.00  0.00     0.005 C 
ENDBRANCH   6  11
BRANCH  10  13
ATOM     13  C   UNL A   1      30.959  24.911  26.371  1.00  0.00     0.319 C 
ATOM     14  O   UNL A   1      30.182  24.251  27.071  1.00  0.00    -0.248 OA
BRANCH  13  15
ATOM     15  N   UNL A   1      30.616  26.182  25.986  1.00  0.00    -0.327 N 
ATOM     16  C   UNL A   1      31.125  27.425  26.529  1.00  0.00     0.148 C 
BRANCH  15  17
ATOM     17  C   UNL A   1      29.587  26.292  24.931  1.00  0.00     0.126 C 
BRANCH  17  18
ATOM     18  C   UNL A   1      30.042  27.071  23.677  1.00  0.00     0.068 C 
BRANCH  18  19
ATOM     19  C   UNL A   1      31.286  26.525  23.024  1.00  0.00     0.006 A 
ATOM     20  C   UNL A   1      31.482  25.280  22.456  1.00  0.00     0.015 A 
ATOM     21  S   UNL A   1      32.697  27.494  22.899  1.00  0.00    -0.149 S 
ATOM     22  C   UNL A   1      32.756  25.163  21.829  1.00  0.00     0.012 A 
ATOM     23  C   UNL A   1      33.514  26.300  21.987  1.00  0.00     0.065 A 
ENDBRANCH  18  19
ENDBRANCH  17  18
ENDBRANCH  15  17
ENDBRANCH  13  15
ENDBRANCH  10  13
ENDBRANCH   3   6
ENDBRANCH   1   2
BRANCH   1  24
ATOM     24  C   UNL A   1      36.746  20.319  25.001  1.00  0.00     0.023 C 
BRANCH  24  25
ATOM     25  C   UNL A   1      38.194  19.980  24.662  1.00  0.00     0.023 C 
BRANCH  25  26
ATOM     26  C   UNL A   1      39.211  20.183  25.781  1.00  0.00     0.116 C 
BRANCH  26  27
ATOM     27  N   UNL A   1      40.210  19.127  25.858  1.00  0.00    -0.352 N 
ATOM     28  C   UNL A   1      41.554  19.191  26.145  1.00  0.00     0.251 C 
ATOM     29  H   UNL A   1      39.869  18.222  25.676  1.00  0.00     0.163 HD
ATOM     30  O   UNL A   1      42.256  18.190  26.026  1.00  0.00    -0.269 OA
BRANCH  28  31
ATOM     31  C   UNL A   1      42.174  20.469  26.561  1.00  0.00     0.039 A 
ATOM     32  C   UNL A   1      42.767  21.280  25.589  1.00  0.00     0.014 A 
ATOM     33  C   UNL A   1      42.172  20.875  27.896  1.00  0.00     0.014 A 
ATOM     34  C   UNL A   1      43.268  22.536  25.942  1.00  0.00     0.010 A 
ATOM     35  C   UNL A   1      42.587  22.161  28.232  1.00  0.00     0.010 A 
ATOM     36  C   UNL A   1      43.133  23.010  27.257  1.00  0.00    -0.014 A 
BRANCH  36  37
ATOM     37  C   UNL A   1      43.538  24.394  27.624  1.00  0.00     0.031 A 
ATOM     38  C   UNL A   1      42.499  25.422  27.984  1.00  0.00     0.074 A 
ATOM     39  C   UNL A   1      44.838  24.749  27.557  1.00  0.00     0.049 A 
ATOM     40  N   UNL A   1      42.653  26.694  28.254  1.00  0.00    -0.248 NA
ATOM     41  C   UNL A   1      41.099  24.969  28.020  1.00  0.00     0.031 C 
ATOM     42  C   UNL A   1      45.938  23.865  27.163  1.00  0.00     0.029 A 
ATOM     43  N   UNL A   1      45.454  25.951  27.802  1.00  0.00    -0.354 N 
ATOM     44  C   UNL A   1      41.374  27.194  28.468  1.00  0.00     0.074 A 
ATOM     45  C   UNL A   1      40.452  26.102  28.252  1.00  0.00     0.031 C 
ATOM     46  C   UNL A   1      47.093  24.550  27.209  1.00  0.00     0.029 A 
ATOM     47  C   UNL A   1      46.814  25.929  27.594  1.00  0.00     0.049 A 
ATOM     48  H   UNL A   1      44.969  26.755  28.101  1.00  0.00     0.167 HD
ATOM     49  C   UNL A   1      41.004  28.445  28.830  1.00  0.00     0.037 A 
ATOM     50  C   UNL A   1      47.730  26.912  27.686  1.00  0.00     0.037 A 
ATOM     51  C   UNL A   1      41.927  29.523  29.079  1.00  0.00     0.049 A 
ATOM     52  C   UNL A   1      47.291  28.290  28.101  1.00  0.00     0.074 A 
ATOM     53  C   UNL A   1      41.653  30.800  29.533  1.00  0.00     0.029 A 
ATOM     54  N   UNL A   1      43.299  29.450  28.890  1.00  0.00    -0.354 N 
ATOM     55  N   UNL A   1      46.087  28.723  28.387  1.00  0.00    -0.248 NA
ATOM     56  C   UNL A   1      48.338  29.316  28.212  1.00  0.00     0.031 C 
ATOM     57  C   UNL A   1      42.851  31.520  29.564  1.00  0.00     0.029 A 
ATOM     58  C   UNL A   1      43.879  30.671  29.189  1.00  0.00     0.049 A 
ATOM     59  H   UNL A   1      43.786  28.651  28.588  1.00  0.00     0.167 HD
ATOM     60  C   UNL A   1      46.237  30.058  28.741  1.00  0.00     0.074 A 
ATOM     61  C   UNL A   1      47.650  30.359  28.651  1.00  0.00     0.031 C 
ATOM     62  C   UNL A   1      45.289  30.955  29.106  1.00  0.00     0.037 A 
BRANCH  49  63
ATOM     63  C   UNL A   1      39.538  28.728  28.986  1.00  0.00     0.057 A 
ATOM     64  C   UNL A   1      38.877  28.561  30.208  1.00  0.00     0.134 A 
ATOM     65  C   UNL A   1      38.796  29.244  27.915  1.00  0.00     0.134 A 
ATOM     66  F   UNL A   1      39.527  28.063  31.271  1.00  0.00    -0.206 F 
ATOM     67  C   UNL A   1      37.526  28.880  30.357  1.00  0.00     0.040 A 
ATOM     68  C   UNL A   1      37.452  29.593  28.059  1.00  0.00     0.040 A 
ATOM     69  F   UNL A   1      39.369  29.436  26.717  1.00  0.00    -0.206 F 
ATOM     70  C   UNL A   1      36.813  29.408  29.283  1.00  0.00     0.006 A 
ENDBRANCH  49  63
BRANCH  50  71
ATOM     71  C   UNL A   1      49.159  26.637  27.379  1.00  0.00     0.057 A 
ATOM     72  C   UNL A   1      49.679  26.844  26.095  1.00  0.00     0.134 A 
ATOM     73  C   UNL A   1      50.028  26.124  28.350  1.00  0.00     0.134 A 
ATOM     74  F   UNL A   1      48.894  27.313  25.115  1.00  0.00    -0.206 F 
ATOM     75  C   UNL A   1      51.001  26.523  25.780  1.00  0.00     0.040 A 
ATOM     76  C   UNL A   1      51.360  25.829  28.057  1.00  0.00     0.040 A 
ATOM     77  F   UNL A   1      49.595  25.910  29.601  1.00  0.00    -0.206 F 
ATOM     78  C   UNL A   1      51.847  26.016  26.765  1.00  0.00     0.006 A 
ENDBRANCH  50  71
BRANCH  62  79
ATOM     79  C   UNL A   1      45.750  32.335  29.477  1.00  0.00     0.057 A 
ATOM     80  C   UNL A   1      45.822  33.371  28.536  1.00  0.00     0.134 A 
ATOM     81  C   UNL A   1      46.088  32.640  30.802  1.00  0.00     0.134 A 
ATOM     82  F   UNL A   1      45.524  33.143  27.248  1.00  0.00    -0.206 F 
ATOM     83  C   UNL A   1      46.237  34.654  28.897  1.00  0.00     0.040 A 
ATOM     84  C   UNL A   1      46.474  33.926  31.180  1.00  0.00     0.040 A 
ATOM     85  F   UNL A   1      46.030  31.696  31.754  1.00  0.00    -0.206 F 
ATOM     86  C   UNL A   1      46.556  34.936  30.224  1.00  0.00     0.006 A 
ENDBRANCH  62  79
ENDBRANCH  36  37
ENDBRANCH  28  31
ENDBRANCH  26  27
ENDBRANCH  25  26
ENDBRANCH  24  25
ENDBRANCH   1  24
TORSDOF 17
ENDMDL
