MODEL 1
REMARK VINA RESULT:      -9.5      0.000      0.000
REMARK SMILES O=C(Cc1ccc(=O)n(C(F)F)c1)NCCCCNC(=O)c1ccc(-c2c3nc(c(-c4c(F)cccc4F)c4ccc([nH]4)c(-c4c(F)cccc4F)c4nc(c(-c5c(F)cccc5F)c5ccc2[nH]5)C=C4)C=C3)cc1
REMARK SMILES IDX 16 1 15 2 14 3 1 4 2 5 3 7 4 8 5 9 13 10 6 11 9 12 7 13 8 14
REMARK SMILES IDX 10 15 11 16 12 17 17 18 18 19 19 20 20 21 21 23 22 24 23 25
REMARK SMILES IDX 75 26 24 27 74 28 25 29 26 30 27 31 68 32 28 33 73 34 67 35
REMARK SMILES IDX 69 36 29 37 72 38 66 39 65 40 30 42 56 43 39 44 55 45 40 46
REMARK SMILES IDX 43 47 54 48 70 49 41 50 42 51 53 53 71 54 44 55 31 56 32 57
REMARK SMILES IDX 37 58 33 59 34 60 36 61 38 62 35 63 57 64 58 65 63 66 59 67
REMARK SMILES IDX 60 68 62 69 64 70 61 71 45 72 46 73 51 74 47 75 48 76 50 77
REMARK SMILES IDX 52 78 49 79
REMARK H PARENT 14 6 19 22 69 41 43 52
REMARK Flexibility Score: inf
ROOT
ATOM      1  C   UNL A   1      33.316  35.885  32.813  1.00  0.00     0.023 C 
ENDROOT
BRANCH   1   2
ATOM      2  C   UNL A   1      33.476  34.366  32.866  1.00  0.00     0.116 C 
BRANCH   2   3
ATOM      3  N   UNL A   1      34.394  33.934  33.901  1.00  0.00    -0.356 N 
ATOM      4  O   UNL A   1      36.222  35.062  33.076  1.00  0.00    -0.275 OA
ATOM      5  C   UNL A   1      35.708  34.358  33.938  1.00  0.00     0.224 C 
ATOM      6  H   UNL A   1      34.071  33.319  34.598  1.00  0.00     0.163 HD
BRANCH   5   7
ATOM      7  C   UNL A   1      36.465  33.909  35.184  1.00  0.00     0.137 C 
BRANCH   7   8
ATOM      8  C   UNL A   1      37.381  32.762  34.844  1.00  0.00    -0.022 A 
ATOM      9  C   UNL A   1      38.669  32.685  35.505  1.00  0.00     0.011 A 
ATOM     10  C   UNL A   1      37.051  31.803  33.962  1.00  0.00     0.099 A 
ATOM     11  C   UNL A   1      39.537  31.710  35.208  1.00  0.00     0.072 A 
ATOM     12  N   UNL A   1      37.918  30.767  33.659  1.00  0.00    -0.258 N 
ATOM     13  C   UNL A   1      39.186  30.665  34.209  1.00  0.00     0.254 A 
ATOM     14  O   UNL A   1      40.017  29.799  33.953  1.00  0.00    -0.269 OA
BRANCH  12  15
ATOM     15  C   UNL A   1      37.541  29.752  32.709  1.00  0.00     0.451 C 
ATOM     16  F   UNL A   1      37.472  28.534  33.301  1.00  0.00    -0.185 F 
ATOM     17  F   UNL A   1      36.330  30.021  32.161  1.00  0.00    -0.185 F 
ENDBRANCH  12  15
ENDBRANCH   7   8
ENDBRANCH   5   7
ENDBRANCH   2   3
ENDBRANCH   1   2
BRANCH   1  18
ATOM     18  C   UNL A   1      32.486  36.423  31.644  1.00  0.00     0.023 C 
BRANCH  18  19
ATOM     19  C   UNL A   1      33.203  36.480  30.299  1.00  0.00     0.116 C 
BRANCH  19  20
ATOM     20  N   UNL A   1      32.693  35.512  29.341  1.00  0.00    -0.352 N 
ATOM     21  C   UNL A   1      33.311  34.406  28.799  1.00  0.00     0.251 C 
ATOM     22  H   UNL A   1      31.772  35.670  29.034  1.00  0.00     0.163 HD
ATOM     23  O   UNL A   1      32.767  33.783  27.892  1.00  0.00    -0.269 OA
BRANCH  21  24
ATOM     24  C   UNL A   1      34.650  33.992  29.276  1.00  0.00     0.039 A 
ATOM     25  C   UNL A   1      35.812  34.526  28.714  1.00  0.00     0.014 A 
ATOM     26  C   UNL A   1      34.744  33.033  30.289  1.00  0.00     0.014 A 
ATOM     27  C   UNL A   1      37.049  33.971  29.028  1.00  0.00     0.010 A 
ATOM     28  C   UNL A   1      35.997  32.535  30.664  1.00  0.00     0.010 A 
ATOM     29  C   UNL A   1      37.156  32.954  29.991  1.00  0.00    -0.014 A 
BRANCH  29  30
ATOM     30  C   UNL A   1      38.477  32.321  30.248  1.00  0.00     0.031 A 
ATOM     31  C   UNL A   1      39.450  32.938  31.220  1.00  0.00     0.074 A 
ATOM     32  C   UNL A   1      38.781  31.149  29.657  1.00  0.00     0.049 A 
ATOM     33  N   UNL A   1      40.622  32.500  31.611  1.00  0.00    -0.248 NA
ATOM     34  C   UNL A   1      39.059  34.217  31.832  1.00  0.00     0.031 C 
ATOM     35  C   UNL A   1      37.926  30.437  28.707  1.00  0.00     0.029 A 
ATOM     36  N   UNL A   1      39.879  30.338  29.790  1.00  0.00    -0.354 N 
ATOM     37  C   UNL A   1      41.114  33.455  32.491  1.00  0.00     0.074 A 
ATOM     38  C   UNL A   1      40.129  34.513  32.556  1.00  0.00     0.031 C 
ATOM     39  C   UNL A   1      38.503  29.268  28.390  1.00  0.00     0.029 A 
ATOM     40  C   UNL A   1      39.791  29.174  29.068  1.00  0.00     0.049 A 
ATOM     41  H   UNL A   1      40.656  30.569  30.349  1.00  0.00     0.167 HD
ATOM     42  C   UNL A   1      42.274  33.450  33.193  1.00  0.00     0.037 A 
ATOM     43  C   UNL A   1      40.652  28.146  28.960  1.00  0.00     0.037 A 
ATOM     44  C   UNL A   1      43.249  32.392  33.150  1.00  0.00     0.049 A 
ATOM     45  C   UNL A   1      41.956  28.192  29.704  1.00  0.00     0.074 A 
ATOM     46  C   UNL A   1      44.431  32.276  33.861  1.00  0.00     0.029 A 
ATOM     47  N   UNL A   1      43.159  31.268  32.343  1.00  0.00    -0.354 N 
ATOM     48  N   UNL A   1      42.392  29.089  30.554  1.00  0.00    -0.248 NA
ATOM     49  C   UNL A   1      42.892  27.087  29.457  1.00  0.00     0.031 C 
ATOM     50  C   UNL A   1      45.078  31.104  33.451  1.00  0.00     0.029 A 
ATOM     51  C   UNL A   1      44.278  30.469  32.515  1.00  0.00     0.049 A 
ATOM     52  H   UNL A   1      42.409  31.067  31.737  1.00  0.00     0.167 HD
ATOM     53  C   UNL A   1      43.645  28.648  30.959  1.00  0.00     0.074 A 
ATOM     54  C   UNL A   1      43.891  27.396  30.273  1.00  0.00     0.031 C 
ATOM     55  C   UNL A   1      44.515  29.230  31.820  1.00  0.00     0.037 A 
BRANCH  42  56
ATOM     56  C   UNL A   1      42.561  34.649  34.053  1.00  0.00     0.057 A 
ATOM     57  C   UNL A   1      42.349  34.598  35.437  1.00  0.00     0.134 A 
ATOM     58  C   UNL A   1      43.035  35.854  33.516  1.00  0.00     0.134 A 
ATOM     59  F   UNL A   1      41.889  33.478  36.015  1.00  0.00    -0.206 F 
ATOM     60  C   UNL A   1      42.607  35.698  36.257  1.00  0.00     0.040 A 
ATOM     61  C   UNL A   1      43.320  36.953  34.329  1.00  0.00     0.040 A 
ATOM     62  F   UNL A   1      43.272  35.965  32.200  1.00  0.00    -0.206 F 
ATOM     63  C   UNL A   1      43.103  36.877  35.703  1.00  0.00     0.006 A 
ENDBRANCH  42  56
BRANCH  43  64
ATOM     64  C   UNL A   1      40.308  26.975  28.117  1.00  0.00     0.057 A 
ATOM     65  C   UNL A   1      40.807  26.835  26.817  1.00  0.00     0.134 A 
ATOM     66  C   UNL A   1      39.470  25.965  28.601  1.00  0.00     0.134 A 
ATOM     67  F   UNL A   1      41.614  27.772  26.297  1.00  0.00    -0.206 F 
ATOM     68  C   UNL A   1      40.475  25.737  26.023  1.00  0.00     0.040 A 
ATOM     69  C   UNL A   1      39.147  24.849  27.825  1.00  0.00     0.040 A 
ATOM     70  F   UNL A   1      38.979  26.034  29.847  1.00  0.00    -0.206 F 
ATOM     71  C   UNL A   1      39.647  24.738  26.529  1.00  0.00     0.006 A 
ENDBRANCH  43  64
BRANCH  55  72
ATOM     72  C   UNL A   1      45.802  28.503  32.078  1.00  0.00     0.057 A 
ATOM     73  C   UNL A   1      46.940  28.767  31.304  1.00  0.00     0.134 A 
ATOM     74  C   UNL A   1      45.915  27.541  33.090  1.00  0.00     0.134 A 
ATOM     75  F   UNL A   1      46.898  29.674  30.317  1.00  0.00    -0.206 F 
ATOM     76  C   UNL A   1      48.145  28.100  31.530  1.00  0.00     0.040 A 
ATOM     77  C   UNL A   1      47.122  26.885  33.341  1.00  0.00     0.040 A 
ATOM     78  F   UNL A   1      44.866  27.257  33.877  1.00  0.00    -0.206 F 
ATOM     79  C   UNL A   1      48.240  27.162  32.557  1.00  0.00     0.006 A 
ENDBRANCH  55  72
ENDBRANCH  29  30
ENDBRANCH  21  24
ENDBRANCH  19  20
ENDBRANCH  18  19
ENDBRANCH   1  18
TORSDOF 13
ENDMDL
MODEL 2
REMARK VINA RESULT:      -9.4      4.622      6.929
REMARK SMILES O=C(Cc1ccc(=O)n(C(F)F)c1)NCCCCNC(=O)c1ccc(-c2c3nc(c(-c4c(F)cccc4F)c4ccc([nH]4)c(-c4c(F)cccc4F)c4nc(c(-c5c(F)cccc5F)c5ccc2[nH]5)C=C4)C=C3)cc1
REMARK SMILES IDX 16 1 15 2 14 3 1 4 2 5 3 7 4 8 5 9 13 10 6 11 9 12 7 13 8 14
REMARK SMILES IDX 10 15 11 16 12 17 17 18 18 19 19 20 20 21 21 23 22 24 23 25
REMARK SMILES IDX 75 26 24 27 74 28 25 29 26 30 27 31 68 32 28 33 73 34 67 35
REMARK SMILES IDX 69 36 29 37 72 38 66 39 65 40 30 42 56 43 39 44 55 45 40 46
REMARK SMILES IDX 43 47 54 48 70 49 41 50 42 51 53 53 71 54 44 55 31 56 32 57
REMARK SMILES IDX 37 58 33 59 34 60 36 61 38 62 35 63 57 64 58 65 63 66 59 67
REMARK SMILES IDX 60 68 62 69 64 70 61 71 45 72 46 73 51 74 47 75 48 76 50 77
REMARK SMILES IDX 52 78 49 79
REMARK H PARENT 14 6 19 22 69 41 43 52
REMARK Flexibility Score: inf
ROOT
ATOM      1  C   UNL A   1      31.897  30.350  26.875  1.00  0.00     0.023 C 
ENDROOT
BRANCH   1   2
ATOM      2  C   UNL A   1      32.970  29.871  25.898  1.00  0.00     0.116 C 
BRANCH   2   3
ATOM      3  N   UNL A   1      32.471  29.723  24.545  1.00  0.00    -0.356 N 
ATOM      4  O   UNL A   1      33.520  27.718  24.128  1.00  0.00    -0.275 OA
ATOM      5  C   UNL A   1      32.766  28.617  23.772  1.00  0.00     0.224 C 
ATOM      6  H   UNL A   1      31.906  30.434  24.165  1.00  0.00     0.163 HD
BRANCH   5   7
ATOM      7  C   UNL A   1      32.028  28.583  22.438  1.00  0.00     0.137 C 
BRANCH   7   8
ATOM      8  C   UNL A   1      30.542  28.666  22.672  1.00  0.00    -0.022 A 
ATOM      9  C   UNL A   1      29.875  27.542  23.299  1.00  0.00     0.011 A 
ATOM     10  C   UNL A   1      29.810  29.742  22.333  1.00  0.00     0.099 A 
ATOM     11  C   UNL A   1      28.551  27.547  23.491  1.00  0.00     0.072 A 
ATOM     12  N   UNL A   1      28.443  29.785  22.548  1.00  0.00    -0.258 N 
ATOM     13  C   UNL A   1      27.734  28.723  23.088  1.00  0.00     0.254 A 
ATOM     14  O   UNL A   1      26.521  28.681  23.266  1.00  0.00    -0.269 OA
BRANCH  12  15
ATOM     15  C   UNL A   1      27.681  30.949  22.175  1.00  0.00     0.451 C 
ATOM     16  F   UNL A   1      28.016  32.016  22.942  1.00  0.00    -0.185 F 
ATOM     17  F   UNL A   1      27.897  31.280  20.879  1.00  0.00    -0.185 F 
ENDBRANCH  12  15
ENDBRANCH   7   8
ENDBRANCH   5   7
ENDBRANCH   2   3
ENDBRANCH   1   2
BRANCH   1  18
ATOM     18  C   UNL A   1      31.627  31.858  26.875  1.00  0.00     0.023 C 
BRANCH  18  19
ATOM     19  C   UNL A   1      32.824  32.740  27.213  1.00  0.00     0.116 C 
BRANCH  19  20
ATOM     20  N   UNL A   1      32.446  34.089  27.601  1.00  0.00    -0.352 N 
ATOM     21  C   UNL A   1      32.996  34.912  28.559  1.00  0.00     0.251 C 
ATOM     22  H   UNL A   1      31.687  34.471  27.106  1.00  0.00     0.163 HD
ATOM     23  O   UNL A   1      32.448  35.974  28.843  1.00  0.00    -0.269 OA
BRANCH  21  24
ATOM     24  C   UNL A   1      34.221  34.501  29.283  1.00  0.00     0.039 A 
ATOM     25  C   UNL A   1      35.487  34.716  28.736  1.00  0.00     0.014 A 
ATOM     26  C   UNL A   1      34.096  33.867  30.523  1.00  0.00     0.014 A 
ATOM     27  C   UNL A   1      36.604  34.135  29.331  1.00  0.00     0.010 A 
ATOM     28  C   UNL A   1      35.231  33.357  31.162  1.00  0.00     0.010 A 
ATOM     29  C   UNL A   1      36.488  33.431  30.540  1.00  0.00    -0.014 A 
BRANCH  29  30
ATOM     30  C   UNL A   1      37.680  32.750  31.112  1.00  0.00     0.031 A 
ATOM     31  C   UNL A   1      38.242  33.173  32.445  1.00  0.00     0.074 A 
ATOM     32  C   UNL A   1      38.225  31.702  30.464  1.00  0.00     0.049 A 
ATOM     33  N   UNL A   1      39.240  32.662  33.125  1.00  0.00    -0.248 NA
ATOM     34  C   UNL A   1      37.604  34.325  33.101  1.00  0.00     0.031 C 
ATOM     35  C   UNL A   1      37.771  31.179  29.175  1.00  0.00     0.029 A 
ATOM     36  N   UNL A   1      39.258  30.870  30.816  1.00  0.00    -0.354 N 
ATOM     37  C   UNL A   1      39.362  33.439  34.270  1.00  0.00     0.074 A 
ATOM     38  C   UNL A   1      38.357  34.476  34.182  1.00  0.00     0.031 C 
ATOM     39  C   UNL A   1      38.481  30.082  28.873  1.00  0.00     0.029 A 
ATOM     40  C   UNL A   1      39.475  29.856  29.917  1.00  0.00     0.049 A 
ATOM     41  H   UNL A   1      39.792  30.990  31.634  1.00  0.00     0.167 HD
ATOM     42  C   UNL A   1      40.222  33.298  35.308  1.00  0.00     0.037 A 
ATOM     43  C   UNL A   1      40.376  28.857  29.928  1.00  0.00     0.037 A 
ATOM     44  C   UNL A   1      41.211  32.256  35.412  1.00  0.00     0.049 A 
ATOM     45  C   UNL A   1      41.355  28.758  31.062  1.00  0.00     0.074 A 
ATOM     46  C   UNL A   1      42.095  32.004  36.448  1.00  0.00     0.029 A 
ATOM     47  N   UNL A   1      41.452  31.297  34.441  1.00  0.00    -0.354 N 
ATOM     48  N   UNL A   1      41.437  29.483  32.151  1.00  0.00    -0.248 NA
ATOM     49  C   UNL A   1      42.377  27.707  30.957  1.00  0.00     0.031 C 
ATOM     50  C   UNL A   1      42.901  30.919  36.082  1.00  0.00     0.029 A 
ATOM     51  C   UNL A   1      42.491  30.470  34.838  1.00  0.00     0.049 A 
ATOM     52  H   UNL A   1      40.957  31.215  33.593  1.00  0.00     0.167 HD
ATOM     53  C   UNL A   1      42.507  28.965  32.870  1.00  0.00     0.074 A 
ATOM     54  C   UNL A   1      43.031  27.855  32.101  1.00  0.00     0.031 C 
ATOM     55  C   UNL A   1      43.010  29.375  34.059  1.00  0.00     0.037 A 
BRANCH  42  56
ATOM     56  C   UNL A   1      40.145  34.320  36.407  1.00  0.00     0.057 A 
ATOM     57  C   UNL A   1      40.908  35.493  36.343  1.00  0.00     0.134 A 
ATOM     58  C   UNL A   1      39.326  34.142  37.531  1.00  0.00     0.134 A 
ATOM     59  F   UNL A   1      41.718  35.722  35.298  1.00  0.00    -0.206 F 
ATOM     60  C   UNL A   1      40.854  36.456  37.352  1.00  0.00     0.040 A 
ATOM     61  C   UNL A   1      39.246  35.110  38.535  1.00  0.00     0.040 A 
ATOM     62  F   UNL A   1      38.560  33.048  37.648  1.00  0.00    -0.206 F 
ATOM     63  C   UNL A   1      40.013  36.269  38.448  1.00  0.00     0.006 A 
ENDBRANCH  42  56
BRANCH  43  64
ATOM     64  C   UNL A   1      40.392  27.860  28.830  1.00  0.00     0.057 A 
ATOM     65  C   UNL A   1      41.156  28.055  27.674  1.00  0.00     0.134 A 
ATOM     66  C   UNL A   1      39.641  26.683  28.919  1.00  0.00     0.134 A 
ATOM     67  F   UNL A   1      41.897  29.165  27.530  1.00  0.00    -0.206 F 
ATOM     68  C   UNL A   1      41.164  27.121  26.638  1.00  0.00     0.040 A 
ATOM     69  C   UNL A   1      39.657  25.729  27.900  1.00  0.00     0.040 A 
ATOM     70  F   UNL A   1      38.906  26.432  30.012  1.00  0.00    -0.206 F 
ATOM     71  C   UNL A   1      40.416  25.951  26.752  1.00  0.00     0.006 A 
ENDBRANCH  43  64
BRANCH  55  72
ATOM     72  C   UNL A   1      44.175  28.603  34.605  1.00  0.00     0.057 A 
ATOM     73  C   UNL A   1      43.972  27.466  35.396  1.00  0.00     0.134 A 
ATOM     74  C   UNL A   1      45.498  28.986  34.349  1.00  0.00     0.134 A 
ATOM     75  F   UNL A   1      42.730  27.047  35.683  1.00  0.00    -0.206 F 
ATOM     76  C   UNL A   1      45.043  26.735  35.912  1.00  0.00     0.040 A 
ATOM     77  C   UNL A   1      46.578  28.250  34.839  1.00  0.00     0.040 A 
ATOM     78  F   UNL A   1      45.759  30.056  33.582  1.00  0.00    -0.206 F 
ATOM     79  C   UNL A   1      46.352  27.123  35.627  1.00  0.00     0.006 A 
ENDBRANCH  55  72
ENDBRANCH  29  30
ENDBRANCH  21  24
ENDBRANCH  19  20
ENDBRANCH  18  19
ENDBRANCH   1  18
TORSDOF 13
ENDMDL
MODEL 3
REMARK VINA RESULT:      -9.4      4.686      9.338
REMARK SMILES O=C(Cc1ccc(=O)n(C(F)F)c1)NCCCCNC(=O)c1ccc(-c2c3nc(c(-c4c(F)cccc4F)c4ccc([nH]4)c(-c4c(F)cccc4F)c4nc(c(-c5c(F)cccc5F)c5ccc2[nH]5)C=C4)C=C3)cc1
REMARK SMILES IDX 16 1 15 2 14 3 1 4 2 5 3 7 4 8 5 9 13 10 6 11 9 12 7 13 8 14
REMARK SMILES IDX 10 15 11 16 12 17 17 18 18 19 19 20 20 21 21 23 22 24 23 25
REMARK SMILES IDX 75 26 24 27 74 28 25 29 26 30 27 31 68 32 28 33 73 34 67 35
REMARK SMILES IDX 69 36 29 37 72 38 66 39 65 40 30 42 56 43 39 44 55 45 40 46
REMARK SMILES IDX 43 47 54 48 70 49 41 50 42 51 53 53 71 54 44 55 31 56 32 57
REMARK SMILES IDX 37 58 33 59 34 60 36 61 38 62 35 63 57 64 58 65 63 66 59 67
REMARK SMILES IDX 60 68 62 69 64 70 61 71 45 72 46 73 51 74 47 75 48 76 50 77
REMARK SMILES IDX 52 78 49 79
REMARK H PARENT 14 6 19 22 69 41 43 52
REMARK Flexibility Score: inf
ROOT
ATOM      1  C   UNL A   1      32.030  30.270  26.924  1.00  0.00     0.023 C 
ENDROOT
BRANCH   1   2
ATOM      2  C   UNL A   1      33.142  29.889  25.947  1.00  0.00     0.116 C 
BRANCH   2   3
ATOM      3  N   UNL A   1      32.659  29.707  24.592  1.00  0.00    -0.356 N 
ATOM      4  O   UNL A   1      33.219  27.480  24.442  1.00  0.00    -0.275 OA
ATOM      5  C   UNL A   1      32.707  28.482  23.955  1.00  0.00     0.224 C 
ATOM      6  H   UNL A   1      32.286  30.481  24.111  1.00  0.00     0.163 HD
BRANCH   5   7
ATOM      7  C   UNL A   1      32.017  28.468  22.595  1.00  0.00     0.137 C 
BRANCH   7   8
ATOM      8  C   UNL A   1      30.527  28.598  22.774  1.00  0.00    -0.022 A 
ATOM      9  C   UNL A   1      29.797  27.480  23.340  1.00  0.00     0.011 A 
ATOM     10  C   UNL A   1      29.847  29.708  22.440  1.00  0.00     0.099 A 
ATOM     11  C   UNL A   1      28.467  27.528  23.481  1.00  0.00     0.072 A 
ATOM     12  N   UNL A   1      28.475  29.795  22.603  1.00  0.00    -0.258 N 
ATOM     13  C   UNL A   1      27.708  28.744  23.083  1.00  0.00     0.254 A 
ATOM     14  O   UNL A   1      26.489  28.741  23.213  1.00  0.00    -0.269 OA
BRANCH  12  15
ATOM     15  C   UNL A   1      27.769  30.996  22.237  1.00  0.00     0.451 C 
ATOM     16  F   UNL A   1      27.391  31.692  23.337  1.00  0.00    -0.185 F 
ATOM     17  F   UNL A   1      28.546  31.805  21.475  1.00  0.00    -0.185 F 
ENDBRANCH  12  15
ENDBRANCH   7   8
ENDBRANCH   5   7
ENDBRANCH   2   3
ENDBRANCH   1   2
BRANCH   1  18
ATOM     18  C   UNL A   1      31.705  31.764  27.008  1.00  0.00     0.023 C 
BRANCH  18  19
ATOM     19  C   UNL A   1      32.900  32.686  27.221  1.00  0.00     0.116 C 
BRANCH  19  20
ATOM     20  N   UNL A   1      32.516  34.051  27.547  1.00  0.00    -0.352 N 
ATOM     21  C   UNL A   1      32.995  34.884  28.534  1.00  0.00     0.251 C 
ATOM     22  H   UNL A   1      31.811  34.435  26.979  1.00  0.00     0.163 HD
ATOM     23  O   UNL A   1      32.446  35.961  28.748  1.00  0.00    -0.269 OA
BRANCH  21  24
ATOM     24  C   UNL A   1      34.143  34.466  29.372  1.00  0.00     0.039 A 
ATOM     25  C   UNL A   1      35.454  34.576  28.904  1.00  0.00     0.014 A 
ATOM     26  C   UNL A   1      33.898  33.932  30.641  1.00  0.00     0.014 A 
ATOM     27  C   UNL A   1      36.493  33.985  29.618  1.00  0.00     0.010 A 
ATOM     28  C   UNL A   1      34.957  33.414  31.395  1.00  0.00     0.010 A 
ATOM     29  C   UNL A   1      36.255  33.379  30.862  1.00  0.00    -0.014 A 
BRANCH  29  30
ATOM     30  C   UNL A   1      37.366  32.683  31.565  1.00  0.00     0.031 A 
ATOM     31  C   UNL A   1      38.077  31.521  30.919  1.00  0.00     0.074 A 
ATOM     32  C   UNL A   1      37.785  33.135  32.762  1.00  0.00     0.049 A 
ATOM     33  N   UNL A   1      39.101  30.828  31.356  1.00  0.00    -0.248 NA
ATOM     34  C   UNL A   1      37.570  31.074  29.612  1.00  0.00     0.031 C 
ATOM     35  C   UNL A   1      37.197  34.258  33.493  1.00  0.00     0.029 A 
ATOM     36  N   UNL A   1      38.823  32.726  33.561  1.00  0.00    -0.354 N 
ATOM     37  C   UNL A   1      39.344  29.856  30.393  1.00  0.00     0.074 A 
ATOM     38  C   UNL A   1      38.343  30.027  29.362  1.00  0.00     0.031 C 
ATOM     39  C   UNL A   1      37.918  34.486  34.601  1.00  0.00     0.029 A 
ATOM     40  C   UNL A   1      38.983  33.493  34.688  1.00  0.00     0.049 A 
ATOM     41  H   UNL A   1      39.397  31.956  33.346  1.00  0.00     0.167 HD
ATOM     42  C   UNL A   1      40.318  28.914  30.362  1.00  0.00     0.037 A 
ATOM     43  C   UNL A   1      39.884  33.405  35.684  1.00  0.00     0.037 A 
ATOM     44  C   UNL A   1      41.330  28.751  31.374  1.00  0.00     0.049 A 
ATOM     45  C   UNL A   1      40.917  32.316  35.652  1.00  0.00     0.074 A 
ATOM     46  C   UNL A   1      42.385  27.856  31.404  1.00  0.00     0.029 A 
ATOM     47  N   UNL A   1      41.406  29.498  32.539  1.00  0.00    -0.354 N 
ATOM     48  N   UNL A   1      41.151  31.424  34.721  1.00  0.00    -0.248 NA
ATOM     49  C   UNL A   1      41.800  32.215  36.822  1.00  0.00     0.031 C 
ATOM     50  C   UNL A   1      43.074  28.031  32.611  1.00  0.00     0.029 A 
ATOM     51  C   UNL A   1      42.472  29.063  33.312  1.00  0.00     0.049 A 
ATOM     52  H   UNL A   1      40.793  30.229  32.783  1.00  0.00     0.167 HD
ATOM     53  C   UNL A   1      42.220  30.667  35.182  1.00  0.00     0.074 A 
ATOM     54  C   UNL A   1      42.598  31.217  36.469  1.00  0.00     0.031 C 
ATOM     55  C   UNL A   1      42.832  29.611  34.594  1.00  0.00     0.037 A 
BRANCH  42  56
ATOM     56  C   UNL A   1      40.316  27.964  29.197  1.00  0.00     0.057 A 
ATOM     57  C   UNL A   1      39.535  26.802  29.228  1.00  0.00     0.134 A 
ATOM     58  C   UNL A   1      41.090  28.191  28.051  1.00  0.00     0.134 A 
ATOM     59  F   UNL A   1      38.776  26.519  30.298  1.00  0.00    -0.206 F 
ATOM     60  C   UNL A   1      39.517  25.904  28.160  1.00  0.00     0.040 A 
ATOM     61  C   UNL A   1      41.062  27.312  26.966  1.00  0.00     0.040 A 
ATOM     62  F   UNL A   1      41.850  29.292  27.951  1.00  0.00    -0.206 F 
ATOM     63  C   UNL A   1      40.276  26.164  27.020  1.00  0.00     0.006 A 
ENDBRANCH  42  56
BRANCH  43  64
ATOM     64  C   UNL A   1      39.856  34.384  36.797  1.00  0.00     0.057 A 
ATOM     65  C   UNL A   1      39.115  34.151  37.962  1.00  0.00     0.134 A 
ATOM     66  C   UNL A   1      40.577  35.580  36.718  1.00  0.00     0.134 A 
ATOM     67  F   UNL A   1      38.402  33.022  38.095  1.00  0.00    -0.206 F 
ATOM     68  C   UNL A   1      39.084  35.076  39.004  1.00  0.00     0.040 A 
ATOM     69  C   UNL A   1      40.573  36.506  37.764  1.00  0.00     0.040 A 
ATOM     70  F   UNL A   1      41.322  35.850  35.636  1.00  0.00    -0.206 F 
ATOM     71  C   UNL A   1      39.819  36.256  38.909  1.00  0.00     0.006 A 
ENDBRANCH  43  64
BRANCH  55  72
ATOM     72  C   UNL A   1      43.984  28.998  35.333  1.00  0.00     0.057 A 
ATOM     73  C   UNL A   1      43.771  27.985  36.276  1.00  0.00     0.134 A 
ATOM     74  C   UNL A   1      45.305  29.411  35.113  1.00  0.00     0.134 A 
ATOM     75  F   UNL A   1      42.531  27.546  36.537  1.00  0.00    -0.206 F 
ATOM     76  C   UNL A   1      44.831  27.403  36.973  1.00  0.00     0.040 A 
ATOM     77  C   UNL A   1      46.376  28.820  35.786  1.00  0.00     0.040 A 
ATOM     78  F   UNL A   1      45.576  30.365  34.209  1.00  0.00    -0.206 F 
ATOM     79  C   UNL A   1      46.139  27.816  36.722  1.00  0.00     0.006 A 
ENDBRANCH  55  72
ENDBRANCH  29  30
ENDBRANCH  21  24
ENDBRANCH  19  20
ENDBRANCH  18  19
ENDBRANCH   1  18
TORSDOF 13
ENDMDL
