MODEL 1
REMARK VINA RESULT:     -10.3      0.000      0.000
REMARK SMILES CC[C@H](C)[C@@H](C)[C@](C)(O)C(=O)NCCCCNC(=O)c1ccc(-c2c3nc(c(-c4c(F)cccc4F)c4ccc([nH]4)c(-c4c(F)cccc4F)c4nc(c(-c5c(F)cccc5F)c5ccc2[nH]5)C=C4)C=C3)cc1
REMARK SMILES IDX 14 1 13 2 12 3 10 4 11 5 7 7 8 8 5 9 6 10 3 11 4 12 2 13
REMARK SMILES IDX 1 14 9 15 15 17 16 18 17 19 18 20 19 22 20 23 21 24 73 25
REMARK SMILES IDX 22 26 72 27 23 28 24 29 25 30 66 31 26 32 71 33 65 34 67 35
REMARK SMILES IDX 27 36 70 37 64 38 63 39 28 41 54 42 37 43 53 44 38 45 41 46
REMARK SMILES IDX 52 47 68 48 39 49 40 50 51 52 69 53 42 54 29 55 30 56 35 57
REMARK SMILES IDX 31 58 32 59 34 60 36 61 33 62 55 63 56 64 61 65 57 66 58 67
REMARK SMILES IDX 60 68 62 69 59 70 43 71 44 72 49 73 45 74 46 75 48 76 50 77
REMARK SMILES IDX 47 78
REMARK H PARENT 12 6 9 16 17 21 67 40 41 51
REMARK Flexibility Score: inf
ROOT
ATOM      1  C   UNL A   1      36.708  20.815  24.826  1.00  0.00     0.023 C 
ENDROOT
BRANCH   1   2
ATOM      2  C   UNL A   1      35.277  20.316  25.001  1.00  0.00     0.116 C 
BRANCH   2   3
ATOM      3  N   UNL A   1      34.655  20.830  26.211  1.00  0.00    -0.354 N 
ATOM      4  C   UNL A   1      33.435  21.438  26.377  1.00  0.00     0.251 C 
ATOM      5  O   UNL A   1      33.161  21.847  27.510  1.00  0.00    -0.272 OA
ATOM      6  H   UNL A   1      35.187  20.728  27.033  1.00  0.00     0.163 HD
BRANCH   4   7
ATOM      7  C   UNL A   1      32.436  21.541  25.182  1.00  0.00     0.143 C 
ATOM      8  C   UNL A   1      32.522  20.317  24.251  1.00  0.00     0.053 C 
BRANCH   7   9
ATOM      9  C   UNL A   1      32.584  22.925  24.440  1.00  0.00     0.030 C 
ATOM     10  C   UNL A   1      31.249  23.309  23.766  1.00  0.00     0.011 C 
BRANCH   9  11
ATOM     11  C   UNL A   1      33.796  23.108  23.448  1.00  0.00    -0.008 C 
ATOM     12  C   UNL A   1      33.278  23.283  22.001  1.00  0.00     0.008 C 
BRANCH  11  13
ATOM     13  C   UNL A   1      34.726  24.308  23.766  1.00  0.00     0.000 C 
ATOM     14  C   UNL A   1      35.155  24.372  25.228  1.00  0.00     0.004 C 
ENDBRANCH  11  13
ENDBRANCH   9  11
ENDBRANCH   7   9
BRANCH   7  15
ATOM     15  O   UNL A   1      31.137  21.454  25.824  1.00  0.00    -0.380 OA
ATOM     16  H   UNL A   1      30.655  20.688  25.477  1.00  0.00     0.212 HD
ENDBRANCH   7  15
ENDBRANCH   4   7
ENDBRANCH   2   3
ENDBRANCH   1   2
BRANCH   1  17
ATOM     17  C   UNL A   1      37.778  19.736  24.974  1.00  0.00     0.023 C 
BRANCH  17  18
ATOM     18  C   UNL A   1      39.021  20.158  25.752  1.00  0.00     0.116 C 
BRANCH  18  19
ATOM     19  N   UNL A   1      40.031  19.113  25.828  1.00  0.00    -0.352 N 
ATOM     20  C   UNL A   1      41.379  19.227  26.067  1.00  0.00     0.251 C 
ATOM     21  H   UNL A   1      39.703  18.195  25.690  1.00  0.00     0.163 HD
ATOM     22  O   UNL A   1      42.113  18.248  25.969  1.00  0.00    -0.269 OA
BRANCH  20  23
ATOM     23  C   UNL A   1      41.951  20.546  26.408  1.00  0.00     0.039 A 
ATOM     24  C   UNL A   1      42.354  21.395  25.376  1.00  0.00     0.014 A 
ATOM     25  C   UNL A   1      42.060  20.955  27.741  1.00  0.00     0.014 A 
ATOM     26  C   UNL A   1      42.795  22.685  25.676  1.00  0.00     0.010 A 
ATOM     27  C   UNL A   1      42.421  22.267  28.032  1.00  0.00     0.010 A 
ATOM     28  C   UNL A   1      42.791  23.146  27.004  1.00  0.00    -0.014 A 
BRANCH  28  29
ATOM     29  C   UNL A   1      43.161  24.547  27.334  1.00  0.00     0.031 A 
ATOM     30  C   UNL A   1      44.601  24.976  27.304  1.00  0.00     0.074 A 
ATOM     31  C   UNL A   1      42.206  25.415  27.724  1.00  0.00     0.049 A 
ATOM     32  N   UNL A   1      45.126  26.131  27.626  1.00  0.00    -0.248 NA
ATOM     33  C   UNL A   1      45.584  23.966  26.884  1.00  0.00     0.031 C 
ATOM     34  C   UNL A   1      40.780  25.108  27.844  1.00  0.00     0.029 A 
ATOM     35  N   UNL A   1      42.296  26.730  28.106  1.00  0.00    -0.354 N 
ATOM     36  C   UNL A   1      46.497  25.983  27.456  1.00  0.00     0.074 A 
ATOM     37  C   UNL A   1      46.728  24.610  27.063  1.00  0.00     0.031 C 
ATOM     38  C   UNL A   1      40.126  26.209  28.248  1.00  0.00     0.029 A 
ATOM     39  C   UNL A   1      41.089  27.285  28.456  1.00  0.00     0.049 A 
ATOM     40  H   UNL A   1      43.145  27.228  28.127  1.00  0.00     0.167 HD
ATOM     41  C   UNL A   1      47.473  26.912  27.590  1.00  0.00     0.037 A 
ATOM     42  C   UNL A   1      40.791  28.520  28.905  1.00  0.00     0.037 A 
ATOM     43  C   UNL A   1      47.240  28.281  27.969  1.00  0.00     0.049 A 
ATOM     44  C   UNL A   1      41.895  29.529  29.063  1.00  0.00     0.074 A 
ATOM     45  C   UNL A   1      48.156  29.312  28.084  1.00  0.00     0.029 A 
ATOM     46  N   UNL A   1      46.001  28.809  28.300  1.00  0.00    -0.354 N 
ATOM     47  N   UNL A   1      43.179  29.395  28.832  1.00  0.00    -0.248 NA
ATOM     48  C   UNL A   1      41.508  30.866  29.537  1.00  0.00     0.031 C 
ATOM     49  C   UNL A   1      47.480  30.451  28.532  1.00  0.00     0.029 A 
ATOM     50  C   UNL A   1      46.133  30.146  28.642  1.00  0.00     0.049 A 
ATOM     51  H   UNL A   1      45.153  28.309  28.294  1.00  0.00     0.167 HD
ATOM     52  C   UNL A   1      43.747  30.633  29.104  1.00  0.00     0.074 A 
ATOM     53  C   UNL A   1      42.665  31.509  29.503  1.00  0.00     0.031 C 
ATOM     54  C   UNL A   1      45.046  31.010  29.031  1.00  0.00     0.037 A 
BRANCH  41  55
ATOM     55  C   UNL A   1      48.885  26.475  27.320  1.00  0.00     0.057 A 
ATOM     56  C   UNL A   1      49.713  25.981  28.337  1.00  0.00     0.134 A 
ATOM     57  C   UNL A   1      49.414  26.518  26.024  1.00  0.00     0.134 A 
ATOM     58  F   UNL A   1      49.273  25.923  29.604  1.00  0.00    -0.206 F 
ATOM     59  C   UNL A   1      51.024  25.578  28.082  1.00  0.00     0.040 A 
ATOM     60  C   UNL A   1      50.713  26.089  25.751  1.00  0.00     0.040 A 
ATOM     61  F   UNL A   1      48.674  26.972  25.001  1.00  0.00    -0.206 F 
ATOM     62  C   UNL A   1      51.525  25.624  26.783  1.00  0.00     0.006 A 
ENDBRANCH  41  55
BRANCH  42  63
ATOM     63  C   UNL A   1      39.386  28.876  29.224  1.00  0.00     0.057 A 
ATOM     64  C   UNL A   1      38.853  28.650  30.498  1.00  0.00     0.134 A 
ATOM     65  C   UNL A   1      38.539  29.442  28.264  1.00  0.00     0.134 A 
ATOM     66  F   UNL A   1      39.608  28.093  31.456  1.00  0.00    -0.206 F 
ATOM     67  C   UNL A   1      37.524  28.954  30.801  1.00  0.00     0.040 A 
ATOM     68  C   UNL A   1      37.217  29.777  28.560  1.00  0.00     0.040 A 
ATOM     69  F   UNL A   1      38.990  29.691  27.025  1.00  0.00    -0.206 F 
ATOM     70  C   UNL A   1      36.704  29.524  29.831  1.00  0.00     0.006 A 
ENDBRANCH  42  63
BRANCH  54  71
ATOM     71  C   UNL A   1      45.368  32.440  29.351  1.00  0.00     0.057 A 
ATOM     72  C   UNL A   1      45.745  32.847  30.638  1.00  0.00     0.134 A 
ATOM     73  C   UNL A   1      45.339  33.418  28.347  1.00  0.00     0.134 A 
ATOM     74  F   UNL A   1      45.781  31.964  31.647  1.00  0.00    -0.206 F 
ATOM     75  C   UNL A   1      46.056  34.179  30.920  1.00  0.00     0.040 A 
ATOM     76  C   UNL A   1      45.677  34.746  28.611  1.00  0.00     0.040 A 
ATOM     77  F   UNL A   1      44.997  33.095  27.092  1.00  0.00    -0.206 F 
ATOM     78  C   UNL A   1      46.031  35.130  29.902  1.00  0.00     0.006 A 
ENDBRANCH  54  71
ENDBRANCH  28  29
ENDBRANCH  20  23
ENDBRANCH  18  19
ENDBRANCH  17  18
ENDBRANCH   1  17
TORSDOF 15
ENDMDL
MODEL 2
REMARK VINA RESULT:     -10.3      0.999      6.543
REMARK SMILES CC[C@H](C)[C@@H](C)[C@](C)(O)C(=O)NCCCCNC(=O)c1ccc(-c2c3nc(c(-c4c(F)cccc4F)c4ccc([nH]4)c(-c4c(F)cccc4F)c4nc(c(-c5c(F)cccc5F)c5ccc2[nH]5)C=C4)C=C3)cc1
REMARK SMILES IDX 14 1 13 2 12 3 10 4 11 5 7 7 8 8 5 9 6 10 3 11 4 12 2 13
REMARK SMILES IDX 1 14 9 15 15 17 16 18 17 19 18 20 19 22 20 23 21 24 73 25
REMARK SMILES IDX 22 26 72 27 23 28 24 29 25 30 66 31 26 32 71 33 65 34 67 35
REMARK SMILES IDX 27 36 70 37 64 38 63 39 28 41 54 42 37 43 53 44 38 45 41 46
REMARK SMILES IDX 52 47 68 48 39 49 40 50 51 52 69 53 42 54 29 55 30 56 35 57
REMARK SMILES IDX 31 58 32 59 34 60 36 61 33 62 55 63 56 64 61 65 57 66 58 67
REMARK SMILES IDX 60 68 62 69 59 70 43 71 44 72 49 73 45 74 46 75 48 76 50 77
REMARK SMILES IDX 47 78
REMARK H PARENT 12 6 9 16 17 21 67 40 41 51
REMARK Flexibility Score: inf
ROOT
ATOM      1  C   UNL A   1      36.985  19.487  24.998  1.00  0.00     0.023 C 
ENDROOT
BRANCH   1   2
ATOM      2  C   UNL A   1      35.667  20.256  25.002  1.00  0.00     0.116 C 
BRANCH   2   3
ATOM      3  N   UNL A   1      34.518  19.384  25.194  1.00  0.00    -0.354 N 
ATOM      4  C   UNL A   1      33.195  19.706  25.367  1.00  0.00     0.251 C 
ATOM      5  O   UNL A   1      32.413  18.774  25.577  1.00  0.00    -0.272 OA
ATOM      6  H   UNL A   1      34.719  18.420  25.203  1.00  0.00     0.163 HD
BRANCH   4   7
ATOM      7  C   UNL A   1      32.722  21.189  25.240  1.00  0.00     0.143 C 
ATOM      8  C   UNL A   1      32.599  21.632  23.770  1.00  0.00     0.053 C 
BRANCH   7   9
ATOM      9  C   UNL A   1      33.609  22.144  26.127  1.00  0.00     0.030 C 
ATOM     10  C   UNL A   1      32.978  22.303  27.527  1.00  0.00     0.011 C 
BRANCH   9  11
ATOM     11  C   UNL A   1      34.023  23.542  25.526  1.00  0.00    -0.008 C 
ATOM     12  C   UNL A   1      33.140  24.661  26.126  1.00  0.00     0.008 C 
BRANCH  11  13
ATOM     13  C   UNL A   1      35.506  23.937  25.749  1.00  0.00     0.000 C 
ATOM     14  C   UNL A   1      36.387  23.699  24.528  1.00  0.00     0.004 C 
ENDBRANCH  11  13
ENDBRANCH   9  11
ENDBRANCH   7   9
BRANCH   7  15
ATOM     15  O   UNL A   1      31.363  21.150  25.751  1.00  0.00    -0.380 OA
ATOM     16  H   UNL A   1      30.762  21.548  25.103  1.00  0.00     0.212 HD
ENDBRANCH   7  15
ENDBRANCH   4   7
ENDBRANCH   2   3
ENDBRANCH   1   2
BRANCH   1  17
ATOM     17  C   UNL A   1      38.230  20.364  24.890  1.00  0.00     0.023 C 
BRANCH  17  18
ATOM     18  C   UNL A   1      39.164  20.314  26.095  1.00  0.00     0.116 C 
BRANCH  18  19
ATOM     19  N   UNL A   1      40.120  19.218  26.034  1.00  0.00    -0.352 N 
ATOM     20  C   UNL A   1      41.490  19.257  26.125  1.00  0.00     0.251 C 
ATOM     21  H   UNL A   1      39.729  18.322  25.910  1.00  0.00     0.163 HD
ATOM     22  O   UNL A   1      42.155  18.244  25.922  1.00  0.00    -0.269 OA
BRANCH  20  23
ATOM     23  C   UNL A   1      42.165  20.534  26.433  1.00  0.00     0.039 A 
ATOM     24  C   UNL A   1      42.673  21.300  25.382  1.00  0.00     0.014 A 
ATOM     25  C   UNL A   1      42.269  20.988  27.751  1.00  0.00     0.014 A 
ATOM     26  C   UNL A   1      43.217  22.559  25.646  1.00  0.00     0.010 A 
ATOM     27  C   UNL A   1      42.735  22.275  28.002  1.00  0.00     0.010 A 
ATOM     28  C   UNL A   1      43.212  23.074  26.953  1.00  0.00    -0.014 A 
BRANCH  28  29
ATOM     29  C   UNL A   1      43.694  24.450  27.240  1.00  0.00     0.031 A 
ATOM     30  C   UNL A   1      42.722  25.523  27.645  1.00  0.00     0.074 A 
ATOM     31  C   UNL A   1      44.998  24.749  27.073  1.00  0.00     0.049 A 
ATOM     32  N   UNL A   1      42.941  26.795  27.869  1.00  0.00    -0.248 NA
ATOM     33  C   UNL A   1      41.315  25.121  27.790  1.00  0.00     0.031 C 
ATOM     34  C   UNL A   1      46.033  23.811  26.635  1.00  0.00     0.029 A 
ATOM     35  N   UNL A   1      45.672  25.933  27.238  1.00  0.00    -0.354 N 
ATOM     36  C   UNL A   1      41.700  27.342  28.171  1.00  0.00     0.074 A 
ATOM     37  C   UNL A   1      40.727  26.281  28.042  1.00  0.00     0.031 C 
ATOM     38  C   UNL A   1      47.213  24.448  26.588  1.00  0.00     0.029 A 
ATOM     39  C   UNL A   1      47.013  25.848  26.951  1.00  0.00     0.049 A 
ATOM     40  H   UNL A   1      45.236  26.764  27.535  1.00  0.00     0.167 HD
ATOM     41  C   UNL A   1      41.402  28.609  28.548  1.00  0.00     0.037 A 
ATOM     42  C   UNL A   1      47.973  26.793  26.967  1.00  0.00     0.037 A 
ATOM     43  C   UNL A   1      42.375  29.661  28.689  1.00  0.00     0.049 A 
ATOM     44  C   UNL A   1      47.614  28.196  27.372  1.00  0.00     0.074 A 
ATOM     45  C   UNL A   1      42.181  30.964  29.112  1.00  0.00     0.029 A 
ATOM     46  N   UNL A   1      43.726  29.531  28.404  1.00  0.00    -0.354 N 
ATOM     47  N   UNL A   1      46.448  28.685  27.722  1.00  0.00    -0.248 NA
ATOM     48  C   UNL A   1      48.706  29.180  27.391  1.00  0.00     0.031 C 
ATOM     49  C   UNL A   1      43.405  31.636  29.037  1.00  0.00     0.029 A 
ATOM     50  C   UNL A   1      44.374  30.738  28.620  1.00  0.00     0.049 A 
ATOM     51  H   UNL A   1      44.162  28.704  28.092  1.00  0.00     0.167 HD
ATOM     52  C   UNL A   1      46.671  30.020  28.029  1.00  0.00     0.074 A 
ATOM     53  C   UNL A   1      48.087  30.262  27.839  1.00  0.00     0.031 C 
ATOM     54  C   UNL A   1      45.785  30.963  28.432  1.00  0.00     0.037 A 
BRANCH  41  55
ATOM     55  C   UNL A   1      39.963  28.923  28.837  1.00  0.00     0.057 A 
ATOM     56  C   UNL A   1      39.442  28.875  30.137  1.00  0.00     0.134 A 
ATOM     57  C   UNL A   1      39.092  29.307  27.810  1.00  0.00     0.134 A 
ATOM     58  F   UNL A   1      40.219  28.504  31.168  1.00  0.00    -0.206 F 
ATOM     59  C   UNL A   1      38.103  29.165  30.401  1.00  0.00     0.040 A 
ATOM     60  C   UNL A   1      37.758  29.629  28.065  1.00  0.00     0.040 A 
ATOM     61  F   UNL A   1      39.524  29.381  26.542  1.00  0.00    -0.206 F 
ATOM     62  C   UNL A   1      37.258  29.552  29.362  1.00  0.00     0.006 A 
ENDBRANCH  41  55
BRANCH  42  63
ATOM     63  C   UNL A   1      49.368  26.441  26.603  1.00  0.00     0.057 A 
ATOM     64  C   UNL A   1      50.243  25.885  27.543  1.00  0.00     0.134 A 
ATOM     65  C   UNL A   1      49.864  26.659  25.312  1.00  0.00     0.134 A 
ATOM     66  F   UNL A   1      49.833  25.669  28.801  1.00  0.00    -0.206 F 
ATOM     67  C   UNL A   1      51.566  25.578  27.220  1.00  0.00     0.040 A 
ATOM     68  C   UNL A   1      51.176  26.331  24.967  1.00  0.00     0.040 A 
ATOM     69  F   UNL A   1      49.075  27.183  24.362  1.00  0.00    -0.206 F 
ATOM     70  C   UNL A   1      52.034  25.796  25.926  1.00  0.00     0.006 A 
ENDBRANCH  42  63
BRANCH  54  71
ATOM     71  C   UNL A   1      46.322  32.331  28.733  1.00  0.00     0.057 A 
ATOM     72  C   UNL A   1      46.801  32.678  30.003  1.00  0.00     0.134 A 
ATOM     73  C   UNL A   1      46.398  33.303  27.726  1.00  0.00     0.134 A 
ATOM     74  F   UNL A   1      46.746  31.799  31.015  1.00  0.00    -0.206 F 
ATOM     75  C   UNL A   1      47.312  33.951  30.267  1.00  0.00     0.040 A 
ATOM     76  C   UNL A   1      46.934  34.568  27.971  1.00  0.00     0.040 A 
ATOM     77  F   UNL A   1      45.966  33.034  26.486  1.00  0.00    -0.206 F 
ATOM     78  C   UNL A   1      47.387  34.897  29.247  1.00  0.00     0.006 A 
ENDBRANCH  54  71
ENDBRANCH  28  29
ENDBRANCH  20  23
ENDBRANCH  18  19
ENDBRANCH  17  18
ENDBRANCH   1  17
TORSDOF 15
ENDMDL
MODEL 3
REMARK VINA RESULT:     -10.3      3.270      6.200
REMARK SMILES CC[C@H](C)[C@@H](C)[C@](C)(O)C(=O)NCCCCNC(=O)c1ccc(-c2c3nc(c(-c4c(F)cccc4F)c4ccc([nH]4)c(-c4c(F)cccc4F)c4nc(c(-c5c(F)cccc5F)c5ccc2[nH]5)C=C4)C=C3)cc1
REMARK SMILES IDX 14 1 13 2 12 3 10 4 11 5 7 7 8 8 5 9 6 10 3 11 4 12 2 13
REMARK SMILES IDX 1 14 9 15 15 17 16 18 17 19 18 20 19 22 20 23 21 24 73 25
REMARK SMILES IDX 22 26 72 27 23 28 24 29 25 30 66 31 26 32 71 33 65 34 67 35
REMARK SMILES IDX 27 36 70 37 64 38 63 39 28 41 54 42 37 43 53 44 38 45 41 46
REMARK SMILES IDX 52 47 68 48 39 49 40 50 51 52 69 53 42 54 29 55 30 56 35 57
REMARK SMILES IDX 31 58 32 59 34 60 36 61 33 62 55 63 56 64 61 65 57 66 58 67
REMARK SMILES IDX 60 68 62 69 59 70 43 71 44 72 49 73 45 74 46 75 48 76 50 77
REMARK SMILES IDX 47 78
REMARK H PARENT 12 6 9 16 17 21 67 40 41 51
REMARK Flexibility Score: inf
ROOT
ATOM      1  C   UNL A   1      42.499  19.102  26.496  1.00  0.00     0.023 C 
ENDROOT
BRANCH   1   2
ATOM      2  C   UNL A   1      43.176  19.812  25.328  1.00  0.00     0.116 C 
BRANCH   2   3
ATOM      3  N   UNL A   1      44.626  19.708  25.383  1.00  0.00    -0.354 N 
ATOM      4  C   UNL A   1      45.583  20.617  25.006  1.00  0.00     0.251 C 
ATOM      5  O   UNL A   1      46.762  20.261  25.094  1.00  0.00    -0.272 OA
ATOM      6  H   UNL A   1      44.973  18.860  25.743  1.00  0.00     0.163 HD
BRANCH   4   7
ATOM      7  C   UNL A   1      45.170  22.050  24.544  1.00  0.00     0.143 C 
ATOM      8  C   UNL A   1      46.394  22.937  24.250  1.00  0.00     0.053 C 
BRANCH   7   9
ATOM      9  C   UNL A   1      44.137  22.692  25.549  1.00  0.00     0.030 C 
ATOM     10  C   UNL A   1      43.700  24.083  25.041  1.00  0.00     0.011 C 
BRANCH   9  11
ATOM     11  C   UNL A   1      44.521  22.737  27.077  1.00  0.00    -0.008 C 
ATOM     12  C   UNL A   1      45.516  23.892  27.341  1.00  0.00     0.008 C 
BRANCH  11  13
ATOM     13  C   UNL A   1      43.323  22.913  28.048  1.00  0.00     0.000 C 
ATOM     14  C   UNL A   1      43.649  23.775  29.262  1.00  0.00     0.004 C 
ENDBRANCH  11  13
ENDBRANCH   9  11
ENDBRANCH   7   9
BRANCH   7  15
ATOM     15  O   UNL A   1      44.538  21.817  23.258  1.00  0.00    -0.380 OA
ATOM     16  H   UNL A   1      44.445  22.659  22.786  1.00  0.00     0.212 HD
ENDBRANCH   7  15
ENDBRANCH   4   7
ENDBRANCH   2   3
ENDBRANCH   1   2
BRANCH   1  17
ATOM     17  C   UNL A   1      41.289  19.836  27.069  1.00  0.00     0.023 C 
BRANCH  17  18
ATOM     18  C   UNL A   1      41.032  21.219  26.479  1.00  0.00     0.116 C 
BRANCH  18  19
ATOM     19  N   UNL A   1      39.639  21.439  26.116  1.00  0.00    -0.352 N 
ATOM     20  C   UNL A   1      38.880  22.576  26.243  1.00  0.00     0.251 C 
ATOM     21  H   UNL A   1      39.176  20.662  25.725  1.00  0.00     0.163 HD
ATOM     22  O   UNL A   1      37.675  22.549  26.004  1.00  0.00    -0.269 OA
BRANCH  20  23
ATOM     23  C   UNL A   1      39.512  23.829  26.704  1.00  0.00     0.039 A 
ATOM     24  C   UNL A   1      39.903  24.777  25.756  1.00  0.00     0.014 A 
ATOM     25  C   UNL A   1      39.689  24.080  28.067  1.00  0.00     0.014 A 
ATOM     26  C   UNL A   1      40.401  26.011  26.180  1.00  0.00     0.010 A 
ATOM     27  C   UNL A   1      40.108  25.338  28.488  1.00  0.00     0.010 A 
ATOM     28  C   UNL A   1      40.467  26.317  27.549  1.00  0.00    -0.014 A 
BRANCH  28  29
ATOM     29  C   UNL A   1      40.900  27.659  28.018  1.00  0.00     0.031 A 
ATOM     30  C   UNL A   1      42.358  28.022  28.031  1.00  0.00     0.074 A 
ATOM     31  C   UNL A   1      39.985  28.527  28.494  1.00  0.00     0.049 A 
ATOM     32  N   UNL A   1      42.935  29.114  28.467  1.00  0.00    -0.248 NA
ATOM     33  C   UNL A   1      43.296  27.015  27.511  1.00  0.00     0.031 C 
ATOM     34  C   UNL A   1      38.545  28.276  28.583  1.00  0.00     0.029 A 
ATOM     35  N   UNL A   1      40.133  29.792  29.005  1.00  0.00    -0.354 N 
ATOM     36  C   UNL A   1      44.298  28.920  28.281  1.00  0.00     0.074 A 
ATOM     37  C   UNL A   1      44.467  27.584  27.753  1.00  0.00     0.031 C 
ATOM     38  C   UNL A   1      37.940  29.360  29.096  1.00  0.00     0.029 A 
ATOM     39  C   UNL A   1      38.951  30.365  29.410  1.00  0.00     0.049 A 
ATOM     40  H   UNL A   1      41.004  30.246  29.076  1.00  0.00     0.167 HD
ATOM     41  C   UNL A   1      45.316  29.785  28.507  1.00  0.00     0.037 A 
ATOM     42  C   UNL A   1      38.709  31.561  29.981  1.00  0.00     0.037 A 
ATOM     43  C   UNL A   1      45.144  31.119  29.021  1.00  0.00     0.049 A 
ATOM     44  C   UNL A   1      39.858  32.497  30.238  1.00  0.00     0.074 A 
ATOM     45  C   UNL A   1      46.106  32.089  29.239  1.00  0.00     0.029 A 
ATOM     46  N   UNL A   1      43.929  31.668  29.405  1.00  0.00    -0.354 N 
ATOM     47  N   UNL A   1      41.135  32.327  29.994  1.00  0.00    -0.248 NA
ATOM     48  C   UNL A   1      39.530  33.796  30.843  1.00  0.00     0.031 C 
ATOM     49  C   UNL A   1      45.481  33.208  29.799  1.00  0.00     0.029 A 
ATOM     50  C   UNL A   1      44.121  32.956  29.879  1.00  0.00     0.049 A 
ATOM     51  H   UNL A   1      43.059  31.210  29.349  1.00  0.00     0.167 HD
ATOM     52  C   UNL A   1      41.758  33.504  30.388  1.00  0.00     0.074 A 
ATOM     53  C   UNL A   1      40.716  34.386  30.873  1.00  0.00     0.031 C 
ATOM     54  C   UNL A   1      43.074  33.826  30.353  1.00  0.00     0.037 A 
BRANCH  41  55
ATOM     55  C   UNL A   1      46.706  29.312  28.194  1.00  0.00     0.057 A 
ATOM     56  C   UNL A   1      47.528  28.734  29.172  1.00  0.00     0.134 A 
ATOM     57  C   UNL A   1      47.221  29.408  26.896  1.00  0.00     0.134 A 
ATOM     58  F   UNL A   1      47.101  28.622  30.440  1.00  0.00    -0.206 F 
ATOM     59  C   UNL A   1      48.820  28.298  28.877  1.00  0.00     0.040 A 
ATOM     60  C   UNL A   1      48.500  28.947  26.581  1.00  0.00     0.040 A 
ATOM     61  F   UNL A   1      46.487  29.944  25.909  1.00  0.00    -0.206 F 
ATOM     62  C   UNL A   1      49.307  28.397  27.574  1.00  0.00     0.006 A 
ENDBRANCH  41  55
BRANCH  42  63
ATOM     63  C   UNL A   1      37.320  31.948  30.334  1.00  0.00     0.057 A 
ATOM     64  C   UNL A   1      36.529  32.690  29.451  1.00  0.00     0.134 A 
ATOM     65  C   UNL A   1      36.753  31.593  31.564  1.00  0.00     0.134 A 
ATOM     66  F   UNL A   1      37.022  33.076  28.265  1.00  0.00    -0.206 F 
ATOM     67  C   UNL A   1      35.232  33.085  29.785  1.00  0.00     0.040 A 
ATOM     68  C   UNL A   1      35.448  31.957  31.900  1.00  0.00     0.040 A 
ATOM     69  F   UNL A   1      37.456  30.876  32.453  1.00  0.00    -0.206 F 
ATOM     70  C   UNL A   1      34.687  32.713  31.011  1.00  0.00     0.006 A 
ENDBRANCH  42  63
BRANCH  54  71
ATOM     71  C   UNL A   1      43.460  35.201  30.814  1.00  0.00     0.057 A 
ATOM     72  C   UNL A   1      43.803  35.468  32.146  1.00  0.00     0.134 A 
ATOM     73  C   UNL A   1      43.528  36.264  29.904  1.00  0.00     0.134 A 
ATOM     74  F   UNL A   1      43.747  34.499  33.071  1.00  0.00    -0.206 F 
ATOM     75  C   UNL A   1      44.174  36.749  32.560  1.00  0.00     0.040 A 
ATOM     76  C   UNL A   1      43.926  37.541  30.300  1.00  0.00     0.040 A 
ATOM     77  F   UNL A   1      43.222  36.075  28.612  1.00  0.00    -0.206 F 
ATOM     78  C   UNL A   1      44.245  37.788  31.634  1.00  0.00     0.006 A 
ENDBRANCH  54  71
ENDBRANCH  28  29
ENDBRANCH  20  23
ENDBRANCH  18  19
ENDBRANCH  17  18
ENDBRANCH   1  17
TORSDOF 15
ENDMDL
