MODEL 1
REMARK VINA RESULT:     -12.1      0.000      0.000
REMARK SMILES Cc1cc(C)n(-c2nc(C)c(C)c(Oc3cccc(C(=O)NCCCCNC(=O)c4ccc(-c5c6nc(c(-c7c(F)cccc7F)c7ccc([nH]7)c(-c7c(F)cccc7F)c7nc(c(-c8c(F)cccc8F)c8ccc5[nH]8)C=C7)C=C6)cc4)c3)n2)n1
REMARK SMILES IDX 24 1 23 2 22 3 20 4 21 5 19 7 15 8 16 9 84 10 17 11 18 12
REMARK SMILES IDX 14 13 13 14 7 15 8 16 85 17 9 18 10 19 11 20 12 21 6 22 1 23
REMARK SMILES IDX 2 24 3 25 86 26 4 27 5 28 25 29 26 30 27 31 28 32 29 34
REMARK SMILES IDX 30 35 31 36 83 37 32 38 82 39 33 40 34 41 35 42 76 43 36 44
REMARK SMILES IDX 81 45 75 46 77 47 37 48 80 49 74 50 73 51 38 53 64 54 47 55
REMARK SMILES IDX 63 56 48 57 51 58 62 59 78 60 49 61 50 62 61 64 79 65 52 66
REMARK SMILES IDX 39 67 40 68 45 69 41 70 42 71 44 72 46 73 43 74 65 75 66 76
REMARK SMILES IDX 71 77 67 78 68 79 70 80 72 81 69 82 53 83 54 84 59 85 55 86
REMARK SMILES IDX 56 87 58 88 60 89 57 90
REMARK H PARENT 22 6 27 33 77 52 51 63
REMARK Flexibility Score: inf
ROOT
ATOM      1  C   UNL A   1      34.087  33.893  28.495  1.00  0.00     0.023 C 
ENDROOT
BRANCH   1   2
ATOM      2  C   UNL A   1      33.699  32.487  28.023  1.00  0.00     0.116 C 
BRANCH   2   3
ATOM      3  N   UNL A   1      32.475  32.509  27.248  1.00  0.00    -0.352 N 
ATOM      4  C   UNL A   1      31.778  31.572  26.528  1.00  0.00     0.251 C 
ATOM      5  O   UNL A   1      30.755  31.979  25.968  1.00  0.00    -0.269 OA
ATOM      6  H   UNL A   1      32.046  33.395  27.236  1.00  0.00     0.163 HD
BRANCH   4   7
ATOM      7  C   UNL A   1      32.134  30.124  26.403  1.00  0.00     0.043 A 
ATOM      8  C   UNL A   1      33.417  28.233  25.585  1.00  0.00     0.130 A 
ATOM      9  C   UNL A   1      32.760  27.369  26.457  1.00  0.00     0.047 A 
ATOM     10  C   UNL A   1      33.049  29.583  25.501  1.00  0.00     0.061 A 
ATOM     11  C   UNL A   1      31.780  27.872  27.304  1.00  0.00     0.005 A 
ATOM     12  C   UNL A   1      31.488  29.240  27.291  1.00  0.00     0.014 A 
BRANCH   8  13
ATOM     13  O   UNL A   1      34.392  27.693  24.776  1.00  0.00    -0.439 OA
BRANCH  13  14
ATOM     14  C   UNL A   1      34.046  26.578  24.009  1.00  0.00     0.227 A 
ATOM     15  C   UNL A   1      33.918  24.316  23.732  1.00  0.00     0.254 A 
ATOM     16  N   UNL A   1      33.464  24.455  22.468  1.00  0.00    -0.216 NA
ATOM     17  N   UNL A   1      34.181  25.347  24.547  1.00  0.00    -0.175 NA
ATOM     18  C   UNL A   1      33.229  25.694  22.002  1.00  0.00     0.050 A 
ATOM     19  C   UNL A   1      32.511  25.726  20.685  1.00  0.00     0.067 C 
ATOM     20  C   UNL A   1      33.561  26.825  22.730  1.00  0.00     0.033 A 
ATOM     21  C   UNL A   1      33.393  28.204  22.180  1.00  0.00     0.052 C 
BRANCH  15  22
ATOM     22  N   UNL A   1      34.091  22.968  24.197  1.00  0.00    -0.203 N 
ATOM     23  C   UNL A   1      36.297  20.295  25.001  1.00  0.00     0.069 C 
ATOM     24  C   UNL A   1      35.171  21.248  24.854  1.00  0.00     0.060 A 
ATOM     25  C   UNL A   1      33.954  21.252  25.568  1.00  0.00     0.049 A 
ATOM     26  N   UNL A   1      35.217  22.234  23.949  1.00  0.00    -0.170 NA
ATOM     27  C   UNL A   1      33.210  22.262  25.007  1.00  0.00     0.045 A 
ATOM     28  C   UNL A   1      31.774  22.599  25.161  1.00  0.00     0.067 C 
ENDBRANCH  15  22
ENDBRANCH  13  14
ENDBRANCH   8  13
ENDBRANCH   4   7
ENDBRANCH   2   3
ENDBRANCH   1   2
BRANCH   1  29
ATOM     29  C   UNL A   1      32.901  34.833  28.780  1.00  0.00     0.023 C 
BRANCH  29  30
ATOM     30  C   UNL A   1      33.240  36.088  29.582  1.00  0.00     0.116 C 
BRANCH  30  31
ATOM     31  N   UNL A   1      32.619  36.111  30.913  1.00  0.00    -0.352 N 
ATOM     32  C   UNL A   1      32.816  35.245  31.969  1.00  0.00     0.251 C 
ATOM     33  H   UNL A   1      31.977  36.840  31.072  1.00  0.00     0.163 HD
ATOM     34  O   UNL A   1      31.979  35.139  32.874  1.00  0.00    -0.269 OA
BRANCH  32  35
ATOM     35  C   UNL A   1      34.063  34.475  32.031  1.00  0.00     0.039 A 
ATOM     36  C   UNL A   1      34.110  33.081  31.911  1.00  0.00     0.014 A 
ATOM     37  C   UNL A   1      35.226  35.218  32.185  1.00  0.00     0.014 A 
ATOM     38  C   UNL A   1      35.356  32.455  31.878  1.00  0.00     0.010 A 
ATOM     39  C   UNL A   1      36.434  34.634  31.943  1.00  0.00     0.010 A 
ATOM     40  C   UNL A   1      36.511  33.248  31.888  1.00  0.00    -0.014 A 
BRANCH  40  41
ATOM     41  C   UNL A   1      37.851  32.696  31.777  1.00  0.00     0.031 A 
ATOM     42  C   UNL A   1      38.602  32.607  33.049  1.00  0.00     0.074 A 
ATOM     43  C   UNL A   1      38.236  32.028  30.667  1.00  0.00     0.049 A 
ATOM     44  N   UNL A   1      39.682  33.236  33.368  1.00  0.00    -0.248 NA
ATOM     45  C   UNL A   1      38.024  31.815  34.147  1.00  0.00     0.031 C 
ATOM     46  C   UNL A   1      37.445  31.759  29.458  1.00  0.00     0.029 A 
ATOM     47  N   UNL A   1      39.384  31.340  30.424  1.00  0.00    -0.354 N 
ATOM     48  C   UNL A   1      40.050  32.737  34.613  1.00  0.00     0.074 A 
ATOM     49  C   UNL A   1      38.895  32.051  35.130  1.00  0.00     0.031 C 
ATOM     50  C   UNL A   1      38.046  30.795  28.732  1.00  0.00     0.029 A 
ATOM     51  C   UNL A   1      39.330  30.500  29.319  1.00  0.00     0.049 A 
ATOM     52  H   UNL A   1      40.187  31.429  30.987  1.00  0.00     0.167 HD
ATOM     53  C   UNL A   1      41.359  32.680  34.985  1.00  0.00     0.037 A 
ATOM     54  C   UNL A   1      40.267  29.622  28.887  1.00  0.00     0.037 A 
ATOM     55  C   UNL A   1      42.178  33.507  34.131  1.00  0.00     0.049 A 
ATOM     56  C   UNL A   1      41.546  30.034  29.503  1.00  0.00     0.074 A 
ATOM     57  C   UNL A   1      42.189  34.848  33.799  1.00  0.00     0.029 A 
ATOM     58  N   UNL A   1      42.913  32.879  33.155  1.00  0.00    -0.354 N 
ATOM     59  N   UNL A   1      42.156  31.150  29.218  1.00  0.00    -0.248 NA
ATOM     60  C   UNL A   1      41.884  29.437  30.783  1.00  0.00     0.031 C 
ATOM     61  C   UNL A   1      42.501  34.883  32.407  1.00  0.00     0.029 A 
ATOM     62  C   UNL A   1      42.740  33.574  31.985  1.00  0.00     0.049 A 
ATOM     63  H   UNL A   1      43.468  32.074  33.275  1.00  0.00     0.167 HD
ATOM     64  C   UNL A   1      42.598  31.624  30.444  1.00  0.00     0.074 A 
ATOM     65  C   UNL A   1      42.482  30.486  31.355  1.00  0.00     0.031 C 
ATOM     66  C   UNL A   1      42.729  32.963  30.674  1.00  0.00     0.037 A 
BRANCH  53  67
ATOM     67  C   UNL A   1      41.941  31.602  35.865  1.00  0.00     0.057 A 
ATOM     68  C   UNL A   1      42.723  31.967  36.974  1.00  0.00     0.134 A 
ATOM     69  C   UNL A   1      41.985  30.232  35.529  1.00  0.00     0.134 A 
ATOM     70  F   UNL A   1      42.797  33.247  37.372  1.00  0.00    -0.206 F 
ATOM     71  C   UNL A   1      43.521  31.048  37.667  1.00  0.00     0.040 A 
ATOM     72  C   UNL A   1      42.730  29.296  36.250  1.00  0.00     0.040 A 
ATOM     73  F   UNL A   1      41.398  29.740  34.432  1.00  0.00    -0.206 F 
ATOM     74  C   UNL A   1      43.525  29.706  37.307  1.00  0.00     0.006 A 
ENDBRANCH  53  67
BRANCH  54  75
ATOM     75  C   UNL A   1      40.074  28.296  28.256  1.00  0.00     0.057 A 
ATOM     76  C   UNL A   1      40.655  27.992  27.017  1.00  0.00     0.134 A 
ATOM     77  C   UNL A   1      39.565  27.203  28.982  1.00  0.00     0.134 A 
ATOM     78  F   UNL A   1      41.193  28.962  26.265  1.00  0.00    -0.206 F 
ATOM     79  C   UNL A   1      40.762  26.676  26.546  1.00  0.00     0.040 A 
ATOM     80  C   UNL A   1      39.659  25.885  28.520  1.00  0.00     0.040 A 
ATOM     81  F   UNL A   1      39.031  27.371  30.199  1.00  0.00    -0.206 F 
ATOM     82  C   UNL A   1      40.278  25.616  27.306  1.00  0.00     0.006 A 
ENDBRANCH  54  75
BRANCH  66  83
ATOM     83  C   UNL A   1      42.618  33.899  29.495  1.00  0.00     0.057 A 
ATOM     84  C   UNL A   1      41.472  34.647  29.177  1.00  0.00     0.134 A 
ATOM     85  C   UNL A   1      43.770  34.181  28.756  1.00  0.00     0.134 A 
ATOM     86  F   UNL A   1      40.340  34.515  29.876  1.00  0.00    -0.206 F 
ATOM     87  C   UNL A   1      41.469  35.611  28.162  1.00  0.00     0.040 A 
ATOM     88  C   UNL A   1      43.790  35.161  27.759  1.00  0.00     0.040 A 
ATOM     89  F   UNL A   1      44.919  33.543  29.030  1.00  0.00    -0.206 F 
ATOM     90  C   UNL A   1      42.636  35.877  27.456  1.00  0.00     0.006 A 
ENDBRANCH  66  83
ENDBRANCH  40  41
ENDBRANCH  32  35
ENDBRANCH  30  31
ENDBRANCH  29  30
ENDBRANCH   1  29
TORSDOF 14
ENDMDL
MODEL 2
REMARK VINA RESULT:     -12.1      4.466      9.672
REMARK SMILES Cc1cc(C)n(-c2nc(C)c(C)c(Oc3cccc(C(=O)NCCCCNC(=O)c4ccc(-c5c6nc(c(-c7c(F)cccc7F)c7ccc([nH]7)c(-c7c(F)cccc7F)c7nc(c(-c8c(F)cccc8F)c8ccc5[nH]8)C=C7)C=C6)cc4)c3)n2)n1
REMARK SMILES IDX 24 1 23 2 22 3 20 4 21 5 19 7 15 8 16 9 84 10 17 11 18 12
REMARK SMILES IDX 14 13 13 14 7 15 8 16 85 17 9 18 10 19 11 20 12 21 6 22 1 23
REMARK SMILES IDX 2 24 3 25 86 26 4 27 5 28 25 29 26 30 27 31 28 32 29 34
REMARK SMILES IDX 30 35 31 36 83 37 32 38 82 39 33 40 34 41 35 42 76 43 36 44
REMARK SMILES IDX 81 45 75 46 77 47 37 48 80 49 74 50 73 51 38 53 64 54 47 55
REMARK SMILES IDX 63 56 48 57 51 58 62 59 78 60 49 61 50 62 61 64 79 65 52 66
REMARK SMILES IDX 39 67 40 68 45 69 41 70 42 71 44 72 46 73 43 74 65 75 66 76
REMARK SMILES IDX 71 77 67 78 68 79 70 80 72 81 69 82 53 83 54 84 59 85 55 86
REMARK SMILES IDX 56 87 58 88 60 89 57 90
REMARK H PARENT 22 6 27 33 77 52 51 63
REMARK Flexibility Score: inf
ROOT
ATOM      1  C   UNL A   1      38.997  32.392  32.552  1.00  0.00     0.023 C 
ENDROOT
BRANCH   1   2
ATOM      2  C   UNL A   1      37.561  31.988  32.909  1.00  0.00     0.116 C 
BRANCH   2   3
ATOM      3  N   UNL A   1      37.464  30.568  33.181  1.00  0.00    -0.352 N 
ATOM      4  C   UNL A   1      37.565  29.435  32.414  1.00  0.00     0.251 C 
ATOM      5  O   UNL A   1      37.399  28.367  33.013  1.00  0.00    -0.269 OA
ATOM      6  H   UNL A   1      37.287  30.372  34.130  1.00  0.00     0.163 HD
BRANCH   4   7
ATOM      7  C   UNL A   1      37.889  29.394  30.955  1.00  0.00     0.043 A 
ATOM      8  C   UNL A   1      37.373  29.318  28.585  1.00  0.00     0.130 A 
ATOM      9  C   UNL A   1      38.711  29.514  28.254  1.00  0.00     0.047 A 
ATOM     10  C   UNL A   1      36.979  29.177  29.922  1.00  0.00     0.061 A 
ATOM     11  C   UNL A   1      39.651  29.644  29.269  1.00  0.00     0.005 A 
ATOM     12  C   UNL A   1      39.238  29.606  30.605  1.00  0.00     0.014 A 
BRANCH   8  13
ATOM     13  O   UNL A   1      36.476  29.211  27.546  1.00  0.00    -0.439 OA
BRANCH  13  14
ATOM     14  C   UNL A   1      35.366  30.060  27.565  1.00  0.00     0.227 A 
ATOM     15  C   UNL A   1      34.384  32.037  28.143  1.00  0.00     0.254 A 
ATOM     16  N   UNL A   1      33.187  31.627  27.671  1.00  0.00    -0.216 NA
ATOM     17  N   UNL A   1      35.503  31.303  28.072  1.00  0.00    -0.175 NA
ATOM     18  C   UNL A   1      33.110  30.429  27.066  1.00  0.00     0.050 A 
ATOM     19  C   UNL A   1      31.802  30.174  26.378  1.00  0.00     0.067 C 
ATOM     20  C   UNL A   1      34.186  29.557  27.031  1.00  0.00     0.033 A 
ATOM     21  C   UNL A   1      34.081  28.186  26.446  1.00  0.00     0.052 C 
BRANCH  15  22
ATOM     22  N   UNL A   1      34.418  33.351  28.722  1.00  0.00    -0.203 N 
ATOM     23  C   UNL A   1      33.874  36.847  28.350  1.00  0.00     0.069 C 
ATOM     24  C   UNL A   1      34.080  35.456  28.820  1.00  0.00     0.060 A 
ATOM     25  C   UNL A   1      33.938  34.968  30.136  1.00  0.00     0.049 A 
ATOM     26  N   UNL A   1      34.468  34.493  27.974  1.00  0.00    -0.170 NA
ATOM     27  C   UNL A   1      34.328  33.652  30.076  1.00  0.00     0.045 A 
ATOM     28  C   UNL A   1      34.623  32.684  31.161  1.00  0.00     0.067 C 
ENDBRANCH  15  22
ENDBRANCH  13  14
ENDBRANCH   8  13
ENDBRANCH   4   7
ENDBRANCH   2   3
ENDBRANCH   1   2
BRANCH   1  29
ATOM     29  C   UNL A   1      39.749  33.160  33.654  1.00  0.00     0.023 C 
BRANCH  29  30
ATOM     30  C   UNL A   1      41.236  33.390  33.392  1.00  0.00     0.116 C 
BRANCH  30  31
ATOM     31  N   UNL A   1      41.492  34.421  32.377  1.00  0.00    -0.352 N 
ATOM     32  C   UNL A   1      42.448  34.431  31.383  1.00  0.00     0.251 C 
ATOM     33  H   UNL A   1      40.903  35.209  32.411  1.00  0.00     0.163 HD
ATOM     34  O   UNL A   1      42.807  35.489  30.850  1.00  0.00    -0.269 OA
BRANCH  32  35
ATOM     35  C   UNL A   1      43.010  33.155  30.927  1.00  0.00     0.039 A 
ATOM     36  C   UNL A   1      44.162  32.583  31.480  1.00  0.00     0.014 A 
ATOM     37  C   UNL A   1      42.306  32.510  29.918  1.00  0.00     0.014 A 
ATOM     38  C   UNL A   1      44.553  31.316  31.047  1.00  0.00     0.010 A 
ATOM     39  C   UNL A   1      42.565  31.199  29.650  1.00  0.00     0.010 A 
ATOM     40  C   UNL A   1      43.738  30.632  30.134  1.00  0.00    -0.014 A 
BRANCH  40  41
ATOM     41  C   UNL A   1      44.016  29.279  29.684  1.00  0.00     0.031 A 
ATOM     42  C   UNL A   1      44.844  29.180  28.461  1.00  0.00     0.074 A 
ATOM     43  C   UNL A   1      43.808  28.221  30.499  1.00  0.00     0.049 A 
ATOM     44  N   UNL A   1      44.497  28.704  27.314  1.00  0.00    -0.248 NA
ATOM     45  C   UNL A   1      46.184  29.791  28.475  1.00  0.00     0.031 C 
ATOM     46  C   UNL A   1      43.299  28.232  31.877  1.00  0.00     0.029 A 
ATOM     47  N   UNL A   1      44.120  26.910  30.312  1.00  0.00    -0.354 N 
ATOM     48  C   UNL A   1      45.647  28.735  26.534  1.00  0.00     0.074 A 
ATOM     49  C   UNL A   1      46.571  29.606  27.212  1.00  0.00     0.031 C 
ATOM     50  C   UNL A   1      43.551  27.042  32.459  1.00  0.00     0.029 A 
ATOM     51  C   UNL A   1      44.075  26.137  31.466  1.00  0.00     0.049 A 
ATOM     52  H   UNL A   1      44.360  26.539  29.432  1.00  0.00     0.167 HD
ATOM     53  C   UNL A   1      45.849  27.816  25.550  1.00  0.00     0.037 A 
ATOM     54  C   UNL A   1      44.426  24.837  31.618  1.00  0.00     0.037 A 
ATOM     55  C   UNL A   1      44.623  27.130  25.220  1.00  0.00     0.049 A 
ATOM     56  C   UNL A   1      44.422  24.239  30.267  1.00  0.00     0.074 A 
ATOM     57  C   UNL A   1      43.376  27.528  24.778  1.00  0.00     0.029 A 
ATOM     58  N   UNL A   1      44.450  25.863  25.721  1.00  0.00    -0.354 N 
ATOM     59  N   UNL A   1      43.344  24.082  29.552  1.00  0.00    -0.248 NA
ATOM     60  C   UNL A   1      45.673  24.268  29.528  1.00  0.00     0.031 C 
ATOM     61  C   UNL A   1      42.452  26.697  25.478  1.00  0.00     0.029 A 
ATOM     62  C   UNL A   1      43.183  25.787  26.244  1.00  0.00     0.049 A 
ATOM     63  H   UNL A   1      45.115  25.137  25.707  1.00  0.00     0.167 HD
ATOM     64  C   UNL A   1      43.726  24.444  28.269  1.00  0.00     0.074 A 
ATOM     65  C   UNL A   1      45.188  24.460  28.299  1.00  0.00     0.031 C 
ATOM     66  C   UNL A   1      42.828  24.986  27.395  1.00  0.00     0.037 A 
BRANCH  53  67
ATOM     67  C   UNL A   1      47.205  27.281  25.159  1.00  0.00     0.057 A 
ATOM     68  C   UNL A   1      48.030  26.712  26.144  1.00  0.00     0.134 A 
ATOM     69  C   UNL A   1      47.837  27.529  23.922  1.00  0.00     0.134 A 
ATOM     70  F   UNL A   1      47.559  26.463  27.376  1.00  0.00    -0.206 F 
ATOM     71  C   UNL A   1      49.390  26.453  25.929  1.00  0.00     0.040 A 
ATOM     72  C   UNL A   1      49.177  27.219  23.677  1.00  0.00     0.040 A 
ATOM     73  F   UNL A   1      47.230  28.176  22.920  1.00  0.00    -0.206 F 
ATOM     74  C   UNL A   1      49.967  26.704  24.691  1.00  0.00     0.006 A 
ENDBRANCH  53  67
BRANCH  54  75
ATOM     75  C   UNL A   1      45.064  24.180  32.782  1.00  0.00     0.057 A 
ATOM     76  C   UNL A   1      46.250  24.680  33.337  1.00  0.00     0.134 A 
ATOM     77  C   UNL A   1      44.374  23.229  33.558  1.00  0.00     0.134 A 
ATOM     78  F   UNL A   1      46.963  25.611  32.687  1.00  0.00    -0.206 F 
ATOM     79  C   UNL A   1      46.704  24.290  34.605  1.00  0.00     0.040 A 
ATOM     80  C   UNL A   1      44.820  22.825  34.822  1.00  0.00     0.040 A 
ATOM     81  F   UNL A   1      43.205  22.720  33.148  1.00  0.00    -0.206 F 
ATOM     82  C   UNL A   1      45.978  23.372  35.359  1.00  0.00     0.006 A 
ENDBRANCH  54  75
BRANCH  66  83
ATOM     83  C   UNL A   1      41.366  24.955  27.770  1.00  0.00     0.057 A 
ATOM     84  C   UNL A   1      40.713  25.954  28.510  1.00  0.00     0.134 A 
ATOM     85  C   UNL A   1      40.555  23.962  27.214  1.00  0.00     0.134 A 
ATOM     86  F   UNL A   1      41.383  26.995  29.016  1.00  0.00    -0.206 F 
ATOM     87  C   UNL A   1      39.327  25.952  28.704  1.00  0.00     0.040 A 
ATOM     88  C   UNL A   1      39.167  23.962  27.375  1.00  0.00     0.040 A 
ATOM     89  F   UNL A   1      41.098  22.998  26.454  1.00  0.00    -0.206 F 
ATOM     90  C   UNL A   1      38.548  24.958  28.126  1.00  0.00     0.006 A 
ENDBRANCH  66  83
ENDBRANCH  40  41
ENDBRANCH  32  35
ENDBRANCH  30  31
ENDBRANCH  29  30
ENDBRANCH   1  29
TORSDOF 14
ENDMDL
MODEL 3
REMARK VINA RESULT:     -12.0      3.165      4.977
REMARK SMILES Cc1cc(C)n(-c2nc(C)c(C)c(Oc3cccc(C(=O)NCCCCNC(=O)c4ccc(-c5c6nc(c(-c7c(F)cccc7F)c7ccc([nH]7)c(-c7c(F)cccc7F)c7nc(c(-c8c(F)cccc8F)c8ccc5[nH]8)C=C7)C=C6)cc4)c3)n2)n1
REMARK SMILES IDX 24 1 23 2 22 3 20 4 21 5 19 7 15 8 16 9 84 10 17 11 18 12
REMARK SMILES IDX 14 13 13 14 7 15 8 16 85 17 9 18 10 19 11 20 12 21 6 22 1 23
REMARK SMILES IDX 2 24 3 25 86 26 4 27 5 28 25 29 26 30 27 31 28 32 29 34
REMARK SMILES IDX 30 35 31 36 83 37 32 38 82 39 33 40 34 41 35 42 76 43 36 44
REMARK SMILES IDX 81 45 75 46 77 47 37 48 80 49 74 50 73 51 38 53 64 54 47 55
REMARK SMILES IDX 63 56 48 57 51 58 62 59 78 60 49 61 50 62 61 64 79 65 52 66
REMARK SMILES IDX 39 67 40 68 45 69 41 70 42 71 44 72 46 73 43 74 65 75 66 76
REMARK SMILES IDX 71 77 67 78 68 79 70 80 72 81 69 82 53 83 54 84 59 85 55 86
REMARK SMILES IDX 56 87 58 88 60 89 57 90
REMARK H PARENT 22 6 27 33 77 52 51 63
REMARK Flexibility Score: inf
ROOT
ATOM      1  C   UNL A   1      31.849  29.993  25.457  1.00  0.00     0.023 C 
ENDROOT
BRANCH   1   2
ATOM      2  C   UNL A   1      31.346  29.311  24.179  1.00  0.00     0.116 C 
BRANCH   2   3
ATOM      3  N   UNL A   1      32.433  29.048  23.257  1.00  0.00    -0.352 N 
ATOM      4  C   UNL A   1      33.131  27.925  22.892  1.00  0.00     0.251 C 
ATOM      5  O   UNL A   1      34.031  28.100  22.065  1.00  0.00    -0.269 OA
ATOM      6  H   UNL A   1      32.739  29.857  22.788  1.00  0.00     0.163 HD
BRANCH   4   7
ATOM      7  C   UNL A   1      32.865  26.535  23.377  1.00  0.00     0.043 A 
ATOM      8  C   UNL A   1      33.170  24.612  24.825  1.00  0.00     0.130 A 
ATOM      9  C   UNL A   1      32.079  23.965  24.250  1.00  0.00     0.047 A 
ATOM     10  C   UNL A   1      33.608  25.850  24.336  1.00  0.00     0.061 A 
ATOM     11  C   UNL A   1      31.376  24.593  23.229  1.00  0.00     0.005 A 
ATOM     12  C   UNL A   1      31.754  25.875  22.814  1.00  0.00     0.014 A 
BRANCH   8  13
ATOM     13  O   UNL A   1      33.825  23.958  25.845  1.00  0.00    -0.439 OA
BRANCH  13  14
ATOM     14  C   UNL A   1      34.509  22.783  25.521  1.00  0.00     0.227 A 
ATOM     15  C   UNL A   1      34.507  20.596  24.869  1.00  0.00     0.254 A 
ATOM     16  N   UNL A   1      35.848  20.513  25.002  1.00  0.00    -0.216 NA
ATOM     17  N   UNL A   1      33.806  21.719  25.078  1.00  0.00    -0.175 NA
ATOM     18  C   UNL A   1      36.532  21.623  25.333  1.00  0.00     0.050 A 
ATOM     19  C   UNL A   1      38.021  21.478  25.225  1.00  0.00     0.067 C 
ATOM     20  C   UNL A   1      35.891  22.805  25.664  1.00  0.00     0.033 A 
ATOM     21  C   UNL A   1      36.639  24.014  26.126  1.00  0.00     0.052 C 
BRANCH  15  22
ATOM     22  N   UNL A   1      33.838  19.395  24.454  1.00  0.00    -0.203 N 
ATOM     23  C   UNL A   1      33.191  15.939  24.997  1.00  0.00     0.069 C 
ATOM     24  C   UNL A   1      33.188  17.367  24.599  1.00  0.00     0.060 A 
ATOM     25  C   UNL A   1      32.153  18.072  23.949  1.00  0.00     0.049 A 
ATOM     26  N   UNL A   1      34.254  18.146  24.820  1.00  0.00    -0.170 NA
ATOM     27  C   UNL A   1      32.664  19.326  23.714  1.00  0.00     0.045 A 
ATOM     28  C   UNL A   1      32.153  20.430  22.865  1.00  0.00     0.067 C 
ENDBRANCH  15  22
ENDBRANCH  13  14
ENDBRANCH   8  13
ENDBRANCH   4   7
ENDBRANCH   2   3
ENDBRANCH   1   2
BRANCH   1  29
ATOM     29  C   UNL A   1      32.301  29.031  26.572  1.00  0.00     0.023 C 
BRANCH  29  30
ATOM     30  C   UNL A   1      33.586  29.428  27.296  1.00  0.00     0.116 C 
BRANCH  30  31
ATOM     31  N   UNL A   1      33.958  30.834  27.087  1.00  0.00    -0.352 N 
ATOM     32  C   UNL A   1      35.018  31.532  27.626  1.00  0.00     0.251 C 
ATOM     33  H   UNL A   1      33.373  31.345  26.482  1.00  0.00     0.163 HD
ATOM     34  O   UNL A   1      35.008  32.768  27.681  1.00  0.00    -0.269 OA
BRANCH  32  35
ATOM     35  C   UNL A   1      36.190  30.788  28.100  1.00  0.00     0.039 A 
ATOM     36  C   UNL A   1      36.367  29.417  27.883  1.00  0.00     0.014 A 
ATOM     37  C   UNL A   1      37.157  31.537  28.758  1.00  0.00     0.014 A 
ATOM     38  C   UNL A   1      37.566  28.826  28.282  1.00  0.00     0.010 A 
ATOM     39  C   UNL A   1      38.398  31.011  28.954  1.00  0.00     0.010 A 
ATOM     40  C   UNL A   1      38.577  29.640  28.811  1.00  0.00    -0.014 A 
BRANCH  40  41
ATOM     41  C   UNL A   1      39.888  29.134  29.180  1.00  0.00     0.031 A 
ATOM     42  C   UNL A   1      40.140  29.041  30.636  1.00  0.00     0.074 A 
ATOM     43  C   UNL A   1      40.669  28.504  28.275  1.00  0.00     0.049 A 
ATOM     44  N   UNL A   1      41.010  29.697  31.326  1.00  0.00    -0.248 NA
ATOM     45  C   UNL A   1      39.238  28.206  31.447  1.00  0.00     0.031 C 
ATOM     46  C   UNL A   1      40.372  28.237  26.861  1.00  0.00     0.029 A 
ATOM     47  N   UNL A   1      41.854  27.859  28.452  1.00  0.00    -0.354 N 
ATOM     48  C   UNL A   1      40.927  29.182  32.615  1.00  0.00     0.074 A 
ATOM     49  C   UNL A   1      39.691  28.449  32.679  1.00  0.00     0.031 C 
ATOM     50  C   UNL A   1      41.229  27.309  26.389  1.00  0.00     0.029 A 
ATOM     51  C   UNL A   1      42.229  27.042  27.392  1.00  0.00     0.049 A 
ATOM     52  H   UNL A   1      42.399  27.961  29.265  1.00  0.00     0.167 HD
ATOM     53  C   UNL A   1      42.019  29.160  33.429  1.00  0.00     0.037 A 
ATOM     54  C   UNL A   1      43.291  26.205  27.316  1.00  0.00     0.037 A 
ATOM     55  C   UNL A   1      43.057  30.031  32.932  1.00  0.00     0.049 A 
ATOM     56  C   UNL A   1      44.250  26.644  28.351  1.00  0.00     0.074 A 
ATOM     57  C   UNL A   1      43.135  31.379  32.639  1.00  0.00     0.029 A 
ATOM     58  N   UNL A   1      44.115  29.449  32.278  1.00  0.00    -0.354 N 
ATOM     59  N   UNL A   1      44.878  27.785  28.314  1.00  0.00    -0.248 NA
ATOM     60  C   UNL A   1      44.131  26.029  29.663  1.00  0.00     0.031 C 
ATOM     61  C   UNL A   1      43.921  31.455  31.451  1.00  0.00     0.029 A 
ATOM     62  C   UNL A   1      44.344  30.164  31.130  1.00  0.00     0.049 A 
ATOM     63  H   UNL A   1      44.621  28.659  32.580  1.00  0.00     0.167 HD
ATOM     64  C   UNL A   1      44.836  28.245  29.621  1.00  0.00     0.074 A 
ATOM     65  C   UNL A   1      44.446  27.084  30.420  1.00  0.00     0.031 C 
ATOM     66  C   UNL A   1      44.825  29.583  29.895  1.00  0.00     0.037 A 
BRANCH  53  67
ATOM     67  C   UNL A   1      42.290  28.081  34.449  1.00  0.00     0.057 A 
ATOM     68  C   UNL A   1      42.663  26.799  34.012  1.00  0.00     0.134 A 
ATOM     69  C   UNL A   1      41.952  28.170  35.817  1.00  0.00     0.134 A 
ATOM     70  F   UNL A   1      42.971  26.574  32.725  1.00  0.00    -0.206 F 
ATOM     71  C   UNL A   1      42.659  25.684  34.860  1.00  0.00     0.040 A 
ATOM     72  C   UNL A   1      42.001  27.077  36.685  1.00  0.00     0.040 A 
ATOM     73  F   UNL A   1      41.459  29.287  36.365  1.00  0.00    -0.206 F 
ATOM     74  C   UNL A   1      42.329  25.821  36.203  1.00  0.00     0.006 A 
ENDBRANCH  53  67
BRANCH  54  75
ATOM     75  C   UNL A   1      43.386  24.888  26.645  1.00  0.00     0.057 A 
ATOM     76  C   UNL A   1      42.550  23.825  27.013  1.00  0.00     0.134 A 
ATOM     77  C   UNL A   1      44.089  24.728  25.436  1.00  0.00     0.134 A 
ATOM     78  F   UNL A   1      41.818  23.895  28.133  1.00  0.00    -0.206 F 
ATOM     79  C   UNL A   1      42.390  22.689  26.208  1.00  0.00     0.040 A 
ATOM     80  C   UNL A   1      43.944  23.596  24.626  1.00  0.00     0.040 A 
ATOM     81  F   UNL A   1      44.880  25.701  24.963  1.00  0.00    -0.206 F 
ATOM     82  C   UNL A   1      43.075  22.579  25.001  1.00  0.00     0.006 A 
ENDBRANCH  54  75
BRANCH  66  83
ATOM     83  C   UNL A   1      45.106  30.540  28.764  1.00  0.00     0.057 A 
ATOM     84  C   UNL A   1      44.122  31.107  27.937  1.00  0.00     0.134 A 
ATOM     85  C   UNL A   1      46.405  31.038  28.617  1.00  0.00     0.134 A 
ATOM     86  F   UNL A   1      42.835  30.763  28.051  1.00  0.00    -0.206 F 
ATOM     87  C   UNL A   1      44.420  32.103  26.999  1.00  0.00     0.040 A 
ATOM     88  C   UNL A   1      46.711  32.052  27.705  1.00  0.00     0.040 A 
ATOM     89  F   UNL A   1      47.392  30.581  29.403  1.00  0.00    -0.206 F 
ATOM     90  C   UNL A   1      45.718  32.585  26.889  1.00  0.00     0.006 A 
ENDBRANCH  66  83
ENDBRANCH  40  41
ENDBRANCH  32  35
ENDBRANCH  30  31
ENDBRANCH  29  30
ENDBRANCH   1  29
TORSDOF 14
ENDMDL
