MODEL 1
REMARK VINA RESULT:     -11.5      0.000      0.000
REMARK SMILES Cc1ccc(C(N)=O)c(NCc2ccc(C(=O)NCCCCNC(=O)c3ccc(-c4c5nc(c(-c6c(F)cccc6F)c6ccc([nH]6)c(-c6c(F)cccc6F)c6nc(c(-c7c(F)cccc7F)c7ccc4[nH]7)C=C6)C=C5)cc3)o2)n1
REMARK SMILES IDX 19 1 18 2 16 3 17 4 15 6 12 7 13 8 80 9 14 10 11 11 10 12
REMARK SMILES IDX 9 14 1 15 2 16 3 17 81 18 4 19 5 20 6 21 7 22 8 23 20 26
REMARK SMILES IDX 21 27 22 28 23 29 24 30 25 32 26 33 27 34 79 35 28 36 78 37
REMARK SMILES IDX 29 38 30 39 31 40 72 41 32 42 77 43 71 44 73 45 33 46 76 47
REMARK SMILES IDX 70 48 69 49 34 51 60 52 43 53 59 54 44 55 47 56 58 57 74 58
REMARK SMILES IDX 45 59 46 60 57 62 75 63 48 64 35 65 36 66 41 67 37 68 38 69
REMARK SMILES IDX 40 70 42 71 39 72 61 73 62 74 67 75 63 76 64 77 66 78 68 79
REMARK SMILES IDX 65 80 49 81 50 82 55 83 51 84 52 85 54 86 56 87 53 88
REMARK H PARENT 18 5 10 13 7 24 7 25 23 31 73 50 47 61
REMARK Flexibility Score: inf
ROOT
ATOM      1  C   UNL A   1      34.112  32.355  27.875  1.00  0.00     0.116 C 
ENDROOT
BRANCH   1   2
ATOM      2  N   UNL A   1      35.081  31.303  28.091  1.00  0.00    -0.349 N 
ATOM      3  C   UNL A   1      35.051  29.969  27.753  1.00  0.00     0.286 C 
ATOM      4  O   UNL A   1      36.080  29.334  28.001  1.00  0.00    -0.266 OA
ATOM      5  H   UNL A   1      35.899  31.589  28.557  1.00  0.00     0.163 HD
BRANCH   3   6
ATOM      6  C   UNL A   1      33.883  29.368  27.131  1.00  0.00     0.191 A 
ATOM      7  C   UNL A   1      32.591  28.952  25.376  1.00  0.00     0.124 A 
ATOM      8  C   UNL A   1      31.984  28.350  26.455  1.00  0.00     0.048 A 
ATOM      9  O   UNL A   1      33.735  29.571  25.778  1.00  0.00    -0.454 OA
ATOM     10  C   UNL A   1      32.832  28.576  27.564  1.00  0.00     0.056 A 
BRANCH   7  11
ATOM     11  C   UNL A   1      32.264  29.022  23.921  1.00  0.00     0.190 C 
BRANCH  11  12
ATOM     12  N   UNL A   1      31.096  28.231  23.560  1.00  0.00    -0.362 N 
ATOM     13  H   UNL A   1      31.178  27.254  23.474  1.00  0.00     0.162 HD
BRANCH  12  14
ATOM     14  C   UNL A   1      29.871  28.839  23.337  1.00  0.00     0.139 A 
ATOM     15  C   UNL A   1      28.799  32.264  22.491  1.00  0.00     0.067 C 
ATOM     16  C   UNL A   1      28.709  30.799  22.795  1.00  0.00     0.040 A 
ATOM     17  C   UNL A   1      27.491  30.139  22.782  1.00  0.00     0.024 A 
ATOM     18  N   UNL A   1      29.875  30.169  23.083  1.00  0.00    -0.236 NA
ATOM     19  C   UNL A   1      27.475  28.782  23.077  1.00  0.00     0.019 A 
ATOM     20  C   UNL A   1      28.671  28.114  23.370  1.00  0.00     0.081 A 
BRANCH  20  21
ATOM     21  C   UNL A   1      28.567  26.677  23.738  1.00  0.00     0.252 C 
ATOM     22  N   UNL A   1      27.353  26.207  24.152  1.00  0.00    -0.365 N 
ATOM     23  O   UNL A   1      29.524  25.918  23.635  1.00  0.00    -0.269 OA
ATOM     24  H   UNL A   1      26.589  26.822  24.234  1.00  0.00     0.159 HD
ATOM     25  H   UNL A   1      27.243  25.253  24.369  1.00  0.00     0.159 HD
ENDBRANCH  20  21
ENDBRANCH  12  14
ENDBRANCH  11  12
ENDBRANCH   7  11
ENDBRANCH   3   6
ENDBRANCH   1   2
BRANCH   1  26
ATOM     26  C   UNL A   1      34.137  33.375  29.013  1.00  0.00     0.023 C 
BRANCH  26  27
ATOM     27  C   UNL A   1      33.125  34.516  28.854  1.00  0.00     0.023 C 
BRANCH  27  28
ATOM     28  C   UNL A   1      33.500  35.816  29.560  1.00  0.00     0.116 C 
BRANCH  28  29
ATOM     29  N   UNL A   1      32.550  36.216  30.587  1.00  0.00    -0.352 N 
ATOM     30  C   UNL A   1      32.580  35.931  31.932  1.00  0.00     0.251 C 
ATOM     31  H   UNL A   1      31.789  36.759  30.279  1.00  0.00     0.163 HD
ATOM     32  O   UNL A   1      31.653  36.257  32.661  1.00  0.00    -0.269 OA
BRANCH  30  33
ATOM     33  C   UNL A   1      33.731  35.184  32.479  1.00  0.00     0.039 A 
ATOM     34  C   UNL A   1      33.537  33.871  32.916  1.00  0.00     0.014 A 
ATOM     35  C   UNL A   1      35.001  35.764  32.514  1.00  0.00     0.014 A 
ATOM     36  C   UNL A   1      34.636  33.111  33.322  1.00  0.00     0.010 A 
ATOM     37  C   UNL A   1      36.101  34.987  32.860  1.00  0.00     0.010 A 
ATOM     38  C   UNL A   1      35.929  33.652  33.259  1.00  0.00    -0.014 A 
BRANCH  38  39
ATOM     39  C   UNL A   1      37.127  32.847  33.604  1.00  0.00     0.031 A 
ATOM     40  C   UNL A   1      37.873  33.127  34.877  1.00  0.00     0.074 A 
ATOM     41  C   UNL A   1      37.593  31.933  32.732  1.00  0.00     0.049 A 
ATOM     42  N   UNL A   1      39.014  32.639  35.292  1.00  0.00    -0.248 NA
ATOM     43  C   UNL A   1      37.271  34.112  35.789  1.00  0.00     0.031 C 
ATOM     44  C   UNL A   1      36.978  31.596  31.445  1.00  0.00     0.029 A 
ATOM     45  N   UNL A   1      38.707  31.135  32.786  1.00  0.00    -0.354 N 
ATOM     46  C   UNL A   1      39.277  33.272  36.500  1.00  0.00     0.074 A 
ATOM     47  C   UNL A   1      38.200  34.211  36.730  1.00  0.00     0.031 C 
ATOM     48  C   UNL A   1      37.717  30.653  30.838  1.00  0.00     0.029 A 
ATOM     49  C   UNL A   1      38.877  30.349  31.671  1.00  0.00     0.049 A 
ATOM     50  H   UNL A   1      39.327  31.125  33.550  1.00  0.00     0.167 HD
ATOM     51  C   UNL A   1      40.313  33.076  37.348  1.00  0.00     0.037 A 
ATOM     52  C   UNL A   1      39.864  29.490  31.352  1.00  0.00     0.037 A 
ATOM     53  C   UNL A   1      41.366  32.119  37.132  1.00  0.00     0.049 A 
ATOM     54  C   UNL A   1      41.002  29.288  32.312  1.00  0.00     0.074 A 
ATOM     55  C   UNL A   1      42.433  31.809  37.957  1.00  0.00     0.029 A 
ATOM     56  N   UNL A   1      41.481  31.315  36.008  1.00  0.00    -0.354 N 
ATOM     57  N   UNL A   1      41.215  29.858  33.473  1.00  0.00    -0.248 NA
ATOM     58  C   UNL A   1      42.038  28.321  31.921  1.00  0.00     0.031 C 
ATOM     59  C   UNL A   1      43.211  30.839  37.317  1.00  0.00     0.029 A 
ATOM     60  C   UNL A   1      42.606  30.515  36.114  1.00  0.00     0.049 A 
ATOM     61  H   UNL A   1      40.854  31.312  35.248  1.00  0.00     0.167 HD
ATOM     62  C   UNL A   1      42.385  29.295  33.966  1.00  0.00     0.074 A 
ATOM     63  C   UNL A   1      42.836  28.336  32.980  1.00  0.00     0.031 C 
ATOM     64  C   UNL A   1      43.026  29.548  35.132  1.00  0.00     0.037 A 
BRANCH  51  65
ATOM     65  C   UNL A   1      40.355  33.913  38.593  1.00  0.00     0.057 A 
ATOM     66  C   UNL A   1      39.697  33.522  39.766  1.00  0.00     0.134 A 
ATOM     67  C   UNL A   1      41.083  35.108  38.627  1.00  0.00     0.134 A 
ATOM     68  F   UNL A   1      38.970  32.394  39.795  1.00  0.00    -0.206 F 
ATOM     69  C   UNL A   1      39.741  34.302  40.922  1.00  0.00     0.040 A 
ATOM     70  C   UNL A   1      41.157  35.884  39.785  1.00  0.00     0.040 A 
ATOM     71  F   UNL A   1      41.740  35.538  37.539  1.00  0.00    -0.206 F 
ATOM     72  C   UNL A   1      40.479  35.485  40.934  1.00  0.00     0.006 A 
ENDBRANCH  51  65
BRANCH  52  73
ATOM     73  C   UNL A   1      39.811  28.739  30.073  1.00  0.00     0.057 A 
ATOM     74  C   UNL A   1      40.393  29.257  28.911  1.00  0.00     0.134 A 
ATOM     75  C   UNL A   1      39.175  27.496  29.978  1.00  0.00     0.134 A 
ATOM     76  F   UNL A   1      41.000  30.453  28.937  1.00  0.00    -0.206 F 
ATOM     77  C   UNL A   1      40.328  28.577  27.694  1.00  0.00     0.040 A 
ATOM     78  C   UNL A   1      39.123  26.793  28.773  1.00  0.00     0.040 A 
ATOM     79  F   UNL A   1      38.605  26.942  31.057  1.00  0.00    -0.206 F 
ATOM     80  C   UNL A   1      39.694  27.338  27.624  1.00  0.00     0.006 A 
ENDBRANCH  52  73
BRANCH  64  81
ATOM     81  C   UNL A   1      44.252  28.740  35.434  1.00  0.00     0.057 A 
ATOM     82  C   UNL A   1      45.532  29.165  35.058  1.00  0.00     0.134 A 
ATOM     83  C   UNL A   1      44.151  27.545  36.158  1.00  0.00     0.134 A 
ATOM     84  F   UNL A   1      45.693  30.295  34.351  1.00  0.00    -0.206 F 
ATOM     85  C   UNL A   1      46.668  28.422  35.380  1.00  0.00     0.040 A 
ATOM     86  C   UNL A   1      45.282  26.805  36.506  1.00  0.00     0.040 A 
ATOM     87  F   UNL A   1      42.954  27.087  36.554  1.00  0.00    -0.206 F 
ATOM     88  C   UNL A   1      46.545  27.243  36.113  1.00  0.00     0.006 A 
ENDBRANCH  64  81
ENDBRANCH  38  39
ENDBRANCH  30  33
ENDBRANCH  28  29
ENDBRANCH  27  28
ENDBRANCH  26  27
ENDBRANCH   1  26
TORSDOF 15
ENDMDL
MODEL 2
REMARK VINA RESULT:     -11.2      5.893     10.643
REMARK SMILES Cc1ccc(C(N)=O)c(NCc2ccc(C(=O)NCCCCNC(=O)c3ccc(-c4c5nc(c(-c6c(F)cccc6F)c6ccc([nH]6)c(-c6c(F)cccc6F)c6nc(c(-c7c(F)cccc7F)c7ccc4[nH]7)C=C6)C=C5)cc3)o2)n1
REMARK SMILES IDX 19 1 18 2 16 3 17 4 15 6 12 7 13 8 80 9 14 10 11 11 10 12
REMARK SMILES IDX 9 14 1 15 2 16 3 17 81 18 4 19 5 20 6 21 7 22 8 23 20 26
REMARK SMILES IDX 21 27 22 28 23 29 24 30 25 32 26 33 27 34 79 35 28 36 78 37
REMARK SMILES IDX 29 38 30 39 31 40 72 41 32 42 77 43 71 44 73 45 33 46 76 47
REMARK SMILES IDX 70 48 69 49 34 51 60 52 43 53 59 54 44 55 47 56 58 57 74 58
REMARK SMILES IDX 45 59 46 60 57 62 75 63 48 64 35 65 36 66 41 67 37 68 38 69
REMARK SMILES IDX 40 70 42 71 39 72 61 73 62 74 67 75 63 76 64 77 66 78 68 79
REMARK SMILES IDX 65 80 49 81 50 82 55 83 51 84 52 85 54 86 56 87 53 88
REMARK H PARENT 18 5 10 13 7 24 7 25 23 31 73 50 47 61
REMARK Flexibility Score: inf
ROOT
ATOM      1  C   UNL A   1      38.112  23.642  25.992  1.00  0.00     0.116 C 
ENDROOT
BRANCH   1   2
ATOM      2  N   UNL A   1      37.721  23.325  24.636  1.00  0.00    -0.349 N 
ATOM      3  C   UNL A   1      36.497  23.407  24.010  1.00  0.00     0.286 C 
ATOM      4  O   UNL A   1      36.498  23.141  22.805  1.00  0.00    -0.266 OA
ATOM      5  H   UNL A   1      38.452  22.996  24.064  1.00  0.00     0.163 HD
BRANCH   3   6
ATOM      6  C   UNL A   1      35.299  23.798  24.732  1.00  0.00     0.191 A 
ATOM      7  C   UNL A   1      33.510  23.335  25.961  1.00  0.00     0.124 A 
ATOM      8  C   UNL A   1      33.489  24.694  25.742  1.00  0.00     0.048 A 
ATOM      9  O   UNL A   1      34.598  22.788  25.351  1.00  0.00    -0.454 OA
ATOM     10  C   UNL A   1      34.654  24.995  24.998  1.00  0.00     0.056 A 
BRANCH   7  11
ATOM     11  C   UNL A   1      32.631  22.404  26.727  1.00  0.00     0.190 C 
BRANCH  11  12
ATOM     12  N   UNL A   1      31.617  21.766  25.899  1.00  0.00    -0.362 N 
ATOM     13  H   UNL A   1      30.676  22.042  25.982  1.00  0.00     0.162 HD
BRANCH  12  14
ATOM     14  C   UNL A   1      31.963  20.775  24.994  1.00  0.00     0.139 A 
ATOM     15  C   UNL A   1      32.677  17.167  25.256  1.00  0.00     0.067 C 
ATOM     16  C   UNL A   1      32.470  18.516  24.638  1.00  0.00     0.040 A 
ATOM     17  C   UNL A   1      32.567  18.697  23.267  1.00  0.00     0.024 A 
ATOM     18  N   UNL A   1      32.192  19.535  25.488  1.00  0.00    -0.236 NA
ATOM     19  C   UNL A   1      32.369  19.974  22.756  1.00  0.00     0.019 A 
ATOM     20  C   UNL A   1      32.073  21.036  23.620  1.00  0.00     0.081 A 
BRANCH  20  21
ATOM     21  C   UNL A   1      31.938  22.385  23.008  1.00  0.00     0.252 C 
ATOM     22  N   UNL A   1      32.802  22.724  22.006  1.00  0.00    -0.365 N 
ATOM     23  O   UNL A   1      31.053  23.159  23.352  1.00  0.00    -0.269 OA
ATOM     24  H   UNL A   1      33.512  22.097  21.735  1.00  0.00     0.159 HD
ATOM     25  H   UNL A   1      32.717  23.595  21.556  1.00  0.00     0.159 HD
ENDBRANCH  20  21
ENDBRANCH  12  14
ENDBRANCH  11  12
ENDBRANCH   7  11
ENDBRANCH   3   6
ENDBRANCH   1   2
BRANCH   1  26
ATOM     26  C   UNL A   1      39.170  22.665  26.507  1.00  0.00     0.023 C 
BRANCH  26  27
ATOM     27  C   UNL A   1      39.249  21.355  25.715  1.00  0.00     0.023 C 
BRANCH  27  28
ATOM     28  C   UNL A   1      39.615  20.123  26.539  1.00  0.00     0.116 C 
BRANCH  28  29
ATOM     29  N   UNL A   1      40.723  19.360  25.984  1.00  0.00    -0.352 N 
ATOM     30  C   UNL A   1      42.041  19.734  25.867  1.00  0.00     0.251 C 
ATOM     31  H   UNL A   1      40.499  18.461  25.650  1.00  0.00     0.163 HD
ATOM     32  O   UNL A   1      42.845  19.017  25.287  1.00  0.00    -0.269 OA
BRANCH  30  33
ATOM     33  C   UNL A   1      42.465  21.038  26.414  1.00  0.00     0.039 A 
ATOM     34  C   UNL A   1      42.848  22.049  25.529  1.00  0.00     0.014 A 
ATOM     35  C   UNL A   1      42.437  21.273  27.791  1.00  0.00     0.014 A 
ATOM     36  C   UNL A   1      43.135  23.324  26.022  1.00  0.00     0.010 A 
ATOM     37  C   UNL A   1      42.663  22.557  28.273  1.00  0.00     0.010 A 
ATOM     38  C   UNL A   1      43.006  23.595  27.393  1.00  0.00    -0.014 A 
BRANCH  38  39
ATOM     39  C   UNL A   1      43.222  24.957  27.940  1.00  0.00     0.031 A 
ATOM     40  C   UNL A   1      44.591  25.368  28.400  1.00  0.00     0.074 A 
ATOM     41  C   UNL A   1      42.173  25.786  28.108  1.00  0.00     0.049 A 
ATOM     42  N   UNL A   1      44.961  26.452  29.033  1.00  0.00    -0.248 NA
ATOM     43  C   UNL A   1      45.685  24.418  28.142  1.00  0.00     0.031 C 
ATOM     44  C   UNL A   1      40.788  25.489  27.734  1.00  0.00     0.029 A 
ATOM     45  N   UNL A   1      42.107  27.041  28.657  1.00  0.00    -0.354 N 
ATOM     46  C   UNL A   1      46.322  26.304  29.269  1.00  0.00     0.074 A 
ATOM     47  C   UNL A   1      46.704  25.008  28.750  1.00  0.00     0.031 C 
ATOM     48  C   UNL A   1      40.012  26.536  28.056  1.00  0.00     0.029 A 
ATOM     49  C   UNL A   1      40.835  27.560  28.692  1.00  0.00     0.049 A 
ATOM     50  H   UNL A   1      42.895  27.525  28.993  1.00  0.00     0.167 HD
ATOM     51  C   UNL A   1      47.179  27.176  29.849  1.00  0.00     0.037 A 
ATOM     52  C   UNL A   1      40.382  28.725  29.194  1.00  0.00     0.037 A 
ATOM     53  C   UNL A   1      46.802  28.478  30.335  1.00  0.00     0.049 A 
ATOM     54  C   UNL A   1      41.354  29.678  29.832  1.00  0.00     0.074 A 
ATOM     55  C   UNL A   1      47.606  29.456  30.893  1.00  0.00     0.029 A 
ATOM     56  N   UNL A   1      45.510  28.981  30.318  1.00  0.00    -0.354 N 
ATOM     57  N   UNL A   1      42.647  29.547  30.005  1.00  0.00    -0.248 NA
ATOM     58  C   UNL A   1      40.806  30.945  30.340  1.00  0.00     0.031 C 
ATOM     59  C   UNL A   1      46.795  30.540  31.242  1.00  0.00     0.029 A 
ATOM     60  C   UNL A   1      45.494  30.254  30.864  1.00  0.00     0.049 A 
ATOM     61  H   UNL A   1      44.722  28.505  29.969  1.00  0.00     0.167 HD
ATOM     62  C   UNL A   1      43.072  30.724  30.609  1.00  0.00     0.074 A 
ATOM     63  C   UNL A   1      41.900  31.559  30.769  1.00  0.00     0.031 C 
ATOM     64  C   UNL A   1      44.321  31.080  30.993  1.00  0.00     0.037 A 
BRANCH  51  65
ATOM     65  C   UNL A   1      48.611  26.751  29.985  1.00  0.00     0.057 A 
ATOM     66  C   UNL A   1      49.572  27.078  29.019  1.00  0.00     0.134 A 
ATOM     67  C   UNL A   1      49.040  26.032  31.107  1.00  0.00     0.134 A 
ATOM     68  F   UNL A   1      49.222  27.753  27.914  1.00  0.00    -0.206 F 
ATOM     69  C   UNL A   1      50.904  26.682  29.152  1.00  0.00     0.040 A 
ATOM     70  C   UNL A   1      50.375  25.654  31.265  1.00  0.00     0.040 A 
ATOM     71  F   UNL A   1      48.172  25.691  32.072  1.00  0.00    -0.206 F 
ATOM     72  C   UNL A   1      51.309  25.973  30.281  1.00  0.00     0.006 A 
ENDBRANCH  51  65
BRANCH  52  73
ATOM     73  C   UNL A   1      38.941  29.067  29.098  1.00  0.00     0.057 A 
ATOM     74  C   UNL A   1      38.387  29.508  27.891  1.00  0.00     0.134 A 
ATOM     75  C   UNL A   1      38.088  28.969  30.202  1.00  0.00     0.134 A 
ATOM     76  F   UNL A   1      39.160  29.640  26.802  1.00  0.00    -0.206 F 
ATOM     77  C   UNL A   1      37.041  29.860  27.789  1.00  0.00     0.040 A 
ATOM     78  C   UNL A   1      36.734  29.295  30.110  1.00  0.00     0.040 A 
ATOM     79  F   UNL A   1      38.556  28.544  31.385  1.00  0.00    -0.206 F 
ATOM     80  C   UNL A   1      36.209  29.750  28.902  1.00  0.00     0.006 A 
ENDBRANCH  52  73
BRANCH  64  81
ATOM     81  C   UNL A   1      44.498  32.451  31.573  1.00  0.00     0.057 A 
ATOM     82  C   UNL A   1      44.757  33.568  30.771  1.00  0.00     0.134 A 
ATOM     83  C   UNL A   1      44.353  32.661  32.951  1.00  0.00     0.134 A 
ATOM     84  F   UNL A   1      44.920  33.431  29.445  1.00  0.00    -0.206 F 
ATOM     85  C   UNL A   1      44.881  34.845  31.320  1.00  0.00     0.040 A 
ATOM     86  C   UNL A   1      44.452  33.935  33.509  1.00  0.00     0.040 A 
ATOM     87  F   UNL A   1      44.097  31.631  33.773  1.00  0.00    -0.206 F 
ATOM     88  C   UNL A   1      44.720  35.032  32.692  1.00  0.00     0.006 A 
ENDBRANCH  64  81
ENDBRANCH  38  39
ENDBRANCH  30  33
ENDBRANCH  28  29
ENDBRANCH  27  28
ENDBRANCH  26  27
ENDBRANCH   1  26
TORSDOF 15
ENDMDL
MODEL 3
REMARK VINA RESULT:     -11.2      5.541     10.563
REMARK SMILES Cc1ccc(C(N)=O)c(NCc2ccc(C(=O)NCCCCNC(=O)c3ccc(-c4c5nc(c(-c6c(F)cccc6F)c6ccc([nH]6)c(-c6c(F)cccc6F)c6nc(c(-c7c(F)cccc7F)c7ccc4[nH]7)C=C6)C=C5)cc3)o2)n1
REMARK SMILES IDX 19 1 18 2 16 3 17 4 15 6 12 7 13 8 80 9 14 10 11 11 10 12
REMARK SMILES IDX 9 14 1 15 2 16 3 17 81 18 4 19 5 20 6 21 7 22 8 23 20 26
REMARK SMILES IDX 21 27 22 28 23 29 24 30 25 32 26 33 27 34 79 35 28 36 78 37
REMARK SMILES IDX 29 38 30 39 31 40 72 41 32 42 77 43 71 44 73 45 33 46 76 47
REMARK SMILES IDX 70 48 69 49 34 51 60 52 43 53 59 54 44 55 47 56 58 57 74 58
REMARK SMILES IDX 45 59 46 60 57 62 75 63 48 64 35 65 36 66 41 67 37 68 38 69
REMARK SMILES IDX 40 70 42 71 39 72 61 73 62 74 67 75 63 76 64 77 66 78 68 79
REMARK SMILES IDX 65 80 49 81 50 82 55 83 51 84 52 85 54 86 56 87 53 88
REMARK H PARENT 18 5 10 13 7 24 7 25 23 31 73 50 47 61
REMARK Flexibility Score: inf
ROOT
ATOM      1  C   UNL A   1      35.307  20.144  24.951  1.00  0.00     0.116 C 
ENDROOT
BRANCH   1   2
ATOM      2  N   UNL A   1      34.201  19.213  24.992  1.00  0.00    -0.349 N 
ATOM      3  C   UNL A   1      32.853  19.407  24.788  1.00  0.00     0.286 C 
ATOM      4  O   UNL A   1      32.160  18.386  24.808  1.00  0.00    -0.266 OA
ATOM      5  H   UNL A   1      34.454  18.284  25.200  1.00  0.00     0.163 HD
BRANCH   3   6
ATOM      6  C   UNL A   1      32.304  20.730  24.549  1.00  0.00     0.191 A 
ATOM      7  C   UNL A   1      31.223  22.553  25.207  1.00  0.00     0.124 A 
ATOM      8  C   UNL A   1      31.532  22.744  23.879  1.00  0.00     0.048 A 
ATOM      9  O   UNL A   1      31.682  21.339  25.616  1.00  0.00    -0.454 OA
ATOM     10  C   UNL A   1      32.262  21.602  23.473  1.00  0.00     0.056 A 
BRANCH   7  11
ATOM     11  C   UNL A   1      30.544  23.396  26.235  1.00  0.00     0.190 C 
BRANCH  11  12
ATOM     12  N   UNL A   1      31.456  24.292  26.931  1.00  0.00    -0.362 N 
ATOM     13  H   UNL A   1      31.581  24.201  27.903  1.00  0.00     0.162 HD
BRANCH  12  14
ATOM     14  C   UNL A   1      32.153  25.270  26.239  1.00  0.00     0.139 A 
ATOM     15  C   UNL A   1      31.272  28.557  24.819  1.00  0.00     0.067 C 
ATOM     16  C   UNL A   1      32.104  27.373  25.209  1.00  0.00     0.040 A 
ATOM     17  C   UNL A   1      33.462  27.331  24.933  1.00  0.00     0.024 A 
ATOM     18  N   UNL A   1      31.456  26.358  25.832  1.00  0.00    -0.236 NA
ATOM     19  C   UNL A   1      34.176  26.203  25.317  1.00  0.00     0.019 A 
ATOM     20  C   UNL A   1      33.523  25.148  25.968  1.00  0.00     0.081 A 
BRANCH  20  21
ATOM     21  C   UNL A   1      34.340  23.947  26.289  1.00  0.00     0.252 C 
ATOM     22  N   UNL A   1      35.501  23.757  25.596  1.00  0.00    -0.365 N 
ATOM     23  O   UNL A   1      34.013  23.169  27.178  1.00  0.00    -0.269 OA
ATOM     24  H   UNL A   1      35.757  24.385  24.882  1.00  0.00     0.159 HD
ATOM     25  H   UNL A   1      36.082  22.991  25.810  1.00  0.00     0.159 HD
ENDBRANCH  20  21
ENDBRANCH  12  14
ENDBRANCH  11  12
ENDBRANCH   7  11
ENDBRANCH   3   6
ENDBRANCH   1   2
BRANCH   1  26
ATOM     26  C   UNL A   1      36.649  19.411  24.948  1.00  0.00     0.023 C 
BRANCH  26  27
ATOM     27  C   UNL A   1      37.855  20.317  24.673  1.00  0.00     0.023 C 
BRANCH  27  28
ATOM     28  C   UNL A   1      38.852  20.434  25.823  1.00  0.00     0.116 C 
BRANCH  28  29
ATOM     29  N   UNL A   1      39.892  19.416  25.798  1.00  0.00    -0.352 N 
ATOM     30  C   UNL A   1      41.223  19.551  26.113  1.00  0.00     0.251 C 
ATOM     31  H   UNL A   1      39.605  18.516  25.519  1.00  0.00     0.163 HD
ATOM     32  O   UNL A   1      42.002  18.621  25.950  1.00  0.00    -0.269 OA
BRANCH  30  33
ATOM     33  C   UNL A   1      41.712  20.852  26.611  1.00  0.00     0.039 A 
ATOM     34  C   UNL A   1      42.242  21.768  25.698  1.00  0.00     0.014 A 
ATOM     35  C   UNL A   1      41.601  21.181  27.963  1.00  0.00     0.014 A 
ATOM     36  C   UNL A   1      42.596  23.047  26.132  1.00  0.00     0.010 A 
ATOM     37  C   UNL A   1      41.896  22.474  28.382  1.00  0.00     0.010 A 
ATOM     38  C   UNL A   1      42.388  23.420  27.469  1.00  0.00    -0.014 A 
BRANCH  38  39
ATOM     39  C   UNL A   1      42.675  24.795  27.946  1.00  0.00     0.031 A 
ATOM     40  C   UNL A   1      44.069  25.164  28.366  1.00  0.00     0.074 A 
ATOM     41  C   UNL A   1      41.668  25.679  28.089  1.00  0.00     0.049 A 
ATOM     42  N   UNL A   1      44.498  26.258  28.940  1.00  0.00    -0.248 NA
ATOM     43  C   UNL A   1      45.114  24.153  28.138  1.00  0.00     0.031 C 
ATOM     44  C   UNL A   1      40.265  25.428  27.750  1.00  0.00     0.029 A 
ATOM     45  N   UNL A   1      41.668  26.960  28.577  1.00  0.00    -0.354 N 
ATOM     46  C   UNL A   1      45.855  26.060  29.163  1.00  0.00     0.074 A 
ATOM     47  C   UNL A   1      46.169  24.724  28.703  1.00  0.00     0.031 C 
ATOM     48  C   UNL A   1      39.543  26.524  28.032  1.00  0.00     0.029 A 
ATOM     49  C   UNL A   1      40.421  27.539  28.606  1.00  0.00     0.049 A 
ATOM     50  H   UNL A   1      42.483  27.423  28.878  1.00  0.00     0.167 HD
ATOM     51  C   UNL A   1      46.760  26.918  29.688  1.00  0.00     0.037 A 
ATOM     52  C   UNL A   1      40.031  28.746  29.058  1.00  0.00     0.037 A 
ATOM     53  C   UNL A   1      46.451  28.257  30.116  1.00  0.00     0.049 A 
ATOM     54  C   UNL A   1      41.055  29.682  29.634  1.00  0.00     0.074 A 
ATOM     55  C   UNL A   1      47.307  29.223  30.614  1.00  0.00     0.029 A 
ATOM     56  N   UNL A   1      45.183  28.819  30.093  1.00  0.00    -0.354 N 
ATOM     57  N   UNL A   1      42.343  29.500  29.795  1.00  0.00    -0.248 NA
ATOM     58  C   UNL A   1      40.574  30.995  30.088  1.00  0.00     0.031 C 
ATOM     59  C   UNL A   1      46.552  30.359  30.922  1.00  0.00     0.029 A 
ATOM     60  C   UNL A   1      45.233  30.115  30.577  1.00  0.00     0.049 A 
ATOM     61  H   UNL A   1      44.368  28.363  29.779  1.00  0.00     0.167 HD
ATOM     62  C   UNL A   1      42.831  30.683  30.335  1.00  0.00     0.074 A 
ATOM     63  C   UNL A   1      41.701  31.578  30.471  1.00  0.00     0.031 C 
ATOM     64  C   UNL A   1      44.102  31.000  30.683  1.00  0.00     0.037 A 
BRANCH  51  65
ATOM     65  C   UNL A   1      48.173  26.434  29.824  1.00  0.00     0.057 A 
ATOM     66  C   UNL A   1      48.608  25.739  30.960  1.00  0.00     0.134 A 
ATOM     67  C   UNL A   1      49.101  26.638  28.796  1.00  0.00     0.134 A 
ATOM     68  F   UNL A   1      47.771  25.524  31.987  1.00  0.00    -0.206 F 
ATOM     69  C   UNL A   1      49.923  25.288  31.081  1.00  0.00     0.040 A 
ATOM     70  C   UNL A   1      50.413  26.169  28.893  1.00  0.00     0.040 A 
ATOM     71  F   UNL A   1      48.749  27.292  27.678  1.00  0.00    -0.206 F 
ATOM     72  C   UNL A   1      50.828  25.498  30.041  1.00  0.00     0.006 A 
ENDBRANCH  51  65
BRANCH  52  73
ATOM     73  C   UNL A   1      38.605  29.148  28.965  1.00  0.00     0.057 A 
ATOM     74  C   UNL A   1      37.753  29.034  30.069  1.00  0.00     0.134 A 
ATOM     75  C   UNL A   1      38.059  29.647  27.777  1.00  0.00     0.134 A 
ATOM     76  F   UNL A   1      38.216  28.545  31.230  1.00  0.00    -0.206 F 
ATOM     77  C   UNL A   1      36.405  29.382  29.992  1.00  0.00     0.040 A 
ATOM     78  C   UNL A   1      36.717  30.021  27.692  1.00  0.00     0.040 A 
ATOM     79  F   UNL A   1      38.825  29.788  26.685  1.00  0.00    -0.206 F 
ATOM     80  C   UNL A   1      35.883  29.881  28.799  1.00  0.00     0.006 A 
ENDBRANCH  52  73
BRANCH  64  81
ATOM     81  C   UNL A   1      44.350  32.387  31.193  1.00  0.00     0.057 A 
ATOM     82  C   UNL A   1      44.328  32.690  32.559  1.00  0.00     0.134 A 
ATOM     83  C   UNL A   1      44.670  33.422  30.303  1.00  0.00     0.134 A 
ATOM     84  F   UNL A   1      44.017  31.745  33.460  1.00  0.00    -0.206 F 
ATOM     85  C   UNL A   1      44.601  33.978  33.023  1.00  0.00     0.040 A 
ATOM     86  C   UNL A   1      44.966  34.708  30.756  1.00  0.00     0.040 A 
ATOM     87  F   UNL A   1      44.714  33.194  28.982  1.00  0.00    -0.206 F 
ATOM     88  C   UNL A   1      44.929  34.989  32.121  1.00  0.00     0.006 A 
ENDBRANCH  64  81
ENDBRANCH  38  39
ENDBRANCH  30  33
ENDBRANCH  28  29
ENDBRANCH  27  28
ENDBRANCH  26  27
ENDBRANCH   1  26
TORSDOF 15
ENDMDL
