MODEL 1
REMARK VINA RESULT:     -10.8      0.000      0.000
REMARK SMILES CC(C)c1nc(N(C)CCc2ccccn2)sc1C(=O)NCCCCNC(=O)c1ccc(-c2c3nc(c(-c4c(F)cccc4F)c4ccc([nH]4)c(-c4c(F)cccc4F)c4nc(c(-c5c(F)cccc5F)c5ccc2[nH]5)C=C4)C=C3)cc1
REMARK SMILES IDX 22 1 21 2 19 3 20 4 18 6 4 7 5 8 6 9 17 10 2 11 1 12 3 13
REMARK SMILES IDX 7 14 8 15 9 16 10 17 11 18 12 19 16 20 13 21 15 22 14 23
REMARK SMILES IDX 23 24 24 25 25 26 26 27 27 28 28 30 29 31 30 32 82 33 31 34
REMARK SMILES IDX 81 35 32 36 33 37 34 38 75 39 35 40 80 41 74 42 76 43 36 44
REMARK SMILES IDX 79 45 73 46 72 47 37 49 63 50 46 51 62 52 47 53 50 54 61 55
REMARK SMILES IDX 77 56 48 57 49 58 60 60 78 61 51 62 38 63 39 64 44 65 40 66
REMARK SMILES IDX 41 67 43 68 45 69 42 70 64 71 65 72 70 73 66 74 67 75 69 76
REMARK SMILES IDX 71 77 68 78 52 79 53 80 58 81 54 82 55 83 57 84 59 85 56 86
REMARK H PARENT 21 5 26 29 76 48 50 59
REMARK Flexibility Score: inf
ROOT
ATOM      1  C   UNL A   1      31.490  29.470  25.277  1.00  0.00     0.116 C 
ENDROOT
BRANCH   1   2
ATOM      2  N   UNL A   1      30.663  29.078  24.167  1.00  0.00    -0.351 N 
ATOM      3  C   UNL A   1      30.492  27.822  23.620  1.00  0.00     0.263 C 
ATOM      4  O   UNL A   1      29.697  27.769  22.676  1.00  0.00    -0.268 OA
ATOM      5  H   UNL A   1      30.151  29.802  23.740  1.00  0.00     0.163 HD
BRANCH   3   6
ATOM      6  C   UNL A   1      31.256  26.670  24.076  1.00  0.00     0.117 A 
ATOM      7  C   UNL A   1      32.378  25.974  23.629  1.00  0.00     0.069 A 
ATOM      8  N   UNL A   1      32.688  24.869  24.404  1.00  0.00    -0.224 NA
ATOM      9  C   UNL A   1      31.833  24.655  25.373  1.00  0.00     0.186 A 
ATOM     10  S   UNL A   1      30.725  25.953  25.567  1.00  0.00    -0.091 S 
BRANCH   7  11
ATOM     11  C   UNL A   1      33.272  26.178  22.428  1.00  0.00     0.034 C 
ATOM     12  C   UNL A   1      32.646  25.672  21.131  1.00  0.00     0.014 C 
ATOM     13  C   UNL A   1      33.732  27.633  22.245  1.00  0.00     0.014 C 
ENDBRANCH   7  11
BRANCH   9  14
ATOM     14  N   UNL A   1      31.808  23.480  26.061  1.00  0.00    -0.351 N 
ATOM     15  C   UNL A   1      30.680  22.574  26.078  1.00  0.00     0.146 C 
BRANCH  14  16
ATOM     16  C   UNL A   1      32.971  23.153  26.904  1.00  0.00     0.125 C 
BRANCH  16  17
ATOM     17  C   UNL A   1      33.779  21.964  26.359  1.00  0.00     0.077 C 
BRANCH  17  18
ATOM     18  C   UNL A   1      35.230  22.256  26.056  1.00  0.00     0.042 A 
ATOM     19  C   UNL A   1      35.733  23.550  26.183  1.00  0.00     0.024 A 
ATOM     20  N   UNL A   1      36.002  21.220  25.641  1.00  0.00    -0.261 NA
ATOM     21  C   UNL A   1      37.077  23.786  25.913  1.00  0.00     0.003 A 
ATOM     22  C   UNL A   1      37.304  21.481  25.382  1.00  0.00     0.111 A 
ATOM     23  C   UNL A   1      37.884  22.731  25.508  1.00  0.00     0.020 A 
ENDBRANCH  17  18
ENDBRANCH  16  17
ENDBRANCH  14  16
ENDBRANCH   9  14
ENDBRANCH   3   6
ENDBRANCH   1   2
BRANCH   1  24
ATOM     24  C   UNL A   1      32.971  29.656  24.982  1.00  0.00     0.023 C 
BRANCH  24  25
ATOM     25  C   UNL A   1      33.938  28.929  25.912  1.00  0.00     0.023 C 
BRANCH  25  26
ATOM     26  C   UNL A   1      33.630  28.983  27.406  1.00  0.00     0.116 C 
BRANCH  26  27
ATOM     27  N   UNL A   1      33.772  30.302  28.006  1.00  0.00    -0.352 N 
ATOM     28  C   UNL A   1      34.872  30.898  28.583  1.00  0.00     0.251 C 
ATOM     29  H   UNL A   1      32.957  30.853  28.000  1.00  0.00     0.163 HD
ATOM     30  O   UNL A   1      34.773  32.014  29.087  1.00  0.00    -0.269 OA
BRANCH  28  31
ATOM     31  C   UNL A   1      36.162  30.175  28.650  1.00  0.00     0.039 A 
ATOM     32  C   UNL A   1      37.027  30.240  27.554  1.00  0.00     0.014 A 
ATOM     33  C   UNL A   1      36.543  29.481  29.800  1.00  0.00     0.014 A 
ATOM     34  C   UNL A   1      38.316  29.711  27.656  1.00  0.00     0.010 A 
ATOM     35  C   UNL A   1      37.855  29.034  29.932  1.00  0.00     0.010 A 
ATOM     36  C   UNL A   1      38.762  29.160  28.869  1.00  0.00    -0.014 A 
BRANCH  36  37
ATOM     37  C   UNL A   1      40.177  28.744  29.060  1.00  0.00     0.031 A 
ATOM     38  C   UNL A   1      41.183  29.704  29.631  1.00  0.00     0.074 A 
ATOM     39  C   UNL A   1      40.578  27.527  28.637  1.00  0.00     0.049 A 
ATOM     40  N   UNL A   1      42.476  29.554  29.784  1.00  0.00    -0.248 NA
ATOM     41  C   UNL A   1      40.677  31.017  30.056  1.00  0.00     0.031 C 
ATOM     42  C   UNL A   1      39.719  26.520  28.011  1.00  0.00     0.029 A 
ATOM     43  N   UNL A   1      41.817  26.936  28.657  1.00  0.00    -0.354 N 
ATOM     44  C   UNL A   1      42.936  30.758  30.302  1.00  0.00     0.074 A 
ATOM     45  C   UNL A   1      41.795  31.644  30.388  1.00  0.00     0.031 C 
ATOM     46  C   UNL A   1      40.449  25.430  27.729  1.00  0.00     0.029 A 
ATOM     47  C   UNL A   1      41.835  25.671  28.118  1.00  0.00     0.049 A 
ATOM     48  H   UNL A   1      42.618  27.376  29.022  1.00  0.00     0.167 HD
ATOM     49  C   UNL A   1      44.189  31.088  30.694  1.00  0.00     0.037 A 
ATOM     50  C   UNL A   1      42.853  24.806  27.950  1.00  0.00     0.037 A 
ATOM     51  C   UNL A   1      45.319  30.197  30.641  1.00  0.00     0.049 A 
ATOM     52  C   UNL A   1      44.234  25.192  28.400  1.00  0.00     0.074 A 
ATOM     53  C   UNL A   1      46.612  30.418  31.081  1.00  0.00     0.029 A 
ATOM     54  N   UNL A   1      45.289  28.916  30.114  1.00  0.00    -0.354 N 
ATOM     55  N   UNL A   1      44.638  26.309  28.955  1.00  0.00    -0.248 NA
ATOM     56  C   UNL A   1      45.298  24.198  28.204  1.00  0.00     0.031 C 
ATOM     57  C   UNL A   1      47.374  29.283  30.786  1.00  0.00     0.029 A 
ATOM     58  C   UNL A   1      46.546  28.341  30.200  1.00  0.00     0.049 A 
ATOM     59  H   UNL A   1      44.492  28.479  29.734  1.00  0.00     0.167 HD
ATOM     60  C   UNL A   1      45.995  26.141  29.198  1.00  0.00     0.074 A 
ATOM     61  C   UNL A   1      46.342  24.811  28.742  1.00  0.00     0.031 C 
ATOM     62  C   UNL A   1      46.876  27.013  29.748  1.00  0.00     0.037 A 
BRANCH  49  63
ATOM     63  C   UNL A   1      44.401  32.475  31.227  1.00  0.00     0.057 A 
ATOM     64  C   UNL A   1      44.762  33.539  30.389  1.00  0.00     0.134 A 
ATOM     65  C   UNL A   1      44.218  32.757  32.586  1.00  0.00     0.134 A 
ATOM     66  F   UNL A   1      44.965  33.334  29.079  1.00  0.00    -0.206 F 
ATOM     67  C   UNL A   1      44.961  34.827  30.889  1.00  0.00     0.040 A 
ATOM     68  C   UNL A   1      44.387  34.047  33.094  1.00  0.00     0.040 A 
ATOM     69  F   UNL A   1      43.866  31.786  33.443  1.00  0.00    -0.206 F 
ATOM     70  C   UNL A   1      44.768  35.084  32.245  1.00  0.00     0.006 A 
ENDBRANCH  49  63
BRANCH  50  71
ATOM     71  C   UNL A   1      42.602  23.472  27.349  1.00  0.00     0.057 A 
ATOM     72  C   UNL A   1      42.252  22.377  28.148  1.00  0.00     0.134 A 
ATOM     73  C   UNL A   1      42.717  23.252  25.971  1.00  0.00     0.134 A 
ATOM     74  F   UNL A   1      42.146  22.519  29.477  1.00  0.00    -0.206 F 
ATOM     75  C   UNL A   1      42.042  21.109  27.603  1.00  0.00     0.040 A 
ATOM     76  C   UNL A   1      42.488  21.996  25.409  1.00  0.00     0.040 A 
ATOM     77  F   UNL A   1      43.044  24.262  25.150  1.00  0.00    -0.206 F 
ATOM     78  C   UNL A   1      42.156  20.917  26.227  1.00  0.00     0.006 A 
ENDBRANCH  50  71
BRANCH  62  79
ATOM     79  C   UNL A   1      48.291  26.544  29.918  1.00  0.00     0.057 A 
ATOM     80  C   UNL A   1      49.275  26.809  28.959  1.00  0.00     0.134 A 
ATOM     81  C   UNL A   1      48.680  25.856  31.074  1.00  0.00     0.134 A 
ATOM     82  F   UNL A   1      48.964  27.452  27.823  1.00  0.00    -0.206 F 
ATOM     83  C   UNL A   1      50.595  26.386  29.133  1.00  0.00     0.040 A 
ATOM     84  C   UNL A   1      50.000  25.451  31.272  1.00  0.00     0.040 A 
ATOM     85  F   UNL A   1      47.786  25.579  32.035  1.00  0.00    -0.206 F 
ATOM     86  C   UNL A   1      50.961  25.712  30.296  1.00  0.00     0.006 A 
ENDBRANCH  62  79
ENDBRANCH  36  37
ENDBRANCH  28  31
ENDBRANCH  26  27
ENDBRANCH  25  26
ENDBRANCH  24  25
ENDBRANCH   1  24
TORSDOF 16
ENDMDL
MODEL 2
REMARK VINA RESULT:     -10.8      2.928      8.119
REMARK SMILES CC(C)c1nc(N(C)CCc2ccccn2)sc1C(=O)NCCCCNC(=O)c1ccc(-c2c3nc(c(-c4c(F)cccc4F)c4ccc([nH]4)c(-c4c(F)cccc4F)c4nc(c(-c5c(F)cccc5F)c5ccc2[nH]5)C=C4)C=C3)cc1
REMARK SMILES IDX 22 1 21 2 19 3 20 4 18 6 4 7 5 8 6 9 17 10 2 11 1 12 3 13
REMARK SMILES IDX 7 14 8 15 9 16 10 17 11 18 12 19 16 20 13 21 15 22 14 23
REMARK SMILES IDX 23 24 24 25 25 26 26 27 27 28 28 30 29 31 30 32 82 33 31 34
REMARK SMILES IDX 81 35 32 36 33 37 34 38 75 39 35 40 80 41 74 42 76 43 36 44
REMARK SMILES IDX 79 45 73 46 72 47 37 49 63 50 46 51 62 52 47 53 50 54 61 55
REMARK SMILES IDX 77 56 48 57 49 58 60 60 78 61 51 62 38 63 39 64 44 65 40 66
REMARK SMILES IDX 41 67 43 68 45 69 42 70 64 71 65 72 70 73 66 74 67 75 69 76
REMARK SMILES IDX 71 77 68 78 52 79 53 80 58 81 54 82 55 83 57 84 59 85 56 86
REMARK H PARENT 21 5 26 29 76 48 50 59
REMARK Flexibility Score: inf
ROOT
ATOM      1  C   UNL A   1      36.728  22.412  25.434  1.00  0.00     0.116 C 
ENDROOT
BRANCH   1   2
ATOM      2  N   UNL A   1      35.835  22.128  26.525  1.00  0.00    -0.351 N 
ATOM      3  C   UNL A   1      34.484  22.397  26.628  1.00  0.00     0.263 C 
ATOM      4  O   UNL A   1      33.957  22.020  27.679  1.00  0.00    -0.268 OA
ATOM      5  H   UNL A   1      36.241  21.682  27.303  1.00  0.00     0.163 HD
BRANCH   3   6
ATOM      6  C   UNL A   1      33.765  23.142  25.605  1.00  0.00     0.117 A 
ATOM      7  C   UNL A   1      33.201  22.848  24.365  1.00  0.00     0.069 A 
ATOM      8  N   UNL A   1      32.664  23.952  23.725  1.00  0.00    -0.224 NA
ATOM      9  C   UNL A   1      32.843  25.072  24.380  1.00  0.00     0.186 A 
ATOM     10  S   UNL A   1      33.454  24.813  25.964  1.00  0.00    -0.091 S 
BRANCH   7  11
ATOM     11  C   UNL A   1      33.123  21.559  23.579  1.00  0.00     0.034 C 
ATOM     12  C   UNL A   1      32.789  20.353  24.452  1.00  0.00     0.014 C 
ATOM     13  C   UNL A   1      32.151  21.621  22.391  1.00  0.00     0.014 C 
ENDBRANCH   7  11
BRANCH   9  14
ATOM     14  N   UNL A   1      32.638  26.285  23.796  1.00  0.00    -0.351 N 
ATOM     15  C   UNL A   1      33.695  27.221  23.477  1.00  0.00     0.146 C 
BRANCH  14  16
ATOM     16  C   UNL A   1      31.247  26.702  23.551  1.00  0.00     0.125 C 
BRANCH  16  17
ATOM     17  C   UNL A   1      31.125  27.685  22.375  1.00  0.00     0.077 C 
BRANCH  17  18
ATOM     18  C   UNL A   1      29.884  28.548  22.381  1.00  0.00     0.042 A 
ATOM     19  C   UNL A   1      28.767  28.173  23.126  1.00  0.00     0.024 A 
ATOM     20  N   UNL A   1      29.902  29.674  21.625  1.00  0.00    -0.261 NA
ATOM     21  C   UNL A   1      27.644  28.996  23.126  1.00  0.00     0.003 A 
ATOM     22  C   UNL A   1      28.796  30.451  21.642  1.00  0.00     0.111 A 
ATOM     23  C   UNL A   1      27.656  30.162  22.373  1.00  0.00     0.020 A 
ENDBRANCH  17  18
ENDBRANCH  16  17
ENDBRANCH  14  16
ENDBRANCH   9  14
ENDBRANCH   3   6
ENDBRANCH   1   2
BRANCH   1  24
ATOM     24  C   UNL A   1      36.960  21.284  24.441  1.00  0.00     0.023 C 
BRANCH  24  25
ATOM     25  C   UNL A   1      37.743  20.081  24.962  1.00  0.00     0.023 C 
BRANCH  25  26
ATOM     26  C   UNL A   1      39.028  20.375  25.731  1.00  0.00     0.116 C 
BRANCH  26  27
ATOM     27  N   UNL A   1      39.982  19.274  25.757  1.00  0.00    -0.352 N 
ATOM     28  C   UNL A   1      41.329  19.277  26.044  1.00  0.00     0.251 C 
ATOM     29  H   UNL A   1      39.606  18.392  25.534  1.00  0.00     0.163 HD
ATOM     30  O   UNL A   1      41.978  18.237  25.957  1.00  0.00    -0.269 OA
BRANCH  28  31
ATOM     31  C   UNL A   1      42.013  20.540  26.400  1.00  0.00     0.039 A 
ATOM     32  C   UNL A   1      42.542  21.331  25.375  1.00  0.00     0.014 A 
ATOM     33  C   UNL A   1      42.091  20.971  27.725  1.00  0.00     0.014 A 
ATOM     34  C   UNL A   1      43.039  22.603  25.669  1.00  0.00     0.010 A 
ATOM     35  C   UNL A   1      42.504  22.271  28.004  1.00  0.00     0.010 A 
ATOM     36  C   UNL A   1      42.966  23.109  26.977  1.00  0.00    -0.014 A 
BRANCH  36  37
ATOM     37  C   UNL A   1      43.331  24.517  27.288  1.00  0.00     0.031 A 
ATOM     38  C   UNL A   1      44.766  24.960  27.237  1.00  0.00     0.074 A 
ATOM     39  C   UNL A   1      42.379  25.378  27.702  1.00  0.00     0.049 A 
ATOM     40  N   UNL A   1      45.287  26.117  27.565  1.00  0.00    -0.248 NA
ATOM     41  C   UNL A   1      45.751  23.963  26.791  1.00  0.00     0.031 C 
ATOM     42  C   UNL A   1      40.957  25.062  27.854  1.00  0.00     0.029 A 
ATOM     43  N   UNL A   1      42.467  26.693  28.087  1.00  0.00    -0.354 N 
ATOM     44  C   UNL A   1      46.657  25.978  27.383  1.00  0.00     0.074 A 
ATOM     45  C   UNL A   1      46.892  24.611  26.968  1.00  0.00     0.031 C 
ATOM     46  C   UNL A   1      40.304  26.157  28.275  1.00  0.00     0.029 A 
ATOM     47  C   UNL A   1      41.263  27.241  28.461  1.00  0.00     0.049 A 
ATOM     48  H   UNL A   1      43.313  27.195  28.096  1.00  0.00     0.167 HD
ATOM     49  C   UNL A   1      47.630  26.909  27.525  1.00  0.00     0.037 A 
ATOM     50  C   UNL A   1      40.965  28.476  28.908  1.00  0.00     0.037 A 
ATOM     51  C   UNL A   1      47.395  28.278  27.906  1.00  0.00     0.049 A 
ATOM     52  C   UNL A   1      42.060  29.495  29.050  1.00  0.00     0.074 A 
ATOM     53  C   UNL A   1      48.308  29.313  28.007  1.00  0.00     0.029 A 
ATOM     54  N   UNL A   1      46.158  28.800  28.249  1.00  0.00    -0.354 N 
ATOM     55  N   UNL A   1      43.342  29.368  28.805  1.00  0.00    -0.248 NA
ATOM     56  C   UNL A   1      41.668  30.828  29.527  1.00  0.00     0.031 C 
ATOM     57  C   UNL A   1      47.629  30.453  28.448  1.00  0.00     0.029 A 
ATOM     58  C   UNL A   1      46.287  30.139  28.581  1.00  0.00     0.049 A 
ATOM     59  H   UNL A   1      45.313  28.295  28.255  1.00  0.00     0.167 HD
ATOM     60  C   UNL A   1      43.903  30.610  29.072  1.00  0.00     0.074 A 
ATOM     61  C   UNL A   1      42.821  31.480  29.485  1.00  0.00     0.031 C 
ATOM     62  C   UNL A   1      45.201  30.995  28.984  1.00  0.00     0.037 A 
BRANCH  49  63
ATOM     63  C   UNL A   1      49.042  26.477  27.257  1.00  0.00     0.057 A 
ATOM     64  C   UNL A   1      49.866  25.978  28.274  1.00  0.00     0.134 A 
ATOM     65  C   UNL A   1      49.576  26.536  25.963  1.00  0.00     0.134 A 
ATOM     66  F   UNL A   1      49.420  25.908  29.537  1.00  0.00    -0.206 F 
ATOM     67  C   UNL A   1      51.180  25.580  28.021  1.00  0.00     0.040 A 
ATOM     68  C   UNL A   1      50.879  26.115  25.692  1.00  0.00     0.040 A 
ATOM     69  F   UNL A   1      48.839  26.997  24.942  1.00  0.00    -0.206 F 
ATOM     70  C   UNL A   1      51.688  25.644  26.725  1.00  0.00     0.006 A 
ENDBRANCH  49  63
BRANCH  50  71
ATOM     71  C   UNL A   1      39.560  28.831  29.231  1.00  0.00     0.057 A 
ATOM     72  C   UNL A   1      39.040  28.617  30.514  1.00  0.00     0.134 A 
ATOM     73  C   UNL A   1      38.700  29.376  28.270  1.00  0.00     0.134 A 
ATOM     74  F   UNL A   1      39.809  28.078  31.471  1.00  0.00    -0.206 F 
ATOM     75  C   UNL A   1      37.713  28.917  30.825  1.00  0.00     0.040 A 
ATOM     76  C   UNL A   1      37.378  29.702  28.573  1.00  0.00     0.040 A 
ATOM     77  F   UNL A   1      39.139  29.611  27.024  1.00  0.00    -0.206 F 
ATOM     78  C   UNL A   1      36.878  29.467  29.853  1.00  0.00     0.006 A 
ENDBRANCH  50  71
BRANCH  62  79
ATOM     79  C   UNL A   1      45.516  32.425  29.310  1.00  0.00     0.057 A 
ATOM     80  C   UNL A   1      45.442  33.435  28.343  1.00  0.00     0.134 A 
ATOM     81  C   UNL A   1      45.858  32.800  30.615  1.00  0.00     0.134 A 
ATOM     82  F   UNL A   1      45.133  33.138  27.071  1.00  0.00    -0.206 F 
ATOM     83  C   UNL A   1      45.717  34.767  28.658  1.00  0.00     0.040 A 
ATOM     84  C   UNL A   1      46.111  34.131  30.947  1.00  0.00     0.040 A 
ATOM     85  F   UNL A   1      45.938  31.882  31.589  1.00  0.00    -0.206 F 
ATOM     86  C   UNL A   1      46.046  35.119  29.966  1.00  0.00     0.006 A 
ENDBRANCH  62  79
ENDBRANCH  36  37
ENDBRANCH  28  31
ENDBRANCH  26  27
ENDBRANCH  25  26
ENDBRANCH  24  25
ENDBRANCH   1  24
TORSDOF 16
ENDMDL
MODEL 3
REMARK VINA RESULT:     -10.7      2.515      7.692
REMARK SMILES CC(C)c1nc(N(C)CCc2ccccn2)sc1C(=O)NCCCCNC(=O)c1ccc(-c2c3nc(c(-c4c(F)cccc4F)c4ccc([nH]4)c(-c4c(F)cccc4F)c4nc(c(-c5c(F)cccc5F)c5ccc2[nH]5)C=C4)C=C3)cc1
REMARK SMILES IDX 22 1 21 2 19 3 20 4 18 6 4 7 5 8 6 9 17 10 2 11 1 12 3 13
REMARK SMILES IDX 7 14 8 15 9 16 10 17 11 18 12 19 16 20 13 21 15 22 14 23
REMARK SMILES IDX 23 24 24 25 25 26 26 27 27 28 28 30 29 31 30 32 82 33 31 34
REMARK SMILES IDX 81 35 32 36 33 37 34 38 75 39 35 40 80 41 74 42 76 43 36 44
REMARK SMILES IDX 79 45 73 46 72 47 37 49 63 50 46 51 62 52 47 53 50 54 61 55
REMARK SMILES IDX 77 56 48 57 49 58 60 60 78 61 51 62 38 63 39 64 44 65 40 66
REMARK SMILES IDX 41 67 43 68 45 69 42 70 64 71 65 72 70 73 66 74 67 75 69 76
REMARK SMILES IDX 71 77 68 78 52 79 53 80 58 81 54 82 55 83 57 84 59 85 56 86
REMARK H PARENT 21 5 26 29 76 48 50 59
REMARK Flexibility Score: inf
ROOT
ATOM      1  C   UNL A   1      36.620  22.603  25.338  1.00  0.00     0.116 C 
ENDROOT
BRANCH   1   2
ATOM      2  N   UNL A   1      35.801  22.244  26.465  1.00  0.00    -0.351 N 
ATOM      3  C   UNL A   1      34.430  22.345  26.601  1.00  0.00     0.263 C 
ATOM      4  O   UNL A   1      33.984  21.940  27.679  1.00  0.00    -0.268 OA
ATOM      5  H   UNL A   1      36.281  21.879  27.242  1.00  0.00     0.163 HD
BRANCH   3   6
ATOM      6  C   UNL A   1      33.594  22.958  25.579  1.00  0.00     0.117 A 
ATOM      7  C   UNL A   1      32.766  22.499  24.557  1.00  0.00     0.069 A 
ATOM      8  N   UNL A   1      32.221  23.514  23.789  1.00  0.00    -0.224 NA
ATOM      9  C   UNL A   1      32.635  24.708  24.133  1.00  0.00     0.186 A 
ATOM     10  S   UNL A   1      33.526  24.694  25.601  1.00  0.00    -0.091 S 
BRANCH   7  11
ATOM     11  C   UNL A   1      32.407  21.101  24.109  1.00  0.00     0.034 C 
ATOM     12  C   UNL A   1      32.086  21.021  22.619  1.00  0.00     0.014 C 
ATOM     13  C   UNL A   1      33.471  20.050  24.464  1.00  0.00     0.014 C 
ENDBRANCH   7  11
BRANCH   9  14
ATOM     14  N   UNL A   1      32.435  25.794  23.335  1.00  0.00    -0.351 N 
ATOM     15  C   UNL A   1      33.484  26.463  22.597  1.00  0.00     0.146 C 
BRANCH  14  16
ATOM     16  C   UNL A   1      31.080  26.370  23.287  1.00  0.00     0.125 C 
BRANCH  16  17
ATOM     17  C   UNL A   1      30.489  26.605  24.687  1.00  0.00     0.077 C 
BRANCH  17  18
ATOM     18  C   UNL A   1      31.100  27.750  25.460  1.00  0.00     0.042 A 
ATOM     19  C   UNL A   1      31.400  27.609  26.815  1.00  0.00     0.024 A 
ATOM     20  N   UNL A   1      31.320  28.909  24.791  1.00  0.00    -0.261 NA
ATOM     21  C   UNL A   1      31.977  28.675  27.497  1.00  0.00     0.003 A 
ATOM     22  C   UNL A   1      31.879  29.930  25.481  1.00  0.00     0.111 A 
ATOM     23  C   UNL A   1      32.227  29.860  26.819  1.00  0.00     0.020 A 
ENDBRANCH  17  18
ENDBRANCH  16  17
ENDBRANCH  14  16
ENDBRANCH   9  14
ENDBRANCH   3   6
ENDBRANCH   1   2
BRANCH   1  24
ATOM     24  C   UNL A   1      36.961  21.482  24.368  1.00  0.00     0.023 C 
BRANCH  24  25
ATOM     25  C   UNL A   1      37.716  20.292  24.955  1.00  0.00     0.023 C 
BRANCH  25  26
ATOM     26  C   UNL A   1      38.967  20.603  25.772  1.00  0.00     0.116 C 
BRANCH  26  27
ATOM     27  N   UNL A   1      39.984  19.561  25.740  1.00  0.00    -0.352 N 
ATOM     28  C   UNL A   1      41.311  19.608  26.108  1.00  0.00     0.251 C 
ATOM     29  H   UNL A   1      39.677  18.689  25.404  1.00  0.00     0.163 HD
ATOM     30  O   UNL A   1      42.026  18.621  25.953  1.00  0.00    -0.269 OA
BRANCH  28  31
ATOM     31  C   UNL A   1      41.895  20.861  26.636  1.00  0.00     0.039 A 
ATOM     32  C   UNL A   1      42.406  21.798  25.733  1.00  0.00     0.014 A 
ATOM     33  C   UNL A   1      41.895  21.138  28.004  1.00  0.00     0.014 A 
ATOM     34  C   UNL A   1      42.805  23.056  26.191  1.00  0.00     0.010 A 
ATOM     35  C   UNL A   1      42.209  22.419  28.448  1.00  0.00     0.010 A 
ATOM     36  C   UNL A   1      42.650  23.399  27.544  1.00  0.00    -0.014 A 
BRANCH  36  37
ATOM     37  C   UNL A   1      42.908  24.781  28.030  1.00  0.00     0.031 A 
ATOM     38  C   UNL A   1      44.292  25.196  28.445  1.00  0.00     0.074 A 
ATOM     39  C   UNL A   1      41.879  25.639  28.182  1.00  0.00     0.049 A 
ATOM     40  N   UNL A   1      44.692  26.323  28.980  1.00  0.00    -0.248 NA
ATOM     41  C   UNL A   1      45.362  24.204  28.265  1.00  0.00     0.031 C 
ATOM     42  C   UNL A   1      40.477  25.345  27.875  1.00  0.00     0.029 A 
ATOM     43  N   UNL A   1      41.850  26.930  28.649  1.00  0.00    -0.354 N 
ATOM     44  C   UNL A   1      46.052  26.166  29.218  1.00  0.00     0.074 A 
ATOM     45  C   UNL A   1      46.397  24.818  28.818  1.00  0.00     0.031 C 
ATOM     46  C   UNL A   1      39.731  26.430  28.138  1.00  0.00     0.029 A 
ATOM     47  C   UNL A   1      40.592  27.483  28.667  1.00  0.00     0.049 A 
ATOM     48  H   UNL A   1      42.654  27.414  28.943  1.00  0.00     0.167 HD
ATOM     49  C   UNL A   1      46.938  27.068  29.701  1.00  0.00     0.037 A 
ATOM     50  C   UNL A   1      40.175  28.699  29.071  1.00  0.00     0.037 A 
ATOM     51  C   UNL A   1      46.604  28.419  30.068  1.00  0.00     0.049 A 
ATOM     52  C   UNL A   1      41.179  29.686  29.597  1.00  0.00     0.074 A 
ATOM     53  C   UNL A   1      47.446  29.428  30.501  1.00  0.00     0.029 A 
ATOM     54  N   UNL A   1      45.323  28.949  30.046  1.00  0.00    -0.354 N 
ATOM     55  N   UNL A   1      42.474  29.546  29.748  1.00  0.00    -0.248 NA
ATOM     56  C   UNL A   1      40.665  31.000  30.005  1.00  0.00     0.031 C 
ATOM     57  C   UNL A   1      46.669  30.558  30.777  1.00  0.00     0.029 A 
ATOM     58  C   UNL A   1      45.349  30.265  30.476  1.00  0.00     0.049 A 
ATOM     59  H   UNL A   1      44.514  28.461  29.766  1.00  0.00     0.167 HD
ATOM     60  C   UNL A   1      42.932  30.760  30.242  1.00  0.00     0.074 A 
ATOM     61  C   UNL A   1      41.778  31.629  30.354  1.00  0.00     0.031 C 
ATOM     62  C   UNL A   1      44.195  31.121  30.576  1.00  0.00     0.037 A 
BRANCH  49  63
ATOM     63  C   UNL A   1      48.363  26.621  29.852  1.00  0.00     0.057 A 
ATOM     64  C   UNL A   1      48.823  26.009  31.026  1.00  0.00     0.134 A 
ATOM     65  C   UNL A   1      49.279  26.781  28.806  1.00  0.00     0.134 A 
ATOM     66  F   UNL A   1      47.999  25.837  32.071  1.00  0.00    -0.206 F 
ATOM     67  C   UNL A   1      50.150  25.597  31.163  1.00  0.00     0.040 A 
ATOM     68  C   UNL A   1      50.602  26.350  28.921  1.00  0.00     0.040 A 
ATOM     69  F   UNL A   1      48.904  27.355  27.652  1.00  0.00    -0.206 F 
ATOM     70  C   UNL A   1      51.042  25.763  30.107  1.00  0.00     0.006 A 
ENDBRANCH  49  63
BRANCH  50  71
ATOM     71  C   UNL A   1      38.740  29.065  28.969  1.00  0.00     0.057 A 
ATOM     72  C   UNL A   1      37.894  28.975  30.081  1.00  0.00     0.134 A 
ATOM     73  C   UNL A   1      38.176  29.499  27.763  1.00  0.00     0.134 A 
ATOM     74  F   UNL A   1      38.372  28.546  31.258  1.00  0.00    -0.206 F 
ATOM     75  C   UNL A   1      36.536  29.287  29.994  1.00  0.00     0.040 A 
ATOM     76  C   UNL A   1      36.826  29.836  27.667  1.00  0.00     0.040 A 
ATOM     77  F   UNL A   1      38.935  29.613  26.663  1.00  0.00    -0.206 F 
ATOM     78  C   UNL A   1      36.000  29.724  28.785  1.00  0.00     0.006 A 
ENDBRANCH  50  71
BRANCH  62  79
ATOM     79  C   UNL A   1      44.401  32.526  31.062  1.00  0.00     0.057 A 
ATOM     80  C   UNL A   1      44.604  33.590  30.175  1.00  0.00     0.134 A 
ATOM     81  C   UNL A   1      44.356  32.821  32.430  1.00  0.00     0.134 A 
ATOM     82  F   UNL A   1      44.671  33.371  28.853  1.00  0.00    -0.206 F 
ATOM     83  C   UNL A   1      44.775  34.898  30.633  1.00  0.00     0.040 A 
ATOM     84  C   UNL A   1      44.501  34.127  32.899  1.00  0.00     0.040 A 
ATOM     85  F   UNL A   1      44.158  31.848  33.330  1.00  0.00    -0.206 F 
ATOM     86  C   UNL A   1      44.716  35.170  31.999  1.00  0.00     0.006 A 
ENDBRANCH  62  79
ENDBRANCH  36  37
ENDBRANCH  28  31
ENDBRANCH  26  27
ENDBRANCH  25  26
ENDBRANCH  24  25
ENDBRANCH   1  24
TORSDOF 16
ENDMDL
