MODEL 1
REMARK VINA RESULT:     -12.0      0.000      0.000
REMARK SMILES O=C(NCCCCNC(=O)[C@H]1C[NH2+]C[C@H]1c1ccc(C2CC2)cc1)c1ccc(-c2c3nc(c(-c4c(F)cccc4F)c4ccc([nH]4)c(-c4c(F)cccc4F)c4nc(c(-c5c(F)cccc5F)c5ccc2[nH]5)C=C4)C=C3)cc1
REMARK SMILES IDX 5 1 4 2 3 3 1 4 2 5 25 7 26 8 78 9 27 10 77 11 28 12 29 13
REMARK SMILES IDX 30 14 71 15 31 16 76 17 70 18 72 19 32 20 75 21 69 22 68 23
REMARK SMILES IDX 33 25 59 26 42 27 58 28 43 29 46 30 57 31 73 32 44 33 45 34
REMARK SMILES IDX 56 36 74 37 47 38 34 39 35 40 40 41 36 42 37 43 39 44 41 45
REMARK SMILES IDX 38 46 60 47 61 48 66 49 62 50 63 51 65 52 67 53 64 54 48 55
REMARK SMILES IDX 49 56 54 57 50 58 51 59 53 60 55 61 52 62 6 63 7 64 8 65
REMARK SMILES IDX 9 66 10 68 11 69 12 70 15 71 13 72 14 73 16 76 17 77 24 78
REMARK SMILES IDX 18 79 23 80 19 81 20 82 21 83 22 84
REMARK H PARENT 3 6 72 24 46 35 8 67 13 74 13 75
REMARK Flexibility Score: inf
ROOT
ATOM      1  C   UNL A   1      31.958  30.118  25.440  1.00  0.00     0.023 C 
ENDROOT
BRANCH   1   2
ATOM      2  C   UNL A   1      31.780  30.626  26.866  1.00  0.00     0.116 C 
BRANCH   2   3
ATOM      3  N   UNL A   1      31.810  32.075  26.977  1.00  0.00    -0.352 N 
ATOM      4  O   UNL A   1      32.529  34.118  27.597  1.00  0.00    -0.269 OA
ATOM      5  C   UNL A   1      32.764  32.920  27.504  1.00  0.00     0.251 C 
ATOM      6  H   UNL A   1      31.015  32.531  26.616  1.00  0.00     0.163 HD
BRANCH   5   7
ATOM      7  C   UNL A   1      34.055  32.386  28.002  1.00  0.00     0.039 A 
ATOM      8  C   UNL A   1      34.199  31.046  28.354  1.00  0.00     0.014 A 
ATOM      9  C   UNL A   1      35.149  33.251  28.112  1.00  0.00     0.014 A 
ATOM     10  C   UNL A   1      35.351  30.622  29.007  1.00  0.00     0.010 A 
ATOM     11  C   UNL A   1      36.349  32.795  28.670  1.00  0.00     0.010 A 
ATOM     12  C   UNL A   1      36.442  31.491  29.177  1.00  0.00    -0.014 A 
BRANCH  12  13
ATOM     13  C   UNL A   1      37.661  30.998  29.876  1.00  0.00     0.031 A 
ATOM     14  C   UNL A   1      37.912  31.321  31.326  1.00  0.00     0.074 A 
ATOM     15  C   UNL A   1      38.517  30.198  29.211  1.00  0.00     0.049 A 
ATOM     16  N   UNL A   1      38.887  30.916  32.104  1.00  0.00    -0.248 NA
ATOM     17  C   UNL A   1      36.957  32.221  31.990  1.00  0.00     0.031 C 
ATOM     18  C   UNL A   1      38.395  29.821  27.801  1.00  0.00     0.029 A 
ATOM     19  N   UNL A   1      39.639  29.532  29.636  1.00  0.00    -0.354 N 
ATOM     20  C   UNL A   1      38.680  31.531  33.333  1.00  0.00     0.074 A 
ATOM     21  C   UNL A   1      37.498  32.355  33.194  1.00  0.00     0.031 C 
ATOM     22  C   UNL A   1      39.357  28.939  27.496  1.00  0.00     0.029 A 
ATOM     23  C   UNL A   1      40.200  28.733  28.668  1.00  0.00     0.049 A 
ATOM     24  H   UNL A   1      40.006  29.618  30.545  1.00  0.00     0.167 HD
ATOM     25  C   UNL A   1      39.401  31.415  34.474  1.00  0.00     0.037 A 
ATOM     26  C   UNL A   1      41.276  27.926  28.716  1.00  0.00     0.037 A 
ATOM     27  C   UNL A   1      40.556  30.567  34.624  1.00  0.00     0.049 A 
ATOM     28  C   UNL A   1      42.052  27.811  29.995  1.00  0.00     0.074 A 
ATOM     29  C   UNL A   1      41.324  30.346  35.756  1.00  0.00     0.029 A 
ATOM     30  N   UNL A   1      41.112  29.800  33.611  1.00  0.00    -0.354 N 
ATOM     31  N   UNL A   1      41.820  28.374  31.154  1.00  0.00    -0.248 NA
ATOM     32  C   UNL A   1      43.243  26.952  29.967  1.00  0.00     0.031 C 
ATOM     33  C   UNL A   1      42.366  29.476  35.417  1.00  0.00     0.029 A 
ATOM     34  C   UNL A   1      42.222  29.121  34.086  1.00  0.00     0.049 A 
ATOM     35  H   UNL A   1      40.767  29.746  32.690  1.00  0.00     0.167 HD
ATOM     36  C   UNL A   1      42.823  27.923  32.001  1.00  0.00     0.074 A 
ATOM     37  C   UNL A   1      43.655  27.026  31.225  1.00  0.00     0.031 C 
ATOM     38  C   UNL A   1      43.039  28.229  33.304  1.00  0.00     0.037 A 
BRANCH  25  39
ATOM     39  C   UNL A   1      38.973  32.238  35.655  1.00  0.00     0.057 A 
ATOM     40  C   UNL A   1      38.199  31.705  36.693  1.00  0.00     0.134 A 
ATOM     41  C   UNL A   1      39.382  33.572  35.776  1.00  0.00     0.134 A 
ATOM     42  F   UNL A   1      37.766  30.436  36.635  1.00  0.00    -0.206 F 
ATOM     43  C   UNL A   1      37.829  32.475  37.798  1.00  0.00     0.040 A 
ATOM     44  C   UNL A   1      39.039  34.346  36.886  1.00  0.00     0.040 A 
ATOM     45  F   UNL A   1      40.132  34.144  34.821  1.00  0.00    -0.206 F 
ATOM     46  C   UNL A   1      38.256  33.798  37.899  1.00  0.00     0.006 A 
ENDBRANCH  25  39
BRANCH  26  47
ATOM     47  C   UNL A   1      41.669  27.153  27.512  1.00  0.00     0.057 A 
ATOM     48  C   UNL A   1      42.465  27.728  26.513  1.00  0.00     0.134 A 
ATOM     49  C   UNL A   1      41.270  25.823  27.335  1.00  0.00     0.134 A 
ATOM     50  F   UNL A   1      42.863  29.003  26.619  1.00  0.00    -0.206 F 
ATOM     51  C   UNL A   1      42.840  27.010  25.378  1.00  0.00     0.040 A 
ATOM     52  C   UNL A   1      41.659  25.086  26.218  1.00  0.00     0.040 A 
ATOM     53  F   UNL A   1      40.512  25.216  28.261  1.00  0.00    -0.206 F 
ATOM     54  C   UNL A   1      42.442  25.682  25.231  1.00  0.00     0.006 A 
ENDBRANCH  26  47
BRANCH  38  55
ATOM     55  C   UNL A   1      44.202  27.562  33.974  1.00  0.00     0.057 A 
ATOM     56  C   UNL A   1      44.079  26.314  34.598  1.00  0.00     0.134 A 
ATOM     57  C   UNL A   1      45.463  28.171  33.985  1.00  0.00     0.134 A 
ATOM     58  F   UNL A   1      42.894  25.686  34.634  1.00  0.00    -0.206 F 
ATOM     59  C   UNL A   1      45.164  25.707  35.233  1.00  0.00     0.040 A 
ATOM     60  C   UNL A   1      46.560  27.563  34.596  1.00  0.00     0.040 A 
ATOM     61  F   UNL A   1      45.648  29.364  33.400  1.00  0.00    -0.206 F 
ATOM     62  C   UNL A   1      46.410  26.331  35.229  1.00  0.00     0.006 A 
ENDBRANCH  38  55
ENDBRANCH  12  13
ENDBRANCH   5   7
ENDBRANCH   2   3
ENDBRANCH   1   2
BRANCH   1  63
ATOM     63  C   UNL A   1      33.034  29.052  25.233  1.00  0.00     0.023 C 
BRANCH  63  64
ATOM     64  C   UNL A   1      33.132  27.967  26.303  1.00  0.00     0.116 C 
BRANCH  64  65
ATOM     65  N   UNL A   1      31.921  27.192  26.503  1.00  0.00    -0.356 N 
ATOM     66  C   UNL A   1      31.559  26.005  25.923  1.00  0.00     0.229 C 
ATOM     67  H   UNL A   1      31.273  27.572  27.139  1.00  0.00     0.163 HD
ATOM     68  O   UNL A   1      30.699  25.345  26.505  1.00  0.00    -0.275 OA
BRANCH  66  69
ATOM     69  C   UNL A   1      32.186  25.587  24.594  1.00  0.00     0.146 C 
ATOM     70  C   UNL A   1      32.543  24.102  24.576  1.00  0.00     0.274 C 
ATOM     71  C   UNL A   1      31.271  25.679  23.356  1.00  0.00     0.092 C 
ATOM     72  N   UNL A   1      31.362  23.369  24.109  1.00  0.00    -0.345 N 
ATOM     73  C   UNL A   1      30.512  24.343  23.408  1.00  0.00     0.269 C 
ATOM     74  H   UNL A   1      30.860  22.970  24.903  1.00  0.00     0.346 HD
ATOM     75  H   UNL A   1      31.626  22.601  23.493  1.00  0.00     0.346 HD
BRANCH  71  76
ATOM     76  C   UNL A   1      30.440  26.929  23.132  1.00  0.00    -0.038 A 
ATOM     77  C   UNL A   1      29.096  27.007  23.516  1.00  0.00     0.004 A 
ATOM     78  C   UNL A   1      30.987  28.045  22.489  1.00  0.00     0.004 A 
ATOM     79  C   UNL A   1      28.354  28.179  23.335  1.00  0.00     0.004 A 
ATOM     80  C   UNL A   1      30.233  29.218  22.303  1.00  0.00     0.004 A 
ATOM     81  C   UNL A   1      28.905  29.325  22.746  1.00  0.00    -0.045 A 
BRANCH  81  82
ATOM     82  C   UNL A   1      28.059  30.580  22.652  1.00  0.00     0.019 C 
ATOM     83  C   UNL A   1      27.360  31.208  23.830  1.00  0.00     0.009 C 
ATOM     84  C   UNL A   1      28.567  31.874  23.235  1.00  0.00     0.009 C 
ENDBRANCH  81  82
ENDBRANCH  71  76
ENDBRANCH  66  69
ENDBRANCH  64  65
ENDBRANCH  63  64
ENDBRANCH   1  63
TORSDOF 13
ENDMDL
MODEL 2
REMARK VINA RESULT:     -11.9      4.573      9.494
REMARK SMILES O=C(NCCCCNC(=O)[C@H]1C[NH2+]C[C@H]1c1ccc(C2CC2)cc1)c1ccc(-c2c3nc(c(-c4c(F)cccc4F)c4ccc([nH]4)c(-c4c(F)cccc4F)c4nc(c(-c5c(F)cccc5F)c5ccc2[nH]5)C=C4)C=C3)cc1
REMARK SMILES IDX 5 1 4 2 3 3 1 4 2 5 25 7 26 8 78 9 27 10 77 11 28 12 29 13
REMARK SMILES IDX 30 14 71 15 31 16 76 17 70 18 72 19 32 20 75 21 69 22 68 23
REMARK SMILES IDX 33 25 59 26 42 27 58 28 43 29 46 30 57 31 73 32 44 33 45 34
REMARK SMILES IDX 56 36 74 37 47 38 34 39 35 40 40 41 36 42 37 43 39 44 41 45
REMARK SMILES IDX 38 46 60 47 61 48 66 49 62 50 63 51 65 52 67 53 64 54 48 55
REMARK SMILES IDX 49 56 54 57 50 58 51 59 53 60 55 61 52 62 6 63 7 64 8 65
REMARK SMILES IDX 9 66 10 68 11 69 12 70 15 71 13 72 14 73 16 76 17 77 24 78
REMARK SMILES IDX 18 79 23 80 19 81 20 82 21 83 22 84
REMARK H PARENT 3 6 72 24 46 35 8 67 13 74 13 75
REMARK Flexibility Score: inf
ROOT
ATOM      1  C   UNL A   1      37.604  20.119  24.761  1.00  0.00     0.023 C 
ENDROOT
BRANCH   1   2
ATOM      2  C   UNL A   1      38.738  20.436  25.729  1.00  0.00     0.116 C 
BRANCH   2   3
ATOM      3  N   UNL A   1      39.823  19.469  25.693  1.00  0.00    -0.352 N 
ATOM      4  O   UNL A   1      41.925  18.668  25.812  1.00  0.00    -0.269 OA
ATOM      5  C   UNL A   1      41.154  19.594  26.029  1.00  0.00     0.251 C 
ATOM      6  H   UNL A   1      39.564  18.574  25.374  1.00  0.00     0.163 HD
BRANCH   5   7
ATOM      7  C   UNL A   1      41.672  20.856  26.611  1.00  0.00     0.039 A 
ATOM      8  C   UNL A   1      41.721  21.053  27.989  1.00  0.00     0.014 A 
ATOM      9  C   UNL A   1      42.126  21.864  25.752  1.00  0.00     0.014 A 
ATOM     10  C   UNL A   1      42.017  22.314  28.498  1.00  0.00     0.010 A 
ATOM     11  C   UNL A   1      42.528  23.099  26.273  1.00  0.00     0.010 A 
ATOM     12  C   UNL A   1      42.421  23.356  27.647  1.00  0.00    -0.014 A 
BRANCH  12  13
ATOM     13  C   UNL A   1      42.734  24.689  28.230  1.00  0.00     0.031 A 
ATOM     14  C   UNL A   1      44.154  25.097  28.529  1.00  0.00     0.074 A 
ATOM     15  C   UNL A   1      41.731  25.566  28.432  1.00  0.00     0.049 A 
ATOM     16  N   UNL A   1      44.606  26.244  28.973  1.00  0.00    -0.248 NA
ATOM     17  C   UNL A   1      45.202  24.087  28.313  1.00  0.00     0.031 C 
ATOM     18  C   UNL A   1      40.312  25.290  28.197  1.00  0.00     0.029 A 
ATOM     19  N   UNL A   1      41.749  26.873  28.849  1.00  0.00    -0.354 N 
ATOM     20  C   UNL A   1      45.980  26.086  29.117  1.00  0.00     0.074 A 
ATOM     21  C   UNL A   1      46.287  24.725  28.733  1.00  0.00     0.031 C 
ATOM     22  C   UNL A   1      39.605  26.410  28.404  1.00  0.00     0.029 A 
ATOM     23  C   UNL A   1      40.510  27.466  28.846  1.00  0.00     0.049 A 
ATOM     24  H   UNL A   1      42.571  27.340  29.125  1.00  0.00     0.167 HD
ATOM     25  C   UNL A   1      46.901  26.993  29.522  1.00  0.00     0.037 A 
ATOM     26  C   UNL A   1      40.139  28.720  29.164  1.00  0.00     0.037 A 
ATOM     27  C   UNL A   1      46.602  28.359  29.869  1.00  0.00     0.049 A 
ATOM     28  C   UNL A   1      41.182  29.705  29.603  1.00  0.00     0.074 A 
ATOM     29  C   UNL A   1      47.476  29.366  30.245  1.00  0.00     0.029 A 
ATOM     30  N   UNL A   1      45.330  28.911  29.884  1.00  0.00    -0.354 N 
ATOM     31  N   UNL A   1      42.478  29.547  29.700  1.00  0.00    -0.248 NA
ATOM     32  C   UNL A   1      40.706  31.042  29.983  1.00  0.00     0.031 C 
ATOM     33  C   UNL A   1      46.728  30.515  30.524  1.00  0.00     0.029 A 
ATOM     34  C   UNL A   1      45.394  30.237  30.281  1.00  0.00     0.049 A 
ATOM     35  H   UNL A   1      44.503  28.431  29.647  1.00  0.00     0.167 HD
ATOM     36  C   UNL A   1      42.977  30.768  30.132  1.00  0.00     0.074 A 
ATOM     37  C   UNL A   1      41.844  31.661  30.262  1.00  0.00     0.031 C 
ATOM     38  C   UNL A   1      44.259  31.115  30.402  1.00  0.00     0.037 A 
BRANCH  25  39
ATOM     39  C   UNL A   1      48.328  26.535  29.630  1.00  0.00     0.057 A 
ATOM     40  C   UNL A   1      49.252  26.730  28.597  1.00  0.00     0.134 A 
ATOM     41  C   UNL A   1      48.792  25.931  30.806  1.00  0.00     0.134 A 
ATOM     42  F   UNL A   1      48.871  27.294  27.441  1.00  0.00    -0.206 F 
ATOM     43  C   UNL A   1      50.583  26.322  28.720  1.00  0.00     0.040 A 
ATOM     44  C   UNL A   1      50.124  25.539  30.950  1.00  0.00     0.040 A 
ATOM     45  F   UNL A   1      47.962  25.721  31.838  1.00  0.00    -0.206 F 
ATOM     46  C   UNL A   1      51.023  25.731  29.904  1.00  0.00     0.006 A 
ENDBRANCH  25  39
BRANCH  26  47
ATOM     47  C   UNL A   1      38.712  29.113  29.062  1.00  0.00     0.057 A 
ATOM     48  C   UNL A   1      38.165  29.539  27.846  1.00  0.00     0.134 A 
ATOM     49  C   UNL A   1      37.861  29.066  30.172  1.00  0.00     0.134 A 
ATOM     50  F   UNL A   1      38.936  29.622  26.752  1.00  0.00    -0.206 F 
ATOM     51  C   UNL A   1      36.825  29.911  27.740  1.00  0.00     0.040 A 
ATOM     52  C   UNL A   1      36.513  29.411  30.075  1.00  0.00     0.040 A 
ATOM     53  F   UNL A   1      38.325  28.660  31.364  1.00  0.00    -0.206 F 
ATOM     54  C   UNL A   1      35.994  29.842  28.856  1.00  0.00     0.006 A 
ENDBRANCH  26  47
BRANCH  38  55
ATOM     55  C   UNL A   1      44.501  32.531  30.834  1.00  0.00     0.057 A 
ATOM     56  C   UNL A   1      44.512  32.900  32.184  1.00  0.00     0.134 A 
ATOM     57  C   UNL A   1      44.738  33.534  29.885  1.00  0.00     0.134 A 
ATOM     58  F   UNL A   1      44.277  31.988  33.140  1.00  0.00    -0.206 F 
ATOM     59  C   UNL A   1      44.724  34.223  32.577  1.00  0.00     0.040 A 
ATOM     60  C   UNL A   1      44.974  34.855  30.266  1.00  0.00     0.040 A 
ATOM     61  F   UNL A   1      44.747  33.245  28.575  1.00  0.00    -0.206 F 
ATOM     62  C   UNL A   1      44.960  35.204  31.615  1.00  0.00     0.006 A 
ENDBRANCH  38  55
ENDBRANCH  12  13
ENDBRANCH   5   7
ENDBRANCH   2   3
ENDBRANCH   1   2
BRANCH   1  63
ATOM     63  C   UNL A   1      36.281  20.842  25.014  1.00  0.00     0.023 C 
BRANCH  63  64
ATOM     64  C   UNL A   1      36.275  22.352  24.781  1.00  0.00     0.116 C 
BRANCH  64  65
ATOM     65  N   UNL A   1      35.576  22.784  23.585  1.00  0.00    -0.356 N 
ATOM     66  C   UNL A   1      34.528  23.660  23.474  1.00  0.00     0.229 C 
ATOM     67  H   UNL A   1      35.898  22.395  22.740  1.00  0.00     0.163 HD
ATOM     68  O   UNL A   1      34.349  24.170  22.369  1.00  0.00    -0.275 OA
BRANCH  66  69
ATOM     69  C   UNL A   1      33.628  23.921  24.680  1.00  0.00     0.146 C 
ATOM     70  C   UNL A   1      32.971  25.299  24.612  1.00  0.00     0.274 C 
ATOM     71  C   UNL A   1      32.386  23.015  24.805  1.00  0.00     0.092 C 
ATOM     72  N   UNL A   1      31.720  25.155  23.862  1.00  0.00    -0.345 N 
ATOM     73  C   UNL A   1      31.367  23.728  23.901  1.00  0.00     0.269 C 
ATOM     74  H   UNL A   1      31.851  25.459  22.897  1.00  0.00     0.346 HD
ATOM     75  H   UNL A   1      30.980  25.728  24.268  1.00  0.00     0.346 HD
BRANCH  71  76
ATOM     76  C   UNL A   1      32.533  21.516  24.620  1.00  0.00    -0.038 A 
ATOM     77  C   UNL A   1      32.375  20.902  23.373  1.00  0.00     0.004 A 
ATOM     78  C   UNL A   1      32.794  20.684  25.715  1.00  0.00     0.004 A 
ATOM     79  C   UNL A   1      32.549  19.523  23.214  1.00  0.00     0.004 A 
ATOM     80  C   UNL A   1      32.960  19.297  25.549  1.00  0.00     0.004 A 
ATOM     81  C   UNL A   1      32.869  18.683  24.289  1.00  0.00    -0.045 A 
BRANCH  81  82
ATOM     82  C   UNL A   1      33.113  17.211  24.023  1.00  0.00     0.019 C 
ATOM     83  C   UNL A   1      34.072  16.698  22.980  1.00  0.00     0.009 C 
ATOM     84  C   UNL A   1      34.419  16.579  24.436  1.00  0.00     0.009 C 
ENDBRANCH  81  82
ENDBRANCH  71  76
ENDBRANCH  66  69
ENDBRANCH  64  65
ENDBRANCH  63  64
ENDBRANCH   1  63
TORSDOF 13
ENDMDL
MODEL 3
REMARK VINA RESULT:     -11.8      4.219      7.927
REMARK SMILES O=C(NCCCCNC(=O)[C@H]1C[NH2+]C[C@H]1c1ccc(C2CC2)cc1)c1ccc(-c2c3nc(c(-c4c(F)cccc4F)c4ccc([nH]4)c(-c4c(F)cccc4F)c4nc(c(-c5c(F)cccc5F)c5ccc2[nH]5)C=C4)C=C3)cc1
REMARK SMILES IDX 5 1 4 2 3 3 1 4 2 5 25 7 26 8 78 9 27 10 77 11 28 12 29 13
REMARK SMILES IDX 30 14 71 15 31 16 76 17 70 18 72 19 32 20 75 21 69 22 68 23
REMARK SMILES IDX 33 25 59 26 42 27 58 28 43 29 46 30 57 31 73 32 44 33 45 34
REMARK SMILES IDX 56 36 74 37 47 38 34 39 35 40 40 41 36 42 37 43 39 44 41 45
REMARK SMILES IDX 38 46 60 47 61 48 66 49 62 50 63 51 65 52 67 53 64 54 48 55
REMARK SMILES IDX 49 56 54 57 50 58 51 59 53 60 55 61 52 62 6 63 7 64 8 65
REMARK SMILES IDX 9 66 10 68 11 69 12 70 15 71 13 72 14 73 16 76 17 77 24 78
REMARK SMILES IDX 18 79 23 80 19 81 20 82 21 83 22 84
REMARK H PARENT 3 6 72 24 46 35 8 67 13 74 13 75
REMARK Flexibility Score: inf
ROOT
ATOM      1  C   UNL A   1      33.499  30.067  26.652  1.00  0.00     0.023 C 
ENDROOT
BRANCH   1   2
ATOM      2  C   UNL A   1      34.703  29.681  27.504  1.00  0.00     0.116 C 
BRANCH   2   3
ATOM      3  N   UNL A   1      34.850  30.485  28.706  1.00  0.00    -0.352 N 
ATOM      4  O   UNL A   1      35.781  31.287  30.593  1.00  0.00    -0.269 OA
ATOM      5  C   UNL A   1      35.917  30.636  29.565  1.00  0.00     0.251 C 
ATOM      6  H   UNL A   1      34.053  31.011  28.948  1.00  0.00     0.163 HD
BRANCH   5   7
ATOM      7  C   UNL A   1      37.216  29.980  29.281  1.00  0.00     0.039 A 
ATOM      8  C   UNL A   1      37.908  29.283  30.270  1.00  0.00     0.014 A 
ATOM      9  C   UNL A   1      37.749  30.059  27.990  1.00  0.00     0.014 A 
ATOM     10  C   UNL A   1      39.211  28.857  30.032  1.00  0.00     0.010 A 
ATOM     11  C   UNL A   1      39.018  29.532  27.723  1.00  0.00     0.010 A 
ATOM     12  C   UNL A   1      39.786  28.977  28.756  1.00  0.00    -0.014 A 
BRANCH  12  13
ATOM     13  C   UNL A   1      41.181  28.504  28.540  1.00  0.00     0.031 A 
ATOM     14  C   UNL A   1      41.468  27.082  28.135  1.00  0.00     0.074 A 
ATOM     15  C   UNL A   1      42.194  29.386  28.649  1.00  0.00     0.049 A 
ATOM     16  N   UNL A   1      42.618  26.525  27.841  1.00  0.00    -0.248 NA
ATOM     17  C   UNL A   1      40.324  26.161  28.060  1.00  0.00     0.031 C 
ATOM     18  C   UNL A   1      42.051  30.788  29.047  1.00  0.00     0.029 A 
ATOM     19  N   UNL A   1      43.537  29.247  28.405  1.00  0.00    -0.354 N 
ATOM     20  C   UNL A   1      42.341  25.189  27.576  1.00  0.00     0.074 A 
ATOM     21  C   UNL A   1      40.917  25.011  27.764  1.00  0.00     0.031 C 
ATOM     22  C   UNL A   1      43.241  31.397  28.953  1.00  0.00     0.029 A 
ATOM     23  C   UNL A   1      44.243  30.417  28.548  1.00  0.00     0.049 A 
ATOM     24  H   UNL A   1      43.953  28.391  28.152  1.00  0.00     0.167 HD
ATOM     25  C   UNL A   1      43.192  24.203  27.202  1.00  0.00     0.037 A 
ATOM     26  C   UNL A   1      45.552  30.675  28.374  1.00  0.00     0.037 A 
ATOM     27  C   UNL A   1      44.603  24.386  26.978  1.00  0.00     0.049 A 
ATOM     28  C   UNL A   1      46.470  29.566  27.953  1.00  0.00     0.074 A 
ATOM     29  C   UNL A   1      45.537  23.457  26.550  1.00  0.00     0.029 A 
ATOM     30  N   UNL A   1      45.285  25.580  27.165  1.00  0.00    -0.354 N 
ATOM     31  N   UNL A   1      46.184  28.319  27.674  1.00  0.00    -0.248 NA
ATOM     32  C   UNL A   1      47.895  29.902  27.829  1.00  0.00     0.031 C 
ATOM     33  C   UNL A   1      46.791  24.079  26.516  1.00  0.00     0.029 A 
ATOM     34  C   UNL A   1      46.630  25.405  26.881  1.00  0.00     0.049 A 
ATOM     35  H   UNL A   1      44.874  26.425  27.457  1.00  0.00     0.167 HD
ATOM     36  C   UNL A   1      47.388  27.724  27.322  1.00  0.00     0.074 A 
ATOM     37  C   UNL A   1      48.404  28.753  27.406  1.00  0.00     0.031 C 
ATOM     38  C   UNL A   1      47.629  26.439  26.965  1.00  0.00     0.037 A 
BRANCH  25  39
ATOM     39  C   UNL A   1      42.624  22.824  27.023  1.00  0.00     0.057 A 
ATOM     40  C   UNL A   1      42.429  22.257  25.757  1.00  0.00     0.134 A 
ATOM     41  C   UNL A   1      42.311  22.035  28.138  1.00  0.00     0.134 A 
ATOM     42  F   UNL A   1      42.699  22.962  24.648  1.00  0.00    -0.206 F 
ATOM     43  C   UNL A   1      41.923  20.963  25.606  1.00  0.00     0.040 A 
ATOM     44  C   UNL A   1      41.826  20.733  28.000  1.00  0.00     0.040 A 
ATOM     45  F   UNL A   1      42.480  22.513  29.380  1.00  0.00    -0.206 F 
ATOM     46  C   UNL A   1      41.627  20.196  26.731  1.00  0.00     0.006 A 
ENDBRANCH  25  39
BRANCH  26  47
ATOM     47  C   UNL A   1      46.066  32.051  28.587  1.00  0.00     0.057 A 
ATOM     48  C   UNL A   1      46.500  32.472  29.850  1.00  0.00     0.134 A 
ATOM     49  C   UNL A   1      46.143  32.972  27.537  1.00  0.00     0.134 A 
ATOM     50  F   UNL A   1      46.433  31.639  30.899  1.00  0.00    -0.206 F 
ATOM     51  C   UNL A   1      46.983  33.762  30.062  1.00  0.00     0.040 A 
ATOM     52  C   UNL A   1      46.649  34.258  27.728  1.00  0.00     0.040 A 
ATOM     53  F   UNL A   1      45.749  32.626  26.302  1.00  0.00    -0.206 F 
ATOM     54  C   UNL A   1      47.065  34.658  28.997  1.00  0.00     0.006 A 
ENDBRANCH  26  47
BRANCH  38  55
ATOM     55  C   UNL A   1      49.043  26.088  26.610  1.00  0.00     0.057 A 
ATOM     56  C   UNL A   1      49.561  26.311  25.328  1.00  0.00     0.134 A 
ATOM     57  C   UNL A   1      49.900  25.529  27.568  1.00  0.00     0.134 A 
ATOM     58  F   UNL A   1      48.786  26.829  24.364  1.00  0.00    -0.206 F 
ATOM     59  C   UNL A   1      50.874  25.967  25.003  1.00  0.00     0.040 A 
ATOM     60  C   UNL A   1      51.221  25.203  27.260  1.00  0.00     0.040 A 
ATOM     61  F   UNL A   1      49.467  25.295  28.816  1.00  0.00    -0.206 F 
ATOM     62  C   UNL A   1      51.709  25.415  25.972  1.00  0.00     0.006 A 
ENDBRANCH  38  55
ENDBRANCH  12  13
ENDBRANCH   5   7
ENDBRANCH   2   3
ENDBRANCH   1   2
BRANCH   1  63
ATOM     63  C   UNL A   1      32.185  29.362  26.986  1.00  0.00     0.023 C 
BRANCH  63  64
ATOM     64  C   UNL A   1      32.269  27.864  27.272  1.00  0.00     0.116 C 
BRANCH  64  65
ATOM     65  N   UNL A   1      31.026  27.135  27.094  1.00  0.00    -0.356 N 
ATOM     66  C   UNL A   1      30.751  26.111  26.226  1.00  0.00     0.229 C 
ATOM     67  H   UNL A   1      30.282  27.416  27.673  1.00  0.00     0.163 HD
ATOM     68  O   UNL A   1      29.787  25.398  26.501  1.00  0.00    -0.275 OA
BRANCH  66  69
ATOM     69  C   UNL A   1      31.600  25.934  24.968  1.00  0.00     0.146 C 
ATOM     70  C   UNL A   1      31.935  24.466  24.710  1.00  0.00     0.274 C 
ATOM     71  C   UNL A   1      30.922  26.315  23.636  1.00  0.00     0.092 C 
ATOM     72  N   UNL A   1      30.846  23.900  23.908  1.00  0.00    -0.345 N 
ATOM     73  C   UNL A   1      30.148  25.034  23.283  1.00  0.00     0.269 C 
ATOM     74  H   UNL A   1      30.205  23.377  24.505  1.00  0.00     0.346 HD
ATOM     75  H   UNL A   1      31.206  23.256  23.203  1.00  0.00     0.346 HD
BRANCH  71  76
ATOM     76  C   UNL A   1      30.161  27.623  23.532  1.00  0.00    -0.038 A 
ATOM     77  C   UNL A   1      30.777  28.861  23.749  1.00  0.00     0.004 A 
ATOM     78  C   UNL A   1      28.790  27.632  23.251  1.00  0.00     0.004 A 
ATOM     79  C   UNL A   1      30.069  30.060  23.615  1.00  0.00     0.004 A 
ATOM     80  C   UNL A   1      28.082  28.841  23.125  1.00  0.00     0.004 A 
ATOM     81  C   UNL A   1      28.709  30.088  23.277  1.00  0.00    -0.045 A 
BRANCH  81  82
ATOM     82  C   UNL A   1      28.031  31.429  23.078  1.00  0.00     0.019 C 
ATOM     83  C   UNL A   1      28.777  32.726  22.903  1.00  0.00     0.009 C 
ATOM     84  C   UNL A   1      28.078  32.103  21.729  1.00  0.00     0.009 C 
ENDBRANCH  81  82
ENDBRANCH  71  76
ENDBRANCH  66  69
ENDBRANCH  64  65
ENDBRANCH  63  64
ENDBRANCH   1  63
TORSDOF 13
ENDMDL
