MODEL 1
REMARK VINA RESULT:     -11.0      0.000      0.000
REMARK SMILES C[C@@H](Sc1ccccc1[N+](=O)[O-])[C@@H](C)C(=O)NCCCCNC(=O)c1ccc(-c2c3nc(c(-c4c(F)cccc4F)c4ccc([nH]4)c(-c4c(F)cccc4F)c4nc(c(-c5c(F)cccc5F)c5ccc2[nH]5)C=C4)C=C3)cc1
REMARK SMILES IDX 18 1 17 2 15 3 16 4 13 6 14 7 2 8 1 9 3 10 4 11 5 12 9 13
REMARK SMILES IDX 6 14 8 15 7 16 10 17 11 18 12 19 19 20 20 21 21 22 22 23
REMARK SMILES IDX 23 24 24 26 25 27 26 28 78 29 27 30 77 31 28 32 29 33 30 34
REMARK SMILES IDX 71 35 31 36 76 37 70 38 72 39 32 40 75 41 69 42 68 43 33 45
REMARK SMILES IDX 59 46 42 47 58 48 43 49 46 50 57 51 73 52 44 53 45 54 56 56
REMARK SMILES IDX 74 57 47 58 34 59 35 60 40 61 36 62 37 63 39 64 41 65 38 66
REMARK SMILES IDX 60 67 61 68 66 69 62 70 63 71 65 72 67 73 64 74 48 75 49 76
REMARK SMILES IDX 54 77 50 78 51 79 53 80 55 81 52 82
REMARK H PARENT 17 5 22 25 72 44 46 55
REMARK Flexibility Score: inf
ROOT
ATOM      1  C   UNL A   1      35.542  21.174  25.777  1.00  0.00     0.116 C 
ENDROOT
BRANCH   1   2
ATOM      2  N   UNL A   1      34.333  20.408  25.560  1.00  0.00    -0.356 N 
ATOM      3  C   UNL A   1      33.046  20.794  25.353  1.00  0.00     0.223 C 
ATOM      4  O   UNL A   1      32.220  19.899  25.154  1.00  0.00    -0.275 OA
ATOM      5  H   UNL A   1      34.467  19.433  25.564  1.00  0.00     0.163 HD
BRANCH   3   6
ATOM      6  C   UNL A   1      32.625  22.262  25.298  1.00  0.00     0.088 C 
ATOM      7  C   UNL A   1      31.172  22.383  25.775  1.00  0.00     0.019 C 
BRANCH   6   8
ATOM      8  C   UNL A   1      32.947  22.966  23.952  1.00  0.00     0.061 C 
ATOM      9  C   UNL A   1      31.744  22.970  23.007  1.00  0.00     0.020 C 
BRANCH   8  10
ATOM     10  S   UNL A   1      33.500  24.704  24.309  1.00  0.00    -0.115 SA
BRANCH  10  11
ATOM     11  C   UNL A   1      32.129  25.789  23.893  1.00  0.00     0.085 A 
ATOM     12  C   UNL A   1      31.019  25.906  24.748  1.00  0.00     0.022 A 
ATOM     13  C   UNL A   1      32.056  26.485  22.665  1.00  0.00     0.282 A 
ATOM     14  C   UNL A   1      29.908  26.694  24.413  1.00  0.00     0.002 A 
ATOM     15  C   UNL A   1      30.936  27.269  22.323  1.00  0.00     0.087 A 
ATOM     16  C   UNL A   1      29.864  27.373  23.203  1.00  0.00     0.007 A 
BRANCH  13  17
ATOM     17  N   UNL A   1      33.124  26.431  21.666  1.00  0.00     0.063 N 
ATOM     18  O   UNL A   1      34.018  27.286  21.759  1.00  0.00    -0.258 OA
ATOM     19  O   UNL A   1      33.125  25.498  20.853  1.00  0.00    -0.258 OA
ENDBRANCH  13  17
ENDBRANCH  10  11
ENDBRANCH   8  10
ENDBRANCH   6   8
ENDBRANCH   3   6
ENDBRANCH   1   2
BRANCH   1  20
ATOM     20  C   UNL A   1      36.562  20.954  24.662  1.00  0.00     0.023 C 
BRANCH  20  21
ATOM     21  C   UNL A   1      37.604  19.874  24.957  1.00  0.00     0.023 C 
BRANCH  21  22
ATOM     22  C   UNL A   1      38.837  20.357  25.710  1.00  0.00     0.116 C 
BRANCH  22  23
ATOM     23  N   UNL A   1      39.915  19.380  25.723  1.00  0.00    -0.352 N 
ATOM     24  C   UNL A   1      41.232  19.551  26.068  1.00  0.00     0.251 C 
ATOM     25  H   UNL A   1      39.665  18.469  25.445  1.00  0.00     0.163 HD
ATOM     26  O   UNL A   1      42.039  18.643  25.891  1.00  0.00    -0.269 OA
BRANCH  24  27
ATOM     27  C   UNL A   1      41.681  20.844  26.623  1.00  0.00     0.039 A 
ATOM     28  C   UNL A   1      42.182  21.813  25.751  1.00  0.00     0.014 A 
ATOM     29  C   UNL A   1      41.588  21.109  27.992  1.00  0.00     0.014 A 
ATOM     30  C   UNL A   1      42.530  23.070  26.245  1.00  0.00     0.010 A 
ATOM     31  C   UNL A   1      41.856  22.388  28.469  1.00  0.00     0.010 A 
ATOM     32  C   UNL A   1      42.337  23.380  27.602  1.00  0.00    -0.014 A 
BRANCH  32  33
ATOM     33  C   UNL A   1      42.632  24.738  28.124  1.00  0.00     0.031 A 
ATOM     34  C   UNL A   1      44.033  25.108  28.523  1.00  0.00     0.074 A 
ATOM     35  C   UNL A   1      41.628  25.622  28.285  1.00  0.00     0.049 A 
ATOM     36  N   UNL A   1      44.481  26.233  29.021  1.00  0.00    -0.248 NA
ATOM     37  C   UNL A   1      45.065  24.070  28.366  1.00  0.00     0.031 C 
ATOM     38  C   UNL A   1      40.218  25.364  27.987  1.00  0.00     0.029 A 
ATOM     39  N   UNL A   1      41.639  26.916  28.740  1.00  0.00    -0.354 N 
ATOM     40  C   UNL A   1      45.838  26.035  29.244  1.00  0.00     0.074 A 
ATOM     41  C   UNL A   1      46.129  24.664  28.886  1.00  0.00     0.031 C 
ATOM     42  C   UNL A   1      39.505  26.474  28.238  1.00  0.00     0.029 A 
ATOM     43  C   UNL A   1      40.400  27.508  28.749  1.00  0.00     0.049 A 
ATOM     44  H   UNL A   1      42.458  27.376  29.034  1.00  0.00     0.167 HD
ATOM     45  C   UNL A   1      46.764  26.923  29.680  1.00  0.00     0.037 A 
ATOM     46  C   UNL A   1      40.026  28.744  29.128  1.00  0.00     0.037 A 
ATOM     47  C   UNL A   1      46.473  28.291  30.020  1.00  0.00     0.049 A 
ATOM     48  C   UNL A   1      41.071  29.707  29.619  1.00  0.00     0.074 A 
ATOM     49  C   UNL A   1      47.349  29.284  30.419  1.00  0.00     0.029 A 
ATOM     50  N   UNL A   1      45.207  28.855  30.007  1.00  0.00    -0.354 N 
ATOM     51  N   UNL A   1      42.364  29.530  29.750  1.00  0.00    -0.248 NA
ATOM     52  C   UNL A   1      40.605  31.046  30.006  1.00  0.00     0.031 C 
ATOM     53  C   UNL A   1      46.606  30.436  30.698  1.00  0.00     0.029 A 
ATOM     54  C   UNL A   1      45.275  30.178  30.414  1.00  0.00     0.049 A 
ATOM     55  H   UNL A   1      44.381  28.387  29.747  1.00  0.00     0.167 HD
ATOM     56  C   UNL A   1      42.869  30.742  30.206  1.00  0.00     0.074 A 
ATOM     57  C   UNL A   1      41.746  31.649  30.309  1.00  0.00     0.031 C 
ATOM     58  C   UNL A   1      44.148  31.072  30.509  1.00  0.00     0.037 A 
BRANCH  45  59
ATOM     59  C   UNL A   1      48.180  26.437  29.811  1.00  0.00     0.057 A 
ATOM     60  C   UNL A   1      48.648  25.826  30.984  1.00  0.00     0.134 A 
ATOM     61  C   UNL A   1      49.077  26.551  28.742  1.00  0.00     0.134 A 
ATOM     62  F   UNL A   1      47.845  25.696  32.050  1.00  0.00    -0.206 F 
ATOM     63  C   UNL A   1      49.963  25.374  31.097  1.00  0.00     0.040 A 
ATOM     64  C   UNL A   1      50.386  26.074  28.833  1.00  0.00     0.040 A 
ATOM     65  F   UNL A   1      48.695  27.119  27.589  1.00  0.00    -0.206 F 
ATOM     66  C   UNL A   1      50.834  25.491  30.016  1.00  0.00     0.006 A 
ENDBRANCH  45  59
BRANCH  46  67
ATOM     67  C   UNL A   1      38.600  29.153  29.036  1.00  0.00     0.057 A 
ATOM     68  C   UNL A   1      38.058  29.614  27.830  1.00  0.00     0.134 A 
ATOM     69  C   UNL A   1      37.752  29.105  30.148  1.00  0.00     0.134 A 
ATOM     70  F   UNL A   1      38.824  29.700  26.734  1.00  0.00    -0.206 F 
ATOM     71  C   UNL A   1      36.730  30.038  27.739  1.00  0.00     0.040 A 
ATOM     72  C   UNL A   1      36.414  29.498  30.065  1.00  0.00     0.040 A 
ATOM     73  F   UNL A   1      38.207  28.665  31.329  1.00  0.00    -0.206 F 
ATOM     74  C   UNL A   1      35.904  29.975  28.859  1.00  0.00     0.006 A 
ENDBRANCH  46  67
BRANCH  58  75
ATOM     75  C   UNL A   1      44.407  32.486  30.945  1.00  0.00     0.057 A 
ATOM     76  C   UNL A   1      44.400  32.862  32.295  1.00  0.00     0.134 A 
ATOM     77  C   UNL A   1      44.693  33.480  29.999  1.00  0.00     0.134 A 
ATOM     78  F   UNL A   1      44.121  31.961  33.249  1.00  0.00    -0.206 F 
ATOM     79  C   UNL A   1      44.638  34.180  32.685  1.00  0.00     0.040 A 
ATOM     80  C   UNL A   1      44.964  34.795  30.381  1.00  0.00     0.040 A 
ATOM     81  F   UNL A   1      44.726  33.187  28.691  1.00  0.00    -0.206 F 
ATOM     82  C   UNL A   1      44.927  35.149  31.728  1.00  0.00     0.006 A 
ENDBRANCH  58  75
ENDBRANCH  32  33
ENDBRANCH  24  27
ENDBRANCH  22  23
ENDBRANCH  21  22
ENDBRANCH  20  21
ENDBRANCH   1  20
TORSDOF 15
ENDMDL
MODEL 2
REMARK VINA RESULT:     -11.0      1.270      1.961
REMARK SMILES C[C@@H](Sc1ccccc1[N+](=O)[O-])[C@@H](C)C(=O)NCCCCNC(=O)c1ccc(-c2c3nc(c(-c4c(F)cccc4F)c4ccc([nH]4)c(-c4c(F)cccc4F)c4nc(c(-c5c(F)cccc5F)c5ccc2[nH]5)C=C4)C=C3)cc1
REMARK SMILES IDX 18 1 17 2 15 3 16 4 13 6 14 7 2 8 1 9 3 10 4 11 5 12 9 13
REMARK SMILES IDX 6 14 8 15 7 16 10 17 11 18 12 19 19 20 20 21 21 22 22 23
REMARK SMILES IDX 23 24 24 26 25 27 26 28 78 29 27 30 77 31 28 32 29 33 30 34
REMARK SMILES IDX 71 35 31 36 76 37 70 38 72 39 32 40 75 41 69 42 68 43 33 45
REMARK SMILES IDX 59 46 42 47 58 48 43 49 46 50 57 51 73 52 44 53 45 54 56 56
REMARK SMILES IDX 74 57 47 58 34 59 35 60 40 61 36 62 37 63 39 64 41 65 38 66
REMARK SMILES IDX 60 67 61 68 66 69 62 70 63 71 65 72 67 73 64 74 48 75 49 76
REMARK SMILES IDX 54 77 50 78 51 79 53 80 55 81 52 82
REMARK H PARENT 17 5 22 25 72 44 46 55
REMARK Flexibility Score: inf
ROOT
ATOM      1  C   UNL A   1      35.624  21.063  25.766  1.00  0.00     0.116 C 
ENDROOT
BRANCH   1   2
ATOM      2  N   UNL A   1      34.391  20.331  25.563  1.00  0.00    -0.356 N 
ATOM      3  C   UNL A   1      33.114  20.755  25.359  1.00  0.00     0.223 C 
ATOM      4  O   UNL A   1      32.261  19.883  25.173  1.00  0.00    -0.275 OA
ATOM      5  H   UNL A   1      34.495  19.353  25.576  1.00  0.00     0.163 HD
BRANCH   3   6
ATOM      6  C   UNL A   1      32.738  22.234  25.292  1.00  0.00     0.088 C 
ATOM      7  C   UNL A   1      31.289  22.402  25.766  1.00  0.00     0.019 C 
BRANCH   6   8
ATOM      8  C   UNL A   1      33.082  22.918  23.942  1.00  0.00     0.061 C 
ATOM      9  C   UNL A   1      31.904  22.885  22.967  1.00  0.00     0.020 C 
BRANCH   8  10
ATOM     10  S   UNL A   1      33.600  24.670  24.278  1.00  0.00    -0.115 SA
BRANCH  10  11
ATOM     11  C   UNL A   1      32.193  25.719  23.890  1.00  0.00     0.085 A 
ATOM     12  C   UNL A   1      31.075  25.766  24.742  1.00  0.00     0.022 A 
ATOM     13  C   UNL A   1      32.101  26.454  22.687  1.00  0.00     0.282 A 
ATOM     14  C   UNL A   1      29.938  26.524  24.427  1.00  0.00     0.002 A 
ATOM     15  C   UNL A   1      30.955  27.208  22.365  1.00  0.00     0.087 A 
ATOM     16  C   UNL A   1      29.876  27.243  23.241  1.00  0.00     0.007 A 
BRANCH  13  17
ATOM     17  N   UNL A   1      33.176  26.473  21.694  1.00  0.00     0.063 N 
ATOM     18  O   UNL A   1      34.052  27.339  21.837  1.00  0.00    -0.258 OA
ATOM     19  O   UNL A   1      33.199  25.585  20.833  1.00  0.00    -0.258 OA
ENDBRANCH  13  17
ENDBRANCH  10  11
ENDBRANCH   8  10
ENDBRANCH   6   8
ENDBRANCH   3   6
ENDBRANCH   1   2
BRANCH   1  20
ATOM     20  C   UNL A   1      36.643  20.774  24.667  1.00  0.00     0.023 C 
BRANCH  20  21
ATOM     21  C   UNL A   1      37.658  19.683  25.011  1.00  0.00     0.023 C 
BRANCH  21  22
ATOM     22  C   UNL A   1      38.959  20.182  25.626  1.00  0.00     0.116 C 
BRANCH  22  23
ATOM     23  N   UNL A   1      39.968  19.141  25.748  1.00  0.00    -0.352 N 
ATOM     24  C   UNL A   1      41.302  19.262  26.046  1.00  0.00     0.251 C 
ATOM     25  H   UNL A   1      39.650  18.222  25.594  1.00  0.00     0.163 HD
ATOM     26  O   UNL A   1      42.040  18.283  25.975  1.00  0.00    -0.269 OA
BRANCH  24  27
ATOM     27  C   UNL A   1      41.851  20.580  26.422  1.00  0.00     0.039 A 
ATOM     28  C   UNL A   1      42.238  21.461  25.409  1.00  0.00     0.014 A 
ATOM     29  C   UNL A   1      41.964  20.955  27.763  1.00  0.00     0.014 A 
ATOM     30  C   UNL A   1      42.679  22.742  25.743  1.00  0.00     0.010 A 
ATOM     31  C   UNL A   1      42.323  22.259  28.089  1.00  0.00     0.010 A 
ATOM     32  C   UNL A   1      42.691  23.164  27.083  1.00  0.00    -0.014 A 
BRANCH  32  33
ATOM     33  C   UNL A   1      43.085  24.549  27.442  1.00  0.00     0.031 A 
ATOM     34  C   UNL A   1      44.528  24.965  27.385  1.00  0.00     0.074 A 
ATOM     35  C   UNL A   1      42.148  25.418  27.868  1.00  0.00     0.049 A 
ATOM     36  N   UNL A   1      45.069  26.120  27.684  1.00  0.00    -0.248 NA
ATOM     37  C   UNL A   1      45.499  23.943  26.961  1.00  0.00     0.031 C 
ATOM     38  C   UNL A   1      40.722  25.119  28.020  1.00  0.00     0.029 A 
ATOM     39  N   UNL A   1      42.253  26.731  28.252  1.00  0.00    -0.354 N 
ATOM     40  C   UNL A   1      46.435  25.959  27.494  1.00  0.00     0.074 A 
ATOM     41  C   UNL A   1      46.650  24.581  27.113  1.00  0.00     0.031 C 
ATOM     42  C   UNL A   1      40.083  26.224  28.435  1.00  0.00     0.029 A 
ATOM     43  C   UNL A   1      41.055  27.297  28.615  1.00  0.00     0.049 A 
ATOM     44  H   UNL A   1      43.107  27.220  28.269  1.00  0.00     0.167 HD
ATOM     45  C   UNL A   1      47.420  26.884  27.598  1.00  0.00     0.037 A 
ATOM     46  C   UNL A   1      40.773  28.541  29.045  1.00  0.00     0.037 A 
ATOM     47  C   UNL A   1      47.200  28.260  27.961  1.00  0.00     0.049 A 
ATOM     48  C   UNL A   1      41.885  29.546  29.163  1.00  0.00     0.074 A 
ATOM     49  C   UNL A   1      48.123  29.287  28.041  1.00  0.00     0.029 A 
ATOM     50  N   UNL A   1      45.971  28.797  28.312  1.00  0.00    -0.354 N 
ATOM     51  N   UNL A   1      43.162  29.401  28.903  1.00  0.00    -0.248 NA
ATOM     52  C   UNL A   1      41.514  30.890  29.625  1.00  0.00     0.031 C 
ATOM     53  C   UNL A   1      47.461  30.434  28.490  1.00  0.00     0.029 A 
ATOM     54  C   UNL A   1      46.115  30.138  28.632  1.00  0.00     0.049 A 
ATOM     55  H   UNL A   1      45.121  28.301  28.330  1.00  0.00     0.167 HD
ATOM     56  C   UNL A   1      43.742  30.642  29.141  1.00  0.00     0.074 A 
ATOM     57  C   UNL A   1      42.672  31.530  29.547  1.00  0.00     0.031 C 
ATOM     58  C   UNL A   1      45.041  31.011  29.032  1.00  0.00     0.037 A 
BRANCH  45  59
ATOM     59  C   UNL A   1      48.825  26.434  27.312  1.00  0.00     0.057 A 
ATOM     60  C   UNL A   1      49.367  26.478  26.020  1.00  0.00     0.134 A 
ATOM     61  C   UNL A   1      49.656  25.983  28.345  1.00  0.00     0.134 A 
ATOM     62  F   UNL A   1      48.622  26.887  24.982  1.00  0.00    -0.206 F 
ATOM     63  C   UNL A   1      50.674  26.062  25.762  1.00  0.00     0.040 A 
ATOM     64  C   UNL A   1      50.975  25.595  28.104  1.00  0.00     0.040 A 
ATOM     65  F   UNL A   1      49.204  25.922  29.606  1.00  0.00    -0.206 F 
ATOM     66  C   UNL A   1      51.485  25.626  26.807  1.00  0.00     0.006 A 
ENDBRANCH  45  59
BRANCH  46  67
ATOM     67  C   UNL A   1      39.373  28.916  29.374  1.00  0.00     0.057 A 
ATOM     68  C   UNL A   1      38.850  28.704  30.656  1.00  0.00     0.134 A 
ATOM     69  C   UNL A   1      38.523  29.481  28.417  1.00  0.00     0.134 A 
ATOM     70  F   UNL A   1      39.610  28.150  31.612  1.00  0.00    -0.206 F 
ATOM     71  C   UNL A   1      37.525  29.017  30.967  1.00  0.00     0.040 A 
ATOM     72  C   UNL A   1      37.204  29.825  28.722  1.00  0.00     0.040 A 
ATOM     73  F   UNL A   1      38.964  29.717  27.173  1.00  0.00    -0.206 F 
ATOM     74  C   UNL A   1      36.700  29.584  29.998  1.00  0.00     0.006 A 
ENDBRANCH  46  67
BRANCH  58  75
ATOM     75  C   UNL A   1      45.372  32.448  29.319  1.00  0.00     0.057 A 
ATOM     76  C   UNL A   1      45.775  32.879  30.589  1.00  0.00     0.134 A 
ATOM     77  C   UNL A   1      45.312  33.408  28.300  1.00  0.00     0.134 A 
ATOM     78  F   UNL A   1      45.841  32.013  31.612  1.00  0.00    -0.206 F 
ATOM     79  C   UNL A   1      46.076  34.218  30.843  1.00  0.00     0.040 A 
ATOM     80  C   UNL A   1      45.642  34.743  28.534  1.00  0.00     0.040 A 
ATOM     81  F   UNL A   1      44.945  33.062  27.057  1.00  0.00    -0.206 F 
ATOM     82  C   UNL A   1      46.016  35.153  29.812  1.00  0.00     0.006 A 
ENDBRANCH  58  75
ENDBRANCH  32  33
ENDBRANCH  24  27
ENDBRANCH  22  23
ENDBRANCH  21  22
ENDBRANCH  20  21
ENDBRANCH   1  20
TORSDOF 15
ENDMDL
MODEL 3
REMARK VINA RESULT:     -11.0      1.887      6.608
REMARK SMILES C[C@@H](Sc1ccccc1[N+](=O)[O-])[C@@H](C)C(=O)NCCCCNC(=O)c1ccc(-c2c3nc(c(-c4c(F)cccc4F)c4ccc([nH]4)c(-c4c(F)cccc4F)c4nc(c(-c5c(F)cccc5F)c5ccc2[nH]5)C=C4)C=C3)cc1
REMARK SMILES IDX 18 1 17 2 15 3 16 4 13 6 14 7 2 8 1 9 3 10 4 11 5 12 9 13
REMARK SMILES IDX 6 14 8 15 7 16 10 17 11 18 12 19 19 20 20 21 21 22 22 23
REMARK SMILES IDX 23 24 24 26 25 27 26 28 78 29 27 30 77 31 28 32 29 33 30 34
REMARK SMILES IDX 71 35 31 36 76 37 70 38 72 39 32 40 75 41 69 42 68 43 33 45
REMARK SMILES IDX 59 46 42 47 58 48 43 49 46 50 57 51 73 52 44 53 45 54 56 56
REMARK SMILES IDX 74 57 47 58 34 59 35 60 40 61 36 62 37 63 39 64 41 65 38 66
REMARK SMILES IDX 60 67 61 68 66 69 62 70 63 71 65 72 67 73 64 74 48 75 49 76
REMARK SMILES IDX 54 77 50 78 51 79 53 80 55 81 52 82
REMARK H PARENT 17 5 22 25 72 44 46 55
REMARK Flexibility Score: inf
ROOT
ATOM      1  C   UNL A   1      35.584  20.459  25.011  1.00  0.00     0.116 C 
ENDROOT
BRANCH   1   2
ATOM      2  N   UNL A   1      35.121  21.093  26.228  1.00  0.00    -0.356 N 
ATOM      3  C   UNL A   1      34.681  22.356  26.475  1.00  0.00     0.223 C 
ATOM      4  O   UNL A   1      34.305  22.600  27.624  1.00  0.00    -0.275 OA
ATOM      5  H   UNL A   1      35.125  20.504  27.017  1.00  0.00     0.163 HD
BRANCH   3   6
ATOM      6  C   UNL A   1      34.585  23.423  25.385  1.00  0.00     0.088 C 
ATOM      7  C   UNL A   1      35.880  24.245  25.376  1.00  0.00     0.019 C 
BRANCH   6   8
ATOM      8  C   UNL A   1      33.270  24.247  25.417  1.00  0.00     0.061 C 
ATOM      9  C   UNL A   1      33.535  25.739  25.623  1.00  0.00     0.020 C 
BRANCH   8  10
ATOM     10  S   UNL A   1      32.353  23.963  23.825  1.00  0.00    -0.115 SA
BRANCH  10  11
ATOM     11  C   UNL A   1      31.445  25.472  23.464  1.00  0.00     0.085 A 
ATOM     12  C   UNL A   1      30.277  25.797  24.177  1.00  0.00     0.022 A 
ATOM     13  C   UNL A   1      31.796  26.334  22.401  1.00  0.00     0.282 A 
ATOM     14  C   UNL A   1      29.514  26.932  23.869  1.00  0.00     0.002 A 
ATOM     15  C   UNL A   1      31.024  27.470  22.084  1.00  0.00     0.087 A 
ATOM     16  C   UNL A   1      29.885  27.767  22.823  1.00  0.00     0.007 A 
BRANCH  13  17
ATOM     17  N   UNL A   1      32.967  26.103  21.556  1.00  0.00     0.063 N 
ATOM     18  O   UNL A   1      34.060  26.483  22.002  1.00  0.00    -0.258 OA
ATOM     19  O   UNL A   1      32.818  25.473  20.501  1.00  0.00    -0.258 OA
ENDBRANCH  13  17
ENDBRANCH  10  11
ENDBRANCH   8  10
ENDBRANCH   6   8
ENDBRANCH   3   6
ENDBRANCH   1   2
BRANCH   1  20
ATOM     20  C   UNL A   1      37.043  20.798  24.714  1.00  0.00     0.023 C 
BRANCH  20  21
ATOM     21  C   UNL A   1      38.030  19.665  25.000  1.00  0.00     0.023 C 
BRANCH  21  22
ATOM     22  C   UNL A   1      39.274  20.074  25.779  1.00  0.00     0.116 C 
BRANCH  22  23
ATOM     23  N   UNL A   1      40.253  19.004  25.891  1.00  0.00    -0.352 N 
ATOM     24  C   UNL A   1      41.603  19.090  26.123  1.00  0.00     0.251 C 
ATOM     25  H   UNL A   1      39.899  18.092  25.785  1.00  0.00     0.163 HD
ATOM     26  O   UNL A   1      42.306  18.085  26.052  1.00  0.00    -0.269 OA
BRANCH  24  27
ATOM     27  C   UNL A   1      42.212  20.401  26.425  1.00  0.00     0.039 A 
ATOM     28  C   UNL A   1      42.740  21.156  25.375  1.00  0.00     0.014 A 
ATOM     29  C   UNL A   1      42.242  20.894  27.732  1.00  0.00     0.014 A 
ATOM     30  C   UNL A   1      43.242  22.432  25.629  1.00  0.00     0.010 A 
ATOM     31  C   UNL A   1      42.664  22.199  27.969  1.00  0.00     0.010 A 
ATOM     32  C   UNL A   1      43.175  22.979  26.922  1.00  0.00    -0.014 A 
BRANCH  32  33
ATOM     33  C   UNL A   1      43.636  24.364  27.189  1.00  0.00     0.031 A 
ATOM     34  C   UNL A   1      42.654  25.421  27.612  1.00  0.00     0.074 A 
ATOM     35  C   UNL A   1      44.932  24.682  27.003  1.00  0.00     0.049 A 
ATOM     36  N   UNL A   1      42.862  26.689  27.866  1.00  0.00    -0.248 NA
ATOM     37  C   UNL A   1      41.248  25.008  27.742  1.00  0.00     0.031 C 
ATOM     38  C   UNL A   1      45.972  23.759  26.541  1.00  0.00     0.029 A 
ATOM     39  N   UNL A   1      45.596  25.869  27.177  1.00  0.00    -0.354 N 
ATOM     40  C   UNL A   1      41.617  27.222  28.175  1.00  0.00     0.074 A 
ATOM     41  C   UNL A   1      40.651  26.158  28.018  1.00  0.00     0.031 C 
ATOM     42  C   UNL A   1      47.147  24.407  26.500  1.00  0.00     0.029 A 
ATOM     43  C   UNL A   1      46.939  25.797  26.893  1.00  0.00     0.049 A 
ATOM     44  H   UNL A   1      45.153  26.695  27.476  1.00  0.00     0.167 HD
ATOM     45  C   UNL A   1      41.311  28.477  28.582  1.00  0.00     0.037 A 
ATOM     46  C   UNL A   1      47.893  26.744  26.943  1.00  0.00     0.037 A 
ATOM     47  C   UNL A   1      42.278  29.529  28.753  1.00  0.00     0.049 A 
ATOM     48  C   UNL A   1      47.525  28.133  27.387  1.00  0.00     0.074 A 
ATOM     49  C   UNL A   1      42.076  30.818  29.214  1.00  0.00     0.029 A 
ATOM     50  N   UNL A   1      43.629  29.414  28.465  1.00  0.00    -0.354 N 
ATOM     51  N   UNL A   1      46.357  28.603  27.753  1.00  0.00    -0.248 NA
ATOM     52  C   UNL A   1      48.612  29.121  27.435  1.00  0.00     0.031 C 
ATOM     53  C   UNL A   1      43.296  31.499  29.153  1.00  0.00     0.029 A 
ATOM     54  C   UNL A   1      44.270  30.617  28.714  1.00  0.00     0.049 A 
ATOM     55  H   UNL A   1      44.070  28.599  28.132  1.00  0.00     0.167 HD
ATOM     56  C   UNL A   1      46.572  29.930  28.102  1.00  0.00     0.074 A 
ATOM     57  C   UNL A   1      47.987  30.183  27.922  1.00  0.00     0.031 C 
ATOM     58  C   UNL A   1      45.680  30.855  28.533  1.00  0.00     0.037 A 
BRANCH  45  59
ATOM     59  C   UNL A   1      39.867  28.777  28.872  1.00  0.00     0.057 A 
ATOM     60  C   UNL A   1      39.333  28.668  30.164  1.00  0.00     0.134 A 
ATOM     61  C   UNL A   1      39.008  29.212  27.855  1.00  0.00     0.134 A 
ATOM     62  F   UNL A   1      40.097  28.246  31.182  1.00  0.00    -0.206 F 
ATOM     63  C   UNL A   1      37.992  28.952  30.426  1.00  0.00     0.040 A 
ATOM     64  C   UNL A   1      37.673  29.529  28.111  1.00  0.00     0.040 A 
ATOM     65  F   UNL A   1      39.454  29.345  26.596  1.00  0.00    -0.206 F 
ATOM     66  C   UNL A   1      37.160  29.391  29.399  1.00  0.00     0.006 A 
ENDBRANCH  45  59
BRANCH  46  67
ATOM     67  C   UNL A   1      49.297  26.408  26.586  1.00  0.00     0.057 A 
ATOM     68  C   UNL A   1      50.173  25.868  27.534  1.00  0.00     0.134 A 
ATOM     69  C   UNL A   1      49.797  26.629  25.298  1.00  0.00     0.134 A 
ATOM     70  F   UNL A   1      49.759  25.649  28.790  1.00  0.00    -0.206 F 
ATOM     71  C   UNL A   1      51.505  25.584  27.222  1.00  0.00     0.040 A 
ATOM     72  C   UNL A   1      51.117  26.323  24.963  1.00  0.00     0.040 A 
ATOM     73  F   UNL A   1      49.006  27.136  24.341  1.00  0.00    -0.206 F 
ATOM     74  C   UNL A   1      51.978  25.808  25.931  1.00  0.00     0.006 A 
ENDBRANCH  46  67
BRANCH  58  75
ATOM     75  C   UNL A   1      46.215  32.216  28.878  1.00  0.00     0.057 A 
ATOM     76  C   UNL A   1      46.269  33.253  27.938  1.00  0.00     0.134 A 
ATOM     77  C   UNL A   1      46.655  32.498  30.177  1.00  0.00     0.134 A 
ATOM     78  F   UNL A   1      45.875  33.045  26.672  1.00  0.00    -0.206 F 
ATOM     79  C   UNL A   1      46.772  34.511  28.270  1.00  0.00     0.040 A 
ATOM     80  C   UNL A   1      47.129  33.762  30.529  1.00  0.00     0.040 A 
ATOM     81  F   UNL A   1      46.620  31.554  31.130  1.00  0.00    -0.206 F 
ATOM     82  C   UNL A   1      47.197  34.771  29.571  1.00  0.00     0.006 A 
ENDBRANCH  58  75
ENDBRANCH  32  33
ENDBRANCH  24  27
ENDBRANCH  22  23
ENDBRANCH  21  22
ENDBRANCH  20  21
ENDBRANCH   1  20
TORSDOF 15
ENDMDL
