MODEL 1
REMARK VINA RESULT:     -13.3      0.000      0.000
REMARK SMILES CCN(c1cccc(C)c1)c1nc(OCC(=O)NCCCCNC(=O)c2ccc(-c3c4nc(c(-c5c(F)cccc5F)c5ccc([nH]5)c(-c5c(F)cccc5F)c5nc(c(-c6c(F)cccc6F)c6ccc3[nH]6)C=C5)C=C4)cc2)cc(-c2ccc(C)cc2)n1
REMARK SMILES IDX 19 1 18 2 16 3 17 4 15 6 14 7 13 8 11 9 12 10 89 11 81 12
REMARK SMILES IDX 80 13 3 14 2 15 1 16 4 17 5 18 10 19 6 20 8 21 7 22 9 23
REMARK SMILES IDX 82 24 83 25 88 26 84 27 87 28 85 29 86 30 20 31 21 32 22 33
REMARK SMILES IDX 23 34 24 35 25 37 26 38 27 39 79 40 28 41 78 42 29 43 30 44
REMARK SMILES IDX 31 45 72 46 32 47 77 48 71 49 73 50 33 51 76 52 70 53 69 54
REMARK SMILES IDX 34 56 60 57 43 58 59 59 44 60 47 61 58 62 74 63 45 64 46 65
REMARK SMILES IDX 57 67 75 68 48 69 35 70 36 71 41 72 37 73 38 74 40 75 42 76
REMARK SMILES IDX 39 77 61 78 62 79 67 80 63 81 64 82 66 83 68 84 65 85 49 86
REMARK SMILES IDX 50 87 55 88 51 89 52 90 54 91 56 92 53 93
REMARK H PARENT 18 5 23 36 73 55 47 66
REMARK Flexibility Score: inf
ROOT
ATOM      1  C   UNL A   1      40.939  19.763  26.410  1.00  0.00     0.116 C 
ENDROOT
BRANCH   1   2
ATOM      2  N   UNL A   1      40.648  21.112  26.864  1.00  0.00    -0.353 N 
ATOM      3  C   UNL A   1      39.583  21.904  26.549  1.00  0.00     0.258 C 
ATOM      4  O   UNL A   1      39.513  23.027  27.055  1.00  0.00    -0.271 OA
ATOM      5  H   UNL A   1      41.306  21.506  27.480  1.00  0.00     0.163 HD
BRANCH   3   6
ATOM      6  C   UNL A   1      38.495  21.392  25.595  1.00  0.00     0.331 C 
BRANCH   6   7
ATOM      7  O   UNL A   1      37.516  22.319  25.164  1.00  0.00    -0.467 OA
BRANCH   7   8
ATOM      8  C   UNL A   1      36.273  21.841  24.863  1.00  0.00     0.219 A 
ATOM      9  C   UNL A   1      34.160  22.484  24.185  1.00  0.00     0.233 A 
ATOM     10  N   UNL A   1      35.444  22.799  24.429  1.00  0.00    -0.177 NA
ATOM     11  N   UNL A   1      33.683  21.243  24.365  1.00  0.00    -0.212 NA
ATOM     12  C   UNL A   1      34.550  20.283  24.733  1.00  0.00     0.080 A 
ATOM     13  C   UNL A   1      35.877  20.538  24.991  1.00  0.00     0.097 A 
BRANCH   9  14
ATOM     14  N   UNL A   1      33.308  23.494  23.711  1.00  0.00    -0.311 N 
BRANCH  14  15
ATOM     15  C   UNL A   1      33.549  23.955  22.339  1.00  0.00     0.122 C 
ATOM     16  C   UNL A   1      33.079  22.969  21.276  1.00  0.00     0.028 C 
ENDBRANCH  14  15
BRANCH  14  17
ATOM     17  C   UNL A   1      32.284  24.093  24.468  1.00  0.00     0.044 A 
ATOM     18  C   UNL A   1      31.726  23.485  25.600  1.00  0.00     0.026 A 
ATOM     19  C   UNL A   1      31.788  25.358  24.103  1.00  0.00     0.029 A 
ATOM     20  C   UNL A   1      30.705  24.106  26.328  1.00  0.00     0.002 A 
ATOM     21  C   UNL A   1      30.753  25.988  24.815  1.00  0.00    -0.049 A 
ATOM     22  C   UNL A   1      30.215  25.348  25.933  1.00  0.00     0.003 A 
ATOM     23  C   UNL A   1      30.237  27.318  24.356  1.00  0.00     0.044 C 
ENDBRANCH  14  17
ENDBRANCH   9  14
BRANCH  12  24
ATOM     24  C   UNL A   1      34.028  18.916  24.808  1.00  0.00     0.000 A 
ATOM     25  C   UNL A   1      32.836  18.635  25.493  1.00  0.00     0.010 A 
ATOM     26  C   UNL A   1      34.756  17.846  24.269  1.00  0.00     0.010 A 
ATOM     27  C   UNL A   1      32.401  17.318  25.663  1.00  0.00     0.004 A 
ATOM     28  C   UNL A   1      34.328  16.528  24.449  1.00  0.00     0.004 A 
ATOM     29  C   UNL A   1      33.152  16.254  25.154  1.00  0.00    -0.051 A 
ATOM     30  C   UNL A   1      32.729  14.833  25.386  1.00  0.00     0.044 C 
ENDBRANCH  12  24
ENDBRANCH   7   8
ENDBRANCH   6   7
ENDBRANCH   3   6
ENDBRANCH   1   2
BRANCH   1  31
ATOM     31  C   UNL A   1      42.077  19.094  27.191  1.00  0.00     0.023 C 
BRANCH  31  32
ATOM     32  C   UNL A   1      43.134  18.373  26.352  1.00  0.00     0.023 C 
BRANCH  32  33
ATOM     33  C   UNL A   1      43.565  19.120  25.100  1.00  0.00     0.116 C 
BRANCH  33  34
ATOM     34  N   UNL A   1      44.909  19.668  25.136  1.00  0.00    -0.352 N 
ATOM     35  C   UNL A   1      45.345  20.984  25.188  1.00  0.00     0.251 C 
ATOM     36  H   UNL A   1      45.628  18.996  25.120  1.00  0.00     0.163 HD
ATOM     37  O   UNL A   1      46.537  21.216  25.066  1.00  0.00    -0.269 OA
BRANCH  35  38
ATOM     38  C   UNL A   1      44.417  22.099  25.550  1.00  0.00     0.039 A 
ATOM     39  C   UNL A   1      44.316  23.184  24.662  1.00  0.00     0.014 A 
ATOM     40  C   UNL A   1      43.835  22.202  26.805  1.00  0.00     0.014 A 
ATOM     41  C   UNL A   1      43.893  24.429  25.126  1.00  0.00     0.010 A 
ATOM     42  C   UNL A   1      43.551  23.450  27.308  1.00  0.00     0.010 A 
ATOM     43  C   UNL A   1      43.638  24.572  26.484  1.00  0.00    -0.014 A 
BRANCH  43  44
ATOM     44  C   UNL A   1      43.541  25.836  27.192  1.00  0.00     0.031 A 
ATOM     45  C   UNL A   1      42.238  26.521  27.302  1.00  0.00     0.074 A 
ATOM     46  C   UNL A   1      44.585  26.202  27.969  1.00  0.00     0.049 A 
ATOM     47  N   UNL A   1      42.095  27.723  27.737  1.00  0.00    -0.248 NA
ATOM     48  C   UNL A   1      40.974  25.899  26.915  1.00  0.00     0.031 C 
ATOM     49  C   UNL A   1      44.576  27.126  29.099  1.00  0.00     0.029 A 
ATOM     50  N   UNL A   1      45.943  25.919  27.766  1.00  0.00    -0.354 N 
ATOM     51  C   UNL A   1      40.753  27.939  27.946  1.00  0.00     0.074 A 
ATOM     52  C   UNL A   1      40.090  26.789  27.377  1.00  0.00     0.031 C 
ATOM     53  C   UNL A   1      45.828  27.559  29.317  1.00  0.00     0.029 A 
ATOM     54  C   UNL A   1      46.645  27.054  28.229  1.00  0.00     0.049 A 
ATOM     55  H   UNL A   1      46.328  25.100  27.381  1.00  0.00     0.167 HD
ATOM     56  C   UNL A   1      40.366  29.012  28.690  1.00  0.00     0.037 A 
ATOM     57  C   UNL A   1      47.357  27.841  27.370  1.00  0.00     0.037 A 
ATOM     58  C   UNL A   1      41.521  29.802  29.101  1.00  0.00     0.049 A 
ATOM     59  C   UNL A   1      46.874  29.273  27.318  1.00  0.00     0.074 A 
ATOM     60  C   UNL A   1      42.283  29.814  30.258  1.00  0.00     0.029 A 
ATOM     61  N   UNL A   1      42.249  30.485  28.138  1.00  0.00    -0.354 N 
ATOM     62  N   UNL A   1      45.676  29.648  27.674  1.00  0.00    -0.248 NA
ATOM     63  C   UNL A   1      47.698  30.394  26.878  1.00  0.00     0.031 C 
ATOM     64  C   UNL A   1      43.501  30.478  29.972  1.00  0.00     0.029 A 
ATOM     65  C   UNL A   1      43.466  30.887  28.650  1.00  0.00     0.049 A 
ATOM     66  H   UNL A   1      41.941  30.660  27.220  1.00  0.00     0.167 HD
ATOM     67  C   UNL A   1      45.555  31.008  27.530  1.00  0.00     0.074 A 
ATOM     68  C   UNL A   1      46.851  31.429  27.036  1.00  0.00     0.031 C 
ATOM     69  C   UNL A   1      44.391  31.659  27.836  1.00  0.00     0.037 A 
BRANCH  56  70
ATOM     70  C   UNL A   1      38.980  29.205  29.245  1.00  0.00     0.057 A 
ATOM     71  C   UNL A   1      37.928  29.656  28.423  1.00  0.00     0.134 A 
ATOM     72  C   UNL A   1      38.621  28.979  30.584  1.00  0.00     0.134 A 
ATOM     73  F   UNL A   1      38.095  29.855  27.109  1.00  0.00    -0.206 F 
ATOM     74  C   UNL A   1      36.646  29.937  28.910  1.00  0.00     0.040 A 
ATOM     75  C   UNL A   1      37.355  29.303  31.095  1.00  0.00     0.040 A 
ATOM     76  F   UNL A   1      39.465  28.392  31.444  1.00  0.00    -0.206 F 
ATOM     77  C   UNL A   1      36.364  29.790  30.258  1.00  0.00     0.006 A 
ENDBRANCH  56  70
BRANCH  57  78
ATOM     78  C   UNL A   1      47.930  27.069  26.235  1.00  0.00     0.057 A 
ATOM     79  C   UNL A   1      47.288  27.164  24.986  1.00  0.00     0.134 A 
ATOM     80  C   UNL A   1      49.267  26.657  26.234  1.00  0.00     0.134 A 
ATOM     81  F   UNL A   1      46.005  27.553  24.919  1.00  0.00    -0.206 F 
ATOM     82  C   UNL A   1      47.983  27.000  23.785  1.00  0.00     0.040 A 
ATOM     83  C   UNL A   1      49.967  26.473  25.034  1.00  0.00     0.040 A 
ATOM     84  F   UNL A   1      49.953  26.560  27.382  1.00  0.00    -0.206 F 
ATOM     85  C   UNL A   1      49.339  26.692  23.809  1.00  0.00     0.006 A 
ENDBRANCH  57  78
BRANCH  69  86
ATOM     86  C   UNL A   1      44.009  33.084  27.490  1.00  0.00     0.057 A 
ATOM     87  C   UNL A   1      43.944  33.600  26.189  1.00  0.00     0.134 A 
ATOM     88  C   UNL A   1      43.516  33.956  28.495  1.00  0.00     0.134 A 
ATOM     89  F   UNL A   1      44.279  32.865  25.121  1.00  0.00    -0.206 F 
ATOM     90  C   UNL A   1      43.466  34.890  25.912  1.00  0.00     0.040 A 
ATOM     91  C   UNL A   1      42.982  35.218  28.223  1.00  0.00     0.040 A 
ATOM     92  F   UNL A   1      43.502  33.613  29.792  1.00  0.00    -0.206 F 
ATOM     93  C   UNL A   1      42.966  35.696  26.926  1.00  0.00     0.006 A 
ENDBRANCH  69  86
ENDBRANCH  43  44
ENDBRANCH  35  38
ENDBRANCH  33  34
ENDBRANCH  32  33
ENDBRANCH  31  32
ENDBRANCH   1  31
TORSDOF 17
ENDMDL
MODEL 2
REMARK VINA RESULT:     -13.2      1.117      3.890
REMARK SMILES CCN(c1cccc(C)c1)c1nc(OCC(=O)NCCCCNC(=O)c2ccc(-c3c4nc(c(-c5c(F)cccc5F)c5ccc([nH]5)c(-c5c(F)cccc5F)c5nc(c(-c6c(F)cccc6F)c6ccc3[nH]6)C=C5)C=C4)cc2)cc(-c2ccc(C)cc2)n1
REMARK SMILES IDX 19 1 18 2 16 3 17 4 15 6 14 7 13 8 11 9 12 10 89 11 81 12
REMARK SMILES IDX 80 13 3 14 2 15 1 16 4 17 5 18 10 19 6 20 8 21 7 22 9 23
REMARK SMILES IDX 82 24 83 25 88 26 84 27 87 28 85 29 86 30 20 31 21 32 22 33
REMARK SMILES IDX 23 34 24 35 25 37 26 38 27 39 79 40 28 41 78 42 29 43 30 44
REMARK SMILES IDX 31 45 72 46 32 47 77 48 71 49 73 50 33 51 76 52 70 53 69 54
REMARK SMILES IDX 34 56 60 57 43 58 59 59 44 60 47 61 58 62 74 63 45 64 46 65
REMARK SMILES IDX 57 67 75 68 48 69 35 70 36 71 41 72 37 73 38 74 40 75 42 76
REMARK SMILES IDX 39 77 61 78 62 79 67 80 63 81 64 82 66 83 68 84 65 85 49 86
REMARK SMILES IDX 50 87 55 88 51 89 52 90 54 91 56 92 53 93
REMARK H PARENT 18 5 23 36 73 55 47 66
REMARK Flexibility Score: inf
ROOT
ATOM      1  C   UNL A   1      40.865  19.798  26.147  1.00  0.00     0.116 C 
ENDROOT
BRANCH   1   2
ATOM      2  N   UNL A   1      40.488  21.139  26.556  1.00  0.00    -0.353 N 
ATOM      3  C   UNL A   1      39.352  21.833  26.257  1.00  0.00     0.258 C 
ATOM      4  O   UNL A   1      39.216  22.968  26.718  1.00  0.00    -0.271 OA
ATOM      5  H   UNL A   1      41.138  21.610  27.125  1.00  0.00     0.163 HD
BRANCH   3   6
ATOM      6  C   UNL A   1      38.269  21.197  25.375  1.00  0.00     0.331 C 
BRANCH   6   7
ATOM      7  O   UNL A   1      37.781  21.960  24.287  1.00  0.00    -0.467 OA
BRANCH   7   8
ATOM      8  C   UNL A   1      36.467  22.331  24.306  1.00  0.00     0.219 A 
ATOM      9  C   UNL A   1      34.325  21.526  24.623  1.00  0.00     0.233 A 
ATOM     10  N   UNL A   1      35.654  21.325  24.655  1.00  0.00    -0.177 NA
ATOM     11  N   UNL A   1      33.789  22.698  24.251  1.00  0.00    -0.212 NA
ATOM     12  C   UNL A   1      34.626  23.713  23.973  1.00  0.00     0.080 A 
ATOM     13  C   UNL A   1      35.995  23.576  23.994  1.00  0.00     0.097 A 
BRANCH   9  14
ATOM     14  N   UNL A   1      33.486  20.470  25.012  1.00  0.00    -0.311 N 
BRANCH  14  15
ATOM     15  C   UNL A   1      32.571  20.743  26.125  1.00  0.00     0.122 C 
ATOM     16  C   UNL A   1      33.286  21.107  27.422  1.00  0.00     0.028 C 
ENDBRANCH  14  15
BRANCH  14  17
ATOM     17  C   UNL A   1      33.496  19.189  24.428  1.00  0.00     0.044 A 
ATOM     18  C   UNL A   1      32.729  18.865  23.301  1.00  0.00     0.026 A 
ATOM     19  C   UNL A   1      34.306  18.174  24.971  1.00  0.00     0.029 A 
ATOM     20  C   UNL A   1      32.758  17.580  22.748  1.00  0.00     0.002 A 
ATOM     21  C   UNL A   1      34.334  16.876  24.437  1.00  0.00    -0.049 A 
ATOM     22  C   UNL A   1      33.551  16.587  23.318  1.00  0.00     0.003 A 
ATOM     23  C   UNL A   1      35.187  15.825  25.082  1.00  0.00     0.044 C 
ENDBRANCH  14  17
ENDBRANCH   9  14
BRANCH  12  24
ATOM     24  C   UNL A   1      34.014  25.012  23.684  1.00  0.00     0.000 A 
ATOM     25  C   UNL A   1      33.496  25.300  22.412  1.00  0.00     0.010 A 
ATOM     26  C   UNL A   1      34.012  26.029  24.651  1.00  0.00     0.010 A 
ATOM     27  C   UNL A   1      33.019  26.576  22.104  1.00  0.00     0.004 A 
ATOM     28  C   UNL A   1      33.545  27.309  24.340  1.00  0.00     0.004 A 
ATOM     29  C   UNL A   1      33.054  27.594  23.063  1.00  0.00    -0.051 A 
ATOM     30  C   UNL A   1      32.605  28.985  22.725  1.00  0.00     0.044 C 
ENDBRANCH  12  24
ENDBRANCH   7   8
ENDBRANCH   6   7
ENDBRANCH   3   6
ENDBRANCH   1   2
BRANCH   1  31
ATOM     31  C   UNL A   1      41.862  19.131  27.102  1.00  0.00     0.023 C 
BRANCH  31  32
ATOM     32  C   UNL A   1      43.031  18.393  26.445  1.00  0.00     0.023 C 
BRANCH  32  33
ATOM     33  C   UNL A   1      43.516  19.010  25.143  1.00  0.00     0.116 C 
BRANCH  33  34
ATOM     34  N   UNL A   1      44.876  19.518  25.166  1.00  0.00    -0.352 N 
ATOM     35  C   UNL A   1      45.352  20.821  25.153  1.00  0.00     0.251 C 
ATOM     36  H   UNL A   1      45.574  18.825  25.196  1.00  0.00     0.163 HD
ATOM     37  O   UNL A   1      46.552  21.010  25.033  1.00  0.00    -0.269 OA
BRANCH  35  38
ATOM     38  C   UNL A   1      44.454  21.981  25.441  1.00  0.00     0.039 A 
ATOM     39  C   UNL A   1      44.492  23.075  24.559  1.00  0.00     0.014 A 
ATOM     40  C   UNL A   1      43.768  22.109  26.640  1.00  0.00     0.014 A 
ATOM     41  C   UNL A   1      44.094  24.339  24.997  1.00  0.00     0.010 A 
ATOM     42  C   UNL A   1      43.505  23.366  27.128  1.00  0.00     0.010 A 
ATOM     43  C   UNL A   1      43.725  24.487  26.327  1.00  0.00    -0.014 A 
BRANCH  43  44
ATOM     44  C   UNL A   1      43.631  25.751  27.037  1.00  0.00     0.031 A 
ATOM     45  C   UNL A   1      42.329  26.436  27.152  1.00  0.00     0.074 A 
ATOM     46  C   UNL A   1      44.678  26.115  27.811  1.00  0.00     0.049 A 
ATOM     47  N   UNL A   1      42.188  27.638  27.588  1.00  0.00    -0.248 NA
ATOM     48  C   UNL A   1      41.063  25.815  26.768  1.00  0.00     0.031 C 
ATOM     49  C   UNL A   1      44.673  27.038  28.942  1.00  0.00     0.029 A 
ATOM     50  N   UNL A   1      46.035  25.832  27.604  1.00  0.00    -0.354 N 
ATOM     51  C   UNL A   1      40.847  27.854  27.802  1.00  0.00     0.074 A 
ATOM     52  C   UNL A   1      40.182  26.705  27.233  1.00  0.00     0.031 C 
ATOM     53  C   UNL A   1      45.926  27.470  29.157  1.00  0.00     0.029 A 
ATOM     54  C   UNL A   1      46.739  26.966  28.067  1.00  0.00     0.049 A 
ATOM     55  H   UNL A   1      46.419  25.013  27.217  1.00  0.00     0.167 HD
ATOM     56  C   UNL A   1      40.463  28.927  28.548  1.00  0.00     0.037 A 
ATOM     57  C   UNL A   1      47.449  27.753  27.206  1.00  0.00     0.037 A 
ATOM     58  C   UNL A   1      41.619  29.715  28.957  1.00  0.00     0.049 A 
ATOM     59  C   UNL A   1      46.967  29.185  27.157  1.00  0.00     0.074 A 
ATOM     60  C   UNL A   1      42.385  29.726  30.111  1.00  0.00     0.029 A 
ATOM     61  N   UNL A   1      42.345  30.400  27.992  1.00  0.00    -0.354 N 
ATOM     62  N   UNL A   1      45.770  29.561  27.517  1.00  0.00    -0.248 NA
ATOM     63  C   UNL A   1      47.790  30.306  26.716  1.00  0.00     0.031 C 
ATOM     64  C   UNL A   1      43.603  30.389  29.822  1.00  0.00     0.029 A 
ATOM     65  C   UNL A   1      43.563  30.800  28.501  1.00  0.00     0.049 A 
ATOM     66  H   UNL A   1      42.035  30.575  27.075  1.00  0.00     0.167 HD
ATOM     67  C   UNL A   1      45.649  30.921  27.375  1.00  0.00     0.074 A 
ATOM     68  C   UNL A   1      46.944  31.342  26.877  1.00  0.00     0.031 C 
ATOM     69  C   UNL A   1      44.487  31.572  27.685  1.00  0.00     0.037 A 
BRANCH  56  70
ATOM     70  C   UNL A   1      39.079  29.120  29.108  1.00  0.00     0.057 A 
ATOM     71  C   UNL A   1      38.020  29.553  28.284  1.00  0.00     0.134 A 
ATOM     72  C   UNL A   1      38.728  28.911  30.451  1.00  0.00     0.134 A 
ATOM     73  F   UNL A   1      38.179  29.733  26.967  1.00  0.00    -0.206 F 
ATOM     74  C   UNL A   1      36.739  29.834  28.774  1.00  0.00     0.040 A 
ATOM     75  C   UNL A   1      37.463  29.236  30.965  1.00  0.00     0.040 A 
ATOM     76  F   UNL A   1      39.579  28.342  31.315  1.00  0.00    -0.206 F 
ATOM     77  C   UNL A   1      36.464  29.705  30.125  1.00  0.00     0.006 A 
ENDBRANCH  56  70
BRANCH  57  78
ATOM     78  C   UNL A   1      48.018  26.982  26.069  1.00  0.00     0.057 A 
ATOM     79  C   UNL A   1      47.392  27.104  24.814  1.00  0.00     0.134 A 
ATOM     80  C   UNL A   1      49.346  26.543  26.076  1.00  0.00     0.134 A 
ATOM     81  F   UNL A   1      46.117  27.519  24.738  1.00  0.00    -0.206 F 
ATOM     82  C   UNL A   1      48.095  26.938  23.618  1.00  0.00     0.040 A 
ATOM     83  C   UNL A   1      50.055  26.358  24.882  1.00  0.00     0.040 A 
ATOM     84  F   UNL A   1      50.018  26.420  27.231  1.00  0.00    -0.206 F 
ATOM     85  C   UNL A   1      49.445  26.603  23.653  1.00  0.00     0.006 A 
ENDBRANCH  57  78
BRANCH  69  86
ATOM     86  C   UNL A   1      44.104  32.998  27.342  1.00  0.00     0.057 A 
ATOM     87  C   UNL A   1      43.876  33.473  26.044  1.00  0.00     0.134 A 
ATOM     88  C   UNL A   1      43.782  33.919  28.371  1.00  0.00     0.134 A 
ATOM     89  F   UNL A   1      44.037  32.693  24.968  1.00  0.00    -0.206 F 
ATOM     90  C   UNL A   1      43.405  34.769  25.787  1.00  0.00     0.040 A 
ATOM     91  C   UNL A   1      43.254  35.190  28.129  1.00  0.00     0.040 A 
ATOM     92  F   UNL A   1      43.936  33.620  29.670  1.00  0.00    -0.206 F 
ATOM     93  C   UNL A   1      43.074  35.625  26.829  1.00  0.00     0.006 A 
ENDBRANCH  69  86
ENDBRANCH  43  44
ENDBRANCH  35  38
ENDBRANCH  33  34
ENDBRANCH  32  33
ENDBRANCH  31  32
ENDBRANCH   1  31
TORSDOF 17
ENDMDL
MODEL 3
REMARK VINA RESULT:     -13.0      2.897      6.021
REMARK SMILES CCN(c1cccc(C)c1)c1nc(OCC(=O)NCCCCNC(=O)c2ccc(-c3c4nc(c(-c5c(F)cccc5F)c5ccc([nH]5)c(-c5c(F)cccc5F)c5nc(c(-c6c(F)cccc6F)c6ccc3[nH]6)C=C5)C=C4)cc2)cc(-c2ccc(C)cc2)n1
REMARK SMILES IDX 19 1 18 2 16 3 17 4 15 6 14 7 13 8 11 9 12 10 89 11 81 12
REMARK SMILES IDX 80 13 3 14 2 15 1 16 4 17 5 18 10 19 6 20 8 21 7 22 9 23
REMARK SMILES IDX 82 24 83 25 88 26 84 27 87 28 85 29 86 30 20 31 21 32 22 33
REMARK SMILES IDX 23 34 24 35 25 37 26 38 27 39 79 40 28 41 78 42 29 43 30 44
REMARK SMILES IDX 31 45 72 46 32 47 77 48 71 49 73 50 33 51 76 52 70 53 69 54
REMARK SMILES IDX 34 56 60 57 43 58 59 59 44 60 47 61 58 62 74 63 45 64 46 65
REMARK SMILES IDX 57 67 75 68 48 69 35 70 36 71 41 72 37 73 38 74 40 75 42 76
REMARK SMILES IDX 39 77 61 78 62 79 67 80 63 81 64 82 66 83 68 84 65 85 49 86
REMARK SMILES IDX 50 87 55 88 51 89 52 90 54 91 56 92 53 93
REMARK H PARENT 18 5 23 36 73 55 47 66
REMARK Flexibility Score: inf
ROOT
ATOM      1  C   UNL A   1      35.064  22.573  25.533  1.00  0.00     0.116 C 
ENDROOT
BRANCH   1   2
ATOM      2  N   UNL A   1      34.439  22.393  26.831  1.00  0.00    -0.353 N 
ATOM      3  C   UNL A   1      33.180  22.741  27.226  1.00  0.00     0.258 C 
ATOM      4  O   UNL A   1      32.834  22.487  28.382  1.00  0.00    -0.271 OA
ATOM      5  H   UNL A   1      34.997  21.962  27.518  1.00  0.00     0.163 HD
BRANCH   3   6
ATOM      6  C   UNL A   1      32.222  23.420  26.239  1.00  0.00     0.331 C 
BRANCH   6   7
ATOM      7  O   UNL A   1      31.418  24.477  26.731  1.00  0.00    -0.467 OA
BRANCH   7   8
ATOM      8  C   UNL A   1      31.651  25.733  26.250  1.00  0.00     0.219 A 
ATOM      9  C   UNL A   1      31.317  27.102  24.419  1.00  0.00     0.233 A 
ATOM     10  N   UNL A   1      31.088  25.938  25.052  1.00  0.00    -0.177 NA
ATOM     11  N   UNL A   1      32.093  28.061  24.947  1.00  0.00    -0.212 NA
ATOM     12  C   UNL A   1      32.590  27.861  26.180  1.00  0.00     0.080 A 
ATOM     13  C   UNL A   1      32.387  26.696  26.885  1.00  0.00     0.097 A 
BRANCH   9  14
ATOM     14  N   UNL A   1      30.702  27.312  23.175  1.00  0.00    -0.311 N 
BRANCH  14  15
ATOM     15  C   UNL A   1      31.301  26.618  22.030  1.00  0.00     0.122 C 
ATOM     16  C   UNL A   1      32.823  26.697  22.002  1.00  0.00     0.028 C 
ENDBRANCH  14  15
BRANCH  14  17
ATOM     17  C   UNL A   1      29.592  28.151  22.967  1.00  0.00     0.044 A 
ATOM     18  C   UNL A   1      28.291  27.795  23.351  1.00  0.00     0.026 A 
ATOM     19  C   UNL A   1      29.764  29.409  22.360  1.00  0.00     0.029 A 
ATOM     20  C   UNL A   1      27.208  28.651  23.125  1.00  0.00     0.002 A 
ATOM     21  C   UNL A   1      28.684  30.273  22.113  1.00  0.00    -0.049 A 
ATOM     22  C   UNL A   1      27.402  29.881  22.502  1.00  0.00     0.003 A 
ATOM     23  C   UNL A   1      28.923  31.584  21.427  1.00  0.00     0.044 C 
ENDBRANCH  14  17
ENDBRANCH   9  14
BRANCH  12  24
ATOM     24  C   UNL A   1      33.335  28.970  26.780  1.00  0.00     0.000 A 
ATOM     25  C   UNL A   1      32.691  30.167  27.130  1.00  0.00     0.010 A 
ATOM     26  C   UNL A   1      34.726  28.891  26.937  1.00  0.00     0.010 A 
ATOM     27  C   UNL A   1      33.421  31.265  27.593  1.00  0.00     0.004 A 
ATOM     28  C   UNL A   1      35.459  29.992  27.389  1.00  0.00     0.004 A 
ATOM     29  C   UNL A   1      34.813  31.189  27.712  1.00  0.00    -0.051 A 
ATOM     30  C   UNL A   1      35.614  32.381  28.146  1.00  0.00     0.044 C 
ENDBRANCH  12  24
ENDBRANCH   7   8
ENDBRANCH   6   7
ENDBRANCH   3   6
ENDBRANCH   1   2
BRANCH   1  31
ATOM     31  C   UNL A   1      35.695  21.289  24.981  1.00  0.00     0.023 C 
BRANCH  31  32
ATOM     32  C   UNL A   1      37.223  21.212  25.043  1.00  0.00     0.023 C 
BRANCH  32  33
ATOM     33  C   UNL A   1      37.888  22.388  25.739  1.00  0.00     0.116 C 
BRANCH  33  34
ATOM     34  N   UNL A   1      39.090  22.067  26.488  1.00  0.00    -0.352 N 
ATOM     35  C   UNL A   1      40.004  22.895  27.124  1.00  0.00     0.251 C 
ATOM     36  H   UNL A   1      39.289  21.106  26.554  1.00  0.00     0.163 HD
ATOM     37  O   UNL A   1      41.028  22.406  27.575  1.00  0.00    -0.269 OA
BRANCH  35  38
ATOM     38  C   UNL A   1      39.691  24.328  27.408  1.00  0.00     0.039 A 
ATOM     39  C   UNL A   1      40.088  25.288  26.461  1.00  0.00     0.014 A 
ATOM     40  C   UNL A   1      39.233  24.756  28.646  1.00  0.00     0.014 A 
ATOM     41  C   UNL A   1      40.285  26.613  26.850  1.00  0.00     0.010 A 
ATOM     42  C   UNL A   1      39.555  26.022  29.076  1.00  0.00     0.010 A 
ATOM     43  C   UNL A   1      40.137  26.932  28.193  1.00  0.00    -0.014 A 
BRANCH  43  44
ATOM     44  C   UNL A   1      40.635  28.139  28.830  1.00  0.00     0.031 A 
ATOM     45  C   UNL A   1      39.690  29.187  29.264  1.00  0.00     0.074 A 
ATOM     46  C   UNL A   1      41.916  28.137  29.262  1.00  0.00     0.049 A 
ATOM     47  N   UNL A   1      40.050  30.359  29.654  1.00  0.00    -0.248 NA
ATOM     48  C   UNL A   1      38.242  28.998  29.281  1.00  0.00     0.031 C 
ATOM     49  C   UNL A   1      42.510  28.978  30.296  1.00  0.00     0.029 A 
ATOM     50  N   UNL A   1      43.007  27.458  28.702  1.00  0.00    -0.354 N 
ATOM     51  C   UNL A   1      38.955  30.969  30.220  1.00  0.00     0.074 A 
ATOM     52  C   UNL A   1      37.841  30.100  29.923  1.00  0.00     0.031 C 
ATOM     53  C   UNL A   1      43.843  28.997  30.131  1.00  0.00     0.029 A 
ATOM     54  C   UNL A   1      44.123  28.305  28.887  1.00  0.00     0.049 A 
ATOM     55  H   UNL A   1      42.999  26.575  28.269  1.00  0.00     0.167 HD
ATOM     56  C   UNL A   1      39.142  32.082  30.982  1.00  0.00     0.037 A 
ATOM     57  C   UNL A   1      44.766  28.865  27.820  1.00  0.00     0.037 A 
ATOM     58  C   UNL A   1      40.549  32.463  31.009  1.00  0.00     0.049 A 
ATOM     59  C   UNL A   1      44.749  30.376  27.827  1.00  0.00     0.074 A 
ATOM     60  C   UNL A   1      41.574  32.199  31.903  1.00  0.00     0.029 A 
ATOM     61  N   UNL A   1      41.147  32.923  29.844  1.00  0.00    -0.354 N 
ATOM     62  N   UNL A   1      43.876  31.089  28.484  1.00  0.00    -0.248 NA
ATOM     63  C   UNL A   1      45.716  31.204  27.113  1.00  0.00     0.031 C 
ATOM     64  C   UNL A   1      42.803  32.465  31.250  1.00  0.00     0.029 A 
ATOM     65  C   UNL A   1      42.520  32.912  29.972  1.00  0.00     0.049 A 
ATOM     66  H   UNL A   1      40.659  33.216  29.041  1.00  0.00     0.167 HD
ATOM     67  C   UNL A   1      44.139  32.424  28.306  1.00  0.00     0.074 A 
ATOM     68  C   UNL A   1      45.306  32.443  27.445  1.00  0.00     0.031 C 
ATOM     69  C   UNL A   1      43.366  33.390  28.889  1.00  0.00     0.037 A 
BRANCH  56  70
ATOM     70  C   UNL A   1      38.098  32.672  31.892  1.00  0.00     0.057 A 
ATOM     71  C   UNL A   1      37.618  33.982  31.689  1.00  0.00     0.134 A 
ATOM     72  C   UNL A   1      37.537  32.008  32.995  1.00  0.00     0.134 A 
ATOM     73  F   UNL A   1      38.008  34.722  30.643  1.00  0.00    -0.206 F 
ATOM     74  C   UNL A   1      36.718  34.608  32.559  1.00  0.00     0.040 A 
ATOM     75  C   UNL A   1      36.672  32.639  33.902  1.00  0.00     0.040 A 
ATOM     76  F   UNL A   1      37.766  30.706  33.217  1.00  0.00    -0.206 F 
ATOM     77  C   UNL A   1      36.264  33.947  33.688  1.00  0.00     0.006 A 
ENDBRANCH  56  70
BRANCH  57  78
ATOM     78  C   UNL A   1      44.731  27.995  26.614  1.00  0.00     0.057 A 
ATOM     79  C   UNL A   1      45.661  26.941  26.537  1.00  0.00     0.134 A 
ATOM     80  C   UNL A   1      43.580  27.886  25.826  1.00  0.00     0.134 A 
ATOM     81  F   UNL A   1      46.787  26.986  27.268  1.00  0.00    -0.206 F 
ATOM     82  C   UNL A   1      45.393  25.769  25.825  1.00  0.00     0.040 A 
ATOM     83  C   UNL A   1      43.311  26.722  25.095  1.00  0.00     0.040 A 
ATOM     84  F   UNL A   1      42.638  28.840  25.859  1.00  0.00    -0.206 F 
ATOM     85  C   UNL A   1      44.193  25.643  25.132  1.00  0.00     0.006 A 
ENDBRANCH  57  78
BRANCH  69  86
ATOM     86  C   UNL A   1      43.355  34.876  28.587  1.00  0.00     0.057 A 
ATOM     87  C   UNL A   1      43.031  35.435  27.344  1.00  0.00     0.134 A 
ATOM     88  C   UNL A   1      43.516  35.819  29.634  1.00  0.00     0.134 A 
ATOM     89  F   UNL A   1      42.751  34.674  26.279  1.00  0.00    -0.206 F 
ATOM     90  C   UNL A   1      42.916  36.819  27.147  1.00  0.00     0.040 A 
ATOM     91  C   UNL A   1      43.343  37.195  29.462  1.00  0.00     0.040 A 
ATOM     92  F   UNL A   1      43.821  35.449  30.887  1.00  0.00    -0.206 F 
ATOM     93  C   UNL A   1      43.052  37.703  28.209  1.00  0.00     0.006 A 
ENDBRANCH  69  86
ENDBRANCH  43  44
ENDBRANCH  35  38
ENDBRANCH  33  34
ENDBRANCH  32  33
ENDBRANCH  31  32
ENDBRANCH   1  31
TORSDOF 17
ENDMDL
