MODEL 1
REMARK VINA RESULT:     -10.0      0.000      0.000
REMARK SMILES C[C@H]1CC[C@@](CCOCCO)(C(=O)NCCCCNC(=O)c2ccc(-c3c4nc(c(-c5c(F)cccc5F)c5ccc([nH]5)c(-c5c(F)cccc5F)c5nc(c(-c6c(F)cccc6F)c6ccc3[nH]6)C=C5)C=C4)cc2)C1
REMARK SMILES IDX 12 1 13 2 14 3 5 5 1 6 2 7 3 8 76 9 4 10 6 11 7 12 8 13 9 14
REMARK SMILES IDX 10 15 11 16 15 18 16 19 17 20 18 21 19 22 20 23 21 25 22 26
REMARK SMILES IDX 23 27 75 28 24 29 74 30 25 31 26 32 27 33 68 34 28 35 73 36
REMARK SMILES IDX 67 37 69 38 29 39 72 40 66 41 65 42 30 44 56 45 39 46 55 47
REMARK SMILES IDX 40 48 43 49 54 50 70 51 41 52 42 53 53 55 71 56 44 57 31 58
REMARK SMILES IDX 32 59 37 60 33 61 34 62 36 63 38 64 35 65 57 66 58 67 63 68
REMARK SMILES IDX 59 69 60 70 62 71 64 72 61 73 45 74 46 75 51 76 47 77 48 78
REMARK SMILES IDX 50 79 52 80 49 81
REMARK H PARENT 14 4 11 17 19 24 69 43 43 54
REMARK Flexibility Score: inf
ROOT
ATOM      1  C   UNL A   1      33.734  23.022  26.778  1.00  0.00     0.226 C 
ATOM      2  O   UNL A   1      33.030  22.735  27.762  1.00  0.00    -0.274 OA
ATOM      3  N   UNL A   1      34.923  22.387  26.813  1.00  0.00    -0.356 N 
ATOM      4  H   UNL A   1      34.942  21.718  27.534  1.00  0.00     0.163 HD
ENDROOT
BRANCH   1   5
ATOM      5  C   UNL A   1      33.185  24.040  25.731  1.00  0.00     0.052 C 
ATOM      6  C   UNL A   1      31.442  27.295  26.877  1.00  0.00     0.007 C 
ATOM      7  C   UNL A   1      32.120  26.270  25.977  1.00  0.00    -0.013 C 
ATOM      8  C   UNL A   1      33.612  26.520  25.850  1.00  0.00     0.004 C 
ATOM      9  C   UNL A   1      32.061  24.840  26.512  1.00  0.00     0.020 C 
ATOM     10  C   UNL A   1      34.238  25.166  25.516  1.00  0.00     0.017 C 
BRANCH   5  11
ATOM     11  C   UNL A   1      32.509  23.516  24.430  1.00  0.00     0.045 C 
BRANCH  11  12
ATOM     12  C   UNL A   1      32.695  22.099  23.846  1.00  0.00     0.161 C 
BRANCH  12  13
ATOM     13  O   UNL A   1      32.028  21.048  24.528  1.00  0.00    -0.379 OA
BRANCH  13  14
ATOM     14  C   UNL A   1      32.519  19.761  24.137  1.00  0.00     0.188 C 
BRANCH  14  15
ATOM     15  C   UNL A   1      33.301  19.105  25.268  1.00  0.00     0.184 C 
BRANCH  15  16
ATOM     16  O   UNL A   1      33.048  19.781  26.490  1.00  0.00    -0.394 OA
ATOM     17  H   UNL A   1      32.169  19.535  26.820  1.00  0.00     0.210 HD
ENDBRANCH  15  16
ENDBRANCH  14  15
ENDBRANCH  13  14
ENDBRANCH  12  13
ENDBRANCH  11  12
ENDBRANCH   5  11
ENDBRANCH   1   5
BRANCH   3  18
ATOM     18  C   UNL A   1      36.181  22.409  26.093  1.00  0.00     0.116 C 
BRANCH  18  19
ATOM     19  C   UNL A   1      36.406  21.086  25.349  1.00  0.00     0.023 C 
BRANCH  19  20
ATOM     20  C   UNL A   1      37.793  20.886  24.756  1.00  0.00     0.023 C 
BRANCH  20  21
ATOM     21  C   UNL A   1      38.923  20.911  25.777  1.00  0.00     0.116 C 
BRANCH  21  22
ATOM     22  N   UNL A   1      39.826  19.766  25.711  1.00  0.00    -0.352 N 
ATOM     23  C   UNL A   1      41.162  19.675  26.063  1.00  0.00     0.251 C 
ATOM     24  H   UNL A   1      39.425  18.935  25.366  1.00  0.00     0.163 HD
ATOM     25  O   UNL A   1      41.780  18.641  25.907  1.00  0.00    -0.269 OA
BRANCH  23  26
ATOM     26  C   UNL A   1      41.841  20.885  26.578  1.00  0.00     0.039 A 
ATOM     27  C   UNL A   1      42.338  21.824  25.672  1.00  0.00     0.014 A 
ATOM     28  C   UNL A   1      41.863  21.142  27.947  1.00  0.00     0.014 A 
ATOM     29  C   UNL A   1      42.731  23.082  26.136  1.00  0.00     0.010 A 
ATOM     30  C   UNL A   1      42.129  22.429  28.387  1.00  0.00     0.010 A 
ATOM     31  C   UNL A   1      42.558  23.419  27.488  1.00  0.00    -0.014 A 
BRANCH  31  32
ATOM     32  C   UNL A   1      42.806  24.791  28.001  1.00  0.00     0.031 A 
ATOM     33  C   UNL A   1      44.197  25.188  28.416  1.00  0.00     0.074 A 
ATOM     34  C   UNL A   1      41.774  25.636  28.208  1.00  0.00     0.049 A 
ATOM     35  N   UNL A   1      44.601  26.261  29.045  1.00  0.00    -0.248 NA
ATOM     36  C   UNL A   1      45.269  24.216  28.144  1.00  0.00     0.031 C 
ATOM     37  C   UNL A   1      40.364  25.348  27.932  1.00  0.00     0.029 A 
ATOM     38  N   UNL A   1      41.755  26.912  28.714  1.00  0.00    -0.354 N 
ATOM     39  C   UNL A   1      45.952  26.062  29.295  1.00  0.00     0.074 A 
ATOM     40  C   UNL A   1      46.286  24.744  28.805  1.00  0.00     0.031 C 
ATOM     41  C   UNL A   1      39.626  26.431  28.228  1.00  0.00     0.029 A 
ATOM     42  C   UNL A   1      40.501  27.474  28.750  1.00  0.00     0.049 A 
ATOM     43  H   UNL A   1      42.563  27.381  29.022  1.00  0.00     0.167 HD
ATOM     44  C   UNL A   1      46.847  26.913  29.850  1.00  0.00     0.037 A 
ATOM     45  C   UNL A   1      40.107  28.698  29.150  1.00  0.00     0.037 A 
ATOM     46  C   UNL A   1      46.534  28.260  30.242  1.00  0.00     0.049 A 
ATOM     47  C   UNL A   1      41.136  29.663  29.669  1.00  0.00     0.074 A 
ATOM     48  C   UNL A   1      47.387  29.242  30.710  1.00  0.00     0.029 A 
ATOM     49  N   UNL A   1      45.268  28.820  30.182  1.00  0.00    -0.354 N 
ATOM     50  N   UNL A   1      42.424  29.486  29.838  1.00  0.00    -0.248 NA
ATOM     51  C   UNL A   1      40.659  31.001  30.046  1.00  0.00     0.031 C 
ATOM     52  C   UNL A   1      46.632  30.396  30.946  1.00  0.00     0.029 A 
ATOM     53  C   UNL A   1      45.316  30.137  30.602  1.00  0.00     0.049 A 
ATOM     54  H   UNL A   1      44.455  28.349  29.885  1.00  0.00     0.167 HD
ATOM     55  C   UNL A   1      42.915  30.695  30.312  1.00  0.00     0.074 A 
ATOM     56  C   UNL A   1      41.788  31.602  30.394  1.00  0.00     0.031 C 
ATOM     57  C   UNL A   1      44.185  31.025  30.653  1.00  0.00     0.037 A 
BRANCH  44  58
ATOM     58  C   UNL A   1      48.250  26.414  30.032  1.00  0.00     0.057 A 
ATOM     59  C   UNL A   1      48.659  25.776  31.210  1.00  0.00     0.134 A 
ATOM     60  C   UNL A   1      49.202  26.574  29.018  1.00  0.00     0.134 A 
ATOM     61  F   UNL A   1      47.799  25.607  32.227  1.00  0.00    -0.206 F 
ATOM     62  C   UNL A   1      49.977  25.351  31.391  1.00  0.00     0.040 A 
ATOM     63  C   UNL A   1      50.516  26.127  29.175  1.00  0.00     0.040 A 
ATOM     64  F   UNL A   1      48.876  27.171  27.863  1.00  0.00    -0.206 F 
ATOM     65  C   UNL A   1      50.908  25.522  30.369  1.00  0.00     0.006 A 
ENDBRANCH  44  58
BRANCH  45  66
ATOM     66  C   UNL A   1      38.686  29.108  29.022  1.00  0.00     0.057 A 
ATOM     67  C   UNL A   1      37.818  29.013  30.117  1.00  0.00     0.134 A 
ATOM     68  C   UNL A   1      38.158  29.584  27.819  1.00  0.00     0.134 A 
ATOM     69  F   UNL A   1      38.264  28.546  31.292  1.00  0.00    -0.206 F 
ATOM     70  C   UNL A   1      36.469  29.356  30.014  1.00  0.00     0.040 A 
ATOM     71  C   UNL A   1      36.814  29.951  27.707  1.00  0.00     0.040 A 
ATOM     72  F   UNL A   1      38.939  29.707  26.737  1.00  0.00    -0.206 F 
ATOM     73  C   UNL A   1      35.964  29.829  28.805  1.00  0.00     0.006 A 
ENDBRANCH  45  66
BRANCH  57  74
ATOM     74  C   UNL A   1      44.427  32.432  31.105  1.00  0.00     0.057 A 
ATOM     75  C   UNL A   1      44.438  32.776  32.461  1.00  0.00     0.134 A 
ATOM     76  C   UNL A   1      44.701  33.441  30.174  1.00  0.00     0.134 A 
ATOM     77  F   UNL A   1      44.168  31.855  33.399  1.00  0.00    -0.206 F 
ATOM     78  C   UNL A   1      44.700  34.081  32.876  1.00  0.00     0.040 A 
ATOM     79  C   UNL A   1      44.985  34.744  30.577  1.00  0.00     0.040 A 
ATOM     80  F   UNL A   1      44.712  33.170  28.859  1.00  0.00    -0.206 F 
ATOM     81  C   UNL A   1      44.982  35.068  31.933  1.00  0.00     0.006 A 
ENDBRANCH  57  74
ENDBRANCH  31  32
ENDBRANCH  23  26
ENDBRANCH  21  22
ENDBRANCH  20  21
ENDBRANCH  19  20
ENDBRANCH  18  19
ENDBRANCH   3  18
TORSDOF 17
ENDMDL
MODEL 2
REMARK VINA RESULT:      -9.9      4.997      9.732
REMARK SMILES C[C@H]1CC[C@@](CCOCCO)(C(=O)NCCCCNC(=O)c2ccc(-c3c4nc(c(-c5c(F)cccc5F)c5ccc([nH]5)c(-c5c(F)cccc5F)c5nc(c(-c6c(F)cccc6F)c6ccc3[nH]6)C=C5)C=C4)cc2)C1
REMARK SMILES IDX 12 1 13 2 14 3 5 5 1 6 2 7 3 8 76 9 4 10 6 11 7 12 8 13 9 14
REMARK SMILES IDX 10 15 11 16 15 18 16 19 17 20 18 21 19 22 20 23 21 25 22 26
REMARK SMILES IDX 23 27 75 28 24 29 74 30 25 31 26 32 27 33 68 34 28 35 73 36
REMARK SMILES IDX 67 37 69 38 29 39 72 40 66 41 65 42 30 44 56 45 39 46 55 47
REMARK SMILES IDX 40 48 43 49 54 50 70 51 41 52 42 53 53 55 71 56 44 57 31 58
REMARK SMILES IDX 32 59 37 60 33 61 34 62 36 63 38 64 35 65 57 66 58 67 63 68
REMARK SMILES IDX 59 69 60 70 62 71 64 72 61 73 45 74 46 75 51 76 47 77 48 78
REMARK SMILES IDX 50 79 52 80 49 81
REMARK H PARENT 14 4 11 17 19 24 69 43 43 54
REMARK Flexibility Score: inf
ROOT
ATOM      1  C   UNL A   1      33.283  28.811  24.100  1.00  0.00     0.226 C 
ATOM      2  O   UNL A   1      33.833  29.081  23.018  1.00  0.00    -0.274 OA
ATOM      3  N   UNL A   1      33.653  29.666  25.075  1.00  0.00    -0.356 N 
ATOM      4  H   UNL A   1      34.174  30.415  24.706  1.00  0.00     0.163 HD
ENDROOT
BRANCH   1   5
ATOM      5  C   UNL A   1      32.333  27.576  24.174  1.00  0.00     0.052 C 
ATOM      6  C   UNL A   1      33.177  24.325  22.259  1.00  0.00     0.007 C 
ATOM      7  C   UNL A   1      32.506  25.284  23.234  1.00  0.00    -0.013 C 
ATOM      8  C   UNL A   1      33.136  25.229  24.613  1.00  0.00     0.004 C 
ATOM      9  C   UNL A   1      32.649  26.756  22.854  1.00  0.00     0.020 C 
ATOM     10  C   UNL A   1      32.862  26.589  25.255  1.00  0.00     0.017 C 
BRANCH   5  11
ATOM     11  C   UNL A   1      30.790  27.793  24.181  1.00  0.00     0.045 C 
BRANCH  11  12
ATOM     12  C   UNL A   1      30.068  29.032  23.610  1.00  0.00     0.161 C 
BRANCH  12  13
ATOM     13  O   UNL A   1      29.792  29.010  22.218  1.00  0.00    -0.379 OA
BRANCH  13  14
ATOM     14  C   UNL A   1      28.849  30.021  21.845  1.00  0.00     0.188 C 
BRANCH  14  15
ATOM     15  C   UNL A   1      27.812  30.234  22.940  1.00  0.00     0.184 C 
BRANCH  15  16
ATOM     16  O   UNL A   1      26.802  29.240  22.855  1.00  0.00    -0.394 OA
ATOM     17  H   UNL A   1      27.199  28.364  22.982  1.00  0.00     0.210 HD
ENDBRANCH  15  16
ENDBRANCH  14  15
ENDBRANCH  13  14
ENDBRANCH  12  13
ENDBRANCH  11  12
ENDBRANCH   5  11
ENDBRANCH   1   5
BRANCH   3  18
ATOM     18  C   UNL A   1      33.504  29.797  26.512  1.00  0.00     0.116 C 
BRANCH  18  19
ATOM     19  C   UNL A   1      32.073  30.214  26.875  1.00  0.00     0.023 C 
BRANCH  19  20
ATOM     20  C   UNL A   1      31.774  31.704  26.785  1.00  0.00     0.023 C 
BRANCH  20  21
ATOM     21  C   UNL A   1      32.846  32.599  27.389  1.00  0.00     0.116 C 
BRANCH  21  22
ATOM     22  N   UNL A   1      32.412  33.967  27.662  1.00  0.00    -0.352 N 
ATOM     23  C   UNL A   1      32.950  34.908  28.523  1.00  0.00     0.251 C 
ATOM     24  H   UNL A   1      31.620  34.263  27.157  1.00  0.00     0.163 HD
ATOM     25  O   UNL A   1      32.435  35.999  28.656  1.00  0.00    -0.269 OA
BRANCH  23  26
ATOM     26  C   UNL A   1      34.134  34.533  29.329  1.00  0.00     0.039 A 
ATOM     27  C   UNL A   1      33.947  33.969  30.592  1.00  0.00     0.014 A 
ATOM     28  C   UNL A   1      35.409  34.621  28.774  1.00  0.00     0.014 A 
ATOM     29  C   UNL A   1      35.029  33.367  31.240  1.00  0.00     0.010 A 
ATOM     30  C   UNL A   1      36.448  33.913  29.357  1.00  0.00     0.010 A 
ATOM     31  C   UNL A   1      36.271  33.269  30.592  1.00  0.00    -0.014 A 
BRANCH  31  32
ATOM     32  C   UNL A   1      37.405  32.499  31.166  1.00  0.00     0.031 A 
ATOM     33  C   UNL A   1      37.952  32.879  32.516  1.00  0.00     0.074 A 
ATOM     34  C   UNL A   1      38.020  31.547  30.434  1.00  0.00     0.049 A 
ATOM     35  N   UNL A   1      39.034  32.461  33.121  1.00  0.00    -0.248 NA
ATOM     36  C   UNL A   1      37.217  33.918  33.257  1.00  0.00     0.031 C 
ATOM     37  C   UNL A   1      37.648  31.138  29.077  1.00  0.00     0.029 A 
ATOM     38  N   UNL A   1      39.102  30.756  30.730  1.00  0.00    -0.354 N 
ATOM     39  C   UNL A   1      39.137  33.227  34.275  1.00  0.00     0.074 A 
ATOM     40  C   UNL A   1      38.045  34.174  34.257  1.00  0.00     0.031 C 
ATOM     41  C   UNL A   1      38.458  30.143  28.677  1.00  0.00     0.029 A 
ATOM     42  C   UNL A   1      39.428  29.868  29.731  1.00  0.00     0.049 A 
ATOM     43  H   UNL A   1      39.598  30.817  31.577  1.00  0.00     0.167 HD
ATOM     44  C   UNL A   1      40.039  33.129  35.280  1.00  0.00     0.037 A 
ATOM     45  C   UNL A   1      40.395  28.933  29.679  1.00  0.00     0.037 A 
ATOM     46  C   UNL A   1      41.060  32.121  35.344  1.00  0.00     0.049 A 
ATOM     47  C   UNL A   1      41.322  28.775  30.852  1.00  0.00     0.074 A 
ATOM     48  C   UNL A   1      41.953  31.861  36.367  1.00  0.00     0.029 A 
ATOM     49  N   UNL A   1      41.303  31.187  34.350  1.00  0.00    -0.354 N 
ATOM     50  N   UNL A   1      41.367  29.462  31.968  1.00  0.00    -0.248 NA
ATOM     51  C   UNL A   1      42.328  27.707  30.763  1.00  0.00     0.031 C 
ATOM     52  C   UNL A   1      42.747  30.774  35.986  1.00  0.00     0.029 A 
ATOM     53  C   UNL A   1      42.330  30.345  34.736  1.00  0.00     0.049 A 
ATOM     54  H   UNL A   1      40.816  31.130  33.496  1.00  0.00     0.167 HD
ATOM     55  C   UNL A   1      42.383  28.894  32.723  1.00  0.00     0.074 A 
ATOM     56  C   UNL A   1      42.922  27.798  31.944  1.00  0.00     0.031 C 
ATOM     57  C   UNL A   1      42.833  29.248  33.952  1.00  0.00     0.037 A 
BRANCH  44  58
ATOM     58  C   UNL A   1      39.930  34.123  36.399  1.00  0.00     0.057 A 
ATOM     59  C   UNL A   1      39.134  33.881  37.526  1.00  0.00     0.134 A 
ATOM     60  C   UNL A   1      40.628  35.335  36.348  1.00  0.00     0.134 A 
ATOM     61  F   UNL A   1      38.425  32.746  37.628  1.00  0.00    -0.206 F 
ATOM     62  C   UNL A   1      39.003  34.827  38.544  1.00  0.00     0.040 A 
ATOM     63  C   UNL A   1      40.529  36.277  37.374  1.00  0.00     0.040 A 
ATOM     64  F   UNL A   1      41.413  35.628  35.300  1.00  0.00    -0.206 F 
ATOM     65  C   UNL A   1      39.706  36.027  38.471  1.00  0.00     0.006 A 
ENDBRANCH  44  58
BRANCH  45  66
ATOM     66  C   UNL A   1      40.505  28.032  28.506  1.00  0.00     0.057 A 
ATOM     67  C   UNL A   1      39.859  26.789  28.501  1.00  0.00     0.134 A 
ATOM     68  C   UNL A   1      41.257  28.372  27.377  1.00  0.00     0.134 A 
ATOM     69  F   UNL A   1      39.137  26.401  29.563  1.00  0.00    -0.206 F 
ATOM     70  C   UNL A   1      39.975  25.907  27.427  1.00  0.00     0.040 A 
ATOM     71  C   UNL A   1      41.366  27.507  26.285  1.00  0.00     0.040 A 
ATOM     72  F   UNL A   1      41.892  29.551  27.316  1.00  0.00    -0.206 F 
ATOM     73  C   UNL A   1      40.730  26.267  26.312  1.00  0.00     0.006 A 
ENDBRANCH  45  66
BRANCH  57  74
ATOM     74  C   UNL A   1      43.932  28.420  34.542  1.00  0.00     0.057 A 
ATOM     75  C   UNL A   1      45.278  28.778  34.403  1.00  0.00     0.134 A 
ATOM     76  C   UNL A   1      43.636  27.280  35.299  1.00  0.00     0.134 A 
ATOM     77  F   UNL A   1      45.624  29.853  33.678  1.00  0.00    -0.206 F 
ATOM     78  C   UNL A   1      46.294  28.022  34.987  1.00  0.00     0.040 A 
ATOM     79  C   UNL A   1      44.641  26.528  35.904  1.00  0.00     0.040 A 
ATOM     80  F   UNL A   1      42.364  26.890  35.473  1.00  0.00    -0.206 F 
ATOM     81  C   UNL A   1      45.976  26.897  35.746  1.00  0.00     0.006 A 
ENDBRANCH  57  74
ENDBRANCH  31  32
ENDBRANCH  23  26
ENDBRANCH  21  22
ENDBRANCH  20  21
ENDBRANCH  19  20
ENDBRANCH  18  19
ENDBRANCH   3  18
TORSDOF 17
ENDMDL
MODEL 3
REMARK VINA RESULT:      -9.8      5.017      9.402
REMARK SMILES C[C@H]1CC[C@@](CCOCCO)(C(=O)NCCCCNC(=O)c2ccc(-c3c4nc(c(-c5c(F)cccc5F)c5ccc([nH]5)c(-c5c(F)cccc5F)c5nc(c(-c6c(F)cccc6F)c6ccc3[nH]6)C=C5)C=C4)cc2)C1
REMARK SMILES IDX 12 1 13 2 14 3 5 5 1 6 2 7 3 8 76 9 4 10 6 11 7 12 8 13 9 14
REMARK SMILES IDX 10 15 11 16 15 18 16 19 17 20 18 21 19 22 20 23 21 25 22 26
REMARK SMILES IDX 23 27 75 28 24 29 74 30 25 31 26 32 27 33 68 34 28 35 73 36
REMARK SMILES IDX 67 37 69 38 29 39 72 40 66 41 65 42 30 44 56 45 39 46 55 47
REMARK SMILES IDX 40 48 43 49 54 50 70 51 41 52 42 53 53 55 71 56 44 57 31 58
REMARK SMILES IDX 32 59 37 60 33 61 34 62 36 63 38 64 35 65 57 66 58 67 63 68
REMARK SMILES IDX 59 69 60 70 62 71 64 72 61 73 45 74 46 75 51 76 47 77 48 78
REMARK SMILES IDX 50 79 52 80 49 81
REMARK H PARENT 14 4 11 17 19 24 69 43 43 54
REMARK Flexibility Score: inf
ROOT
ATOM      1  C   UNL A   1      33.698  28.117  24.298  1.00  0.00     0.226 C 
ATOM      2  O   UNL A   1      34.017  28.411  23.133  1.00  0.00    -0.274 OA
ATOM      3  N   UNL A   1      33.971  29.119  25.158  1.00  0.00    -0.356 N 
ATOM      4  H   UNL A   1      34.238  29.933  24.674  1.00  0.00     0.163 HD
ENDROOT
BRANCH   1   5
ATOM      5  C   UNL A   1      33.099  26.705  24.580  1.00  0.00     0.052 C 
ATOM      6  C   UNL A   1      34.820  23.526  23.210  1.00  0.00     0.007 C 
ATOM      7  C   UNL A   1      33.892  24.418  24.023  1.00  0.00    -0.013 C 
ATOM      8  C   UNL A   1      34.469  24.750  25.387  1.00  0.00     0.004 C 
ATOM      9  C   UNL A   1      33.660  25.797  23.407  1.00  0.00     0.020 C 
ATOM     10  C   UNL A   1      33.830  26.076  25.802  1.00  0.00     0.017 C 
BRANCH   5  11
ATOM     11  C   UNL A   1      31.554  26.509  24.568  1.00  0.00     0.045 C 
BRANCH  11  12
ATOM     12  C   UNL A   1      30.693  26.345  23.297  1.00  0.00     0.161 C 
BRANCH  12  13
ATOM     13  O   UNL A   1      30.669  27.454  22.410  1.00  0.00    -0.379 OA
BRANCH  13  14
ATOM     14  C   UNL A   1      29.576  28.335  22.687  1.00  0.00     0.188 C 
BRANCH  14  15
ATOM     15  C   UNL A   1      29.998  29.792  22.548  1.00  0.00     0.184 C 
BRANCH  15  16
ATOM     16  O   UNL A   1      31.005  29.915  21.556  1.00  0.00    -0.394 OA
ATOM     17  H   UNL A   1      31.760  29.353  21.790  1.00  0.00     0.210 HD
ENDBRANCH  15  16
ENDBRANCH  14  15
ENDBRANCH  13  14
ENDBRANCH  12  13
ENDBRANCH  11  12
ENDBRANCH   5  11
ENDBRANCH   1   5
BRANCH   3  18
ATOM     18  C   UNL A   1      33.984  29.340  26.591  1.00  0.00     0.116 C 
BRANCH  18  19
ATOM     19  C   UNL A   1      32.593  29.748  27.093  1.00  0.00     0.023 C 
BRANCH  19  20
ATOM     20  C   UNL A   1      32.215  31.207  26.883  1.00  0.00     0.023 C 
BRANCH  20  21
ATOM     21  C   UNL A   1      33.157  32.203  27.545  1.00  0.00     0.116 C 
BRANCH  21  22
ATOM     22  N   UNL A   1      32.621  33.556  27.668  1.00  0.00    -0.352 N 
ATOM     23  C   UNL A   1      33.060  34.610  28.451  1.00  0.00     0.251 C 
ATOM     24  H   UNL A   1      31.831  33.746  27.112  1.00  0.00     0.163 HD
ATOM     25  O   UNL A   1      32.467  35.670  28.460  1.00  0.00    -0.269 OA
BRANCH  23  26
ATOM     26  C   UNL A   1      34.236  34.399  29.326  1.00  0.00     0.039 A 
ATOM     27  C   UNL A   1      34.038  33.966  30.638  1.00  0.00     0.014 A 
ATOM     28  C   UNL A   1      35.522  34.505  28.801  1.00  0.00     0.014 A 
ATOM     29  C   UNL A   1      35.130  33.507  31.379  1.00  0.00     0.010 A 
ATOM     30  C   UNL A   1      36.579  33.930  29.488  1.00  0.00     0.010 A 
ATOM     31  C   UNL A   1      36.397  33.415  30.781  1.00  0.00    -0.014 A 
BRANCH  31  32
ATOM     32  C   UNL A   1      37.553  32.784  31.469  1.00  0.00     0.031 A 
ATOM     33  C   UNL A   1      38.274  31.638  30.810  1.00  0.00     0.074 A 
ATOM     34  C   UNL A   1      37.879  33.151  32.727  1.00  0.00     0.049 A 
ATOM     35  N   UNL A   1      39.185  30.838  31.301  1.00  0.00    -0.248 NA
ATOM     36  C   UNL A   1      37.868  31.309  29.433  1.00  0.00     0.031 C 
ATOM     37  C   UNL A   1      37.208  34.186  33.517  1.00  0.00     0.029 A 
ATOM     38  N   UNL A   1      38.857  32.679  33.567  1.00  0.00    -0.354 N 
ATOM     39  C   UNL A   1      39.411  29.882  30.320  1.00  0.00     0.074 A 
ATOM     40  C   UNL A   1      38.502  30.165  29.232  1.00  0.00     0.031 C 
ATOM     41  C   UNL A   1      37.822  34.302  34.706  1.00  0.00     0.029 A 
ATOM     42  C   UNL A   1      38.904  33.327  34.779  1.00  0.00     0.049 A 
ATOM     43  H   UNL A   1      39.468  31.947  33.324  1.00  0.00     0.167 HD
ATOM     44  C   UNL A   1      40.319  28.878  30.306  1.00  0.00     0.037 A 
ATOM     45  C   UNL A   1      39.735  33.157  35.825  1.00  0.00     0.037 A 
ATOM     46  C   UNL A   1      41.290  28.663  31.343  1.00  0.00     0.049 A 
ATOM     47  C   UNL A   1      40.802  32.101  35.746  1.00  0.00     0.074 A 
ATOM     48  C   UNL A   1      42.326  27.748  31.379  1.00  0.00     0.029 A 
ATOM     49  N   UNL A   1      41.358  29.396  32.517  1.00  0.00    -0.354 N 
ATOM     50  N   UNL A   1      41.049  31.247  34.783  1.00  0.00    -0.248 NA
ATOM     51  C   UNL A   1      41.712  31.992  36.894  1.00  0.00     0.031 C 
ATOM     52  C   UNL A   1      43.015  27.920  32.584  1.00  0.00     0.029 A 
ATOM     53  C   UNL A   1      42.422  28.957  33.285  1.00  0.00     0.049 A 
ATOM     54  H   UNL A   1      40.741  30.122  32.768  1.00  0.00     0.167 HD
ATOM     55  C   UNL A   1      42.156  30.519  35.196  1.00  0.00     0.074 A 
ATOM     56  C   UNL A   1      42.541  31.039  36.492  1.00  0.00     0.031 C 
ATOM     57  C   UNL A   1      42.797  29.507  34.561  1.00  0.00     0.037 A 
BRANCH  44  58
ATOM     58  C   UNL A   1      40.316  27.964  29.117  1.00  0.00     0.057 A 
ATOM     59  C   UNL A   1      41.065  28.248  27.966  1.00  0.00     0.134 A 
ATOM     60  C   UNL A   1      39.555  26.790  29.119  1.00  0.00     0.134 A 
ATOM     61  F   UNL A   1      41.802  29.367  27.893  1.00  0.00    -0.206 F 
ATOM     62  C   UNL A   1      41.024  27.416  26.845  1.00  0.00     0.040 A 
ATOM     63  C   UNL A   1      39.530  25.934  28.016  1.00  0.00     0.040 A 
ATOM     64  F   UNL A   1      38.819  26.456  30.190  1.00  0.00    -0.206 F 
ATOM     65  C   UNL A   1      40.259  26.253  26.871  1.00  0.00     0.006 A 
ENDBRANCH  44  58
BRANCH  45  66
ATOM     66  C   UNL A   1      39.635  34.041  37.013  1.00  0.00     0.057 A 
ATOM     67  C   UNL A   1      40.285  35.281  37.032  1.00  0.00     0.134 A 
ATOM     68  C   UNL A   1      38.913  33.672  38.152  1.00  0.00     0.134 A 
ATOM     69  F   UNL A   1      41.007  35.680  35.975  1.00  0.00    -0.206 F 
ATOM     70  C   UNL A   1      40.238  36.115  38.150  1.00  0.00     0.040 A 
ATOM     71  C   UNL A   1      38.840  34.506  39.271  1.00  0.00     0.040 A 
ATOM     72  F   UNL A   1      38.262  32.502  38.192  1.00  0.00    -0.206 F 
ATOM     73  C   UNL A   1      39.511  35.728  39.274  1.00  0.00     0.006 A 
ENDBRANCH  45  66
BRANCH  57  74
ATOM     74  C   UNL A   1      43.999  28.927  35.240  1.00  0.00     0.057 A 
ATOM     75  C   UNL A   1      43.896  27.840  36.115  1.00  0.00     0.134 A 
ATOM     76  C   UNL A   1      45.278  29.431  34.974  1.00  0.00     0.134 A 
ATOM     77  F   UNL A   1      42.696  27.323  36.419  1.00  0.00    -0.206 F 
ATOM     78  C   UNL A   1      45.025  27.283  36.716  1.00  0.00     0.040 A 
ATOM     79  C   UNL A   1      46.415  28.868  35.551  1.00  0.00     0.040 A 
ATOM     80  F   UNL A   1      45.441  30.467  34.137  1.00  0.00    -0.206 F 
ATOM     81  C   UNL A   1      46.290  27.792  36.428  1.00  0.00     0.006 A 
ENDBRANCH  57  74
ENDBRANCH  31  32
ENDBRANCH  23  26
ENDBRANCH  21  22
ENDBRANCH  20  21
ENDBRANCH  19  20
ENDBRANCH  18  19
ENDBRANCH   3  18
TORSDOF 17
ENDMDL
