MODEL 1
REMARK VINA RESULT:     -11.1      0.000      0.000
REMARK SMILES CC(C)Nc1cc2ccccc2cc1C(=O)NCCCCNC(=O)c1ccc(-c2c3nc(c(-c4c(F)cccc4F)c4ccc([nH]4)c(-c4c(F)cccc4F)c4nc(c(-c5c(F)cccc5F)c5ccc2[nH]5)C=C4)C=C3)cc1
REMARK SMILES IDX 19 1 18 2 17 3 15 4 16 5 14 7 5 8 6 9 7 10 13 11 8 12 12 13
REMARK SMILES IDX 9 14 11 15 10 16 4 17 2 19 1 20 3 21 20 22 21 23 22 24 23 25
REMARK SMILES IDX 24 27 25 28 26 29 78 30 27 31 77 32 28 33 29 34 30 35 71 36
REMARK SMILES IDX 31 37 76 38 70 39 72 40 32 41 75 42 69 43 68 44 33 46 59 47
REMARK SMILES IDX 42 48 58 49 43 50 46 51 57 52 73 53 44 54 45 55 56 57 74 58
REMARK SMILES IDX 47 59 34 60 35 61 40 62 36 63 37 64 39 65 41 66 38 67 60 68
REMARK SMILES IDX 61 69 66 70 62 71 63 72 65 73 67 74 64 75 48 76 49 77 54 78
REMARK SMILES IDX 50 79 51 80 53 81 55 82 52 83
REMARK H PARENT 17 6 4 18 22 26 72 45 46 56
REMARK Flexibility Score: inf
ROOT
ATOM      1  C   UNL A   1      34.063  27.428  25.453  1.00  0.00     0.023 C 
ENDROOT
BRANCH   1   2
ATOM      2  C   UNL A   1      32.989  26.508  24.880  1.00  0.00     0.116 C 
BRANCH   2   3
ATOM      3  N   UNL A   1      32.239  25.756  25.866  1.00  0.00    -0.352 N 
ATOM      4  C   UNL A   1      32.515  24.511  26.393  1.00  0.00     0.253 C 
ATOM      5  O   UNL A   1      31.786  24.078  27.286  1.00  0.00    -0.269 OA
ATOM      6  H   UNL A   1      31.425  26.193  26.206  1.00  0.00     0.163 HD
BRANCH   4   7
ATOM      7  C   UNL A   1      33.586  23.634  25.844  1.00  0.00     0.063 A 
ATOM      8  C   UNL A   1      33.384  22.458  25.105  1.00  0.00     0.048 A 
ATOM      9  C   UNL A   1      34.509  21.647  24.847  1.00  0.00     0.035 A 
ATOM     10  C   UNL A   1      35.813  22.010  25.239  1.00  0.00    -0.016 A 
ATOM     11  C   UNL A   1      34.897  24.043  26.175  1.00  0.00     0.024 A 
ATOM     12  C   UNL A   1      36.918  21.175  25.000  1.00  0.00     0.009 A 
ATOM     13  C   UNL A   1      36.014  23.250  25.872  1.00  0.00    -0.017 A 
ATOM     14  C   UNL A   1      38.209  21.575  25.356  1.00  0.00     0.001 A 
ATOM     15  C   UNL A   1      37.321  23.653  26.199  1.00  0.00     0.009 A 
ATOM     16  C   UNL A   1      38.412  22.820  25.940  1.00  0.00     0.001 A 
BRANCH   8  17
ATOM     17  N   UNL A   1      32.176  22.071  24.515  1.00  0.00    -0.382 N 
ATOM     18  H   UNL A   1      31.573  21.453  24.985  1.00  0.00     0.160 HD
BRANCH  17  19
ATOM     19  C   UNL A   1      31.809  22.590  23.189  1.00  0.00     0.073 C 
ATOM     20  C   UNL A   1      30.759  23.691  23.383  1.00  0.00     0.030 C 
ATOM     21  C   UNL A   1      33.009  23.204  22.478  1.00  0.00     0.030 C 
ENDBRANCH  17  19
ENDBRANCH   8  17
ENDBRANCH   4   7
ENDBRANCH   2   3
ENDBRANCH   1   2
BRANCH   1  22
ATOM     22  C   UNL A   1      33.611  28.799  25.967  1.00  0.00     0.023 C 
BRANCH  22  23
ATOM     23  C   UNL A   1      33.407  28.983  27.470  1.00  0.00     0.116 C 
BRANCH  23  24
ATOM     24  N   UNL A   1      33.564  30.347  27.949  1.00  0.00    -0.352 N 
ATOM     25  C   UNL A   1      34.683  30.987  28.436  1.00  0.00     0.251 C 
ATOM     26  H   UNL A   1      32.748  30.897  27.921  1.00  0.00     0.163 HD
ATOM     27  O   UNL A   1      34.611  32.158  28.801  1.00  0.00    -0.269 OA
BRANCH  25  28
ATOM     28  C   UNL A   1      35.964  30.258  28.580  1.00  0.00     0.039 A 
ATOM     29  C   UNL A   1      36.838  30.225  27.489  1.00  0.00     0.014 A 
ATOM     30  C   UNL A   1      36.321  29.633  29.778  1.00  0.00     0.014 A 
ATOM     31  C   UNL A   1      38.113  29.669  27.633  1.00  0.00     0.010 A 
ATOM     32  C   UNL A   1      37.612  29.122  29.936  1.00  0.00     0.010 A 
ATOM     33  C   UNL A   1      38.532  29.165  28.875  1.00  0.00    -0.014 A 
BRANCH  33  34
ATOM     34  C   UNL A   1      39.951  28.773  29.102  1.00  0.00     0.031 A 
ATOM     35  C   UNL A   1      40.943  29.736  29.690  1.00  0.00     0.074 A 
ATOM     36  C   UNL A   1      40.366  27.555  28.697  1.00  0.00     0.049 A 
ATOM     37  N   UNL A   1      42.224  29.571  29.904  1.00  0.00    -0.248 NA
ATOM     38  C   UNL A   1      40.436  31.063  30.066  1.00  0.00     0.031 C 
ATOM     39  C   UNL A   1      39.523  26.544  28.056  1.00  0.00     0.029 A 
ATOM     40  N   UNL A   1      41.606  26.967  28.750  1.00  0.00    -0.354 N 
ATOM     41  C   UNL A   1      42.680  30.772  30.430  1.00  0.00     0.074 A 
ATOM     42  C   UNL A   1      41.544  31.670  30.467  1.00  0.00     0.031 C 
ATOM     43  C   UNL A   1      40.264  25.459  27.787  1.00  0.00     0.029 A 
ATOM     44  C   UNL A   1      41.640  25.705  28.206  1.00  0.00     0.049 A 
ATOM     45  H   UNL A   1      42.395  27.406  29.140  1.00  0.00     0.167 HD
ATOM     46  C   UNL A   1      43.926  31.092  30.856  1.00  0.00     0.037 A 
ATOM     47  C   UNL A   1      42.663  24.843  28.052  1.00  0.00     0.037 A 
ATOM     48  C   UNL A   1      45.054  30.197  30.839  1.00  0.00     0.049 A 
ATOM     49  C   UNL A   1      44.033  25.221  28.540  1.00  0.00     0.074 A 
ATOM     50  C   UNL A   1      46.334  30.414  31.323  1.00  0.00     0.029 A 
ATOM     51  N   UNL A   1      45.043  28.918  30.305  1.00  0.00    -0.354 N 
ATOM     52  N   UNL A   1      44.427  26.330  29.115  1.00  0.00    -0.248 NA
ATOM     53  C   UNL A   1      45.099  24.223  28.364  1.00  0.00     0.031 C 
ATOM     54  C   UNL A   1      47.107  29.282  31.045  1.00  0.00     0.029 A 
ATOM     55  C   UNL A   1      46.299  28.344  30.425  1.00  0.00     0.049 A 
ATOM     56  H   UNL A   1      44.259  28.482  29.900  1.00  0.00     0.167 HD
ATOM     57  C   UNL A   1      45.777  26.156  29.391  1.00  0.00     0.074 A 
ATOM     58  C   UNL A   1      46.132  24.830  28.934  1.00  0.00     0.031 C 
ATOM     59  C   UNL A   1      46.644  27.022  29.970  1.00  0.00     0.037 A 
BRANCH  46  60
ATOM     60  C   UNL A   1      44.140  32.480  31.386  1.00  0.00     0.057 A 
ATOM     61  C   UNL A   1      44.077  32.762  32.757  1.00  0.00     0.134 A 
ATOM     62  C   UNL A   1      44.465  33.534  30.523  1.00  0.00     0.134 A 
ATOM     63  F   UNL A   1      43.765  31.798  33.636  1.00  0.00    -0.206 F 
ATOM     64  C   UNL A   1      44.309  34.047  33.248  1.00  0.00     0.040 A 
ATOM     65  C   UNL A   1      44.722  34.819  31.005  1.00  0.00     0.040 A 
ATOM     66  F   UNL A   1      44.551  33.330  29.200  1.00  0.00    -0.206 F 
ATOM     67  C   UNL A   1      44.639  35.079  32.372  1.00  0.00     0.006 A 
ENDBRANCH  46  60
BRANCH  47  68
ATOM     68  C   UNL A   1      42.431  23.521  27.419  1.00  0.00     0.057 A 
ATOM     69  C   UNL A   1      42.143  22.391  28.192  1.00  0.00     0.134 A 
ATOM     70  C   UNL A   1      42.503  23.354  26.031  1.00  0.00     0.134 A 
ATOM     71  F   UNL A   1      42.081  22.487  29.529  1.00  0.00    -0.206 F 
ATOM     72  C   UNL A   1      41.954  21.137  27.611  1.00  0.00     0.040 A 
ATOM     73  C   UNL A   1      42.294  22.110  25.434  1.00  0.00     0.040 A 
ATOM     74  F   UNL A   1      42.769  24.400  25.235  1.00  0.00    -0.206 F 
ATOM     75  C   UNL A   1      42.025  20.994  26.227  1.00  0.00     0.006 A 
ENDBRANCH  47  68
BRANCH  59  76
ATOM     76  C   UNL A   1      48.055  26.550  30.167  1.00  0.00     0.057 A 
ATOM     77  C   UNL A   1      48.451  25.875  31.328  1.00  0.00     0.134 A 
ATOM     78  C   UNL A   1      49.020  26.747  29.171  1.00  0.00     0.134 A 
ATOM     79  F   UNL A   1      47.578  25.669  32.326  1.00  0.00    -0.206 F 
ATOM     80  C   UNL A   1      49.763  25.430  31.502  1.00  0.00     0.040 A 
ATOM     81  C   UNL A   1      50.329  26.286  29.323  1.00  0.00     0.040 A 
ATOM     82  F   UNL A   1      48.705  27.382  28.033  1.00  0.00    -0.206 F 
ATOM     83  C   UNL A   1      50.705  25.631  30.493  1.00  0.00     0.006 A 
ENDBRANCH  59  76
ENDBRANCH  33  34
ENDBRANCH  25  28
ENDBRANCH  23  24
ENDBRANCH  22  23
ENDBRANCH   1  22
TORSDOF 13
ENDMDL
MODEL 2
REMARK VINA RESULT:     -11.1      2.878      7.400
REMARK SMILES CC(C)Nc1cc2ccccc2cc1C(=O)NCCCCNC(=O)c1ccc(-c2c3nc(c(-c4c(F)cccc4F)c4ccc([nH]4)c(-c4c(F)cccc4F)c4nc(c(-c5c(F)cccc5F)c5ccc2[nH]5)C=C4)C=C3)cc1
REMARK SMILES IDX 19 1 18 2 17 3 15 4 16 5 14 7 5 8 6 9 7 10 13 11 8 12 12 13
REMARK SMILES IDX 9 14 11 15 10 16 4 17 2 19 1 20 3 21 20 22 21 23 22 24 23 25
REMARK SMILES IDX 24 27 25 28 26 29 78 30 27 31 77 32 28 33 29 34 30 35 71 36
REMARK SMILES IDX 31 37 76 38 70 39 72 40 32 41 75 42 69 43 68 44 33 46 59 47
REMARK SMILES IDX 42 48 58 49 43 50 46 51 57 52 73 53 44 54 45 55 56 57 74 58
REMARK SMILES IDX 47 59 34 60 35 61 40 62 36 63 37 64 39 65 41 66 38 67 60 68
REMARK SMILES IDX 61 69 66 70 62 71 63 72 65 73 67 74 64 75 48 76 49 77 54 78
REMARK SMILES IDX 50 79 51 80 53 81 55 82 52 83
REMARK H PARENT 17 6 4 18 22 26 72 45 46 56
REMARK Flexibility Score: inf
ROOT
ATOM      1  C   UNL A   1      37.185  21.643  24.517  1.00  0.00     0.023 C 
ENDROOT
BRANCH   1   2
ATOM      2  C   UNL A   1      37.067  22.788  25.520  1.00  0.00     0.116 C 
BRANCH   2   3
ATOM      3  N   UNL A   1      36.015  22.633  26.503  1.00  0.00    -0.352 N 
ATOM      4  C   UNL A   1      34.704  23.058  26.437  1.00  0.00     0.253 C 
ATOM      5  O   UNL A   1      33.942  22.755  27.356  1.00  0.00    -0.269 OA
ATOM      6  H   UNL A   1      36.269  22.159  27.328  1.00  0.00     0.163 HD
BRANCH   4   7
ATOM      7  C   UNL A   1      34.213  23.958  25.357  1.00  0.00     0.063 A 
ATOM      8  C   UNL A   1      33.940  23.577  24.034  1.00  0.00     0.048 A 
ATOM      9  C   UNL A   1      33.684  24.601  23.098  1.00  0.00     0.035 A 
ATOM     10  C   UNL A   1      33.626  25.962  23.459  1.00  0.00    -0.016 A 
ATOM     11  C   UNL A   1      34.084  25.311  25.743  1.00  0.00     0.024 A 
ATOM     12  C   UNL A   1      33.401  26.972  22.508  1.00  0.00     0.009 A 
ATOM     13  C   UNL A   1      33.784  26.316  24.812  1.00  0.00    -0.017 A 
ATOM     14  C   UNL A   1      33.302  28.311  22.894  1.00  0.00     0.001 A 
ATOM     15  C   UNL A   1      33.653  27.665  25.190  1.00  0.00     0.009 A 
ATOM     16  C   UNL A   1      33.412  28.655  24.236  1.00  0.00     0.001 A 
BRANCH   8  17
ATOM     17  N   UNL A   1      33.798  22.260  23.585  1.00  0.00    -0.382 N 
ATOM     18  H   UNL A   1      34.554  21.803  23.150  1.00  0.00     0.160 HD
BRANCH  17  19
ATOM     19  C   UNL A   1      32.519  21.558  23.762  1.00  0.00     0.073 C 
ATOM     20  C   UNL A   1      32.018  21.124  22.379  1.00  0.00     0.030 C 
ATOM     21  C   UNL A   1      32.682  20.307  24.618  1.00  0.00     0.030 C 
ENDBRANCH  17  19
ENDBRANCH   8  17
ENDBRANCH   4   7
ENDBRANCH   2   3
ENDBRANCH   1   2
BRANCH   1  22
ATOM     22  C   UNL A   1      37.857  20.354  25.000  1.00  0.00     0.023 C 
BRANCH  22  23
ATOM     23  C   UNL A   1      39.117  20.466  25.858  1.00  0.00     0.116 C 
BRANCH  23  24
ATOM     24  N   UNL A   1      40.028  19.337  25.763  1.00  0.00    -0.352 N 
ATOM     25  C   UNL A   1      41.382  19.273  26.009  1.00  0.00     0.251 C 
ATOM     26  H   UNL A   1      39.615  18.489  25.480  1.00  0.00     0.163 HD
ATOM     27  O   UNL A   1      41.983  18.212  25.864  1.00  0.00    -0.269 OA
BRANCH  25  28
ATOM     28  C   UNL A   1      42.136  20.490  26.389  1.00  0.00     0.039 A 
ATOM     29  C   UNL A   1      42.802  21.202  25.386  1.00  0.00     0.014 A 
ATOM     30  C   UNL A   1      42.171  20.948  27.710  1.00  0.00     0.014 A 
ATOM     31  C   UNL A   1      43.404  22.428  25.685  1.00  0.00     0.010 A 
ATOM     32  C   UNL A   1      42.730  22.196  27.997  1.00  0.00     0.010 A 
ATOM     33  C   UNL A   1      43.323  22.964  26.980  1.00  0.00    -0.014 A 
BRANCH  33  34
ATOM     34  C   UNL A   1      43.764  24.358  27.260  1.00  0.00     0.031 A 
ATOM     35  C   UNL A   1      42.782  25.424  27.655  1.00  0.00     0.074 A 
ATOM     36  C   UNL A   1      45.060  24.684  27.078  1.00  0.00     0.049 A 
ATOM     37  N   UNL A   1      42.993  26.697  27.883  1.00  0.00    -0.248 NA
ATOM     38  C   UNL A   1      41.377  25.014  27.790  1.00  0.00     0.031 C 
ATOM     39  C   UNL A   1      46.110  23.761  26.638  1.00  0.00     0.029 A 
ATOM     40  N   UNL A   1      45.714  25.883  27.224  1.00  0.00    -0.354 N 
ATOM     41  C   UNL A   1      41.751  27.242  28.178  1.00  0.00     0.074 A 
ATOM     42  C   UNL A   1      40.785  26.169  28.063  1.00  0.00     0.031 C 
ATOM     43  C   UNL A   1      47.274  24.424  26.562  1.00  0.00     0.029 A 
ATOM     44  C   UNL A   1      47.052  25.822  26.917  1.00  0.00     0.049 A 
ATOM     45  H   UNL A   1      45.266  26.707  27.520  1.00  0.00     0.167 HD
ATOM     46  C   UNL A   1      41.446  28.515  28.527  1.00  0.00     0.037 A 
ATOM     47  C   UNL A   1      47.995  26.783  26.911  1.00  0.00     0.037 A 
ATOM     48  C   UNL A   1      42.405  29.581  28.661  1.00  0.00     0.049 A 
ATOM     49  C   UNL A   1      47.630  28.185  27.309  1.00  0.00     0.074 A 
ATOM     50  C   UNL A   1      42.193  30.883  29.085  1.00  0.00     0.029 A 
ATOM     51  N   UNL A   1      43.755  29.474  28.366  1.00  0.00    -0.354 N 
ATOM     52  N   UNL A   1      46.466  28.663  27.670  1.00  0.00    -0.248 NA
ATOM     53  C   UNL A   1      48.715  29.178  27.306  1.00  0.00     0.031 C 
ATOM     54  C   UNL A   1      43.407  31.574  29.008  1.00  0.00     0.029 A 
ATOM     55  C   UNL A   1      44.384  30.692  28.577  1.00  0.00     0.049 A 
ATOM     56  H   UNL A   1      44.202  28.654  28.055  1.00  0.00     0.167 HD
ATOM     57  C   UNL A   1      46.680  30.005  27.960  1.00  0.00     0.074 A 
ATOM     58  C   UNL A   1      48.088  30.261  27.747  1.00  0.00     0.031 C 
ATOM     59  C   UNL A   1      45.786  30.940  28.364  1.00  0.00     0.037 A 
BRANCH  46  60
ATOM     60  C   UNL A   1      40.003  28.831  28.795  1.00  0.00     0.057 A 
ATOM     61  C   UNL A   1      39.126  29.196  27.766  1.00  0.00     0.134 A 
ATOM     62  C   UNL A   1      39.473  28.716  30.087  1.00  0.00     0.134 A 
ATOM     63  F   UNL A   1      39.573  29.330  26.508  1.00  0.00    -0.206 F 
ATOM     64  C   UNL A   1      37.778  29.457  28.015  1.00  0.00     0.040 A 
ATOM     65  C   UNL A   1      38.121  28.951  30.343  1.00  0.00     0.040 A 
ATOM     66  F   UNL A   1      40.257  28.360  31.116  1.00  0.00    -0.206 F 
ATOM     67  C   UNL A   1      37.271  29.328  29.306  1.00  0.00     0.006 A 
ENDBRANCH  46  60
BRANCH  47  68
ATOM     68  C   UNL A   1      49.390  26.450  26.529  1.00  0.00     0.057 A 
ATOM     69  C   UNL A   1      49.852  26.665  25.226  1.00  0.00     0.134 A 
ATOM     70  C   UNL A   1      50.289  25.900  27.451  1.00  0.00     0.134 A 
ATOM     71  F   UNL A   1      49.030  27.171  24.294  1.00  0.00    -0.206 F 
ATOM     72  C   UNL A   1      51.151  26.327  24.846  1.00  0.00     0.040 A 
ATOM     73  C   UNL A   1      51.598  25.578  27.091  1.00  0.00     0.040 A 
ATOM     74  F   UNL A   1      49.908  25.676  28.717  1.00  0.00    -0.206 F 
ATOM     75  C   UNL A   1      52.030  25.786  25.782  1.00  0.00     0.006 A 
ENDBRANCH  47  68
BRANCH  59  76
ATOM     76  C   UNL A   1      46.310  32.320  28.630  1.00  0.00     0.057 A 
ATOM     77  C   UNL A   1      46.331  33.306  27.635  1.00  0.00     0.134 A 
ATOM     78  C   UNL A   1      46.771  32.677  29.904  1.00  0.00     0.134 A 
ATOM     79  F   UNL A   1      45.918  33.023  26.390  1.00  0.00    -0.206 F 
ATOM     80  C   UNL A   1      46.811  34.591  27.892  1.00  0.00     0.040 A 
ATOM     81  C   UNL A   1      47.230  33.966  30.179  1.00  0.00     0.040 A 
ATOM     82  F   UNL A   1      46.772  31.782  30.903  1.00  0.00    -0.206 F 
ATOM     83  C   UNL A   1      47.257  34.926  29.169  1.00  0.00     0.006 A 
ENDBRANCH  59  76
ENDBRANCH  33  34
ENDBRANCH  25  28
ENDBRANCH  23  24
ENDBRANCH  22  23
ENDBRANCH   1  22
TORSDOF 13
ENDMDL
MODEL 3
REMARK VINA RESULT:     -11.1      4.071      8.135
REMARK SMILES CC(C)Nc1cc2ccccc2cc1C(=O)NCCCCNC(=O)c1ccc(-c2c3nc(c(-c4c(F)cccc4F)c4ccc([nH]4)c(-c4c(F)cccc4F)c4nc(c(-c5c(F)cccc5F)c5ccc2[nH]5)C=C4)C=C3)cc1
REMARK SMILES IDX 19 1 18 2 17 3 15 4 16 5 14 7 5 8 6 9 7 10 13 11 8 12 12 13
REMARK SMILES IDX 9 14 11 15 10 16 4 17 2 19 1 20 3 21 20 22 21 23 22 24 23 25
REMARK SMILES IDX 24 27 25 28 26 29 78 30 27 31 77 32 28 33 29 34 30 35 71 36
REMARK SMILES IDX 31 37 76 38 70 39 72 40 32 41 75 42 69 43 68 44 33 46 59 47
REMARK SMILES IDX 42 48 58 49 43 50 46 51 57 52 73 53 44 54 45 55 56 57 74 58
REMARK SMILES IDX 47 59 34 60 35 61 40 62 36 63 37 64 39 65 41 66 38 67 60 68
REMARK SMILES IDX 61 69 66 70 62 71 63 72 65 73 67 74 64 75 48 76 49 77 54 78
REMARK SMILES IDX 50 79 51 80 53 81 55 82 52 83
REMARK H PARENT 17 6 4 18 22 26 72 45 46 56
REMARK Flexibility Score: inf
ROOT
ATOM      1  C   UNL A   1      31.972  30.151  26.861  1.00  0.00     0.023 C 
ENDROOT
BRANCH   1   2
ATOM      2  C   UNL A   1      33.375  29.650  26.531  1.00  0.00     0.116 C 
BRANCH   2   3
ATOM      3  N   UNL A   1      33.652  29.499  25.117  1.00  0.00    -0.352 N 
ATOM      4  C   UNL A   1      33.425  28.407  24.305  1.00  0.00     0.253 C 
ATOM      5  O   UNL A   1      33.663  28.511  23.101  1.00  0.00    -0.269 OA
ATOM      6  H   UNL A   1      34.054  30.282  24.676  1.00  0.00     0.163 HD
BRANCH   4   7
ATOM      7  C   UNL A   1      33.014  27.083  24.850  1.00  0.00     0.063 A 
ATOM      8  C   UNL A   1      31.715  26.729  25.249  1.00  0.00     0.048 A 
ATOM      9  C   UNL A   1      31.552  25.506  25.933  1.00  0.00     0.035 A 
ATOM     10  C   UNL A   1      32.620  24.616  26.161  1.00  0.00    -0.016 A 
ATOM     11  C   UNL A   1      34.076  26.165  25.008  1.00  0.00     0.024 A 
ATOM     12  C   UNL A   1      32.445  23.416  26.872  1.00  0.00     0.009 A 
ATOM     13  C   UNL A   1      33.892  24.931  25.649  1.00  0.00    -0.017 A 
ATOM     14  C   UNL A   1      33.508  22.525  27.048  1.00  0.00     0.001 A 
ATOM     15  C   UNL A   1      34.946  24.013  25.808  1.00  0.00     0.009 A 
ATOM     16  C   UNL A   1      34.753  22.816  26.502  1.00  0.00     0.001 A 
BRANCH   8  17
ATOM     17  N   UNL A   1      30.551  27.438  24.935  1.00  0.00    -0.382 N 
ATOM     18  H   UNL A   1      30.166  28.067  25.586  1.00  0.00     0.160 HD
BRANCH  17  19
ATOM     19  C   UNL A   1      29.903  27.243  23.629  1.00  0.00     0.073 C 
ATOM     20  C   UNL A   1      28.490  26.703  23.876  1.00  0.00     0.030 C 
ATOM     21  C   UNL A   1      29.779  28.557  22.866  1.00  0.00     0.030 C 
ENDBRANCH  17  19
ENDBRANCH   8  17
ENDBRANCH   4   7
ENDBRANCH   2   3
ENDBRANCH   1   2
BRANCH   1  22
ATOM     22  C   UNL A   1      31.736  31.664  26.807  1.00  0.00     0.023 C 
BRANCH  22  23
ATOM     23  C   UNL A   1      32.865  32.593  27.251  1.00  0.00     0.116 C 
BRANCH  23  24
ATOM     24  N   UNL A   1      32.445  33.934  27.626  1.00  0.00    -0.352 N 
ATOM     25  C   UNL A   1      33.015  34.820  28.514  1.00  0.00     0.251 C 
ATOM     26  H   UNL A   1      31.631  34.258  27.178  1.00  0.00     0.163 HD
ATOM     27  O   UNL A   1      32.500  35.920  28.700  1.00  0.00    -0.269 OA
BRANCH  25  28
ATOM     28  C   UNL A   1      34.214  34.437  29.294  1.00  0.00     0.039 A 
ATOM     29  C   UNL A   1      34.033  33.888  30.568  1.00  0.00     0.014 A 
ATOM     30  C   UNL A   1      35.505  34.587  28.779  1.00  0.00     0.014 A 
ATOM     31  C   UNL A   1      35.130  33.387  31.274  1.00  0.00     0.010 A 
ATOM     32  C   UNL A   1      36.594  34.041  29.462  1.00  0.00     0.010 A 
ATOM     33  C   UNL A   1      36.413  33.406  30.702  1.00  0.00    -0.014 A 
BRANCH  33  34
ATOM     34  C   UNL A   1      37.546  32.683  31.342  1.00  0.00     0.031 A 
ATOM     35  C   UNL A   1      38.215  31.521  30.664  1.00  0.00     0.074 A 
ATOM     36  C   UNL A   1      37.925  33.032  32.589  1.00  0.00     0.049 A 
ATOM     37  N   UNL A   1      39.179  30.752  31.105  1.00  0.00    -0.248 NA
ATOM     38  C   UNL A   1      37.723  31.163  29.326  1.00  0.00     0.031 C 
ATOM     39  C   UNL A   1      37.321  34.101  33.387  1.00  0.00     0.029 A 
ATOM     40  N   UNL A   1      38.896  32.514  33.410  1.00  0.00    -0.354 N 
ATOM     41  C   UNL A   1      39.404  29.814  30.107  1.00  0.00     0.074 A 
ATOM     42  C   UNL A   1      38.449  30.087  29.053  1.00  0.00     0.031 C 
ATOM     43  C   UNL A   1      37.943  34.167  34.575  1.00  0.00     0.029 A 
ATOM     44  C   UNL A   1      38.966  33.129  34.637  1.00  0.00     0.049 A 
ATOM     45  H   UNL A   1      39.487  31.773  33.144  1.00  0.00     0.167 HD
ATOM     46  C   UNL A   1      40.331  28.825  30.066  1.00  0.00     0.037 A 
ATOM     47  C   UNL A   1      39.757  32.883  35.698  1.00  0.00     0.037 A 
ATOM     48  C   UNL A   1      41.294  28.562  31.104  1.00  0.00     0.049 A 
ATOM     49  C   UNL A   1      40.781  31.785  35.624  1.00  0.00     0.074 A 
ATOM     50  C   UNL A   1      42.320  27.629  31.111  1.00  0.00     0.029 A 
ATOM     51  N   UNL A   1      41.350  29.223  32.320  1.00  0.00    -0.354 N 
ATOM     52  N   UNL A   1      41.038  30.963  34.637  1.00  0.00    -0.248 NA
ATOM     53  C   UNL A   1      41.628  31.587  36.809  1.00  0.00     0.031 C 
ATOM     54  C   UNL A   1      42.969  27.699  32.348  1.00  0.00     0.029 A 
ATOM     55  C   UNL A   1      42.376  28.704  33.095  1.00  0.00     0.049 A 
ATOM     56  H   UNL A   1      40.751  29.955  32.594  1.00  0.00     0.167 HD
ATOM     57  C   UNL A   1      42.090  30.167  35.070  1.00  0.00     0.074 A 
ATOM     58  C   UNL A   1      42.434  30.614  36.404  1.00  0.00     0.031 C 
ATOM     59  C   UNL A   1      42.713  29.155  34.420  1.00  0.00     0.037 A 
BRANCH  46  60
ATOM     60  C   UNL A   1      40.351  27.947  28.850  1.00  0.00     0.057 A 
ATOM     61  C   UNL A   1      41.114  28.272  27.721  1.00  0.00     0.134 A 
ATOM     62  C   UNL A   1      39.645  26.738  28.827  1.00  0.00     0.134 A 
ATOM     63  F   UNL A   1      41.809  29.419  27.677  1.00  0.00    -0.206 F 
ATOM     64  C   UNL A   1      41.156  27.436  26.604  1.00  0.00     0.040 A 
ATOM     65  C   UNL A   1      39.698  25.882  27.725  1.00  0.00     0.040 A 
ATOM     66  F   UNL A   1      38.902  26.362  29.880  1.00  0.00    -0.206 F 
ATOM     67  C   UNL A   1      40.452  26.234  26.607  1.00  0.00     0.006 A 
ENDBRANCH  46  60
BRANCH  47  68
ATOM     68  C   UNL A   1      39.627  33.704  36.928  1.00  0.00     0.057 A 
ATOM     69  C   UNL A   1      38.789  33.307  37.976  1.00  0.00     0.134 A 
ATOM     70  C   UNL A   1      40.325  34.908  37.079  1.00  0.00     0.134 A 
ATOM     71  F   UNL A   1      38.079  32.172  37.878  1.00  0.00    -0.206 F 
ATOM     72  C   UNL A   1      38.633  34.086  39.122  1.00  0.00     0.040 A 
ATOM     73  C   UNL A   1      40.196  35.686  38.230  1.00  0.00     0.040 A 
ATOM     74  F   UNL A   1      41.148  35.339  36.113  1.00  0.00    -0.206 F 
ATOM     75  C   UNL A   1      39.342  35.278  39.254  1.00  0.00     0.006 A 
ENDBRANCH  47  68
BRANCH  59  76
ATOM     76  C   UNL A   1      43.849  28.479  35.131  1.00  0.00     0.057 A 
ATOM     77  C   UNL A   1      45.165  28.951  35.034  1.00  0.00     0.134 A 
ATOM     78  C   UNL A   1      43.620  27.363  35.946  1.00  0.00     0.134 A 
ATOM     79  F   UNL A   1      45.453  30.006  34.257  1.00  0.00    -0.206 F 
ATOM     80  C   UNL A   1      46.215  28.323  35.706  1.00  0.00     0.040 A 
ATOM     81  C   UNL A   1      44.659  26.742  36.642  1.00  0.00     0.040 A 
ATOM     82  F   UNL A   1      42.383  26.865  36.087  1.00  0.00    -0.206 F 
ATOM     83  C   UNL A   1      45.962  27.219  36.518  1.00  0.00     0.006 A 
ENDBRANCH  59  76
ENDBRANCH  33  34
ENDBRANCH  25  28
ENDBRANCH  23  24
ENDBRANCH  22  23
ENDBRANCH   1  22
TORSDOF 13
ENDMDL
