MODEL 1
REMARK VINA RESULT:     -11.9      0.000      0.000
REMARK SMILES C[C@H]1CN(S(=O)(=O)N2CCO[C@H](CC(=O)NCCCCNC(=O)c3ccc(-c4c5nc(c(-c6c(F)cccc6F)c6ccc([nH]6)c(-c6c(F)cccc6F)c6nc(c(-c7c(F)cccc7F)c7ccc4[nH]7)C=C6)C=C5)cc3)C2)C[C@H](C)O1
REMARK SMILES IDX 18 1 17 2 16 3 14 4 15 5 13 7 12 8 8 9 9 10 78 11 10 12
REMARK SMILES IDX 11 13 5 14 6 15 7 16 4 17 1 18 2 19 3 20 82 21 80 22 79 23
REMARK SMILES IDX 81 24 19 25 20 26 21 27 22 28 23 30 24 31 25 32 77 33 26 34
REMARK SMILES IDX 76 35 27 36 28 37 29 38 70 39 30 40 75 41 69 42 71 43 31 44
REMARK SMILES IDX 74 45 68 46 67 47 32 49 58 50 41 51 57 52 42 53 45 54 56 55
REMARK SMILES IDX 72 56 43 57 44 58 55 60 73 61 46 62 33 63 34 64 39 65 35 66
REMARK SMILES IDX 36 67 38 68 40 69 37 70 59 71 60 72 65 73 61 74 62 75 64 76
REMARK SMILES IDX 66 77 63 78 47 79 48 80 53 81 49 82 50 83 52 84 54 85 51 86
REMARK H PARENT 16 6 21 29 71 48 45 59
REMARK Flexibility Score: inf
ROOT
ATOM      1  C   UNL A   1      36.895  21.074  24.694  1.00  0.00     0.023 C 
ENDROOT
BRANCH   1   2
ATOM      2  C   UNL A   1      35.784  21.289  25.721  1.00  0.00     0.116 C 
BRANCH   2   3
ATOM      3  N   UNL A   1      34.585  20.521  25.420  1.00  0.00    -0.356 N 
ATOM      4  C   UNL A   1      33.284  20.808  25.710  1.00  0.00     0.222 C 
ATOM      5  O   UNL A   1      32.411  20.014  25.360  1.00  0.00    -0.275 OA
ATOM      6  H   UNL A   1      34.735  19.675  24.939  1.00  0.00     0.163 HD
BRANCH   4   7
ATOM      7  C   UNL A   1      32.939  22.053  26.498  1.00  0.00     0.133 C 
BRANCH   7   8
ATOM      8  C   UNL A   1      32.544  23.159  25.526  1.00  0.00     0.142 C 
ATOM      9  N   UNL A   1      30.750  24.454  24.479  1.00  0.00    -0.184 NA
ATOM     10  C   UNL A   1      31.454  24.344  23.177  1.00  0.00     0.132 C 
ATOM     11  C   UNL A   1      31.024  23.311  25.375  1.00  0.00     0.136 C 
ATOM     12  C   UNL A   1      32.941  24.044  23.375  1.00  0.00     0.177 C 
ATOM     13  O   UNL A   1      33.146  22.910  24.238  1.00  0.00    -0.375 OA
BRANCH   9  14
ATOM     14  S   UNL A   1      30.275  25.936  25.076  1.00  0.00     0.282 S 
ATOM     15  O   UNL A   1      30.096  25.827  26.501  1.00  0.00    -0.195 OA
ATOM     16  O   UNL A   1      29.211  26.411  24.218  1.00  0.00    -0.195 OA
BRANCH  14  17
ATOM     17  N   UNL A   1      31.639  26.926  24.801  1.00  0.00    -0.184 NA
ATOM     18  C   UNL A   1      34.178  28.956  26.876  1.00  0.00     0.040 C 
ATOM     19  C   UNL A   1      33.507  28.306  25.670  1.00  0.00     0.130 C 
ATOM     20  C   UNL A   1      32.203  27.581  26.043  1.00  0.00     0.135 C 
ATOM     21  O   UNL A   1      33.275  29.332  24.692  1.00  0.00    -0.373 OA
ATOM     22  C   UNL A   1      32.617  28.856  23.507  1.00  0.00     0.130 C 
ATOM     23  C   UNL A   1      31.349  28.035  23.817  1.00  0.00     0.135 C 
ATOM     24  C   UNL A   1      33.589  28.116  22.592  1.00  0.00     0.040 C 
ENDBRANCH  14  17
ENDBRANCH   9  14
ENDBRANCH   7   8
ENDBRANCH   4   7
ENDBRANCH   2   3
ENDBRANCH   1   2
BRANCH   1  25
ATOM     25  C   UNL A   1      37.842  19.914  25.001  1.00  0.00     0.023 C 
BRANCH  25  26
ATOM     26  C   UNL A   1      39.099  20.304  25.752  1.00  0.00     0.116 C 
BRANCH  26  27
ATOM     27  N   UNL A   1      40.041  19.202  25.859  1.00  0.00    -0.352 N 
ATOM     28  C   UNL A   1      41.399  19.250  26.060  1.00  0.00     0.251 C 
ATOM     29  H   UNL A   1      39.654  18.301  25.775  1.00  0.00     0.163 HD
ATOM     30  O   UNL A   1      42.079  18.237  25.936  1.00  0.00    -0.269 OA
BRANCH  28  31
ATOM     31  C   UNL A   1      42.038  20.539  26.404  1.00  0.00     0.039 A 
ATOM     32  C   UNL A   1      42.438  21.397  25.376  1.00  0.00     0.014 A 
ATOM     33  C   UNL A   1      42.219  20.906  27.739  1.00  0.00     0.014 A 
ATOM     34  C   UNL A   1      42.963  22.653  25.693  1.00  0.00     0.010 A 
ATOM     35  C   UNL A   1      42.649  22.189  28.049  1.00  0.00     0.010 A 
ATOM     36  C   UNL A   1      43.037  23.072  27.030  1.00  0.00    -0.014 A 
BRANCH  36  37
ATOM     37  C   UNL A   1      43.543  24.415  27.410  1.00  0.00     0.031 A 
ATOM     38  C   UNL A   1      42.571  25.468  27.869  1.00  0.00     0.074 A 
ATOM     39  C   UNL A   1      44.845  24.718  27.249  1.00  0.00     0.049 A 
ATOM     40  N   UNL A   1      42.772  26.742  28.092  1.00  0.00    -0.248 NA
ATOM     41  C   UNL A   1      41.177  25.036  28.068  1.00  0.00     0.031 C 
ATOM     42  C   UNL A   1      45.880  23.794  26.782  1.00  0.00     0.029 A 
ATOM     43  N   UNL A   1      45.518  25.899  27.441  1.00  0.00    -0.354 N 
ATOM     44  C   UNL A   1      41.530  27.264  28.430  1.00  0.00     0.074 A 
ATOM     45  C   UNL A   1      40.572  26.185  28.328  1.00  0.00     0.031 C 
ATOM     46  C   UNL A   1      47.057  24.439  26.735  1.00  0.00     0.029 A 
ATOM     47  C   UNL A   1      46.852  25.833  27.117  1.00  0.00     0.049 A 
ATOM     48  H   UNL A   1      45.085  26.717  27.779  1.00  0.00     0.167 HD
ATOM     49  C   UNL A   1      41.219  28.525  28.813  1.00  0.00     0.037 A 
ATOM     50  C   UNL A   1      47.796  26.793  27.107  1.00  0.00     0.037 A 
ATOM     51  C   UNL A   1      42.183  29.586  28.937  1.00  0.00     0.049 A 
ATOM     52  C   UNL A   1      47.422  28.194  27.509  1.00  0.00     0.074 A 
ATOM     53  C   UNL A   1      41.982  30.884  29.372  1.00  0.00     0.029 A 
ATOM     54  N   UNL A   1      43.529  29.471  28.622  1.00  0.00    -0.354 N 
ATOM     55  N   UNL A   1      46.255  28.663  27.883  1.00  0.00    -0.248 NA
ATOM     56  C   UNL A   1      48.493  29.201  27.488  1.00  0.00     0.031 C 
ATOM     57  C   UNL A   1      43.195  31.570  29.267  1.00  0.00     0.029 A 
ATOM     58  C   UNL A   1      44.164  30.683  28.828  1.00  0.00     0.049 A 
ATOM     59  H   UNL A   1      43.966  28.650  28.300  1.00  0.00     0.167 HD
ATOM     60  C   UNL A   1      46.461  30.005  28.179  1.00  0.00     0.074 A 
ATOM     61  C   UNL A   1      47.863  30.275  27.944  1.00  0.00     0.031 C 
ATOM     62  C   UNL A   1      45.568  30.929  28.610  1.00  0.00     0.037 A 
BRANCH  49  63
ATOM     63  C   UNL A   1      39.780  28.825  29.119  1.00  0.00     0.057 A 
ATOM     64  C   UNL A   1      38.885  29.253  28.129  1.00  0.00     0.134 A 
ATOM     65  C   UNL A   1      39.274  28.652  30.413  1.00  0.00     0.134 A 
ATOM     66  F   UNL A   1      39.305  29.450  26.870  1.00  0.00    -0.206 F 
ATOM     67  C   UNL A   1      37.548  29.527  28.422  1.00  0.00     0.040 A 
ATOM     68  C   UNL A   1      37.932  28.892  30.712  1.00  0.00     0.040 A 
ATOM     69  F   UNL A   1      40.073  28.239  31.409  1.00  0.00    -0.206 F 
ATOM     70  C   UNL A   1      37.067  29.339  29.716  1.00  0.00     0.006 A 
ENDBRANCH  49  63
BRANCH  50  71
ATOM     71  C   UNL A   1      49.190  26.464  26.710  1.00  0.00     0.057 A 
ATOM     72  C   UNL A   1      49.632  26.663  25.397  1.00  0.00     0.134 A 
ATOM     73  C   UNL A   1      50.110  25.937  27.625  1.00  0.00     0.134 A 
ATOM     74  F   UNL A   1      48.795  27.149  24.469  1.00  0.00    -0.206 F 
ATOM     75  C   UNL A   1      50.929  26.329  25.002  1.00  0.00     0.040 A 
ATOM     76  C   UNL A   1      51.418  25.625  27.250  1.00  0.00     0.040 A 
ATOM     77  F   UNL A   1      49.754  25.730  28.901  1.00  0.00    -0.206 F 
ATOM     78  C   UNL A   1      51.828  25.812  25.931  1.00  0.00     0.006 A 
ENDBRANCH  50  71
BRANCH  62  79
ATOM     79  C   UNL A   1      46.081  32.306  28.915  1.00  0.00     0.057 A 
ATOM     80  C   UNL A   1      46.137  33.311  27.943  1.00  0.00     0.134 A 
ATOM     81  C   UNL A   1      46.444  32.650  30.225  1.00  0.00     0.134 A 
ATOM     82  F   UNL A   1      45.814  33.045  26.668  1.00  0.00    -0.206 F 
ATOM     83  C   UNL A   1      46.546  34.607  28.260  1.00  0.00     0.040 A 
ATOM     84  C   UNL A   1      46.826  33.949  30.559  1.00  0.00     0.040 A 
ATOM     85  F   UNL A   1      46.402  31.736  31.206  1.00  0.00    -0.206 F 
ATOM     86  C   UNL A   1      46.879  34.932  29.574  1.00  0.00     0.006 A 
ENDBRANCH  62  79
ENDBRANCH  36  37
ENDBRANCH  28  31
ENDBRANCH  26  27
ENDBRANCH  25  26
ENDBRANCH   1  25
TORSDOF 14
ENDMDL
MODEL 2
REMARK VINA RESULT:     -11.7      5.135     10.477
REMARK SMILES C[C@H]1CN(S(=O)(=O)N2CCO[C@H](CC(=O)NCCCCNC(=O)c3ccc(-c4c5nc(c(-c6c(F)cccc6F)c6ccc([nH]6)c(-c6c(F)cccc6F)c6nc(c(-c7c(F)cccc7F)c7ccc4[nH]7)C=C6)C=C5)cc3)C2)C[C@H](C)O1
REMARK SMILES IDX 18 1 17 2 16 3 14 4 15 5 13 7 12 8 8 9 9 10 78 11 10 12
REMARK SMILES IDX 11 13 5 14 6 15 7 16 4 17 1 18 2 19 3 20 82 21 80 22 79 23
REMARK SMILES IDX 81 24 19 25 20 26 21 27 22 28 23 30 24 31 25 32 77 33 26 34
REMARK SMILES IDX 76 35 27 36 28 37 29 38 70 39 30 40 75 41 69 42 71 43 31 44
REMARK SMILES IDX 74 45 68 46 67 47 32 49 58 50 41 51 57 52 42 53 45 54 56 55
REMARK SMILES IDX 72 56 43 57 44 58 55 60 73 61 46 62 33 63 34 64 39 65 35 66
REMARK SMILES IDX 36 67 38 68 40 69 37 70 59 71 60 72 65 73 61 74 62 75 64 76
REMARK SMILES IDX 66 77 63 78 47 79 48 80 53 81 49 82 50 83 52 84 54 85 51 86
REMARK H PARENT 16 6 21 29 71 48 45 59
REMARK Flexibility Score: inf
ROOT
ATOM      1  C   UNL A   1      31.777  30.400  26.855  1.00  0.00     0.023 C 
ENDROOT
BRANCH   1   2
ATOM      2  C   UNL A   1      32.774  29.836  25.841  1.00  0.00     0.116 C 
BRANCH   2   3
ATOM      3  N   UNL A   1      32.203  29.702  24.510  1.00  0.00    -0.356 N 
ATOM      4  C   UNL A   1      32.522  28.817  23.523  1.00  0.00     0.222 C 
ATOM      5  O   UNL A   1      31.909  28.873  22.456  1.00  0.00    -0.275 OA
ATOM      6  H   UNL A   1      31.486  30.340  24.291  1.00  0.00     0.163 HD
BRANCH   4   7
ATOM      7  C   UNL A   1      33.650  27.827  23.725  1.00  0.00     0.133 C 
BRANCH   7   8
ATOM      8  C   UNL A   1      33.055  26.446  23.978  1.00  0.00     0.142 C 
ATOM      9  N   UNL A   1      32.116  24.392  23.036  1.00  0.00    -0.184 NA
ATOM     10  C   UNL A   1      31.071  24.407  24.091  1.00  0.00     0.132 C 
ATOM     11  C   UNL A   1      32.598  25.745  22.691  1.00  0.00     0.136 C 
ATOM     12  C   UNL A   1      31.511  25.243  25.295  1.00  0.00     0.177 C 
ATOM     13  O   UNL A   1      31.950  26.556  24.900  1.00  0.00    -0.375 OA
BRANCH   9  14
ATOM     14  S   UNL A   1      33.053  23.038  22.776  1.00  0.00     0.282 S 
ATOM     15  O   UNL A   1      34.014  23.330  21.743  1.00  0.00    -0.195 OA
ATOM     16  O   UNL A   1      32.145  21.916  22.664  1.00  0.00    -0.195 OA
BRANCH  14  17
ATOM     17  N   UNL A   1      33.909  22.864  24.244  1.00  0.00    -0.184 NA
ATOM     18  C   UNL A   1      37.402  23.703  25.646  1.00  0.00     0.040 C 
ATOM     19  C   UNL A   1      35.952  23.233  25.601  1.00  0.00     0.130 C 
ATOM     20  C   UNL A   1      35.358  23.297  24.183  1.00  0.00     0.135 C 
ATOM     21  O   UNL A   1      35.907  21.897  26.127  1.00  0.00    -0.373 OA
ATOM     22  C   UNL A   1      34.592  21.320  26.115  1.00  0.00     0.130 C 
ATOM     23  C   UNL A   1      33.901  21.438  24.742  1.00  0.00     0.135 C 
ATOM     24  C   UNL A   1      33.736  21.865  27.255  1.00  0.00     0.040 C 
ENDBRANCH  14  17
ENDBRANCH   9  14
ENDBRANCH   7   8
ENDBRANCH   4   7
ENDBRANCH   2   3
ENDBRANCH   1   2
BRANCH   1  25
ATOM     25  C   UNL A   1      31.607  31.918  26.816  1.00  0.00     0.023 C 
BRANCH  25  26
ATOM     26  C   UNL A   1      32.827  32.705  27.252  1.00  0.00     0.116 C 
BRANCH  26  27
ATOM     27  N   UNL A   1      32.508  34.088  27.564  1.00  0.00    -0.352 N 
ATOM     28  C   UNL A   1      33.044  34.894  28.540  1.00  0.00     0.251 C 
ATOM     29  H   UNL A   1      31.816  34.503  27.001  1.00  0.00     0.163 HD
ATOM     30  O   UNL A   1      32.531  35.978  28.797  1.00  0.00    -0.269 OA
BRANCH  28  31
ATOM     31  C   UNL A   1      34.228  34.431  29.296  1.00  0.00     0.039 A 
ATOM     32  C   UNL A   1      34.047  33.814  30.536  1.00  0.00     0.014 A 
ATOM     33  C   UNL A   1      35.510  34.589  28.767  1.00  0.00     0.014 A 
ATOM     34  C   UNL A   1      35.153  33.296  31.215  1.00  0.00     0.010 A 
ATOM     35  C   UNL A   1      36.594  33.990  29.396  1.00  0.00     0.010 A 
ATOM     36  C   UNL A   1      36.429  33.348  30.633  1.00  0.00    -0.014 A 
BRANCH  36  37
ATOM     37  C   UNL A   1      37.624  32.770  31.296  1.00  0.00     0.031 A 
ATOM     38  C   UNL A   1      38.305  31.576  30.683  1.00  0.00     0.074 A 
ATOM     39  C   UNL A   1      38.034  33.247  32.488  1.00  0.00     0.049 A 
ATOM     40  N   UNL A   1      39.254  30.821  31.173  1.00  0.00    -0.248 NA
ATOM     41  C   UNL A   1      37.827  31.155  29.356  1.00  0.00     0.031 C 
ATOM     42  C   UNL A   1      37.437  34.378  33.200  1.00  0.00     0.029 A 
ATOM     43  N   UNL A   1      39.037  32.823  33.322  1.00  0.00    -0.354 N 
ATOM     44  C   UNL A   1      39.467  29.825  30.228  1.00  0.00     0.074 A 
ATOM     45  C   UNL A   1      38.511  30.037  29.164  1.00  0.00     0.031 C 
ATOM     46  C   UNL A   1      38.092  34.565  34.357  1.00  0.00     0.029 A 
ATOM     47  C   UNL A   1      39.120  33.538  34.493  1.00  0.00     0.049 A 
ATOM     48  H   UNL A   1      39.642  32.076  33.103  1.00  0.00     0.167 HD
ATOM     49  C   UNL A   1      40.390  28.836  30.236  1.00  0.00     0.037 A 
ATOM     50  C   UNL A   1      39.918  33.369  35.564  1.00  0.00     0.037 A 
ATOM     51  C   UNL A   1      41.355  28.647  31.286  1.00  0.00     0.049 A 
ATOM     52  C   UNL A   1      40.919  32.244  35.564  1.00  0.00     0.074 A 
ATOM     53  C   UNL A   1      42.371  27.711  31.364  1.00  0.00     0.029 A 
ATOM     54  N   UNL A   1      41.420  29.408  32.444  1.00  0.00    -0.354 N 
ATOM     55  N   UNL A   1      41.149  31.343  34.638  1.00  0.00    -0.248 NA
ATOM     56  C   UNL A   1      41.771  32.110  36.755  1.00  0.00     0.031 C 
ATOM     57  C   UNL A   1      43.015  27.869  32.593  1.00  0.00     0.029 A 
ATOM     58  C   UNL A   1      42.443  28.944  33.253  1.00  0.00     0.049 A 
ATOM     59  H   UNL A   1      40.828  30.164  32.658  1.00  0.00     0.167 HD
ATOM     60  C   UNL A   1      42.195  30.564  35.116  1.00  0.00     0.074 A 
ATOM     61  C   UNL A   1      42.556  31.098  36.412  1.00  0.00     0.031 C 
ATOM     62  C   UNL A   1      42.803  29.503  34.533  1.00  0.00     0.037 A 
BRANCH  49  63
ATOM     63  C   UNL A   1      40.396  27.879  29.078  1.00  0.00     0.057 A 
ATOM     64  C   UNL A   1      41.164  28.110  27.929  1.00  0.00     0.134 A 
ATOM     65  C   UNL A   1      39.651  26.694  29.127  1.00  0.00     0.134 A 
ATOM     66  F   UNL A   1      41.893  29.231  27.811  1.00  0.00    -0.206 F 
ATOM     67  C   UNL A   1      41.165  27.215  26.858  1.00  0.00     0.040 A 
ATOM     68  C   UNL A   1      39.670  25.775  28.076  1.00  0.00     0.040 A 
ATOM     69  F   UNL A   1      38.899  26.405  30.199  1.00  0.00    -0.206 F 
ATOM     70  C   UNL A   1      40.422  26.039  26.934  1.00  0.00     0.006 A 
ENDBRANCH  49  63
BRANCH  50  71
ATOM     71  C   UNL A   1      39.813  34.289  36.727  1.00  0.00     0.057 A 
ATOM     72  C   UNL A   1      39.038  33.955  37.843  1.00  0.00     0.134 A 
ATOM     73  C   UNL A   1      40.472  35.524  36.749  1.00  0.00     0.134 A 
ATOM     74  F   UNL A   1      38.367  32.794  37.877  1.00  0.00    -0.206 F 
ATOM     75  C   UNL A   1      38.903  34.823  38.928  1.00  0.00     0.040 A 
ATOM     76  C   UNL A   1      40.370  36.389  37.839  1.00  0.00     0.040 A 
ATOM     77  F   UNL A   1      41.238  35.901  35.715  1.00  0.00    -0.206 F 
ATOM     78  C   UNL A   1      39.574  36.043  38.930  1.00  0.00     0.006 A 
ENDBRANCH  50  71
BRANCH  62  79
ATOM     79  C   UNL A   1      43.962  28.879  35.254  1.00  0.00     0.057 A 
ATOM     80  C   UNL A   1      45.276  29.324  35.075  1.00  0.00     0.134 A 
ATOM     81  C   UNL A   1      43.742  27.871  36.203  1.00  0.00     0.134 A 
ATOM     82  F   UNL A   1      45.556  30.278  34.174  1.00  0.00    -0.206 F 
ATOM     83  C   UNL A   1      46.334  28.783  35.809  1.00  0.00     0.040 A 
ATOM     84  C   UNL A   1      44.787  27.343  36.963  1.00  0.00     0.040 A 
ATOM     85  F   UNL A   1      42.504  27.406  36.430  1.00  0.00    -0.206 F 
ATOM     86  C   UNL A   1      46.088  27.799  36.765  1.00  0.00     0.006 A 
ENDBRANCH  62  79
ENDBRANCH  36  37
ENDBRANCH  28  31
ENDBRANCH  26  27
ENDBRANCH  25  26
ENDBRANCH   1  25
TORSDOF 14
ENDMDL
MODEL 3
REMARK VINA RESULT:     -11.7      4.792     10.204
REMARK SMILES C[C@H]1CN(S(=O)(=O)N2CCO[C@H](CC(=O)NCCCCNC(=O)c3ccc(-c4c5nc(c(-c6c(F)cccc6F)c6ccc([nH]6)c(-c6c(F)cccc6F)c6nc(c(-c7c(F)cccc7F)c7ccc4[nH]7)C=C6)C=C5)cc3)C2)C[C@H](C)O1
REMARK SMILES IDX 18 1 17 2 16 3 14 4 15 5 13 7 12 8 8 9 9 10 78 11 10 12
REMARK SMILES IDX 11 13 5 14 6 15 7 16 4 17 1 18 2 19 3 20 82 21 80 22 79 23
REMARK SMILES IDX 81 24 19 25 20 26 21 27 22 28 23 30 24 31 25 32 77 33 26 34
REMARK SMILES IDX 76 35 27 36 28 37 29 38 70 39 30 40 75 41 69 42 71 43 31 44
REMARK SMILES IDX 74 45 68 46 67 47 32 49 58 50 41 51 57 52 42 53 45 54 56 55
REMARK SMILES IDX 72 56 43 57 44 58 55 60 73 61 46 62 33 63 34 64 39 65 35 66
REMARK SMILES IDX 36 67 38 68 40 69 37 70 59 71 60 72 65 73 61 74 62 75 64 76
REMARK SMILES IDX 66 77 63 78 47 79 48 80 53 81 49 82 50 83 52 84 54 85 51 86
REMARK H PARENT 16 6 21 29 71 48 45 59
REMARK Flexibility Score: inf
ROOT
ATOM      1  C   UNL A   1      30.889  31.076  25.373  1.00  0.00     0.023 C 
ENDROOT
BRANCH   1   2
ATOM      2  C   UNL A   1      31.598  29.753  25.084  1.00  0.00     0.116 C 
BRANCH   2   3
ATOM      3  N   UNL A   1      31.357  29.271  23.733  1.00  0.00    -0.356 N 
ATOM      4  C   UNL A   1      30.689  28.154  23.324  1.00  0.00     0.222 C 
ATOM      5  O   UNL A   1      30.597  27.928  22.117  1.00  0.00    -0.275 OA
ATOM      6  H   UNL A   1      31.728  29.830  23.012  1.00  0.00     0.163 HD
BRANCH   4   7
ATOM      7  C   UNL A   1      30.127  27.189  24.346  1.00  0.00     0.133 C 
BRANCH   7   8
ATOM      8  C   UNL A   1      31.166  26.110  24.629  1.00  0.00     0.142 C 
ATOM      9  N   UNL A   1      32.318  24.730  26.289  1.00  0.00    -0.184 NA
ATOM     10  C   UNL A   1      33.598  24.971  25.575  1.00  0.00     0.132 C 
ATOM     11  C   UNL A   1      31.357  25.840  26.128  1.00  0.00     0.136 C 
ATOM     12  C   UNL A   1      33.353  25.384  24.123  1.00  0.00     0.177 C 
ATOM     13  O   UNL A   1      32.425  26.481  24.029  1.00  0.00    -0.375 OA
BRANCH   9  14
ATOM     14  S   UNL A   1      31.814  23.182  26.646  1.00  0.00     0.282 S 
ATOM     15  O   UNL A   1      30.454  23.023  26.198  1.00  0.00    -0.195 OA
ATOM     16  O   UNL A   1      32.188  22.926  28.020  1.00  0.00    -0.195 OA
BRANCH  14  17
ATOM     17  N   UNL A   1      32.802  22.207  25.652  1.00  0.00    -0.184 NA
ATOM     18  C   UNL A   1      32.438  19.078  23.427  1.00  0.00     0.040 C 
ATOM     19  C   UNL A   1      33.068  20.297  24.093  1.00  0.00     0.130 C 
ATOM     20  C   UNL A   1      32.113  20.986  25.083  1.00  0.00     0.135 C 
ATOM     21  O   UNL A   1      34.275  19.866  24.742  1.00  0.00    -0.373 OA
ATOM     22  C   UNL A   1      34.959  20.921  25.438  1.00  0.00     0.130 C 
ATOM     23  C   UNL A   1      34.031  21.715  26.379  1.00  0.00     0.135 C 
ATOM     24  C   UNL A   1      35.726  21.818  24.470  1.00  0.00     0.040 C 
ENDBRANCH  14  17
ENDBRANCH   9  14
ENDBRANCH   7   8
ENDBRANCH   4   7
ENDBRANCH   2   3
ENDBRANCH   1   2
BRANCH   1  25
ATOM     25  C   UNL A   1      31.182  31.679  26.746  1.00  0.00     0.023 C 
BRANCH  25  26
ATOM     26  C   UNL A   1      32.510  32.403  26.850  1.00  0.00     0.116 C 
BRANCH  26  27
ATOM     27  N   UNL A   1      32.361  33.755  27.363  1.00  0.00    -0.352 N 
ATOM     28  C   UNL A   1      33.083  34.385  28.348  1.00  0.00     0.251 C 
ATOM     29  H   UNL A   1      31.647  34.291  26.949  1.00  0.00     0.163 HD
ATOM     30  O   UNL A   1      32.708  35.463  28.796  1.00  0.00    -0.269 OA
BRANCH  28  31
ATOM     31  C   UNL A   1      34.302  33.739  28.881  1.00  0.00     0.039 A 
ATOM     32  C   UNL A   1      35.553  34.273  28.562  1.00  0.00     0.014 A 
ATOM     33  C   UNL A   1      34.205  32.622  29.713  1.00  0.00     0.014 A 
ATOM     34  C   UNL A   1      36.704  33.722  29.132  1.00  0.00     0.010 A 
ATOM     35  C   UNL A   1      35.338  32.138  30.353  1.00  0.00     0.010 A 
ATOM     36  C   UNL A   1      36.601  32.675  30.060  1.00  0.00    -0.014 A 
BRANCH  36  37
ATOM     37  C   UNL A   1      37.792  32.090  30.726  1.00  0.00     0.031 A 
ATOM     38  C   UNL A   1      38.564  31.000  30.034  1.00  0.00     0.074 A 
ATOM     39  C   UNL A   1      38.117  32.462  31.979  1.00  0.00     0.049 A 
ATOM     40  N   UNL A   1      39.528  30.245  30.496  1.00  0.00    -0.248 NA
ATOM     41  C   UNL A   1      38.175  30.695  28.647  1.00  0.00     0.031 C 
ATOM     42  C   UNL A   1      37.427  33.484  32.768  1.00  0.00     0.029 A 
ATOM     43  N   UNL A   1      39.100  32.003  32.820  1.00  0.00    -0.354 N 
ATOM     44  C   UNL A   1      39.839  29.362  29.469  1.00  0.00     0.074 A 
ATOM     45  C   UNL A   1      38.925  29.637  28.382  1.00  0.00     0.031 C 
ATOM     46  C   UNL A   1      38.014  33.583  33.971  1.00  0.00     0.029 A 
ATOM     47  C   UNL A   1      39.088  32.597  34.059  1.00  0.00     0.049 A 
ATOM     48  H   UNL A   1      39.753  31.313  32.560  1.00  0.00     0.167 HD
ATOM     49  C   UNL A   1      40.812  28.423  29.428  1.00  0.00     0.037 A 
ATOM     50  C   UNL A   1      39.841  32.358  35.150  1.00  0.00     0.037 A 
ATOM     51  C   UNL A   1      41.733  28.175  30.505  1.00  0.00     0.049 A 
ATOM     52  C   UNL A   1      40.899  31.289  35.091  1.00  0.00     0.074 A 
ATOM     53  C   UNL A   1      42.793  27.286  30.543  1.00  0.00     0.029 A 
ATOM     54  N   UNL A   1      41.701  28.815  31.734  1.00  0.00    -0.354 N 
ATOM     55  N   UNL A   1      41.222  30.500  34.093  1.00  0.00    -0.248 NA
ATOM     56  C   UNL A   1      41.697  31.074  36.306  1.00  0.00     0.031 C 
ATOM     57  C   UNL A   1      43.367  27.347  31.815  1.00  0.00     0.029 A 
ATOM     58  C   UNL A   1      42.707  28.321  32.547  1.00  0.00     0.049 A 
ATOM     59  H   UNL A   1      41.060  29.516  31.991  1.00  0.00     0.167 HD
ATOM     60  C   UNL A   1      42.283  29.727  34.546  1.00  0.00     0.074 A 
ATOM     61  C   UNL A   1      42.552  30.142  35.907  1.00  0.00     0.031 C 
ATOM     62  C   UNL A   1      42.974  28.762  33.893  1.00  0.00     0.037 A 
BRANCH  49  63
ATOM     63  C   UNL A   1      40.926  27.592  28.182  1.00  0.00     0.057 A 
ATOM     64  C   UNL A   1      40.247  26.375  28.038  1.00  0.00     0.134 A 
ATOM     65  C   UNL A   1      41.696  28.032  27.098  1.00  0.00     0.134 A 
ATOM     66  F   UNL A   1      39.500  25.888  29.041  1.00  0.00    -0.206 F 
ATOM     67  C   UNL A   1      40.357  25.610  26.875  1.00  0.00     0.040 A 
ATOM     68  C   UNL A   1      41.788  27.292  25.918  1.00  0.00     0.040 A 
ATOM     69  F   UNL A   1      42.368  29.192  27.165  1.00  0.00    -0.206 F 
ATOM     70  C   UNL A   1      41.123  26.073  25.808  1.00  0.00     0.006 A 
ENDBRANCH  49  63
BRANCH  50  71
ATOM     71  C   UNL A   1      39.630  33.148  36.391  1.00  0.00     0.057 A 
ATOM     72  C   UNL A   1      40.295  34.362  36.596  1.00  0.00     0.134 A 
ATOM     73  C   UNL A   1      38.769  32.707  37.404  1.00  0.00     0.134 A 
ATOM     74  F   UNL A   1      41.145  34.830  35.671  1.00  0.00    -0.206 F 
ATOM     75  C   UNL A   1      40.131  35.097  37.771  1.00  0.00     0.040 A 
ATOM     76  C   UNL A   1      38.574  33.447  38.572  1.00  0.00     0.040 A 
ATOM     77  F   UNL A   1      38.094  31.556  37.268  1.00  0.00    -0.206 F 
ATOM     78  C   UNL A   1      39.264  34.643  38.762  1.00  0.00     0.006 A 
ENDBRANCH  50  71
BRANCH  62  79
ATOM     79  C   UNL A   1      44.128  28.123  34.610  1.00  0.00     0.057 A 
ATOM     80  C   UNL A   1      45.412  28.679  34.595  1.00  0.00     0.134 A 
ATOM     81  C   UNL A   1      43.926  26.978  35.393  1.00  0.00     0.134 A 
ATOM     82  F   UNL A   1      45.675  29.768  33.857  1.00  0.00    -0.206 F 
ATOM     83  C   UNL A   1      46.458  28.114  35.328  1.00  0.00     0.040 A 
ATOM     84  C   UNL A   1      44.956  26.422  36.152  1.00  0.00     0.040 A 
ATOM     85  F   UNL A   1      42.717  26.401  35.458  1.00  0.00    -0.206 F 
ATOM     86  C   UNL A   1      46.227  26.990  36.119  1.00  0.00     0.006 A 
ENDBRANCH  62  79
ENDBRANCH  36  37
ENDBRANCH  28  31
ENDBRANCH  26  27
ENDBRANCH  25  26
ENDBRANCH   1  25
TORSDOF 14
ENDMDL
