MODEL 1
REMARK VINA RESULT:     -12.0      0.000      0.000
REMARK SMILES C[C@H]1SC[C@H](C(=O)NCCCCNC(=O)c2ccc(-c3c4nc(c(-c5c(F)cccc5F)c5ccc([nH]5)c(-c5c(F)cccc5F)c5nc(c(-c6c(F)cccc6F)c6ccc3[nH]6)C=C5)C=C4)cc2)N1C(=O)[C@@H]1CSc2ccccc21
REMARK SMILES IDX 10 1 9 2 8 3 6 4 7 5 5 7 1 8 2 9 3 10 70 11 4 12 71 13 72 14
REMARK SMILES IDX 73 15 74 16 81 17 75 18 76 19 80 20 77 21 79 22 78 23 11 24
REMARK SMILES IDX 12 25 13 26 14 27 15 29 16 30 17 31 69 32 18 33 68 34 19 35
REMARK SMILES IDX 20 36 21 37 62 38 22 39 67 40 61 41 63 42 23 43 66 44 60 45
REMARK SMILES IDX 59 46 24 48 50 49 33 50 49 51 34 52 37 53 48 54 64 55 35 56
REMARK SMILES IDX 36 57 47 59 65 60 38 61 25 62 26 63 31 64 27 65 28 66 30 67
REMARK SMILES IDX 32 68 29 69 51 70 52 71 57 72 53 73 54 74 56 75 58 76 55 77
REMARK SMILES IDX 39 78 40 79 45 80 41 81 42 82 44 83 46 84 43 85
REMARK H PARENT 8 6 13 28 63 47 37 58
REMARK Flexibility Score: inf
ROOT
ATOM      1  C   UNL A   1      31.498  30.595  26.333  1.00  0.00     0.023 C 
ENDROOT
BRANCH   1   2
ATOM      2  C   UNL A   1      32.899  30.080  26.022  1.00  0.00     0.116 C 
BRANCH   2   3
ATOM      3  N   UNL A   1      33.034  29.703  24.632  1.00  0.00    -0.354 N 
ATOM      4  C   UNL A   1      32.516  28.634  23.963  1.00  0.00     0.243 C 
ATOM      5  O   UNL A   1      32.974  28.396  22.841  1.00  0.00    -0.273 OA
ATOM      6  H   UNL A   1      33.584  30.310  24.086  1.00  0.00     0.163 HD
BRANCH   4   7
ATOM      7  C   UNL A   1      31.573  27.626  24.648  1.00  0.00     0.185 C 
ATOM      8  C   UNL A   1      30.248  25.246  26.224  1.00  0.00     0.043 C 
ATOM      9  C   UNL A   1      30.905  25.296  24.844  1.00  0.00     0.141 C 
ATOM     10  S   UNL A   1      29.677  25.953  23.686  1.00  0.00    -0.135 SA
ATOM     11  N   UNL A   1      32.026  26.225  24.787  1.00  0.00    -0.318 N 
ATOM     12  C   UNL A   1      30.259  27.659  23.849  1.00  0.00     0.107 C 
BRANCH  11  13
ATOM     13  C   UNL A   1      33.312  25.979  25.242  1.00  0.00     0.232 C 
ATOM     14  O   UNL A   1      33.800  26.696  26.126  1.00  0.00    -0.274 OA
BRANCH  13  15
ATOM     15  C   UNL A   1      34.215  24.893  24.633  1.00  0.00     0.120 C 
ATOM     16  C   UNL A   1      34.047  24.687  23.121  1.00  0.00     0.093 C 
ATOM     17  C   UNL A   1      34.119  23.565  25.325  1.00  0.00    -0.021 A 
ATOM     18  S   UNL A   1      33.573  22.953  22.810  1.00  0.00    -0.125 SA
ATOM     19  C   UNL A   1      33.712  22.507  24.513  1.00  0.00     0.011 A 
ATOM     20  C   UNL A   1      34.363  23.364  26.682  1.00  0.00     0.006 A 
ATOM     21  C   UNL A   1      33.422  21.268  25.060  1.00  0.00     0.015 A 
ATOM     22  C   UNL A   1      34.095  22.113  27.235  1.00  0.00     0.000 A 
ATOM     23  C   UNL A   1      33.601  21.078  26.432  1.00  0.00     0.001 A 
ENDBRANCH  13  15
ENDBRANCH  11  13
ENDBRANCH   4   7
ENDBRANCH   2   3
ENDBRANCH   1   2
BRANCH   1  24
ATOM     24  C   UNL A   1      31.403  32.110  26.500  1.00  0.00     0.023 C 
BRANCH  24  25
ATOM     25  C   UNL A   1      32.565  32.743  27.253  1.00  0.00     0.116 C 
BRANCH  25  26
ATOM     26  N   UNL A   1      32.310  34.126  27.626  1.00  0.00    -0.352 N 
ATOM     27  C   UNL A   1      32.960  34.907  28.552  1.00  0.00     0.251 C 
ATOM     28  H   UNL A   1      31.569  34.564  27.148  1.00  0.00     0.163 HD
ATOM     29  O   UNL A   1      32.520  36.009  28.845  1.00  0.00    -0.269 OA
BRANCH  27  30
ATOM     30  C   UNL A   1      34.175  34.388  29.217  1.00  0.00     0.039 A 
ATOM     31  C   UNL A   1      34.034  33.677  30.409  1.00  0.00     0.014 A 
ATOM     32  C   UNL A   1      35.440  34.578  28.654  1.00  0.00     0.014 A 
ATOM     33  C   UNL A   1      35.158  33.104  31.005  1.00  0.00     0.010 A 
ATOM     34  C   UNL A   1      36.544  33.930  29.199  1.00  0.00     0.010 A 
ATOM     35  C   UNL A   1      36.417  33.192  30.385  1.00  0.00    -0.014 A 
BRANCH  35  36
ATOM     36  C   UNL A   1      37.599  32.509  30.969  1.00  0.00     0.031 A 
ATOM     37  C   UNL A   1      38.211  33.002  32.252  1.00  0.00     0.074 A 
ATOM     38  C   UNL A   1      38.146  31.461  30.321  1.00  0.00     0.049 A 
ATOM     39  N   UNL A   1      39.231  32.523  32.918  1.00  0.00    -0.248 NA
ATOM     40  C   UNL A   1      37.618  34.208  32.852  1.00  0.00     0.031 C 
ATOM     41  C   UNL A   1      37.688  30.929  29.036  1.00  0.00     0.029 A 
ATOM     42  N   UNL A   1      39.203  30.653  30.657  1.00  0.00    -0.354 N 
ATOM     43  C   UNL A   1      39.403  33.368  34.007  1.00  0.00     0.074 A 
ATOM     44  C   UNL A   1      38.427  34.427  33.878  1.00  0.00     0.031 C 
ATOM     45  C   UNL A   1      38.432  29.859  28.713  1.00  0.00     0.029 A 
ATOM     46  C   UNL A   1      39.440  29.651  29.747  1.00  0.00     0.049 A 
ATOM     47  H   UNL A   1      39.741  30.780  31.471  1.00  0.00     0.167 HD
ATOM     48  C   UNL A   1      40.274  33.257  35.037  1.00  0.00     0.037 A 
ATOM     49  C   UNL A   1      40.362  28.669  29.750  1.00  0.00     0.037 A 
ATOM     50  C   UNL A   1      41.234  32.192  35.171  1.00  0.00     0.049 A 
ATOM     51  C   UNL A   1      41.314  28.562  30.908  1.00  0.00     0.074 A 
ATOM     52  C   UNL A   1      42.125  31.958  36.205  1.00  0.00     0.029 A 
ATOM     53  N   UNL A   1      41.433  31.186  34.237  1.00  0.00    -0.354 N 
ATOM     54  N   UNL A   1      41.409  29.320  31.974  1.00  0.00    -0.248 NA
ATOM     55  C   UNL A   1      42.277  27.453  30.872  1.00  0.00     0.031 C 
ATOM     56  C   UNL A   1      42.898  30.841  35.872  1.00  0.00     0.029 A 
ATOM     57  C   UNL A   1      42.446  30.341  34.661  1.00  0.00     0.049 A 
ATOM     58  H   UNL A   1      40.930  31.086  33.397  1.00  0.00     0.167 HD
ATOM     59  C   UNL A   1      42.416  28.761  32.751  1.00  0.00     0.074 A 
ATOM     60  C   UNL A   1      42.889  27.591  32.039  1.00  0.00     0.031 C 
ATOM     61  C   UNL A   1      42.901  29.175  33.947  1.00  0.00     0.037 A 
BRANCH  48  62
ATOM     62  C   UNL A   1      40.225  34.312  36.105  1.00  0.00     0.057 A 
ATOM     63  C   UNL A   1      41.007  35.475  36.034  1.00  0.00     0.134 A 
ATOM     64  C   UNL A   1      39.363  34.183  37.202  1.00  0.00     0.134 A 
ATOM     65  F   UNL A   1      41.863  35.658  35.018  1.00  0.00    -0.206 F 
ATOM     66  C   UNL A   1      40.954  36.453  37.029  1.00  0.00     0.040 A 
ATOM     67  C   UNL A   1      39.278  35.170  38.185  1.00  0.00     0.040 A 
ATOM     68  F   UNL A   1      38.581  33.100  37.330  1.00  0.00    -0.206 F 
ATOM     69  C   UNL A   1      40.081  36.306  38.104  1.00  0.00     0.006 A 
ENDBRANCH  48  62
BRANCH  49  70
ATOM     70  C   UNL A   1      40.404  27.684  28.638  1.00  0.00     0.057 A 
ATOM     71  C   UNL A   1      41.182  27.911  27.497  1.00  0.00     0.134 A 
ATOM     72  C   UNL A   1      39.661  26.499  28.685  1.00  0.00     0.134 A 
ATOM     73  F   UNL A   1      41.904  29.036  27.386  1.00  0.00    -0.206 F 
ATOM     74  C   UNL A   1      41.202  27.009  26.433  1.00  0.00     0.040 A 
ATOM     75  C   UNL A   1      39.693  25.574  27.640  1.00  0.00     0.040 A 
ATOM     76  F   UNL A   1      38.903  26.216  29.755  1.00  0.00    -0.206 F 
ATOM     77  C   UNL A   1      40.459  25.832  26.505  1.00  0.00     0.006 A 
ENDBRANCH  49  70
BRANCH  61  78
ATOM     78  C   UNL A   1      43.966  28.329  34.587  1.00  0.00     0.057 A 
ATOM     79  C   UNL A   1      45.331  28.573  34.390  1.00  0.00     0.134 A 
ATOM     80  C   UNL A   1      43.614  27.269  35.433  1.00  0.00     0.134 A 
ATOM     81  F   UNL A   1      45.736  29.565  33.583  1.00  0.00    -0.206 F 
ATOM     82  C   UNL A   1      46.307  27.771  34.984  1.00  0.00     0.040 A 
ATOM     83  C   UNL A   1      44.581  26.482  36.058  1.00  0.00     0.040 A 
ATOM     84  F   UNL A   1      42.325  26.987  35.673  1.00  0.00    -0.206 F 
ATOM     85  C   UNL A   1      45.932  26.725  35.826  1.00  0.00     0.006 A 
ENDBRANCH  61  78
ENDBRANCH  35  36
ENDBRANCH  27  30
ENDBRANCH  25  26
ENDBRANCH  24  25
ENDBRANCH   1  24
TORSDOF 13
ENDMDL
MODEL 2
REMARK VINA RESULT:     -11.9      4.199      9.196
REMARK SMILES C[C@H]1SC[C@H](C(=O)NCCCCNC(=O)c2ccc(-c3c4nc(c(-c5c(F)cccc5F)c5ccc([nH]5)c(-c5c(F)cccc5F)c5nc(c(-c6c(F)cccc6F)c6ccc3[nH]6)C=C5)C=C4)cc2)N1C(=O)[C@@H]1CSc2ccccc21
REMARK SMILES IDX 10 1 9 2 8 3 6 4 7 5 5 7 1 8 2 9 3 10 70 11 4 12 71 13 72 14
REMARK SMILES IDX 73 15 74 16 81 17 75 18 76 19 80 20 77 21 79 22 78 23 11 24
REMARK SMILES IDX 12 25 13 26 14 27 15 29 16 30 17 31 69 32 18 33 68 34 19 35
REMARK SMILES IDX 20 36 21 37 62 38 22 39 67 40 61 41 63 42 23 43 66 44 60 45
REMARK SMILES IDX 59 46 24 48 50 49 33 50 49 51 34 52 37 53 48 54 64 55 35 56
REMARK SMILES IDX 36 57 47 59 65 60 38 61 25 62 26 63 31 64 27 65 28 66 30 67
REMARK SMILES IDX 32 68 29 69 51 70 52 71 57 72 53 73 54 74 56 75 58 76 55 77
REMARK SMILES IDX 39 78 40 79 45 80 41 81 42 82 44 83 46 84 43 85
REMARK H PARENT 8 6 13 28 63 47 37 58
REMARK Flexibility Score: inf
ROOT
ATOM      1  C   UNL A   1      37.129  21.809  24.012  1.00  0.00     0.023 C 
ENDROOT
BRANCH   1   2
ATOM      2  C   UNL A   1      35.685  22.255  24.214  1.00  0.00     0.116 C 
BRANCH   2   3
ATOM      3  N   UNL A   1      35.149  22.887  23.029  1.00  0.00    -0.354 N 
ATOM      4  C   UNL A   1      33.877  23.296  22.757  1.00  0.00     0.243 C 
ATOM      5  O   UNL A   1      33.617  23.583  21.583  1.00  0.00    -0.273 OA
ATOM      6  H   UNL A   1      35.801  23.046  22.309  1.00  0.00     0.163 HD
BRANCH   4   7
ATOM      7  C   UNL A   1      32.749  23.190  23.800  1.00  0.00     0.185 C 
ATOM      8  C   UNL A   1      30.685  23.599  26.141  1.00  0.00     0.043 C 
ATOM      9  C   UNL A   1      32.170  23.233  26.162  1.00  0.00     0.141 C 
ATOM     10  S   UNL A   1      32.292  21.457  25.828  1.00  0.00    -0.135 SA
ATOM     11  N   UNL A   1      32.924  23.880  25.097  1.00  0.00    -0.318 N 
ATOM     12  C   UNL A   1      32.538  21.687  24.050  1.00  0.00     0.107 C 
BRANCH  11  13
ATOM     13  C   UNL A   1      33.384  25.188  25.101  1.00  0.00     0.232 C 
ATOM     14  O   UNL A   1      34.442  25.466  25.680  1.00  0.00    -0.274 OA
BRANCH  13  15
ATOM     15  C   UNL A   1      32.589  26.350  24.482  1.00  0.00     0.120 C 
ATOM     16  C   UNL A   1      33.171  26.905  23.174  1.00  0.00     0.093 C 
ATOM     17  C   UNL A   1      32.337  27.486  25.429  1.00  0.00    -0.021 A 
ATOM     18  S   UNL A   1      33.529  28.681  23.392  1.00  0.00    -0.125 SA
ATOM     19  C   UNL A   1      32.849  28.717  25.022  1.00  0.00     0.011 A 
ATOM     20  C   UNL A   1      31.686  27.360  26.654  1.00  0.00     0.006 A 
ATOM     21  C   UNL A   1      32.832  29.807  25.876  1.00  0.00     0.015 A 
ATOM     22  C   UNL A   1      31.645  28.460  27.510  1.00  0.00     0.000 A 
ATOM     23  C   UNL A   1      32.240  29.669  27.133  1.00  0.00     0.001 A 
ENDBRANCH  13  15
ENDBRANCH  11  13
ENDBRANCH   4   7
ENDBRANCH   2   3
ENDBRANCH   1   2
BRANCH   1  24
ATOM     24  C   UNL A   1      37.469  20.462  24.645  1.00  0.00     0.023 C 
BRANCH  24  25
ATOM     25  C   UNL A   1      38.456  20.531  25.803  1.00  0.00     0.116 C 
BRANCH  25  26
ATOM     26  N   UNL A   1      39.518  19.542  25.700  1.00  0.00    -0.352 N 
ATOM     27  C   UNL A   1      40.857  19.679  25.977  1.00  0.00     0.251 C 
ATOM     28  H   UNL A   1      39.238  18.651  25.390  1.00  0.00     0.163 HD
ATOM     29  O   UNL A   1      41.639  18.782  25.696  1.00  0.00    -0.269 OA
BRANCH  27  30
ATOM     30  C   UNL A   1      41.351  20.934  26.585  1.00  0.00     0.039 A 
ATOM     31  C   UNL A   1      41.859  21.928  25.747  1.00  0.00     0.014 A 
ATOM     32  C   UNL A   1      41.288  21.139  27.966  1.00  0.00     0.014 A 
ATOM     33  C   UNL A   1      42.247  23.154  26.292  1.00  0.00     0.010 A 
ATOM     34  C   UNL A   1      41.589  22.390  28.494  1.00  0.00     0.010 A 
ATOM     35  C   UNL A   1      42.078  23.409  27.664  1.00  0.00    -0.014 A 
BRANCH  35  36
ATOM     36  C   UNL A   1      42.408  24.741  28.233  1.00  0.00     0.031 A 
ATOM     37  C   UNL A   1      43.814  25.065  28.658  1.00  0.00     0.074 A 
ATOM     38  C   UNL A   1      41.427  25.650  28.400  1.00  0.00     0.049 A 
ATOM     39  N   UNL A   1      44.290  26.177  29.157  1.00  0.00    -0.248 NA
ATOM     40  C   UNL A   1      44.812  23.991  28.532  1.00  0.00     0.031 C 
ATOM     41  C   UNL A   1      40.012  25.434  28.092  1.00  0.00     0.029 A 
ATOM     42  N   UNL A   1      41.471  26.939  28.869  1.00  0.00    -0.354 N 
ATOM     43  C   UNL A   1      45.634  25.935  29.408  1.00  0.00     0.074 A 
ATOM     44  C   UNL A   1      45.884  24.552  29.070  1.00  0.00     0.031 C 
ATOM     45  C   UNL A   1      39.330  26.564  28.338  1.00  0.00     0.029 A 
ATOM     46  C   UNL A   1      40.251  27.571  28.855  1.00  0.00     0.049 A 
ATOM     47  H   UNL A   1      42.297  27.370  29.184  1.00  0.00     0.167 HD
ATOM     48  C   UNL A   1      46.582  26.795  29.852  1.00  0.00     0.037 A 
ATOM     49  C   UNL A   1      39.913  28.825  29.212  1.00  0.00     0.037 A 
ATOM     50  C   UNL A   1      46.333  28.176  30.172  1.00  0.00     0.049 A 
ATOM     51  C   UNL A   1      40.984  29.762  29.695  1.00  0.00     0.074 A 
ATOM     52  C   UNL A   1      47.236  29.144  30.577  1.00  0.00     0.029 A 
ATOM     53  N   UNL A   1      45.087  28.784  30.130  1.00  0.00    -0.354 N 
ATOM     54  N   UNL A   1      42.268  29.544  29.847  1.00  0.00    -0.248 NA
ATOM     55  C   UNL A   1      40.563  31.127  30.041  1.00  0.00     0.031 C 
ATOM     56  C   UNL A   1      46.529  30.324  30.829  1.00  0.00     0.029 A 
ATOM     57  C   UNL A   1      45.195  30.109  30.521  1.00  0.00     0.049 A 
ATOM     58  H   UNL A   1      44.250  28.341  29.863  1.00  0.00     0.167 HD
ATOM     59  C   UNL A   1      42.813  30.750  30.271  1.00  0.00     0.074 A 
ATOM     60  C   UNL A   1      41.720  31.699  30.338  1.00  0.00     0.031 C 
ATOM     61  C   UNL A   1      44.101  31.045  30.574  1.00  0.00     0.037 A 
BRANCH  48  62
ATOM     62  C   UNL A   1      47.979  26.265  30.011  1.00  0.00     0.057 A 
ATOM     63  C   UNL A   1      48.892  26.252  28.946  1.00  0.00     0.134 A 
ATOM     64  C   UNL A   1      48.430  25.792  31.249  1.00  0.00     0.134 A 
ATOM     65  F   UNL A   1      48.523  26.680  27.728  1.00  0.00    -0.206 F 
ATOM     66  C   UNL A   1      50.190  25.762  29.101  1.00  0.00     0.040 A 
ATOM     67  C   UNL A   1      49.736  25.329  31.424  1.00  0.00     0.040 A 
ATOM     68  F   UNL A   1      47.613  25.781  32.313  1.00  0.00    -0.206 F 
ATOM     69  C   UNL A   1      50.617  25.306  30.345  1.00  0.00     0.006 A 
ENDBRANCH  48  62
BRANCH  49  70
ATOM     70  C   UNL A   1      38.504  29.280  29.089  1.00  0.00     0.057 A 
ATOM     71  C   UNL A   1      37.640  29.270  30.190  1.00  0.00     0.134 A 
ATOM     72  C   UNL A   1      37.986  29.727  27.868  1.00  0.00     0.134 A 
ATOM     73  F   UNL A   1      38.073  28.838  31.384  1.00  0.00    -0.206 F 
ATOM     74  C   UNL A   1      36.306  29.663  30.078  1.00  0.00     0.040 A 
ATOM     75  C   UNL A   1      36.661  30.150  27.747  1.00  0.00     0.040 A 
ATOM     76  F   UNL A   1      38.765  29.772  26.777  1.00  0.00    -0.206 F 
ATOM     77  C   UNL A   1      35.814  30.110  28.852  1.00  0.00     0.006 A 
ENDBRANCH  49  70
BRANCH  61  78
ATOM     78  C   UNL A   1      44.408  32.466  30.956  1.00  0.00     0.057 A 
ATOM     79  C   UNL A   1      44.403  32.899  32.288  1.00  0.00     0.134 A 
ATOM     80  C   UNL A   1      44.738  33.407  29.972  1.00  0.00     0.134 A 
ATOM     81  F   UNL A   1      44.085  32.051  33.277  1.00  0.00    -0.206 F 
ATOM     82  C   UNL A   1      44.681  34.225  32.624  1.00  0.00     0.040 A 
ATOM     83  C   UNL A   1      45.050  34.727  30.298  1.00  0.00     0.040 A 
ATOM     84  F   UNL A   1      44.772  33.057  28.677  1.00  0.00    -0.206 F 
ATOM     85  C   UNL A   1      45.012  35.142  31.627  1.00  0.00     0.006 A 
ENDBRANCH  61  78
ENDBRANCH  35  36
ENDBRANCH  27  30
ENDBRANCH  25  26
ENDBRANCH  24  25
ENDBRANCH   1  24
TORSDOF 13
ENDMDL
MODEL 3
REMARK VINA RESULT:     -11.9      5.054     10.153
REMARK SMILES C[C@H]1SC[C@H](C(=O)NCCCCNC(=O)c2ccc(-c3c4nc(c(-c5c(F)cccc5F)c5ccc([nH]5)c(-c5c(F)cccc5F)c5nc(c(-c6c(F)cccc6F)c6ccc3[nH]6)C=C5)C=C4)cc2)N1C(=O)[C@@H]1CSc2ccccc21
REMARK SMILES IDX 10 1 9 2 8 3 6 4 7 5 5 7 1 8 2 9 3 10 70 11 4 12 71 13 72 14
REMARK SMILES IDX 73 15 74 16 81 17 75 18 76 19 80 20 77 21 79 22 78 23 11 24
REMARK SMILES IDX 12 25 13 26 14 27 15 29 16 30 17 31 69 32 18 33 68 34 19 35
REMARK SMILES IDX 20 36 21 37 62 38 22 39 67 40 61 41 63 42 23 43 66 44 60 45
REMARK SMILES IDX 59 46 24 48 50 49 33 50 49 51 34 52 37 53 48 54 64 55 35 56
REMARK SMILES IDX 36 57 47 59 65 60 38 61 25 62 26 63 31 64 27 65 28 66 30 67
REMARK SMILES IDX 32 68 29 69 51 70 52 71 57 72 53 73 54 74 56 75 58 76 55 77
REMARK SMILES IDX 39 78 40 79 45 80 41 81 42 82 44 83 46 84 43 85
REMARK H PARENT 8 6 13 28 63 47 37 58
REMARK Flexibility Score: inf
ROOT
ATOM      1  C   UNL A   1      37.113  20.733  24.638  1.00  0.00     0.023 C 
ENDROOT
BRANCH   1   2
ATOM      2  C   UNL A   1      36.881  21.744  25.756  1.00  0.00     0.116 C 
BRANCH   2   3
ATOM      3  N   UNL A   1      35.640  21.493  26.455  1.00  0.00    -0.354 N 
ATOM      4  C   UNL A   1      34.353  21.689  26.047  1.00  0.00     0.243 C 
ATOM      5  O   UNL A   1      33.474  21.631  26.913  1.00  0.00    -0.273 OA
ATOM      6  H   UNL A   1      35.738  21.125  27.362  1.00  0.00     0.163 HD
BRANCH   4   7
ATOM      7  C   UNL A   1      34.017  22.189  24.629  1.00  0.00     0.185 C 
ATOM      8  C   UNL A   1      33.436  23.844  22.016  1.00  0.00     0.043 C 
ATOM      9  C   UNL A   1      32.599  23.631  23.279  1.00  0.00     0.141 C 
ATOM     10  S   UNL A   1      31.780  22.024  23.116  1.00  0.00    -0.135 SA
ATOM     11  N   UNL A   1      33.412  23.531  24.483  1.00  0.00    -0.318 N 
ATOM     12  C   UNL A   1      33.075  21.138  24.018  1.00  0.00     0.107 C 
BRANCH  11  13
ATOM     13  C   UNL A   1      33.960  24.592  25.188  1.00  0.00     0.232 C 
ATOM     14  O   UNL A   1      35.187  24.668  25.330  1.00  0.00    -0.274 OA
BRANCH  13  15
ATOM     15  C   UNL A   1      33.099  25.656  25.889  1.00  0.00     0.120 C 
ATOM     16  C   UNL A   1      31.799  25.126  26.512  1.00  0.00     0.093 C 
ATOM     17  C   UNL A   1      32.784  26.845  25.030  1.00  0.00    -0.021 A 
ATOM     18  S   UNL A   1      30.386  26.014  25.774  1.00  0.00    -0.125 SA
ATOM     19  C   UNL A   1      31.426  27.080  24.825  1.00  0.00     0.011 A 
ATOM     20  C   UNL A   1      33.742  27.656  24.426  1.00  0.00     0.006 A 
ATOM     21  C   UNL A   1      31.003  28.040  23.921  1.00  0.00     0.015 A 
ATOM     22  C   UNL A   1      33.324  28.640  23.532  1.00  0.00     0.000 A 
ATOM     23  C   UNL A   1      31.961  28.812  23.260  1.00  0.00     0.001 A 
ENDBRANCH  13  15
ENDBRANCH  11  13
ENDBRANCH   4   7
ENDBRANCH   2   3
ENDBRANCH   1   2
BRANCH   1  24
ATOM     24  C   UNL A   1      38.064  19.595  25.001  1.00  0.00     0.023 C 
BRANCH  24  25
ATOM     25  C   UNL A   1      39.290  20.017  25.798  1.00  0.00     0.116 C 
BRANCH  25  26
ATOM     26  N   UNL A   1      40.321  18.992  25.834  1.00  0.00    -0.352 N 
ATOM     27  C   UNL A   1      41.667  19.127  26.079  1.00  0.00     0.251 C 
ATOM     28  H   UNL A   1      40.012  18.074  25.659  1.00  0.00     0.163 HD
ATOM     29  O   UNL A   1      42.419  18.175  25.926  1.00  0.00    -0.269 OA
BRANCH  27  30
ATOM     30  C   UNL A   1      42.204  20.441  26.493  1.00  0.00     0.039 A 
ATOM     31  C   UNL A   1      42.694  21.304  25.512  1.00  0.00     0.014 A 
ATOM     32  C   UNL A   1      42.198  20.830  27.836  1.00  0.00     0.014 A 
ATOM     33  C   UNL A   1      43.123  22.583  25.872  1.00  0.00     0.010 A 
ATOM     34  C   UNL A   1      42.539  22.135  28.179  1.00  0.00     0.010 A 
ATOM     35  C   UNL A   1      43.012  23.023  27.203  1.00  0.00    -0.014 A 
BRANCH  35  36
ATOM     36  C   UNL A   1      43.384  24.412  27.574  1.00  0.00     0.031 A 
ATOM     37  C   UNL A   1      44.821  24.854  27.538  1.00  0.00     0.074 A 
ATOM     38  C   UNL A   1      42.425  25.268  27.981  1.00  0.00     0.049 A 
ATOM     39  N   UNL A   1      45.331  26.029  27.811  1.00  0.00    -0.248 NA
ATOM     40  C   UNL A   1      45.822  23.839  27.175  1.00  0.00     0.031 C 
ATOM     41  C   UNL A   1      41.005  24.940  28.125  1.00  0.00     0.029 A 
ATOM     42  N   UNL A   1      42.500  26.589  28.345  1.00  0.00    -0.354 N 
ATOM     43  C   UNL A   1      46.704  25.892  27.658  1.00  0.00     0.074 A 
ATOM     44  C   UNL A   1      46.956  24.505  27.334  1.00  0.00     0.031 C 
ATOM     45  C   UNL A   1      40.337  26.041  28.504  1.00  0.00     0.029 A 
ATOM     46  C   UNL A   1      41.283  27.140  28.666  1.00  0.00     0.049 A 
ATOM     47  H   UNL A   1      43.344  27.093  28.374  1.00  0.00     0.167 HD
ATOM     48  C   UNL A   1      47.667  26.839  27.749  1.00  0.00     0.037 A 
ATOM     49  C   UNL A   1      40.964  28.394  29.042  1.00  0.00     0.037 A 
ATOM     50  C   UNL A   1      47.411  28.223  28.056  1.00  0.00     0.049 A 
ATOM     51  C   UNL A   1      42.050  29.430  29.129  1.00  0.00     0.074 A 
ATOM     52  C   UNL A   1      48.311  29.273  28.118  1.00  0.00     0.029 A 
ATOM     53  N   UNL A   1      46.163  28.747  28.359  1.00  0.00    -0.354 N 
ATOM     54  N   UNL A   1      43.334  29.305  28.898  1.00  0.00    -0.248 NA
ATOM     55  C   UNL A   1      41.639  30.788  29.513  1.00  0.00     0.031 C 
ATOM     56  C   UNL A   1      47.615  30.422  28.509  1.00  0.00     0.029 A 
ATOM     57  C   UNL A   1      46.272  30.101  28.628  1.00  0.00     0.049 A 
ATOM     58  H   UNL A   1      45.324  28.233  28.380  1.00  0.00     0.167 HD
ATOM     59  C   UNL A   1      43.879  30.571  29.075  1.00  0.00     0.074 A 
ATOM     60  C   UNL A   1      42.781  31.452  29.416  1.00  0.00     0.031 C 
ATOM     61  C   UNL A   1      45.169  30.969  28.959  1.00  0.00     0.037 A 
BRANCH  48  62
ATOM     62  C   UNL A   1      49.087  26.412  27.508  1.00  0.00     0.057 A 
ATOM     63  C   UNL A   1      49.657  26.426  26.226  1.00  0.00     0.134 A 
ATOM     64  C   UNL A   1      49.906  26.012  28.571  1.00  0.00     0.134 A 
ATOM     65  F   UNL A   1      48.925  26.786  25.160  1.00  0.00    -0.206 F 
ATOM     66  C   UNL A   1      50.978  26.031  26.009  1.00  0.00     0.040 A 
ATOM     67  C   UNL A   1      51.238  25.646  28.370  1.00  0.00     0.040 A 
ATOM     68  F   UNL A   1      49.429  25.982  29.825  1.00  0.00    -0.206 F 
ATOM     69  C   UNL A   1      51.775  25.647  27.084  1.00  0.00     0.006 A 
ENDBRANCH  48  62
BRANCH  49  70
ATOM     70  C   UNL A   1      39.550  28.749  29.324  1.00  0.00     0.057 A 
ATOM     71  C   UNL A   1      39.011  28.613  30.609  1.00  0.00     0.134 A 
ATOM     72  C   UNL A   1      38.701  29.224  28.317  1.00  0.00     0.134 A 
ATOM     73  F   UNL A   1      39.769  28.147  31.613  1.00  0.00    -0.206 F 
ATOM     74  C   UNL A   1      37.674  28.911  30.878  1.00  0.00     0.040 A 
ATOM     75  C   UNL A   1      37.370  29.553  28.578  1.00  0.00     0.040 A 
ATOM     76  F   UNL A   1      39.159  29.388  27.067  1.00  0.00    -0.206 F 
ATOM     77  C   UNL A   1      36.850  29.388  29.860  1.00  0.00     0.006 A 
ENDBRANCH  49  70
BRANCH  61  78
ATOM     78  C   UNL A   1      45.458  32.430  29.154  1.00  0.00     0.057 A 
ATOM     79  C   UNL A   1      45.801  32.963  30.403  1.00  0.00     0.134 A 
ATOM     80  C   UNL A   1      45.414  33.312  28.066  1.00  0.00     0.134 A 
ATOM     81  F   UNL A   1      45.850  32.176  31.488  1.00  0.00    -0.206 F 
ATOM     82  C   UNL A   1      46.056  34.326  30.569  1.00  0.00     0.040 A 
ATOM     83  C   UNL A   1      45.700  34.669  28.213  1.00  0.00     0.040 A 
ATOM     84  F   UNL A   1      45.103  32.866  26.839  1.00  0.00    -0.206 F 
ATOM     85  C   UNL A   1      46.012  35.181  29.470  1.00  0.00     0.006 A 
ENDBRANCH  61  78
ENDBRANCH  35  36
ENDBRANCH  27  30
ENDBRANCH  25  26
ENDBRANCH  24  25
ENDBRANCH   1  24
TORSDOF 13
ENDMDL
