MODEL 1
REMARK VINA RESULT:     -10.9      0.000      0.000
REMARK SMILES O=C(CCc1nc(-c2ccccc2)c(-c2ccccc2)o1)NCCCCNC(=O)c1ccc(-c2c3nc(c(-c4c(F)cccc4F)c4ccc([nH]4)c(-c4c(F)cccc4F)c4nc(c(-c5c(F)cccc5F)c5ccc2[nH]5)C=C4)C=C3)cc1
REMARK SMILES IDX 24 1 23 2 22 3 1 4 2 5 3 7 4 8 5 9 6 10 21 11 7 12 14 13
REMARK SMILES IDX 8 14 9 15 13 16 10 17 12 18 11 19 15 20 16 21 20 22 17 23
REMARK SMILES IDX 19 24 18 25 25 26 26 27 27 28 28 29 29 31 30 32 31 33 83 34
REMARK SMILES IDX 32 35 82 36 33 37 34 38 35 39 76 40 36 41 81 42 75 43 77 44
REMARK SMILES IDX 37 45 80 46 74 47 73 48 38 50 64 51 47 52 63 53 48 54 51 55
REMARK SMILES IDX 62 56 78 57 49 58 50 59 61 61 79 62 52 63 39 64 40 65 45 66
REMARK SMILES IDX 41 67 42 68 44 69 46 70 43 71 65 72 66 73 71 74 67 75 68 76
REMARK SMILES IDX 70 77 72 78 69 79 53 80 54 81 59 82 55 83 56 84 58 85 60 86
REMARK SMILES IDX 57 87
REMARK H PARENT 22 6 27 30 77 49 51 60
REMARK Flexibility Score: inf
ROOT
ATOM      1  C   UNL A   1      34.024  35.185  28.443  1.00  0.00     0.023 C 
ENDROOT
BRANCH   1   2
ATOM      2  C   UNL A   1      33.090  36.192  29.112  1.00  0.00     0.116 C 
BRANCH   2   3
ATOM      3  N   UNL A   1      33.684  36.831  30.269  1.00  0.00    -0.356 N 
ATOM      4  O   UNL A   1      31.878  36.533  31.660  1.00  0.00    -0.275 OA
ATOM      5  C   UNL A   1      33.027  36.923  31.476  1.00  0.00     0.220 C 
ATOM      6  H   UNL A   1      34.588  37.213  30.190  1.00  0.00     0.163 HD
BRANCH   5   7
ATOM      7  C   UNL A   1      33.851  37.518  32.596  1.00  0.00     0.110 C 
BRANCH   7   8
ATOM      8  C   UNL A   1      33.883  36.590  33.805  1.00  0.00     0.107 C 
BRANCH   8   9
ATOM      9  C   UNL A   1      34.886  35.507  33.637  1.00  0.00     0.196 A 
ATOM     10  N   UNL A   1      35.257  34.592  34.507  1.00  0.00    -0.213 NA
ATOM     11  O   UNL A   1      35.593  35.502  32.467  1.00  0.00    -0.440 OA
ATOM     12  C   UNL A   1      36.256  33.909  33.855  1.00  0.00     0.117 A 
ATOM     13  C   UNL A   1      36.472  34.457  32.603  1.00  0.00     0.162 A 
BRANCH  12  14
ATOM     14  C   UNL A   1      37.000  32.827  34.459  1.00  0.00     0.004 A 
ATOM     15  C   UNL A   1      37.547  32.975  35.737  1.00  0.00     0.010 A 
ATOM     16  C   UNL A   1      37.187  31.625  33.771  1.00  0.00     0.010 A 
ATOM     17  C   UNL A   1      38.304  31.953  36.309  1.00  0.00     0.001 A 
ATOM     18  C   UNL A   1      37.953  30.604  34.341  1.00  0.00     0.001 A 
ATOM     19  C   UNL A   1      38.519  30.771  35.606  1.00  0.00     0.000 A 
ENDBRANCH  12  14
BRANCH  13  20
ATOM     20  C   UNL A   1      37.359  34.213  31.474  1.00  0.00     0.020 A 
ATOM     21  C   UNL A   1      36.913  33.485  30.360  1.00  0.00     0.012 A 
ATOM     22  C   UNL A   1      38.662  34.728  31.458  1.00  0.00     0.012 A 
ATOM     23  C   UNL A   1      37.732  33.316  29.242  1.00  0.00     0.001 A 
ATOM     24  C   UNL A   1      39.490  34.542  30.348  1.00  0.00     0.001 A 
ATOM     25  C   UNL A   1      39.021  33.847  29.236  1.00  0.00     0.000 A 
ENDBRANCH  13  20
ENDBRANCH   8   9
ENDBRANCH   7   8
ENDBRANCH   5   7
ENDBRANCH   2   3
ENDBRANCH   1   2
BRANCH   1  26
ATOM     26  C   UNL A   1      33.385  33.856  28.029  1.00  0.00     0.023 C 
BRANCH  26  27
ATOM     27  C   UNL A   1      34.212  32.601  28.289  1.00  0.00     0.116 C 
BRANCH  27  28
ATOM     28  N   UNL A   1      33.684  31.396  27.680  1.00  0.00    -0.352 N 
ATOM     29  C   UNL A   1      34.292  30.170  27.512  1.00  0.00     0.251 C 
ATOM     30  H   UNL A   1      32.762  31.462  27.341  1.00  0.00     0.163 HD
ATOM     31  O   UNL A   1      33.715  29.291  26.879  1.00  0.00    -0.269 OA
BRANCH  29  32
ATOM     32  C   UNL A   1      35.651  29.903  28.055  1.00  0.00     0.039 A 
ATOM     33  C   UNL A   1      35.781  29.493  29.386  1.00  0.00     0.014 A 
ATOM     34  C   UNL A   1      36.800  30.083  27.285  1.00  0.00     0.014 A 
ATOM     35  C   UNL A   1      37.046  29.200  29.914  1.00  0.00     0.010 A 
ATOM     36  C   UNL A   1      38.056  29.752  27.794  1.00  0.00     0.010 A 
ATOM     37  C   UNL A   1      38.194  29.295  29.110  1.00  0.00    -0.014 A 
BRANCH  37  38
ATOM     38  C   UNL A   1      39.531  28.867  29.603  1.00  0.00     0.031 A 
ATOM     39  C   UNL A   1      40.276  29.674  30.631  1.00  0.00     0.074 A 
ATOM     40  C   UNL A   1      40.118  27.785  29.053  1.00  0.00     0.049 A 
ATOM     41  N   UNL A   1      41.459  29.460  31.149  1.00  0.00    -0.248 NA
ATOM     42  C   UNL A   1      39.614  30.889  31.129  1.00  0.00     0.031 C 
ATOM     43  C   UNL A   1      39.532  26.946  28.006  1.00  0.00     0.029 A 
ATOM     44  N   UNL A   1      41.347  27.218  29.282  1.00  0.00    -0.354 N 
ATOM     45  C   UNL A   1      41.684  30.506  32.036  1.00  0.00     0.074 A 
ATOM     46  C   UNL A   1      40.535  31.384  31.945  1.00  0.00     0.031 C 
ATOM     47  C   UNL A   1      40.397  25.972  27.688  1.00  0.00     0.029 A 
ATOM     48  C   UNL A   1      41.606  26.124  28.492  1.00  0.00     0.049 A 
ATOM     49  H   UNL A   1      41.983  27.562  29.951  1.00  0.00     0.167 HD
ATOM     50  C   UNL A   1      42.737  30.704  32.865  1.00  0.00     0.037 A 
ATOM     51  C   UNL A   1      42.692  25.332  28.420  1.00  0.00     0.037 A 
ATOM     52  C   UNL A   1      43.878  29.829  32.959  1.00  0.00     0.049 A 
ATOM     53  C   UNL A   1      43.857  25.585  29.336  1.00  0.00     0.074 A 
ATOM     54  C   UNL A   1      44.957  29.908  33.824  1.00  0.00     0.029 A 
ATOM     55  N   UNL A   1      44.097  28.724  32.151  1.00  0.00    -0.354 N 
ATOM     56  N   UNL A   1      44.006  26.519  30.244  1.00  0.00    -0.248 NA
ATOM     57  C   UNL A   1      44.997  24.664  29.228  1.00  0.00     0.031 C 
ATOM     58  C   UNL A   1      45.854  28.883  33.504  1.00  0.00     0.029 A 
ATOM     59  C   UNL A   1      45.308  28.133  32.476  1.00  0.00     0.049 A 
ATOM     60  H   UNL A   1      43.483  28.405  31.451  1.00  0.00     0.167 HD
ATOM     61  C   UNL A   1      45.238  26.276  30.838  1.00  0.00     0.074 A 
ATOM     62  C   UNL A   1      45.791  25.103  30.195  1.00  0.00     0.031 C 
ATOM     63  C   UNL A   1      45.852  26.962  31.833  1.00  0.00     0.037 A 
BRANCH  50  64
ATOM     64  C   UNL A   1      42.709  31.917  33.751  1.00  0.00     0.057 A 
ATOM     65  C   UNL A   1      42.221  31.861  35.063  1.00  0.00     0.134 A 
ATOM     66  C   UNL A   1      43.234  33.140  33.312  1.00  0.00     0.134 A 
ATOM     67  F   UNL A   1      41.700  30.722  35.546  1.00  0.00    -0.206 F 
ATOM     68  C   UNL A   1      42.233  32.981  35.898  1.00  0.00     0.040 A 
ATOM     69  C   UNL A   1      43.277  34.259  34.147  1.00  0.00     0.040 A 
ATOM     70  F   UNL A   1      43.729  33.263  32.072  1.00  0.00    -0.206 F 
ATOM     71  C   UNL A   1      42.771  34.182  35.442  1.00  0.00     0.006 A 
ENDBRANCH  50  64
BRANCH  51  72
ATOM     72  C   UNL A   1      42.716  24.196  27.465  1.00  0.00     0.057 A 
ATOM     73  C   UNL A   1      42.357  22.906  27.872  1.00  0.00     0.134 A 
ATOM     74  C   UNL A   1      43.105  24.369  26.132  1.00  0.00     0.134 A 
ATOM     75  F   UNL A   1      41.993  22.675  29.143  1.00  0.00    -0.206 F 
ATOM     76  C   UNL A   1      42.402  21.823  26.993  1.00  0.00     0.040 A 
ATOM     77  C   UNL A   1      43.130  23.300  25.235  1.00  0.00     0.040 A 
ATOM     78  F   UNL A   1      43.452  25.583  25.680  1.00  0.00    -0.206 F 
ATOM     79  C   UNL A   1      42.786  22.021  25.668  1.00  0.00     0.006 A 
ENDBRANCH  51  72
BRANCH  63  80
ATOM     80  C   UNL A   1      47.175  26.441  32.314  1.00  0.00     0.057 A 
ATOM     81  C   UNL A   1      48.390  26.916  31.802  1.00  0.00     0.134 A 
ATOM     82  C   UNL A   1      47.235  25.472  33.324  1.00  0.00     0.134 A 
ATOM     83  F   UNL A   1      48.403  27.833  30.824  1.00  0.00    -0.206 F 
ATOM     84  C   UNL A   1      49.615  26.428  32.261  1.00  0.00     0.040 A 
ATOM     85  C   UNL A   1      48.454  24.997  33.810  1.00  0.00     0.040 A 
ATOM     86  F   UNL A   1      46.110  24.980  33.864  1.00  0.00    -0.206 F 
ATOM     87  C   UNL A   1      49.650  25.470  33.273  1.00  0.00     0.006 A 
ENDBRANCH  63  80
ENDBRANCH  37  38
ENDBRANCH  29  32
ENDBRANCH  27  28
ENDBRANCH  26  27
ENDBRANCH   1  26
TORSDOF 15
ENDMDL
MODEL 2
REMARK VINA RESULT:     -10.7      0.833      2.575
REMARK SMILES O=C(CCc1nc(-c2ccccc2)c(-c2ccccc2)o1)NCCCCNC(=O)c1ccc(-c2c3nc(c(-c4c(F)cccc4F)c4ccc([nH]4)c(-c4c(F)cccc4F)c4nc(c(-c5c(F)cccc5F)c5ccc2[nH]5)C=C4)C=C3)cc1
REMARK SMILES IDX 24 1 23 2 22 3 1 4 2 5 3 7 4 8 5 9 6 10 21 11 7 12 14 13
REMARK SMILES IDX 8 14 9 15 13 16 10 17 12 18 11 19 15 20 16 21 20 22 17 23
REMARK SMILES IDX 19 24 18 25 25 26 26 27 27 28 28 29 29 31 30 32 31 33 83 34
REMARK SMILES IDX 32 35 82 36 33 37 34 38 35 39 76 40 36 41 81 42 75 43 77 44
REMARK SMILES IDX 37 45 80 46 74 47 73 48 38 50 64 51 47 52 63 53 48 54 51 55
REMARK SMILES IDX 62 56 78 57 49 58 50 59 61 61 79 62 52 63 39 64 40 65 45 66
REMARK SMILES IDX 41 67 42 68 44 69 46 70 43 71 65 72 66 73 71 74 67 75 68 76
REMARK SMILES IDX 70 77 72 78 69 79 53 80 54 81 59 82 55 83 56 84 58 85 60 86
REMARK SMILES IDX 57 87
REMARK H PARENT 22 6 27 30 77 49 51 60
REMARK Flexibility Score: inf
ROOT
ATOM      1  C   UNL A   1      34.249  35.503  28.393  1.00  0.00     0.023 C 
ENDROOT
BRANCH   1   2
ATOM      2  C   UNL A   1      33.508  36.786  28.765  1.00  0.00     0.116 C 
BRANCH   2   3
ATOM      3  N   UNL A   1      33.798  37.234  30.113  1.00  0.00    -0.356 N 
ATOM      4  O   UNL A   1      31.866  36.421  31.057  1.00  0.00    -0.275 OA
ATOM      5  C   UNL A   1      32.951  36.983  31.169  1.00  0.00     0.220 C 
ATOM      6  H   UNL A   1      34.629  37.736  30.279  1.00  0.00     0.163 HD
BRANCH   5   7
ATOM      7  C   UNL A   1      33.478  37.426  32.516  1.00  0.00     0.110 C 
BRANCH   7   8
ATOM      8  C   UNL A   1      33.585  36.247  33.477  1.00  0.00     0.107 C 
BRANCH   8   9
ATOM      9  C   UNL A   1      34.879  35.533  33.324  1.00  0.00     0.196 A 
ATOM     10  N   UNL A   1      35.690  35.523  32.288  1.00  0.00    -0.213 NA
ATOM     11  O   UNL A   1      35.246  34.701  34.344  1.00  0.00    -0.440 OA
ATOM     12  C   UNL A   1      36.684  34.649  32.661  1.00  0.00     0.117 A 
ATOM     13  C   UNL A   1      36.424  34.139  33.921  1.00  0.00     0.162 A 
BRANCH  12  14
ATOM     14  C   UNL A   1      37.786  34.288  31.798  1.00  0.00     0.004 A 
ATOM     15  C   UNL A   1      39.102  34.553  32.188  1.00  0.00     0.010 A 
ATOM     16  C   UNL A   1      37.549  33.678  30.564  1.00  0.00     0.010 A 
ATOM     17  C   UNL A   1      40.169  34.249  31.343  1.00  0.00     0.001 A 
ATOM     18  C   UNL A   1      38.618  33.382  29.712  1.00  0.00     0.001 A 
ATOM     19  C   UNL A   1      39.927  33.676  30.097  1.00  0.00     0.000 A 
ENDBRANCH  12  14
BRANCH  13  20
ATOM     20  C   UNL A   1      37.053  33.199  34.837  1.00  0.00     0.020 A 
ATOM     21  C   UNL A   1      37.375  31.899  34.417  1.00  0.00     0.012 A 
ATOM     22  C   UNL A   1      37.382  33.580  36.145  1.00  0.00     0.012 A 
ATOM     23  C   UNL A   1      38.050  31.020  35.267  1.00  0.00     0.001 A 
ATOM     24  C   UNL A   1      38.039  32.694  37.003  1.00  0.00     0.001 A 
ATOM     25  C   UNL A   1      38.384  31.419  36.560  1.00  0.00     0.000 A 
ENDBRANCH  13  20
ENDBRANCH   8   9
ENDBRANCH   7   8
ENDBRANCH   5   7
ENDBRANCH   2   3
ENDBRANCH   1   2
BRANCH   1  26
ATOM     26  C   UNL A   1      33.617  34.200  28.890  1.00  0.00     0.023 C 
BRANCH  26  27
ATOM     27  C   UNL A   1      34.500  32.957  28.832  1.00  0.00     0.116 C 
BRANCH  27  28
ATOM     28  N   UNL A   1      33.985  31.891  27.997  1.00  0.00    -0.352 N 
ATOM     29  C   UNL A   1      34.564  30.681  27.678  1.00  0.00     0.251 C 
ATOM     30  H   UNL A   1      33.097  32.052  27.604  1.00  0.00     0.163 HD
ATOM     31  O   UNL A   1      34.014  29.942  26.868  1.00  0.00    -0.269 OA
BRANCH  29  32
ATOM     32  C   UNL A   1      35.865  30.269  28.272  1.00  0.00     0.039 A 
ATOM     33  C   UNL A   1      35.876  29.699  29.549  1.00  0.00     0.014 A 
ATOM     34  C   UNL A   1      37.074  30.466  27.605  1.00  0.00     0.014 A 
ATOM     35  C   UNL A   1      37.082  29.268  30.119  1.00  0.00     0.010 A 
ATOM     36  C   UNL A   1      38.270  30.000  28.151  1.00  0.00     0.010 A 
ATOM     37  C   UNL A   1      38.288  29.386  29.409  1.00  0.00    -0.014 A 
BRANCH  37  38
ATOM     38  C   UNL A   1      39.561  28.820  29.933  1.00  0.00     0.031 A 
ATOM     39  C   UNL A   1      40.251  29.429  31.123  1.00  0.00     0.074 A 
ATOM     40  C   UNL A   1      40.147  27.801  29.273  1.00  0.00     0.049 A 
ATOM     41  N   UNL A   1      41.378  29.080  31.692  1.00  0.00    -0.248 NA
ATOM     42  C   UNL A   1      39.600  30.591  31.745  1.00  0.00     0.031 C 
ATOM     43  C   UNL A   1      39.617  27.155  28.071  1.00  0.00     0.029 A 
ATOM     44  N   UNL A   1      41.330  27.143  29.508  1.00  0.00    -0.354 N 
ATOM     45  C   UNL A   1      41.570  29.972  32.739  1.00  0.00     0.074 A 
ATOM     46  C   UNL A   1      40.469  30.913  32.694  1.00  0.00     0.031 C 
ATOM     47  C   UNL A   1      40.465  26.194  27.678  1.00  0.00     0.029 A 
ATOM     48  C   UNL A   1      41.608  26.164  28.585  1.00  0.00     0.049 A 
ATOM     49  H   UNL A   1      41.922  27.352  30.267  1.00  0.00     0.167 HD
ATOM     50  C   UNL A   1      42.559  29.992  33.667  1.00  0.00     0.037 A 
ATOM     51  C   UNL A   1      42.664  25.335  28.479  1.00  0.00     0.037 A 
ATOM     52  C   UNL A   1      43.651  29.054  33.715  1.00  0.00     0.049 A 
ATOM     53  C   UNL A   1      43.758  25.391  29.508  1.00  0.00     0.074 A 
ATOM     54  C   UNL A   1      44.657  28.950  34.662  1.00  0.00     0.029 A 
ATOM     55  N   UNL A   1      43.891  28.068  32.770  1.00  0.00    -0.354 N 
ATOM     56  N   UNL A   1      43.869  26.173  30.554  1.00  0.00    -0.248 NA
ATOM     57  C   UNL A   1      44.865  24.437  29.350  1.00  0.00     0.031 C 
ATOM     58  C   UNL A   1      45.535  27.937  34.261  1.00  0.00     0.029 A 
ATOM     59  C   UNL A   1      45.046  27.374  33.094  1.00  0.00     0.049 A 
ATOM     60  H   UNL A   1      43.325  27.888  31.985  1.00  0.00     0.167 HD
ATOM     61  C   UNL A   1      45.037  25.782  31.197  1.00  0.00     0.074 A 
ATOM     62  C   UNL A   1      45.593  24.688  30.429  1.00  0.00     0.031 C 
ATOM     63  C   UNL A   1      45.593  26.282  32.327  1.00  0.00     0.037 A 
BRANCH  50  64
ATOM     64  C   UNL A   1      42.506  31.063  34.719  1.00  0.00     0.057 A 
ATOM     65  C   UNL A   1      42.940  32.370  34.464  1.00  0.00     0.134 A 
ATOM     66  C   UNL A   1      41.955  30.803  35.981  1.00  0.00     0.134 A 
ATOM     67  F   UNL A   1      43.481  32.687  33.277  1.00  0.00    -0.206 F 
ATOM     68  C   UNL A   1      42.851  33.373  35.432  1.00  0.00     0.040 A 
ATOM     69  C   UNL A   1      41.837  31.804  36.948  1.00  0.00     0.040 A 
ATOM     70  F   UNL A   1      41.508  29.577  36.290  1.00  0.00    -0.206 F 
ATOM     71  C   UNL A   1      42.290  33.093  36.675  1.00  0.00     0.006 A 
ENDBRANCH  50  64
BRANCH  51  72
ATOM     72  C   UNL A   1      42.721  24.350  27.369  1.00  0.00     0.057 A 
ATOM     73  C   UNL A   1      43.286  24.689  26.134  1.00  0.00     0.134 A 
ATOM     74  C   UNL A   1      42.207  23.056  27.512  1.00  0.00     0.134 A 
ATOM     75  F   UNL A   1      43.777  25.921  25.932  1.00  0.00    -0.206 F 
ATOM     76  C   UNL A   1      43.320  23.783  25.073  1.00  0.00     0.040 A 
ATOM     77  C   UNL A   1      42.259  22.132  26.468  1.00  0.00     0.040 A 
ATOM     78  F   UNL A   1      41.662  22.669  28.674  1.00  0.00    -0.206 F 
ATOM     79  C   UNL A   1      42.809  22.498  25.242  1.00  0.00     0.006 A 
ENDBRANCH  51  72
BRANCH  63  80
ATOM     80  C   UNL A   1      46.850  25.628  32.824  1.00  0.00     0.057 A 
ATOM     81  C   UNL A   1      48.116  25.999  32.352  1.00  0.00     0.134 A 
ATOM     82  C   UNL A   1      46.794  24.634  33.809  1.00  0.00     0.134 A 
ATOM     83  F   UNL A   1      48.239  26.934  31.399  1.00  0.00    -0.206 F 
ATOM     84  C   UNL A   1      49.279  25.388  32.826  1.00  0.00     0.040 A 
ATOM     85  C   UNL A   1      47.951  24.035  34.310  1.00  0.00     0.040 A 
ATOM     86  F   UNL A   1      45.615  24.236  34.310  1.00  0.00    -0.206 F 
ATOM     87  C   UNL A   1      49.199  24.407  33.812  1.00  0.00     0.006 A 
ENDBRANCH  63  80
ENDBRANCH  37  38
ENDBRANCH  29  32
ENDBRANCH  27  28
ENDBRANCH  26  27
ENDBRANCH   1  26
TORSDOF 15
ENDMDL
MODEL 3
REMARK VINA RESULT:     -10.6      4.245     11.852
REMARK SMILES O=C(CCc1nc(-c2ccccc2)c(-c2ccccc2)o1)NCCCCNC(=O)c1ccc(-c2c3nc(c(-c4c(F)cccc4F)c4ccc([nH]4)c(-c4c(F)cccc4F)c4nc(c(-c5c(F)cccc5F)c5ccc2[nH]5)C=C4)C=C3)cc1
REMARK SMILES IDX 24 1 23 2 22 3 1 4 2 5 3 7 4 8 5 9 6 10 21 11 7 12 14 13
REMARK SMILES IDX 8 14 9 15 13 16 10 17 12 18 11 19 15 20 16 21 20 22 17 23
REMARK SMILES IDX 19 24 18 25 25 26 26 27 27 28 28 29 29 31 30 32 31 33 83 34
REMARK SMILES IDX 32 35 82 36 33 37 34 38 35 39 76 40 36 41 81 42 75 43 77 44
REMARK SMILES IDX 37 45 80 46 74 47 73 48 38 50 64 51 47 52 63 53 48 54 51 55
REMARK SMILES IDX 62 56 78 57 49 58 50 59 61 61 79 62 52 63 39 64 40 65 45 66
REMARK SMILES IDX 41 67 42 68 44 69 46 70 43 71 65 72 66 73 71 74 67 75 68 76
REMARK SMILES IDX 70 77 72 78 69 79 53 80 54 81 59 82 55 83 56 84 58 85 60 86
REMARK SMILES IDX 57 87
REMARK H PARENT 22 6 27 30 77 49 51 60
REMARK Flexibility Score: inf
ROOT
ATOM      1  C   UNL A   1      41.718  19.132  26.586  1.00  0.00     0.023 C 
ENDROOT
BRANCH   1   2
ATOM      2  C   UNL A   1      43.083  18.458  26.465  1.00  0.00     0.116 C 
BRANCH   2   3
ATOM      3  N   UNL A   1      44.045  19.259  25.735  1.00  0.00    -0.356 N 
ATOM      4  O   UNL A   1      45.700  17.663  25.691  1.00  0.00    -0.275 OA
ATOM      5  C   UNL A   1      45.284  18.774  25.378  1.00  0.00     0.220 C 
ATOM      6  H   UNL A   1      43.806  20.181  25.488  1.00  0.00     0.163 HD
BRANCH   5   7
ATOM      7  C   UNL A   1      46.102  19.715  24.520  1.00  0.00     0.110 C 
BRANCH   7   8
ATOM      8  C   UNL A   1      45.218  20.773  23.871  1.00  0.00     0.107 C 
BRANCH   8   9
ATOM      9  C   UNL A   1      45.387  22.099  24.521  1.00  0.00     0.196 A 
ATOM     10  N   UNL A   1      45.957  23.182  24.035  1.00  0.00    -0.213 NA
ATOM     11  O   UNL A   1      44.992  22.199  25.825  1.00  0.00    -0.440 OA
ATOM     12  C   UNL A   1      45.903  24.074  25.079  1.00  0.00     0.117 A 
ATOM     13  C   UNL A   1      45.313  23.484  26.183  1.00  0.00     0.162 A 
BRANCH  12  14
ATOM     14  C   UNL A   1      46.463  25.405  25.013  1.00  0.00     0.004 A 
ATOM     15  C   UNL A   1      45.624  26.523  25.001  1.00  0.00     0.010 A 
ATOM     16  C   UNL A   1      47.846  25.589  24.951  1.00  0.00     0.010 A 
ATOM     17  C   UNL A   1      46.153  27.809  24.892  1.00  0.00     0.001 A 
ATOM     18  C   UNL A   1      48.377  26.878  24.831  1.00  0.00     0.001 A 
ATOM     19  C   UNL A   1      47.529  27.986  24.793  1.00  0.00     0.000 A 
ENDBRANCH  12  14
BRANCH  13  20
ATOM     20  C   UNL A   1      44.985  23.872  27.547  1.00  0.00     0.020 A 
ATOM     21  C   UNL A   1      43.702  23.640  28.066  1.00  0.00     0.012 A 
ATOM     22  C   UNL A   1      45.949  24.451  28.383  1.00  0.00     0.012 A 
ATOM     23  C   UNL A   1      43.404  23.937  29.398  1.00  0.00     0.001 A 
ATOM     24  C   UNL A   1      45.647  24.767  29.710  1.00  0.00     0.001 A 
ATOM     25  C   UNL A   1      44.379  24.499  30.220  1.00  0.00     0.000 A 
ENDBRANCH  13  20
ENDBRANCH   8   9
ENDBRANCH   7   8
ENDBRANCH   5   7
ENDBRANCH   2   3
ENDBRANCH   1   2
BRANCH   1  26
ATOM     26  C   UNL A   1      41.726  20.558  27.145  1.00  0.00     0.023 C 
BRANCH  26  27
ATOM     27  C   UNL A   1      41.359  21.669  26.166  1.00  0.00     0.116 C 
BRANCH  27  28
ATOM     28  N   UNL A   1      39.937  21.825  25.938  1.00  0.00    -0.352 N 
ATOM     29  C   UNL A   1      39.128  22.909  26.211  1.00  0.00     0.251 C 
ATOM     30  H   UNL A   1      39.485  21.052  25.531  1.00  0.00     0.163 HD
ATOM     31  O   UNL A   1      37.917  22.818  26.038  1.00  0.00    -0.269 OA
BRANCH  29  32
ATOM     32  C   UNL A   1      39.693  24.177  26.745  1.00  0.00     0.039 A 
ATOM     33  C   UNL A   1      40.242  25.104  25.852  1.00  0.00     0.014 A 
ATOM     34  C   UNL A   1      39.722  24.452  28.112  1.00  0.00     0.014 A 
ATOM     35  C   UNL A   1      40.749  26.323  26.323  1.00  0.00     0.010 A 
ATOM     36  C   UNL A   1      40.187  25.682  28.579  1.00  0.00     0.010 A 
ATOM     37  C   UNL A   1      40.695  26.636  27.691  1.00  0.00    -0.014 A 
BRANCH  37  38
ATOM     38  C   UNL A   1      41.105  27.973  28.202  1.00  0.00     0.031 A 
ATOM     39  C   UNL A   1      42.558  28.336  28.350  1.00  0.00     0.074 A 
ATOM     40  C   UNL A   1      40.157  28.834  28.621  1.00  0.00     0.049 A 
ATOM     41  N   UNL A   1      43.089  29.444  28.805  1.00  0.00    -0.248 NA
ATOM     42  C   UNL A   1      43.541  27.318  27.954  1.00  0.00     0.031 C 
ATOM     43  C   UNL A   1      38.715  28.586  28.588  1.00  0.00     0.029 A 
ATOM     44  N   UNL A   1      40.265  30.086  29.176  1.00  0.00    -0.354 N 
ATOM     45  C   UNL A   1      44.465  29.260  28.745  1.00  0.00     0.074 A 
ATOM     46  C   UNL A   1      44.686  27.913  28.259  1.00  0.00     0.031 C 
ATOM     47  C   UNL A   1      38.074  29.650  29.095  1.00  0.00     0.029 A 
ATOM     48  C   UNL A   1      39.056  30.649  29.506  1.00  0.00     0.049 A 
ATOM     49  H   UNL A   1      41.128  30.538  29.323  1.00  0.00     0.167 HD
ATOM     50  C   UNL A   1      45.452  30.140  29.044  1.00  0.00     0.037 A 
ATOM     51  C   UNL A   1      38.767  31.834  30.075  1.00  0.00     0.037 A 
ATOM     52  C   UNL A   1      45.232  31.482  29.522  1.00  0.00     0.049 A 
ATOM     53  C   UNL A   1      39.881  32.784  30.416  1.00  0.00     0.074 A 
ATOM     54  C   UNL A   1      46.169  32.470  29.779  1.00  0.00     0.029 A 
ATOM     55  N   UNL A   1      43.992  32.019  29.831  1.00  0.00    -0.354 N 
ATOM     56  N   UNL A   1      41.173  32.635  30.254  1.00  0.00    -0.248 NA
ATOM     57  C   UNL A   1      39.494  34.074  31.006  1.00  0.00     0.031 C 
ATOM     58  C   UNL A   1      45.500  33.586  30.293  1.00  0.00     0.029 A 
ATOM     59  C   UNL A   1      44.143  33.313  30.306  1.00  0.00     0.049 A 
ATOM     60  H   UNL A   1      43.132  31.552  29.727  1.00  0.00     0.167 HD
ATOM     61  C   UNL A   1      41.749  33.823  30.686  1.00  0.00     0.074 A 
ATOM     62  C   UNL A   1      40.666  34.685  31.110  1.00  0.00     0.031 C 
ATOM     63  C   UNL A   1      43.059  34.168  30.723  1.00  0.00     0.037 A 
BRANCH  50  64
ATOM     64  C   UNL A   1      46.872  29.685  28.856  1.00  0.00     0.057 A 
ATOM     65  C   UNL A   1      47.514  28.867  29.794  1.00  0.00     0.134 A 
ATOM     66  C   UNL A   1      47.584  30.014  27.695  1.00  0.00     0.134 A 
ATOM     67  F   UNL A   1      46.891  28.517  30.931  1.00  0.00    -0.206 F 
ATOM     68  C   UNL A   1      48.820  28.413  29.597  1.00  0.00     0.040 A 
ATOM     69  C   UNL A   1      48.880  29.544  27.474  1.00  0.00     0.040 A 
ATOM     70  F   UNL A   1      47.026  30.784  26.749  1.00  0.00    -0.206 F 
ATOM     71  C   UNL A   1      49.503  28.744  28.429  1.00  0.00     0.006 A 
ENDBRANCH  50  64
BRANCH  51  72
ATOM     72  C   UNL A   1      37.353  32.208  30.326  1.00  0.00     0.057 A 
ATOM     73  C   UNL A   1      36.707  31.829  31.509  1.00  0.00     0.134 A 
ATOM     74  C   UNL A   1      36.613  32.943  29.392  1.00  0.00     0.134 A 
ATOM     75  F   UNL A   1      37.360  31.107  32.433  1.00  0.00    -0.206 F 
ATOM     76  C   UNL A   1      35.369  32.148  31.746  1.00  0.00     0.040 A 
ATOM     77  C   UNL A   1      35.283  33.291  29.628  1.00  0.00     0.040 A 
ATOM     78  F   UNL A   1      37.179  33.343  28.245  1.00  0.00    -0.206 F 
ATOM     79  C   UNL A   1      34.656  32.886  30.805  1.00  0.00     0.006 A 
ENDBRANCH  51  72
BRANCH  63  80
ATOM     80  C   UNL A   1      43.394  35.551  31.203  1.00  0.00     0.057 A 
ATOM     81  C   UNL A   1      43.526  35.851  32.564  1.00  0.00     0.134 A 
ATOM     82  C   UNL A   1      43.615  36.589  30.288  1.00  0.00     0.134 A 
ATOM     83  F   UNL A   1      43.314  34.908  33.493  1.00  0.00    -0.206 F 
ATOM     84  C   UNL A   1      43.843  37.140  33.000  1.00  0.00     0.040 A 
ATOM     85  C   UNL A   1      43.960  37.874  30.710  1.00  0.00     0.040 A 
ATOM     86  F   UNL A   1      43.513  36.368  28.969  1.00  0.00    -0.206 F 
ATOM     87  C   UNL A   1      44.068  38.154  32.071  1.00  0.00     0.006 A 
ENDBRANCH  63  80
ENDBRANCH  37  38
ENDBRANCH  29  32
ENDBRANCH  27  28
ENDBRANCH  26  27
ENDBRANCH   1  26
TORSDOF 15
ENDMDL
