MODEL 1
REMARK VINA RESULT:     -12.9      0.000      0.000
REMARK SMILES O=C(NCCCCNC(=O)[C@H]1CCCC[C@H]1C(=O)N1CCN(S(=O)(=O)c2ccc(F)cc2)CC1)c1ccc(-c2c3nc(c(-c4c(F)cccc4F)c4ccc([nH]4)c(-c4c(F)cccc4F)c4nc(c(-c5c(F)cccc5F)c5ccc2[nH]5)C=C4)C=C3)cc1
REMARK SMILES IDX 6 1 5 2 4 3 3 4 1 5 2 6 35 8 36 9 88 10 37 11 87 12 38 13
REMARK SMILES IDX 39 14 40 15 81 16 41 17 86 18 80 19 82 20 42 21 85 22 79 23
REMARK SMILES IDX 78 24 43 26 69 27 52 28 68 29 53 30 56 31 67 32 83 33 54 34
REMARK SMILES IDX 55 35 66 37 84 38 57 39 44 40 45 41 50 42 46 43 47 44 49 45
REMARK SMILES IDX 51 46 48 47 70 48 71 49 76 50 72 51 73 52 75 53 77 54 74 55
REMARK SMILES IDX 58 56 59 57 64 58 60 59 61 60 63 61 65 62 62 63 7 64 8 65
REMARK SMILES IDX 9 66 10 68 11 69 12 70 16 71 13 72 15 73 14 74 17 75 18 76
REMARK SMILES IDX 19 77 20 78 34 79 21 80 33 81 22 82 23 83 24 84 25 85 26 86
REMARK SMILES IDX 27 87 32 88 28 89 31 90 29 91 30 92
REMARK H PARENT 3 7 82 25 56 36 8 67
REMARK Flexibility Score: inf
ROOT
ATOM      1  C   UNL A   1      34.225  30.669  27.341  1.00  0.00     0.023 C 
ENDROOT
BRANCH   1   2
ATOM      2  C   UNL A   1      32.940  31.463  27.593  1.00  0.00     0.023 C 
BRANCH   2   3
ATOM      3  C   UNL A   1      32.756  32.783  26.861  1.00  0.00     0.116 C 
BRANCH   3   4
ATOM      4  N   UNL A   1      32.430  33.898  27.725  1.00  0.00    -0.352 N 
ATOM      5  O   UNL A   1      32.641  35.307  29.467  1.00  0.00    -0.269 OA
ATOM      6  C   UNL A   1      33.131  34.402  28.798  1.00  0.00     0.251 C 
ATOM      7  H   UNL A   1      31.588  34.363  27.515  1.00  0.00     0.163 HD
BRANCH   6   8
ATOM      8  C   UNL A   1      34.460  33.851  29.178  1.00  0.00     0.039 A 
ATOM      9  C   UNL A   1      34.614  32.986  30.262  1.00  0.00     0.014 A 
ATOM     10  C   UNL A   1      35.576  34.174  28.396  1.00  0.00     0.014 A 
ATOM     11  C   UNL A   1      35.885  32.549  30.632  1.00  0.00     0.010 A 
ATOM     12  C   UNL A   1      36.844  33.673  28.725  1.00  0.00     0.010 A 
ATOM     13  C   UNL A   1      37.016  32.873  29.863  1.00  0.00    -0.014 A 
BRANCH  13  14
ATOM     14  C   UNL A   1      38.334  32.290  30.233  1.00  0.00     0.031 A 
ATOM     15  C   UNL A   1      39.206  32.906  31.292  1.00  0.00     0.074 A 
ATOM     16  C   UNL A   1      38.719  31.141  29.640  1.00  0.00     0.049 A 
ATOM     17  N   UNL A   1      40.348  32.474  31.772  1.00  0.00    -0.248 NA
ATOM     18  C   UNL A   1      38.751  34.172  31.888  1.00  0.00     0.031 C 
ATOM     19  C   UNL A   1      37.973  30.450  28.585  1.00  0.00     0.029 A 
ATOM     20  N   UNL A   1      39.805  30.332  29.859  1.00  0.00    -0.354 N 
ATOM     21  C   UNL A   1      40.753  33.417  32.708  1.00  0.00     0.074 A 
ATOM     22  C   UNL A   1      39.746  34.457  32.720  1.00  0.00     0.031 C 
ATOM     23  C   UNL A   1      38.577  29.286  28.309  1.00  0.00     0.029 A 
ATOM     24  C   UNL A   1      39.784  29.174  29.119  1.00  0.00     0.049 A 
ATOM     25  H   UNL A   1      40.530  30.559  30.486  1.00  0.00     0.167 HD
ATOM     26  C   UNL A   1      41.859  33.409  33.490  1.00  0.00     0.037 A 
ATOM     27  C   UNL A   1      40.637  28.133  29.092  1.00  0.00     0.037 A 
ATOM     28  C   UNL A   1      42.850  32.362  33.500  1.00  0.00     0.049 A 
ATOM     29  C   UNL A   1      41.851  28.152  29.973  1.00  0.00     0.074 A 
ATOM     30  C   UNL A   1      43.989  32.263  34.282  1.00  0.00     0.029 A 
ATOM     31  N   UNL A   1      42.819  31.233  32.698  1.00  0.00    -0.354 N 
ATOM     32  N   UNL A   1      42.213  29.049  30.856  1.00  0.00    -0.248 NA
ATOM     33  C   UNL A   1      42.782  27.024  29.842  1.00  0.00     0.031 C 
ATOM     34  C   UNL A   1      44.664  31.089  33.932  1.00  0.00     0.029 A 
ATOM     35  C   UNL A   1      43.926  30.439  32.957  1.00  0.00     0.049 A 
ATOM     36  H   UNL A   1      42.115  31.024  32.042  1.00  0.00     0.167 HD
ATOM     37  C   UNL A   1      43.413  28.596  31.384  1.00  0.00     0.074 A 
ATOM     38  C   UNL A   1      43.703  27.329  30.746  1.00  0.00     0.031 C 
ATOM     39  C   UNL A   1      44.209  29.187  32.307  1.00  0.00     0.037 A 
BRANCH  26  40
ATOM     40  C   UNL A   1      42.075  34.568  34.419  1.00  0.00     0.057 A 
ATOM     41  C   UNL A   1      42.796  35.694  34.001  1.00  0.00     0.134 A 
ATOM     42  C   UNL A   1      41.664  34.519  35.756  1.00  0.00     0.134 A 
ATOM     43  F   UNL A   1      43.227  35.794  32.734  1.00  0.00    -0.206 F 
ATOM     44  C   UNL A   1      43.116  36.725  34.886  1.00  0.00     0.040 A 
ATOM     45  C   UNL A   1      41.963  35.553  36.646  1.00  0.00     0.040 A 
ATOM     46  F   UNL A   1      40.969  33.469  36.216  1.00  0.00    -0.206 F 
ATOM     47  C   UNL A   1      42.701  36.654  36.215  1.00  0.00     0.006 A 
ENDBRANCH  26  40
BRANCH  27  48
ATOM     48  C   UNL A   1      40.362  26.978  28.202  1.00  0.00     0.057 A 
ATOM     49  C   UNL A   1      39.503  25.944  28.592  1.00  0.00     0.134 A 
ATOM     50  C   UNL A   1      40.969  26.876  26.946  1.00  0.00     0.134 A 
ATOM     51  F   UNL A   1      38.895  25.983  29.787  1.00  0.00    -0.206 F 
ATOM     52  C   UNL A   1      39.273  24.839  27.773  1.00  0.00     0.040 A 
ATOM     53  C   UNL A   1      40.729  25.788  26.105  1.00  0.00     0.040 A 
ATOM     54  F   UNL A   1      41.785  27.846  26.510  1.00  0.00    -0.206 F 
ATOM     55  C   UNL A   1      39.884  24.761  26.524  1.00  0.00     0.006 A 
ENDBRANCH  27  48
BRANCH  39  56
ATOM     56  C   UNL A   1      45.473  28.471  32.675  1.00  0.00     0.057 A 
ATOM     57  C   UNL A   1      46.662  28.703  31.973  1.00  0.00     0.134 A 
ATOM     58  C   UNL A   1      45.500  27.524  33.706  1.00  0.00     0.134 A 
ATOM     59  F   UNL A   1      46.699  29.594  30.971  1.00  0.00    -0.206 F 
ATOM     60  C   UNL A   1      47.835  28.013  32.283  1.00  0.00     0.040 A 
ATOM     61  C   UNL A   1      46.672  26.842  34.038  1.00  0.00     0.040 A 
ATOM     62  F   UNL A   1      44.396  27.268  34.424  1.00  0.00    -0.206 F 
ATOM     63  C   UNL A   1      47.842  27.083  33.320  1.00  0.00     0.006 A 
ENDBRANCH  39  56
ENDBRANCH  13  14
ENDBRANCH   6   8
ENDBRANCH   3   4
ENDBRANCH   2   3
ENDBRANCH   1   2
BRANCH   1  64
ATOM     64  C   UNL A   1      34.076  29.258  26.765  1.00  0.00     0.116 C 
BRANCH  64  65
ATOM     65  N   UNL A   1      34.039  29.200  25.313  1.00  0.00    -0.356 N 
ATOM     66  C   UNL A   1      32.987  29.100  24.445  1.00  0.00     0.223 C 
ATOM     67  H   UNL A   1      34.922  29.240  24.881  1.00  0.00     0.163 HD
ATOM     68  O   UNL A   1      33.262  29.058  23.243  1.00  0.00    -0.275 OA
BRANCH  66  69
ATOM     69  C   UNL A   1      31.555  29.000  24.960  1.00  0.00     0.091 C 
ATOM     70  C   UNL A   1      30.708  29.841  23.967  1.00  0.00     0.014 C 
ATOM     71  C   UNL A   1      30.930  27.586  25.105  1.00  0.00     0.091 C 
ATOM     72  C   UNL A   1      30.413  29.121  22.642  1.00  0.00     0.001 C 
ATOM     73  C   UNL A   1      30.654  26.880  23.770  1.00  0.00     0.014 C 
ATOM     74  C   UNL A   1      29.794  27.747  22.858  1.00  0.00     0.001 C 
BRANCH  71  75
ATOM     75  C   UNL A   1      31.404  26.556  26.165  1.00  0.00     0.226 C 
ATOM     76  O   UNL A   1      31.281  26.817  27.363  1.00  0.00    -0.275 OA
ATOM     77  N   UNL A   1      31.766  25.290  25.751  1.00  0.00    -0.340 N 
ATOM     78  C   UNL A   1      31.500  24.094  26.562  1.00  0.00     0.136 C 
ATOM     79  C   UNL A   1      32.840  25.076  24.822  1.00  0.00     0.136 C 
ATOM     80  C   UNL A   1      31.335  22.819  25.678  1.00  0.00     0.124 C 
ATOM     81  C   UNL A   1      32.492  23.970  23.847  1.00  0.00     0.124 C 
ATOM     82  N   UNL A   1      32.390  22.677  24.584  1.00  0.00    -0.194 NA
BRANCH  82  83
ATOM     83  S   UNL A   1      33.837  21.918  25.108  1.00  0.00     0.243 S 
ATOM     84  O   UNL A   1      34.947  22.463  24.350  1.00  0.00    -0.207 OA
ATOM     85  O   UNL A   1      33.844  21.981  26.551  1.00  0.00    -0.207 OA
BRANCH  83  86
ATOM     86  C   UNL A   1      33.701  20.199  24.628  1.00  0.00     0.082 A 
ATOM     87  C   UNL A   1      32.554  19.757  23.949  1.00  0.00     0.025 A 
ATOM     88  C   UNL A   1      34.785  19.332  24.800  1.00  0.00     0.025 A 
ATOM     89  C   UNL A   1      32.453  18.429  23.535  1.00  0.00     0.040 A 
ATOM     90  C   UNL A   1      34.698  18.015  24.332  1.00  0.00     0.040 A 
ATOM     91  C   UNL A   1      33.530  17.573  23.719  1.00  0.00     0.123 A 
ATOM     92  F   UNL A   1      33.442  16.311  23.282  1.00  0.00    -0.207 F 
ENDBRANCH  83  86
ENDBRANCH  82  83
ENDBRANCH  71  75
ENDBRANCH  66  69
ENDBRANCH  64  65
ENDBRANCH   1  64
TORSDOF 14
ENDMDL
MODEL 2
REMARK VINA RESULT:     -12.5      1.393      2.210
REMARK SMILES O=C(NCCCCNC(=O)[C@H]1CCCC[C@H]1C(=O)N1CCN(S(=O)(=O)c2ccc(F)cc2)CC1)c1ccc(-c2c3nc(c(-c4c(F)cccc4F)c4ccc([nH]4)c(-c4c(F)cccc4F)c4nc(c(-c5c(F)cccc5F)c5ccc2[nH]5)C=C4)C=C3)cc1
REMARK SMILES IDX 6 1 5 2 4 3 3 4 1 5 2 6 35 8 36 9 88 10 37 11 87 12 38 13
REMARK SMILES IDX 39 14 40 15 81 16 41 17 86 18 80 19 82 20 42 21 85 22 79 23
REMARK SMILES IDX 78 24 43 26 69 27 52 28 68 29 53 30 56 31 67 32 83 33 54 34
REMARK SMILES IDX 55 35 66 37 84 38 57 39 44 40 45 41 50 42 46 43 47 44 49 45
REMARK SMILES IDX 51 46 48 47 70 48 71 49 76 50 72 51 73 52 75 53 77 54 74 55
REMARK SMILES IDX 58 56 59 57 64 58 60 59 61 60 63 61 65 62 62 63 7 64 8 65
REMARK SMILES IDX 9 66 10 68 11 69 12 70 16 71 13 72 15 73 14 74 17 75 18 76
REMARK SMILES IDX 19 77 20 78 34 79 21 80 33 81 22 82 23 83 24 84 25 85 26 86
REMARK SMILES IDX 27 87 32 88 28 89 31 90 29 91 30 92
REMARK H PARENT 3 7 82 25 56 36 8 67
REMARK Flexibility Score: inf
ROOT
ATOM      1  C   UNL A   1      34.172  30.386  27.336  1.00  0.00     0.023 C 
ENDROOT
BRANCH   1   2
ATOM      2  C   UNL A   1      32.879  31.166  27.594  1.00  0.00     0.023 C 
BRANCH   2   3
ATOM      3  C   UNL A   1      32.564  32.350  26.693  1.00  0.00     0.116 C 
BRANCH   3   4
ATOM      4  N   UNL A   1      32.294  33.580  27.406  1.00  0.00    -0.352 N 
ATOM      5  O   UNL A   1      32.594  35.204  28.935  1.00  0.00    -0.269 OA
ATOM      6  C   UNL A   1      33.040  34.202  28.383  1.00  0.00     0.251 C 
ATOM      7  H   UNL A   1      31.458  34.037  27.157  1.00  0.00     0.163 HD
BRANCH   6   8
ATOM      8  C   UNL A   1      34.365  33.668  28.798  1.00  0.00     0.039 A 
ATOM      9  C   UNL A   1      34.527  32.946  29.980  1.00  0.00     0.014 A 
ATOM     10  C   UNL A   1      35.467  33.857  27.953  1.00  0.00     0.014 A 
ATOM     11  C   UNL A   1      35.797  32.525  30.373  1.00  0.00     0.010 A 
ATOM     12  C   UNL A   1      36.730  33.366  28.314  1.00  0.00     0.010 A 
ATOM     13  C   UNL A   1      36.913  32.716  29.541  1.00  0.00    -0.014 A 
BRANCH  13  14
ATOM     14  C   UNL A   1      38.227  32.148  29.952  1.00  0.00     0.031 A 
ATOM     15  C   UNL A   1      39.077  32.797  31.009  1.00  0.00     0.074 A 
ATOM     16  C   UNL A   1      38.627  30.985  29.398  1.00  0.00     0.049 A 
ATOM     17  N   UNL A   1      40.211  32.383  31.521  1.00  0.00    -0.248 NA
ATOM     18  C   UNL A   1      38.607  34.077  31.561  1.00  0.00     0.031 C 
ATOM     19  C   UNL A   1      37.902  30.261  28.350  1.00  0.00     0.029 A 
ATOM     20  N   UNL A   1      39.712  30.186  29.660  1.00  0.00    -0.354 N 
ATOM     21  C   UNL A   1      40.596  33.353  32.438  1.00  0.00     0.074 A 
ATOM     22  C   UNL A   1      39.586  34.389  32.402  1.00  0.00     0.031 C 
ATOM     23  C   UNL A   1      38.516  29.093  28.117  1.00  0.00     0.029 A 
ATOM     24  C   UNL A   1      39.708  29.008  28.952  1.00  0.00     0.049 A 
ATOM     25  H   UNL A   1      40.424  30.433  30.293  1.00  0.00     0.167 HD
ATOM     26  C   UNL A   1      41.688  33.372  33.240  1.00  0.00     0.037 A 
ATOM     27  C   UNL A   1      40.565  27.970  28.970  1.00  0.00     0.037 A 
ATOM     28  C   UNL A   1      42.681  32.329  33.298  1.00  0.00     0.049 A 
ATOM     29  C   UNL A   1      41.762  28.018  29.872  1.00  0.00     0.074 A 
ATOM     30  C   UNL A   1      43.807  32.257  34.102  1.00  0.00     0.029 A 
ATOM     31  N   UNL A   1      42.669  31.178  32.527  1.00  0.00    -0.354 N 
ATOM     32  N   UNL A   1      42.105  28.942  30.736  1.00  0.00    -0.248 NA
ATOM     33  C   UNL A   1      42.700  26.891  29.790  1.00  0.00     0.031 C 
ATOM     34  C   UNL A   1      44.492  31.076  33.798  1.00  0.00     0.029 A 
ATOM     35  C   UNL A   1      43.774  30.396  32.828  1.00  0.00     0.049 A 
ATOM     36  H   UNL A   1      41.978  30.948  31.864  1.00  0.00     0.167 HD
ATOM     37  C   UNL A   1      43.296  28.508  31.299  1.00  0.00     0.074 A 
ATOM     38  C   UNL A   1      43.603  27.224  30.702  1.00  0.00     0.031 C 
ATOM     39  C   UNL A   1      44.074  29.128  32.219  1.00  0.00     0.037 A 
BRANCH  26  40
ATOM     40  C   UNL A   1      41.882  34.557  34.140  1.00  0.00     0.057 A 
ATOM     41  C   UNL A   1      41.366  34.556  35.443  1.00  0.00     0.134 A 
ATOM     42  C   UNL A   1      42.480  35.735  33.679  1.00  0.00     0.134 A 
ATOM     43  F   UNL A   1      40.770  33.460  35.938  1.00  0.00    -0.206 F 
ATOM     44  C   UNL A   1      41.424  35.692  36.251  1.00  0.00     0.040 A 
ATOM     45  C   UNL A   1      42.560  36.873  34.485  1.00  0.00     0.040 A 
ATOM     46  F   UNL A   1      42.995  35.798  32.442  1.00  0.00    -0.206 F 
ATOM     47  C   UNL A   1      42.021  36.857  35.771  1.00  0.00     0.006 A 
ENDBRANCH  26  40
BRANCH  27  48
ATOM     48  C   UNL A   1      40.310  26.790  28.108  1.00  0.00     0.057 A 
ATOM     49  C   UNL A   1      40.876  26.681  26.832  1.00  0.00     0.134 A 
ATOM     50  C   UNL A   1      39.478  25.750  28.537  1.00  0.00     0.134 A 
ATOM     51  F   UNL A   1      41.678  27.648  26.363  1.00  0.00    -0.206 F 
ATOM     52  C   UNL A   1      40.608  25.591  26.005  1.00  0.00     0.040 A 
ATOM     53  C   UNL A   1      39.221  24.641  27.730  1.00  0.00     0.040 A 
ATOM     54  F   UNL A   1      38.925  25.789  29.758  1.00  0.00    -0.206 F 
ATOM     55  C   UNL A   1      39.780  24.565  26.455  1.00  0.00     0.006 A 
ENDBRANCH  27  48
BRANCH  39  56
ATOM     56  C   UNL A   1      45.333  28.427  32.631  1.00  0.00     0.057 A 
ATOM     57  C   UNL A   1      46.537  28.657  31.955  1.00  0.00     0.134 A 
ATOM     58  C   UNL A   1      45.340  27.497  33.677  1.00  0.00     0.134 A 
ATOM     59  F   UNL A   1      46.593  29.531  30.940  1.00  0.00    -0.206 F 
ATOM     60  C   UNL A   1      47.707  27.981  32.305  1.00  0.00     0.040 A 
ATOM     61  C   UNL A   1      46.509  26.829  34.049  1.00  0.00     0.040 A 
ATOM     62  F   UNL A   1      44.221  27.244  34.371  1.00  0.00    -0.206 F 
ATOM     63  C   UNL A   1      47.695  27.067  33.357  1.00  0.00     0.006 A 
ENDBRANCH  39  56
ENDBRANCH  13  14
ENDBRANCH   6   8
ENDBRANCH   3   4
ENDBRANCH   2   3
ENDBRANCH   1   2
BRANCH   1  64
ATOM     64  C   UNL A   1      34.058  29.084  26.537  1.00  0.00     0.116 C 
BRANCH  64  65
ATOM     65  N   UNL A   1      34.083  29.258  25.094  1.00  0.00    -0.356 N 
ATOM     66  C   UNL A   1      33.171  28.922  24.132  1.00  0.00     0.223 C 
ATOM     67  H   UNL A   1      34.897  29.692  24.750  1.00  0.00     0.163 HD
ATOM     68  O   UNL A   1      33.473  29.184  22.965  1.00  0.00    -0.275 OA
BRANCH  66  69
ATOM     69  C   UNL A   1      31.869  28.217  24.502  1.00  0.00     0.091 C 
ATOM     70  C   UNL A   1      30.979  29.319  25.136  1.00  0.00     0.014 C 
ATOM     71  C   UNL A   1      31.082  27.503  23.371  1.00  0.00     0.091 C 
ATOM     72  C   UNL A   1      30.325  30.255  24.108  1.00  0.00     0.001 C 
ATOM     73  C   UNL A   1      30.447  28.455  22.347  1.00  0.00     0.014 C 
ATOM     74  C   UNL A   1      29.563  29.489  23.035  1.00  0.00     0.001 C 
BRANCH  71  75
ATOM     75  C   UNL A   1      31.596  26.223  22.660  1.00  0.00     0.226 C 
ATOM     76  O   UNL A   1      31.417  26.088  21.448  1.00  0.00    -0.275 OA
ATOM     77  N   UNL A   1      32.417  25.356  23.354  1.00  0.00    -0.340 N 
ATOM     78  C   UNL A   1      33.510  24.621  22.703  1.00  0.00     0.136 C 
ATOM     79  C   UNL A   1      31.986  24.711  24.562  1.00  0.00     0.136 C 
ATOM     80  C   UNL A   1      34.665  24.298  23.701  1.00  0.00     0.124 C 
ATOM     81  C   UNL A   1      33.116  24.652  25.569  1.00  0.00     0.124 C 
ATOM     82  N   UNL A   1      34.193  23.760  25.049  1.00  0.00    -0.194 NA
BRANCH  82  83
ATOM     83  S   UNL A   1      33.931  22.064  25.069  1.00  0.00     0.243 S 
ATOM     84  O   UNL A   1      33.221  21.719  26.285  1.00  0.00    -0.207 OA
ATOM     85  O   UNL A   1      33.380  21.711  23.781  1.00  0.00    -0.207 OA
BRANCH  83  86
ATOM     86  C   UNL A   1      35.550  21.311  25.204  1.00  0.00     0.082 A 
ATOM     87  C   UNL A   1      35.726  19.970  24.826  1.00  0.00     0.025 A 
ATOM     88  C   UNL A   1      36.661  22.088  25.549  1.00  0.00     0.025 A 
ATOM     89  C   UNL A   1      36.989  19.385  24.888  1.00  0.00     0.040 A 
ATOM     90  C   UNL A   1      37.935  21.508  25.556  1.00  0.00     0.040 A 
ATOM     91  C   UNL A   1      38.084  20.161  25.242  1.00  0.00     0.123 A 
ATOM     92  F   UNL A   1      39.301  19.602  25.261  1.00  0.00    -0.207 F 
ENDBRANCH  83  86
ENDBRANCH  82  83
ENDBRANCH  71  75
ENDBRANCH  66  69
ENDBRANCH  64  65
ENDBRANCH   1  64
TORSDOF 14
ENDMDL
MODEL 3
REMARK VINA RESULT:     -12.3      6.199     10.865
REMARK SMILES O=C(NCCCCNC(=O)[C@H]1CCCC[C@H]1C(=O)N1CCN(S(=O)(=O)c2ccc(F)cc2)CC1)c1ccc(-c2c3nc(c(-c4c(F)cccc4F)c4ccc([nH]4)c(-c4c(F)cccc4F)c4nc(c(-c5c(F)cccc5F)c5ccc2[nH]5)C=C4)C=C3)cc1
REMARK SMILES IDX 6 1 5 2 4 3 3 4 1 5 2 6 35 8 36 9 88 10 37 11 87 12 38 13
REMARK SMILES IDX 39 14 40 15 81 16 41 17 86 18 80 19 82 20 42 21 85 22 79 23
REMARK SMILES IDX 78 24 43 26 69 27 52 28 68 29 53 30 56 31 67 32 83 33 54 34
REMARK SMILES IDX 55 35 66 37 84 38 57 39 44 40 45 41 50 42 46 43 47 44 49 45
REMARK SMILES IDX 51 46 48 47 70 48 71 49 76 50 72 51 73 52 75 53 77 54 74 55
REMARK SMILES IDX 58 56 59 57 64 58 60 59 61 60 63 61 65 62 62 63 7 64 8 65
REMARK SMILES IDX 9 66 10 68 11 69 12 70 16 71 13 72 15 73 14 74 17 75 18 76
REMARK SMILES IDX 19 77 20 78 34 79 21 80 33 81 22 82 23 83 24 84 25 85 26 86
REMARK SMILES IDX 27 87 32 88 28 89 31 90 29 91 30 92
REMARK H PARENT 3 7 82 25 56 36 8 67
REMARK Flexibility Score: inf
ROOT
ATOM      1  C   UNL A   1      37.929  23.410  26.141  1.00  0.00     0.023 C 
ENDROOT
BRANCH   1   2
ATOM      2  C   UNL A   1      38.706  24.509  26.874  1.00  0.00     0.023 C 
BRANCH   2   3
ATOM      3  C   UNL A   1      40.181  24.681  26.551  1.00  0.00     0.116 C 
BRANCH   3   4
ATOM      4  N   UNL A   1      40.888  23.437  26.330  1.00  0.00    -0.352 N 
ATOM      5  O   UNL A   1      42.636  22.090  25.888  1.00  0.00    -0.269 OA
ATOM      6  C   UNL A   1      42.236  23.221  26.152  1.00  0.00     0.251 C 
ATOM      7  H   UNL A   1      40.323  22.630  26.305  1.00  0.00     0.163 HD
BRANCH   6   8
ATOM      8  C   UNL A   1      43.215  24.337  26.249  1.00  0.00     0.039 A 
ATOM      9  C   UNL A   1      43.812  24.685  27.461  1.00  0.00     0.014 A 
ATOM     10  C   UNL A   1      43.579  25.024  25.084  1.00  0.00     0.014 A 
ATOM     11  C   UNL A   1      44.669  25.784  27.527  1.00  0.00     0.010 A 
ATOM     12  C   UNL A   1      44.498  26.081  25.139  1.00  0.00     0.010 A 
ATOM     13  C   UNL A   1      45.035  26.489  26.368  1.00  0.00    -0.014 A 
BRANCH  13  14
ATOM     14  C   UNL A   1      46.040  27.582  26.473  1.00  0.00     0.031 A 
ATOM     15  C   UNL A   1      47.514  27.322  26.326  1.00  0.00     0.074 A 
ATOM     16  C   UNL A   1      45.601  28.846  26.644  1.00  0.00     0.049 A 
ATOM     17  N   UNL A   1      48.504  28.182  26.324  1.00  0.00    -0.248 NA
ATOM     18  C   UNL A   1      47.940  25.923  26.168  1.00  0.00     0.031 C 
ATOM     19  C   UNL A   1      44.198  29.231  26.818  1.00  0.00     0.029 A 
ATOM     20  N   UNL A   1      46.276  30.041  26.662  1.00  0.00    -0.354 N 
ATOM     21  C   UNL A   1      49.665  27.431  26.182  1.00  0.00     0.074 A 
ATOM     22  C   UNL A   1      49.261  26.042  26.119  1.00  0.00     0.031 C 
ATOM     23  C   UNL A   1      44.108  30.568  26.842  1.00  0.00     0.029 A 
ATOM     24  C   UNL A   1      45.448  31.135  26.747  1.00  0.00     0.049 A 
ATOM     25  H   UNL A   1      47.257  30.108  26.618  1.00  0.00     0.167 HD
ATOM     26  C   UNL A   1      50.947  27.863  26.104  1.00  0.00     0.037 A 
ATOM     27  C   UNL A   1      45.730  32.452  26.749  1.00  0.00     0.037 A 
ATOM     28  C   UNL A   1      51.349  29.247  26.139  1.00  0.00     0.049 A 
ATOM     29  C   UNL A   1      47.159  32.899  26.657  1.00  0.00     0.074 A 
ATOM     30  C   UNL A   1      52.626  29.774  26.040  1.00  0.00     0.029 A 
ATOM     31  N   UNL A   1      50.486  30.321  26.280  1.00  0.00    -0.354 N 
ATOM     32  N   UNL A   1      48.241  32.174  26.516  1.00  0.00    -0.248 NA
ATOM     33  C   UNL A   1      47.407  34.344  26.740  1.00  0.00     0.031 C 
ATOM     34  C   UNL A   1      52.540  31.165  26.151  1.00  0.00     0.029 A 
ATOM     35  C   UNL A   1      51.204  31.507  26.284  1.00  0.00     0.049 A 
ATOM     36  H   UNL A   1      49.507  30.253  26.365  1.00  0.00     0.167 HD
ATOM     37  C   UNL A   1      49.297  33.073  26.496  1.00  0.00     0.074 A 
ATOM     38  C   UNL A   1      48.725  34.399  26.607  1.00  0.00     0.031 C 
ATOM     39  C   UNL A   1      50.625  32.818  26.407  1.00  0.00     0.037 A 
BRANCH  26  40
ATOM     40  C   UNL A   1      52.031  26.835  25.965  1.00  0.00     0.057 A 
ATOM     41  C   UNL A   1      52.764  26.416  27.083  1.00  0.00     0.134 A 
ATOM     42  C   UNL A   1      52.419  26.347  24.713  1.00  0.00     0.134 A 
ATOM     43  F   UNL A   1      52.448  26.858  28.310  1.00  0.00    -0.206 F 
ATOM     44  C   UNL A   1      53.858  25.558  26.958  1.00  0.00     0.040 A 
ATOM     45  C   UNL A   1      53.501  25.474  24.577  1.00  0.00     0.040 A 
ATOM     46  F   UNL A   1      51.756  26.709  23.605  1.00  0.00    -0.206 F 
ATOM     47  C   UNL A   1      54.231  25.086  25.700  1.00  0.00     0.006 A 
ENDBRANCH  26  40
BRANCH  27  48
ATOM     48  C   UNL A   1      44.628  33.441  26.830  1.00  0.00     0.057 A 
ATOM     49  C   UNL A   1      44.038  33.974  25.677  1.00  0.00     0.134 A 
ATOM     50  C   UNL A   1      44.152  33.890  28.066  1.00  0.00     0.134 A 
ATOM     51  F   UNL A   1      44.455  33.587  24.463  1.00  0.00    -0.206 F 
ATOM     52  C   UNL A   1      43.028  34.932  25.751  1.00  0.00     0.040 A 
ATOM     53  C   UNL A   1      43.124  34.829  28.156  1.00  0.00     0.040 A 
ATOM     54  F   UNL A   1      44.663  33.399  29.205  1.00  0.00    -0.206 F 
ATOM     55  C   UNL A   1      42.566  35.360  26.993  1.00  0.00     0.006 A 
ENDBRANCH  27  48
BRANCH  39  56
ATOM     56  C   UNL A   1      51.549  33.998  26.433  1.00  0.00     0.057 A 
ATOM     57  C   UNL A   1      52.028  34.510  27.645  1.00  0.00     0.134 A 
ATOM     58  C   UNL A   1      51.934  34.648  25.254  1.00  0.00     0.134 A 
ATOM     59  F   UNL A   1      51.690  33.936  28.809  1.00  0.00    -0.206 F 
ATOM     60  C   UNL A   1      52.856  35.632  27.682  1.00  0.00     0.040 A 
ATOM     61  C   UNL A   1      52.778  35.759  25.278  1.00  0.00     0.040 A 
ATOM     62  F   UNL A   1      51.518  34.196  24.061  1.00  0.00    -0.206 F 
ATOM     63  C   UNL A   1      53.237  36.257  26.496  1.00  0.00     0.006 A 
ENDBRANCH  39  56
ENDBRANCH  13  14
ENDBRANCH   6   8
ENDBRANCH   3   4
ENDBRANCH   2   3
ENDBRANCH   1   2
BRANCH   1  64
ATOM     64  C   UNL A   1      36.462  23.694  25.805  1.00  0.00     0.116 C 
BRANCH  64  65
ATOM     65  N   UNL A   1      35.505  22.916  26.574  1.00  0.00    -0.356 N 
ATOM     66  C   UNL A   1      34.782  21.803  26.246  1.00  0.00     0.223 C 
ATOM     67  H   UNL A   1      35.352  23.247  27.489  1.00  0.00     0.163 HD
ATOM     68  O   UNL A   1      34.024  21.359  27.112  1.00  0.00    -0.275 OA
BRANCH  66  69
ATOM     69  C   UNL A   1      34.887  21.184  24.855  1.00  0.00     0.091 C 
ATOM     70  C   UNL A   1      34.464  19.702  25.039  1.00  0.00     0.014 C 
ATOM     71  C   UNL A   1      34.054  21.822  23.711  1.00  0.00     0.091 C 
ATOM     72  C   UNL A   1      32.944  19.501  25.150  1.00  0.00     0.001 C 
ATOM     73  C   UNL A   1      32.538  21.620  23.846  1.00  0.00     0.014 C 
ATOM     74  C   UNL A   1      32.192  20.142  23.991  1.00  0.00     0.001 C 
BRANCH  71  75
ATOM     75  C   UNL A   1      34.354  23.229  23.129  1.00  0.00     0.226 C 
ATOM     76  O   UNL A   1      35.319  23.383  22.377  1.00  0.00    -0.275 OA
ATOM     77  N   UNL A   1      33.425  24.236  23.300  1.00  0.00    -0.340 N 
ATOM     78  C   UNL A   1      33.180  25.261  22.276  1.00  0.00     0.136 C 
ATOM     79  C   UNL A   1      33.023  24.680  24.605  1.00  0.00     0.136 C 
ATOM     80  C   UNL A   1      31.722  25.810  22.343  1.00  0.00     0.124 C 
ATOM     81  C   UNL A   1      31.536  24.968  24.639  1.00  0.00     0.124 C 
ATOM     82  N   UNL A   1      31.240  26.133  23.755  1.00  0.00    -0.194 NA
BRANCH  82  83
ATOM     83  S   UNL A   1      31.674  27.702  24.297  1.00  0.00     0.243 S 
ATOM     84  O   UNL A   1      31.749  27.687  25.745  1.00  0.00    -0.207 OA
ATOM     85  O   UNL A   1      32.816  28.113  23.515  1.00  0.00    -0.207 OA
BRANCH  83  86
ATOM     86  C   UNL A   1      30.301  28.772  23.878  1.00  0.00     0.082 A 
ATOM     87  C   UNL A   1      30.370  30.141  24.183  1.00  0.00     0.025 A 
ATOM     88  C   UNL A   1      29.229  28.279  23.127  1.00  0.00     0.025 A 
ATOM     89  C   UNL A   1      29.324  30.991  23.826  1.00  0.00     0.040 A 
ATOM     90  C   UNL A   1      28.209  29.150  22.724  1.00  0.00     0.040 A 
ATOM     91  C   UNL A   1      28.259  30.491  23.090  1.00  0.00     0.123 A 
ATOM     92  F   UNL A   1      27.278  31.322  22.716  1.00  0.00    -0.207 F 
ENDBRANCH  83  86
ENDBRANCH  82  83
ENDBRANCH  71  75
ENDBRANCH  66  69
ENDBRANCH  64  65
ENDBRANCH   1  64
TORSDOF 14
ENDMDL
