MODEL 1
REMARK VINA RESULT:     -12.5      0.000      0.000
REMARK SMILES O=C(NCCCCNC(=O)C1CCN(C(=O)c2cc(S(=O)(=O)N3CCOCC3)c(Cl)cc2Cl)CC1)c1ccc(-c2c3nc(c(-c4c(F)cccc4F)c4ccc([nH]4)c(-c4c(F)cccc4F)c4nc(c(-c5c(F)cccc5F)c5ccc2[nH]5)C=C4)C=C3)cc1
REMARK SMILES IDX 6 1 5 2 4 3 3 4 1 5 2 6 36 8 37 9 89 10 38 11 88 12 39 13
REMARK SMILES IDX 40 14 41 15 82 16 42 17 87 18 81 19 83 20 43 21 86 22 80 23
REMARK SMILES IDX 79 24 44 26 70 27 53 28 69 29 54 30 57 31 68 32 84 33 55 34
REMARK SMILES IDX 56 35 67 37 85 38 58 39 45 40 46 41 51 42 47 43 48 44 50 45
REMARK SMILES IDX 52 46 49 47 71 48 72 49 77 50 73 51 74 52 76 53 78 54 75 55
REMARK SMILES IDX 59 56 60 57 65 58 61 59 62 60 64 61 66 62 63 63 7 64 8 65
REMARK SMILES IDX 9 66 10 68 11 69 12 70 35 71 13 72 34 73 14 74 15 75 16 76
REMARK SMILES IDX 17 77 18 78 32 79 19 80 31 81 33 82 29 83 30 84 20 85 21 86
REMARK SMILES IDX 22 87 23 88 24 89 28 90 25 91 27 92 26 93
REMARK H PARENT 3 7 83 25 57 36 8 67
REMARK Flexibility Score: inf
ROOT
ATOM      1  C   UNL A   1      33.563  33.405  28.341  1.00  0.00     0.023 C 
ENDROOT
BRANCH   1   2
ATOM      2  C   UNL A   1      33.777  34.248  29.598  1.00  0.00     0.023 C 
BRANCH   2   3
ATOM      3  C   UNL A   1      33.420  35.721  29.463  1.00  0.00     0.116 C 
BRANCH   3   4
ATOM      4  N   UNL A   1      32.533  36.203  30.512  1.00  0.00    -0.352 N 
ATOM      5  O   UNL A   1      31.690  36.352  32.605  1.00  0.00    -0.269 OA
ATOM      6  C   UNL A   1      32.586  35.955  31.866  1.00  0.00     0.251 C 
ATOM      7  H   UNL A   1      31.797  36.783  30.214  1.00  0.00     0.163 HD
BRANCH   6   8
ATOM      8  C   UNL A   1      33.715  35.176  32.419  1.00  0.00     0.039 A 
ATOM      9  C   UNL A   1      34.996  35.726  32.458  1.00  0.00     0.014 A 
ATOM     10  C   UNL A   1      33.497  33.870  32.871  1.00  0.00     0.014 A 
ATOM     11  C   UNL A   1      36.079  34.919  32.780  1.00  0.00     0.010 A 
ATOM     12  C   UNL A   1      34.581  33.091  33.294  1.00  0.00     0.010 A 
ATOM     13  C   UNL A   1      35.885  33.596  33.217  1.00  0.00    -0.014 A 
BRANCH  13  14
ATOM     14  C   UNL A   1      37.073  32.813  33.641  1.00  0.00     0.031 A 
ATOM     15  C   UNL A   1      37.716  31.797  32.738  1.00  0.00     0.074 A 
ATOM     16  C   UNL A   1      37.621  33.091  34.840  1.00  0.00     0.049 A 
ATOM     17  N   UNL A   1      38.811  31.103  32.931  1.00  0.00    -0.248 NA
ATOM     18  C   UNL A   1      37.047  31.511  31.460  1.00  0.00     0.031 C 
ATOM     19  C   UNL A   1      37.071  34.039  35.814  1.00  0.00     0.029 A 
ATOM     20  N   UNL A   1      38.774  32.644  35.430  1.00  0.00    -0.354 N 
ATOM     21  C   UNL A   1      38.959  30.297  31.809  1.00  0.00     0.074 A 
ATOM     22  C   UNL A   1      37.823  30.563  30.951  1.00  0.00     0.031 C 
ATOM     23  C   UNL A   1      37.918  34.154  36.845  1.00  0.00     0.029 A 
ATOM     24  C   UNL A   1      39.038  33.243  36.638  1.00  0.00     0.049 A 
ATOM     25  H   UNL A   1      39.357  31.959  35.029  1.00  0.00     0.167 HD
ATOM     26  C   UNL A   1      39.955  29.425  31.519  1.00  0.00     0.037 A 
ATOM     27  C   UNL A   1      40.063  33.078  37.492  1.00  0.00     0.037 A 
ATOM     28  C   UNL A   1      41.088  29.168  32.374  1.00  0.00     0.049 A 
ATOM     29  C   UNL A   1      41.153  32.111  37.140  1.00  0.00     0.074 A 
ATOM     30  C   UNL A   1      42.150  28.307  32.164  1.00  0.00     0.029 A 
ATOM     31  N   UNL A   1      41.305  29.776  33.601  1.00  0.00    -0.354 N 
ATOM     32  N   UNL A   1      41.284  31.371  36.066  1.00  0.00    -0.248 NA
ATOM     33  C   UNL A   1      42.238  31.955  38.117  1.00  0.00     0.031 C 
ATOM     34  C   UNL A   1      42.995  28.368  33.278  1.00  0.00     0.029 A 
ATOM     35  C   UNL A   1      42.480  29.299  34.164  1.00  0.00     0.049 A 
ATOM     36  H   UNL A   1      40.714  30.447  34.013  1.00  0.00     0.167 HD
ATOM     37  C   UNL A   1      42.463  30.661  36.237  1.00  0.00     0.074 A 
ATOM     38  C   UNL A   1      43.028  31.088  37.501  1.00  0.00     0.031 C 
ATOM     39  C   UNL A   1      43.020  29.727  35.428  1.00  0.00     0.037 A 
BRANCH  26  40
ATOM     40  C   UNL A   1      39.868  28.673  30.222  1.00  0.00     0.057 A 
ATOM     41  C   UNL A   1      40.526  29.118  29.067  1.00  0.00     0.134 A 
ATOM     42  C   UNL A   1      39.177  27.457  30.142  1.00  0.00     0.134 A 
ATOM     43  F   UNL A   1      41.197  30.280  29.072  1.00  0.00    -0.206 F 
ATOM     44  C   UNL A   1      40.487  28.388  27.878  1.00  0.00     0.040 A 
ATOM     45  C   UNL A   1      39.149  26.708  28.965  1.00  0.00     0.040 A 
ATOM     46  F   UNL A   1      38.532  26.968  31.212  1.00  0.00    -0.206 F 
ATOM     47  C   UNL A   1      39.804  27.174  27.826  1.00  0.00     0.006 A 
ENDBRANCH  26  40
BRANCH  27  48
ATOM     48  C   UNL A   1      40.092  33.838  38.765  1.00  0.00     0.057 A 
ATOM     49  C   UNL A   1      40.837  35.015  38.894  1.00  0.00     0.134 A 
ATOM     50  C   UNL A   1      39.363  33.409  39.881  1.00  0.00     0.134 A 
ATOM     51  F   UNL A   1      41.567  35.469  37.865  1.00  0.00    -0.206 F 
ATOM     52  C   UNL A   1      40.869  35.730  40.093  1.00  0.00     0.040 A 
ATOM     53  C   UNL A   1      39.362  34.129  41.075  1.00  0.00     0.040 A 
ATOM     54  F   UNL A   1      38.620  32.294  39.816  1.00  0.00    -0.206 F 
ATOM     55  C   UNL A   1      40.124  35.289  41.185  1.00  0.00     0.006 A 
ENDBRANCH  27  48
BRANCH  39  56
ATOM     56  C   UNL A   1      44.308  29.119  35.896  1.00  0.00     0.057 A 
ATOM     57  C   UNL A   1      45.548  29.689  35.577  1.00  0.00     0.134 A 
ATOM     58  C   UNL A   1      44.311  27.950  36.667  1.00  0.00     0.134 A 
ATOM     59  F   UNL A   1      45.613  30.800  34.829  1.00  0.00    -0.206 F 
ATOM     60  C   UNL A   1      46.746  29.099  35.982  1.00  0.00     0.040 A 
ATOM     61  C   UNL A   1      45.502  27.365  37.098  1.00  0.00     0.040 A 
ATOM     62  F   UNL A   1      43.157  27.358  37.010  1.00  0.00    -0.206 F 
ATOM     63  C   UNL A   1      46.724  27.935  36.748  1.00  0.00     0.006 A 
ENDBRANCH  39  56
ENDBRANCH  13  14
ENDBRANCH   6   8
ENDBRANCH   3   4
ENDBRANCH   2   3
ENDBRANCH   1   2
BRANCH   1  64
ATOM     64  C   UNL A   1      34.840  32.972  27.625  1.00  0.00     0.116 C 
BRANCH  64  65
ATOM     65  N   UNL A   1      35.187  31.590  27.903  1.00  0.00    -0.356 N 
ATOM     66  C   UNL A   1      34.491  30.446  27.642  1.00  0.00     0.223 C 
ATOM     67  H   UNL A   1      36.055  31.458  28.347  1.00  0.00     0.163 HD
ATOM     68  O   UNL A   1      34.976  29.378  28.010  1.00  0.00    -0.275 OA
BRANCH  66  69
ATOM     69  C   UNL A   1      33.170  30.534  26.883  1.00  0.00     0.082 C 
ATOM     70  C   UNL A   1      32.025  29.825  27.626  1.00  0.00     0.035 C 
ATOM     71  C   UNL A   1      33.320  29.975  25.460  1.00  0.00     0.035 C 
ATOM     72  C   UNL A   1      32.082  28.300  27.525  1.00  0.00     0.120 C 
ATOM     73  C   UNL A   1      33.394  28.453  25.445  1.00  0.00     0.120 C 
ATOM     74  N   UNL A   1      32.250  27.868  26.139  1.00  0.00    -0.339 N 
ATOM     75  C   UNL A   1      31.381  26.911  25.623  1.00  0.00     0.255 C 
ATOM     76  O   UNL A   1      30.479  26.371  26.256  1.00  0.00    -0.269 OA
BRANCH  75  77
ATOM     77  C   UNL A   1      31.541  26.503  24.218  1.00  0.00     0.060 A 
ATOM     78  C   UNL A   1      32.347  25.419  23.918  1.00  0.00     0.038 A 
ATOM     79  C   UNL A   1      30.897  27.173  23.192  1.00  0.00     0.055 A 
ATOM     80  C   UNL A   1      32.574  25.064  22.570  1.00  0.00     0.102 A 
ATOM     81  C   UNL A   1      31.107  26.797  21.837  1.00  0.00     0.043 A 
ATOM     82  Cl  UNL A   1      29.865  28.530  23.499  1.00  0.00    -0.083 Cl
ATOM     83  C   UNL A   1      32.012  25.724  21.364  1.00  0.00     0.062 A 
ATOM     84  Cl  UNL A   1      32.528  25.177  19.096  1.00  0.00    -0.083 Cl
BRANCH  80  85
ATOM     85  S   UNL A   1      33.680  23.751  22.368  1.00  0.00     0.244 S 
ATOM     86  O   UNL A   1      33.356  23.056  21.143  1.00  0.00    -0.207 OA
ATOM     87  O   UNL A   1      35.001  24.176  22.750  1.00  0.00    -0.207 OA
BRANCH  85  88
ATOM     88  N   UNL A   1      32.854  23.110  23.654  1.00  0.00    -0.193 NA
ATOM     89  C   UNL A   1      34.202  22.922  25.052  1.00  0.00     0.131 C 
ATOM     90  C   UNL A   1      32.035  21.491  22.932  1.00  0.00     0.131 C 
ATOM     91  C   UNL A   1      34.590  21.153  25.728  1.00  0.00     0.177 C 
ATOM     92  C   UNL A   1      32.523  19.786  23.707  1.00  0.00     0.177 C 
ATOM     93  O   UNL A   1      33.667  19.703  25.125  1.00  0.00    -0.379 OA
ENDBRANCH  85  88
ENDBRANCH  80  85
ENDBRANCH  75  77
ENDBRANCH  66  69
ENDBRANCH  64  65
ENDBRANCH   1  64
TORSDOF 14
ENDMDL
MODEL 2
REMARK VINA RESULT:     -12.3      4.645      7.318
REMARK SMILES O=C(NCCCCNC(=O)C1CCN(C(=O)c2cc(S(=O)(=O)N3CCOCC3)c(Cl)cc2Cl)CC1)c1ccc(-c2c3nc(c(-c4c(F)cccc4F)c4ccc([nH]4)c(-c4c(F)cccc4F)c4nc(c(-c5c(F)cccc5F)c5ccc2[nH]5)C=C4)C=C3)cc1
REMARK SMILES IDX 6 1 5 2 4 3 3 4 1 5 2 6 36 8 37 9 89 10 38 11 88 12 39 13
REMARK SMILES IDX 40 14 41 15 82 16 42 17 87 18 81 19 83 20 43 21 86 22 80 23
REMARK SMILES IDX 79 24 44 26 70 27 53 28 69 29 54 30 57 31 68 32 84 33 55 34
REMARK SMILES IDX 56 35 67 37 85 38 58 39 45 40 46 41 51 42 47 43 48 44 50 45
REMARK SMILES IDX 52 46 49 47 71 48 72 49 77 50 73 51 74 52 76 53 78 54 75 55
REMARK SMILES IDX 59 56 60 57 65 58 61 59 62 60 64 61 66 62 63 63 7 64 8 65
REMARK SMILES IDX 9 66 10 68 11 69 12 70 35 71 13 72 34 73 14 74 15 75 16 76
REMARK SMILES IDX 17 77 18 78 32 79 19 80 31 81 33 82 29 83 30 84 20 85 21 86
REMARK SMILES IDX 22 87 23 88 24 89 28 90 25 91 27 92 26 93
REMARK H PARENT 3 7 83 25 57 36 8 67
REMARK Flexibility Score: inf
ROOT
ATOM      1  C   UNL A   1      34.958  33.932  28.313  1.00  0.00     0.023 C 
ENDROOT
BRANCH   1   2
ATOM      2  C   UNL A   1      35.046  34.643  29.663  1.00  0.00     0.023 C 
BRANCH   2   3
ATOM      3  C   UNL A   1      36.196  34.203  30.558  1.00  0.00     0.116 C 
BRANCH   3   4
ATOM      4  N   UNL A   1      35.764  33.481  31.746  1.00  0.00    -0.352 N 
ATOM      5  O   UNL A   1      35.669  31.750  33.196  1.00  0.00    -0.269 OA
ATOM      6  C   UNL A   1      36.220  32.277  32.235  1.00  0.00     0.251 C 
ATOM      7  H   UNL A   1      35.050  33.911  32.269  1.00  0.00     0.163 HD
BRANCH   6   8
ATOM      8  C   UNL A   1      37.358  31.606  31.571  1.00  0.00     0.039 A 
ATOM      9  C   UNL A   1      38.405  31.083  32.330  1.00  0.00     0.014 A 
ATOM     10  C   UNL A   1      37.397  31.531  30.175  1.00  0.00     0.014 A 
ATOM     11  C   UNL A   1      39.560  30.647  31.696  1.00  0.00     0.010 A 
ATOM     12  C   UNL A   1      38.523  30.995  29.538  1.00  0.00     0.010 A 
ATOM     13  C   UNL A   1      39.630  30.583  30.293  1.00  0.00    -0.014 A 
BRANCH  13  14
ATOM     14  C   UNL A   1      40.855  30.017  29.672  1.00  0.00     0.031 A 
ATOM     15  C   UNL A   1      40.904  28.604  29.161  1.00  0.00     0.074 A 
ATOM     16  C   UNL A   1      41.914  30.833  29.502  1.00  0.00     0.049 A 
ATOM     17  N   UNL A   1      41.868  27.999  28.512  1.00  0.00    -0.248 NA
ATOM     18  C   UNL A   1      39.730  27.754  29.413  1.00  0.00     0.031 C 
ATOM     19  C   UNL A   1      41.992  32.216  29.981  1.00  0.00     0.029 A 
ATOM     20  N   UNL A   1      43.105  30.640  28.851  1.00  0.00    -0.354 N 
ATOM     21  C   UNL A   1      41.425  26.702  28.286  1.00  0.00     0.074 A 
ATOM     22  C   UNL A   1      40.116  26.595  28.894  1.00  0.00     0.031 C 
ATOM     23  C   UNL A   1      43.134  32.768  29.549  1.00  0.00     0.029 A 
ATOM     24  C   UNL A   1      43.897  31.762  28.820  1.00  0.00     0.049 A 
ATOM     25  H   UNL A   1      43.367  29.782  28.446  1.00  0.00     0.167 HD
ATOM     26  C   UNL A   1      42.049  25.698  27.622  1.00  0.00     0.037 A 
ATOM     27  C   UNL A   1      45.108  31.963  28.271  1.00  0.00     0.037 A 
ATOM     28  C   UNL A   1      43.351  25.810  27.012  1.00  0.00     0.049 A 
ATOM     29  C   UNL A   1      45.769  30.835  27.538  1.00  0.00     0.074 A 
ATOM     30  C   UNL A   1      44.063  24.851  26.314  1.00  0.00     0.029 A 
ATOM     31  N   UNL A   1      44.133  26.955  27.024  1.00  0.00    -0.354 N 
ATOM     32  N   UNL A   1      45.327  29.621  27.319  1.00  0.00    -0.248 NA
ATOM     33  C   UNL A   1      47.099  31.104  26.976  1.00  0.00     0.031 C 
ATOM     34  C   UNL A   1      45.290  25.404  25.932  1.00  0.00     0.029 A 
ATOM     35  C   UNL A   1      45.326  26.721  26.355  1.00  0.00     0.049 A 
ATOM     36  H   UNL A   1      43.880  27.808  27.445  1.00  0.00     0.167 HD
ATOM     37  C   UNL A   1      46.321  28.980  26.596  1.00  0.00     0.074 A 
ATOM     38  C   UNL A   1      47.373  29.952  26.380  1.00  0.00     0.031 C 
ATOM     39  C   UNL A   1      46.366  27.697  26.162  1.00  0.00     0.037 A 
BRANCH  26  40
ATOM     40  C   UNL A   1      41.337  24.380  27.522  1.00  0.00     0.057 A 
ATOM     41  C   UNL A   1      40.279  24.180  26.625  1.00  0.00     0.134 A 
ATOM     42  C   UNL A   1      41.755  23.278  28.281  1.00  0.00     0.134 A 
ATOM     43  F   UNL A   1      39.822  25.195  25.876  1.00  0.00    -0.206 F 
ATOM     44  C   UNL A   1      39.655  22.937  26.496  1.00  0.00     0.040 A 
ATOM     45  C   UNL A   1      41.153  22.026  28.145  1.00  0.00     0.040 A 
ATOM     46  F   UNL A   1      42.767  23.397  29.153  1.00  0.00    -0.206 F 
ATOM     47  C   UNL A   1      40.098  21.853  27.252  1.00  0.00     0.006 A 
ENDBRANCH  26  40
BRANCH  27  48
ATOM     48  C   UNL A   1      45.770  33.282  28.411  1.00  0.00     0.057 A 
ATOM     49  C   UNL A   1      45.535  34.316  27.498  1.00  0.00     0.134 A 
ATOM     50  C   UNL A   1      46.649  33.543  29.471  1.00  0.00     0.134 A 
ATOM     51  F   UNL A   1      44.716  34.123  26.455  1.00  0.00    -0.206 F 
ATOM     52  C   UNL A   1      46.161  35.558  27.625  1.00  0.00     0.040 A 
ATOM     53  C   UNL A   1      47.257  34.787  29.626  1.00  0.00     0.040 A 
ATOM     54  F   UNL A   1      46.906  32.596  30.384  1.00  0.00    -0.206 F 
ATOM     55  C   UNL A   1      47.021  35.797  28.697  1.00  0.00     0.006 A 
ENDBRANCH  27  48
BRANCH  39  56
ATOM     56  C   UNL A   1      47.596  27.288  25.407  1.00  0.00     0.057 A 
ATOM     57  C   UNL A   1      48.700  26.718  26.055  1.00  0.00     0.134 A 
ATOM     58  C   UNL A   1      47.680  27.469  24.021  1.00  0.00     0.134 A 
ATOM     59  F   UNL A   1      48.686  26.533  27.384  1.00  0.00    -0.206 F 
ATOM     60  C   UNL A   1      49.856  26.373  25.356  1.00  0.00     0.040 A 
ATOM     61  C   UNL A   1      48.822  27.105  23.308  1.00  0.00     0.040 A 
ATOM     62  F   UNL A   1      46.655  28.004  23.341  1.00  0.00    -0.206 F 
ATOM     63  C   UNL A   1      49.918  26.563  23.977  1.00  0.00     0.006 A 
ENDBRANCH  39  56
ENDBRANCH  13  14
ENDBRANCH   6   8
ENDBRANCH   3   4
ENDBRANCH   2   3
ENDBRANCH   1   2
BRANCH   1  64
ATOM     64  C   UNL A   1      33.940  32.796  28.244  1.00  0.00     0.116 C 
BRANCH  64  65
ATOM     65  N   UNL A   1      34.574  31.491  28.184  1.00  0.00    -0.356 N 
ATOM     66  C   UNL A   1      34.123  30.326  27.634  1.00  0.00     0.223 C 
ATOM     67  H   UNL A   1      35.463  31.439  28.602  1.00  0.00     0.163 HD
ATOM     68  O   UNL A   1      34.830  29.326  27.742  1.00  0.00    -0.275 OA
BRANCH  66  69
ATOM     69  C   UNL A   1      32.792  30.320  26.889  1.00  0.00     0.082 C 
ATOM     70  C   UNL A   1      31.718  29.502  27.626  1.00  0.00     0.035 C 
ATOM     71  C   UNL A   1      32.974  29.806  25.453  1.00  0.00     0.035 C 
ATOM     72  C   UNL A   1      31.901  27.989  27.490  1.00  0.00     0.120 C 
ATOM     73  C   UNL A   1      33.174  28.296  25.403  1.00  0.00     0.120 C 
ATOM     74  N   UNL A   1      32.091  27.603  26.094  1.00  0.00    -0.339 N 
ATOM     75  C   UNL A   1      31.299  26.587  25.564  1.00  0.00     0.255 C 
ATOM     76  O   UNL A   1      30.451  25.960  26.191  1.00  0.00    -0.269 OA
BRANCH  75  77
ATOM     77  C   UNL A   1      31.479  26.225  24.149  1.00  0.00     0.060 A 
ATOM     78  C   UNL A   1      32.335  25.189  23.821  1.00  0.00     0.038 A 
ATOM     79  C   UNL A   1      30.803  26.890  23.139  1.00  0.00     0.055 A 
ATOM     80  C   UNL A   1      32.578  24.881  22.464  1.00  0.00     0.102 A 
ATOM     81  C   UNL A   1      31.030  26.560  21.776  1.00  0.00     0.043 A 
ATOM     82  Cl  UNL A   1      29.707  28.188  23.481  1.00  0.00    -0.083 Cl
ATOM     83  C   UNL A   1      31.986  25.544  21.276  1.00  0.00     0.062 A 
ATOM     84  Cl  UNL A   1      32.527  25.083  18.995  1.00  0.00    -0.083 Cl
BRANCH  80  85
ATOM     85  S   UNL A   1      33.746  23.628  22.229  1.00  0.00     0.244 S 
ATOM     86  O   UNL A   1      33.541  23.043  20.924  1.00  0.00    -0.207 OA
ATOM     87  O   UNL A   1      35.018  24.055  22.751  1.00  0.00    -0.207 OA
BRANCH  85  88
ATOM     88  N   UNL A   1      32.851  22.842  23.382  1.00  0.00    -0.193 NA
ATOM     89  C   UNL A   1      34.167  22.239  24.690  1.00  0.00     0.131 C 
ATOM     90  C   UNL A   1      31.859  21.495  22.375  1.00  0.00     0.131 C 
ATOM     91  C   UNL A   1      34.355  20.340  25.001  1.00  0.00     0.177 C 
ATOM     92  C   UNL A   1      32.153  19.629  22.795  1.00  0.00     0.177 C 
ATOM     93  O   UNL A   1      33.278  19.145  24.147  1.00  0.00    -0.379 OA
ENDBRANCH  85  88
ENDBRANCH  80  85
ENDBRANCH  75  77
ENDBRANCH  66  69
ENDBRANCH  64  65
ENDBRANCH   1  64
TORSDOF 14
ENDMDL
MODEL 3
REMARK VINA RESULT:     -12.2      3.080      8.881
REMARK SMILES O=C(NCCCCNC(=O)C1CCN(C(=O)c2cc(S(=O)(=O)N3CCOCC3)c(Cl)cc2Cl)CC1)c1ccc(-c2c3nc(c(-c4c(F)cccc4F)c4ccc([nH]4)c(-c4c(F)cccc4F)c4nc(c(-c5c(F)cccc5F)c5ccc2[nH]5)C=C4)C=C3)cc1
REMARK SMILES IDX 6 1 5 2 4 3 3 4 1 5 2 6 36 8 37 9 89 10 38 11 88 12 39 13
REMARK SMILES IDX 40 14 41 15 82 16 42 17 87 18 81 19 83 20 43 21 86 22 80 23
REMARK SMILES IDX 79 24 44 26 70 27 53 28 69 29 54 30 57 31 68 32 84 33 55 34
REMARK SMILES IDX 56 35 67 37 85 38 58 39 45 40 46 41 51 42 47 43 48 44 50 45
REMARK SMILES IDX 52 46 49 47 71 48 72 49 77 50 73 51 74 52 76 53 78 54 75 55
REMARK SMILES IDX 59 56 60 57 65 58 61 59 62 60 64 61 66 62 63 63 7 64 8 65
REMARK SMILES IDX 9 66 10 68 11 69 12 70 35 71 13 72 34 73 14 74 15 75 16 76
REMARK SMILES IDX 17 77 18 78 32 79 19 80 31 81 33 82 29 83 30 84 20 85 21 86
REMARK SMILES IDX 22 87 23 88 24 89 28 90 25 91 27 92 26 93
REMARK H PARENT 3 7 83 25 57 36 8 67
REMARK Flexibility Score: inf
ROOT
ATOM      1  C   UNL A   1      41.894  21.243  26.117  1.00  0.00     0.023 C 
ENDROOT
BRANCH   1   2
ATOM      2  C   UNL A   1      42.786  21.700  27.271  1.00  0.00     0.023 C 
BRANCH   2   3
ATOM      3  C   UNL A   1      43.017  23.201  27.362  1.00  0.00     0.116 C 
BRANCH   3   4
ATOM      4  N   UNL A   1      42.936  23.881  26.078  1.00  0.00    -0.352 N 
ATOM      5  O   UNL A   1      42.366  25.530  24.640  1.00  0.00    -0.269 OA
ATOM      6  C   UNL A   1      42.467  25.146  25.801  1.00  0.00     0.251 C 
ATOM      7  H   UNL A   1      43.259  23.367  25.303  1.00  0.00     0.163 HD
BRANCH   6   8
ATOM      8  C   UNL A   1      42.054  26.028  26.913  1.00  0.00     0.039 A 
ATOM      9  C   UNL A   1      42.680  27.261  27.101  1.00  0.00     0.014 A 
ATOM     10  C   UNL A   1      41.058  25.604  27.798  1.00  0.00     0.014 A 
ATOM     11  C   UNL A   1      42.435  27.984  28.261  1.00  0.00     0.010 A 
ATOM     12  C   UNL A   1      40.739  26.387  28.915  1.00  0.00     0.010 A 
ATOM     13  C   UNL A   1      41.452  27.565  29.176  1.00  0.00    -0.014 A 
BRANCH  13  14
ATOM     14  C   UNL A   1      41.166  28.429  30.349  1.00  0.00     0.031 A 
ATOM     15  C   UNL A   1      42.035  28.412  31.577  1.00  0.00     0.074 A 
ATOM     16  C   UNL A   1      40.143  29.302  30.260  1.00  0.00     0.049 A 
ATOM     17  N   UNL A   1      41.968  29.174  32.641  1.00  0.00    -0.248 NA
ATOM     18  C   UNL A   1      43.110  27.410  31.628  1.00  0.00     0.031 C 
ATOM     19  C   UNL A   1      39.215  29.392  29.128  1.00  0.00     0.029 A 
ATOM     20  N   UNL A   1      39.733  30.300  31.104  1.00  0.00    -0.354 N 
ATOM     21  C   UNL A   1      42.980  28.742  33.487  1.00  0.00     0.074 A 
ATOM     22  C   UNL A   1      43.630  27.628  32.829  1.00  0.00     0.031 C 
ATOM     23  C   UNL A   1      38.392  30.432  29.316  1.00  0.00     0.029 A 
ATOM     24  C   UNL A   1      38.689  31.042  30.607  1.00  0.00     0.049 A 
ATOM     25  H   UNL A   1      40.146  30.470  31.982  1.00  0.00     0.167 HD
ATOM     26  C   UNL A   1      43.340  29.237  34.697  1.00  0.00     0.037 A 
ATOM     27  C   UNL A   1      38.035  32.093  31.130  1.00  0.00     0.037 A 
ATOM     28  C   UNL A   1      42.695  30.350  35.347  1.00  0.00     0.049 A 
ATOM     29  C   UNL A   1      38.461  32.622  32.466  1.00  0.00     0.074 A 
ATOM     30  C   UNL A   1      42.991  30.927  36.570  1.00  0.00     0.029 A 
ATOM     31  N   UNL A   1      41.623  31.058  34.823  1.00  0.00    -0.354 N 
ATOM     32  N   UNL A   1      39.433  32.212  33.244  1.00  0.00    -0.248 NA
ATOM     33  C   UNL A   1      37.700  33.759  32.999  1.00  0.00     0.031 C 
ATOM     34  C   UNL A   1      42.079  31.963  36.801  1.00  0.00     0.029 A 
ATOM     35  C   UNL A   1      41.240  32.060  35.703  1.00  0.00     0.049 A 
ATOM     36  H   UNL A   1      41.197  30.878  33.954  1.00  0.00     0.167 HD
ATOM     37  C   UNL A   1      39.401  33.037  34.358  1.00  0.00     0.074 A 
ATOM     38  C   UNL A   1      38.338  33.996  34.136  1.00  0.00     0.031 C 
ATOM     39  C   UNL A   1      40.172  32.996  35.471  1.00  0.00     0.037 A 
BRANCH  26  40
ATOM     40  C   UNL A   1      44.485  28.576  35.409  1.00  0.00     0.057 A 
ATOM     41  C   UNL A   1      44.288  27.494  36.277  1.00  0.00     0.134 A 
ATOM     42  C   UNL A   1      45.807  28.979  35.173  1.00  0.00     0.134 A 
ATOM     43  F   UNL A   1      43.047  27.063  36.555  1.00  0.00    -0.206 F 
ATOM     44  C   UNL A   1      45.360  26.847  36.894  1.00  0.00     0.040 A 
ATOM     45  C   UNL A   1      46.888  28.327  35.768  1.00  0.00     0.040 A 
ATOM     46  F   UNL A   1      46.068  30.003  34.347  1.00  0.00    -0.206 F 
ATOM     47  C   UNL A   1      46.666  27.258  36.634  1.00  0.00     0.006 A 
ENDBRANCH  26  40
BRANCH  27  48
ATOM     48  C   UNL A   1      36.904  32.701  30.388  1.00  0.00     0.057 A 
ATOM     49  C   UNL A   1      35.579  32.342  30.657  1.00  0.00     0.134 A 
ATOM     50  C   UNL A   1      37.123  33.666  29.397  1.00  0.00     0.134 A 
ATOM     51  F   UNL A   1      35.306  31.413  31.585  1.00  0.00    -0.206 F 
ATOM     52  C   UNL A   1      34.513  32.909  29.957  1.00  0.00     0.040 A 
ATOM     53  C   UNL A   1      36.067  34.263  28.711  1.00  0.00     0.040 A 
ATOM     54  F   UNL A   1      38.370  34.061  29.101  1.00  0.00    -0.206 F 
ATOM     55  C   UNL A   1      34.756  33.878  28.985  1.00  0.00     0.006 A 
ENDBRANCH  27  48
BRANCH  39  56
ATOM     56  C   UNL A   1      39.887  34.027  36.522  1.00  0.00     0.057 A 
ATOM     57  C   UNL A   1      40.450  35.309  36.467  1.00  0.00     0.134 A 
ATOM     58  C   UNL A   1      39.046  33.735  37.603  1.00  0.00     0.134 A 
ATOM     59  F   UNL A   1      41.276  35.644  35.464  1.00  0.00    -0.206 F 
ATOM     60  C   UNL A   1      40.212  36.253  37.466  1.00  0.00     0.040 A 
ATOM     61  C   UNL A   1      38.781  34.679  38.596  1.00  0.00     0.040 A 
ATOM     62  F   UNL A   1      38.471  32.527  37.712  1.00  0.00    -0.206 F 
ATOM     63  C   UNL A   1      39.372  35.939  38.533  1.00  0.00     0.006 A 
ENDBRANCH  39  56
ENDBRANCH  13  14
ENDBRANCH   6   8
ENDBRANCH   3   4
ENDBRANCH   2   3
ENDBRANCH   1   2
BRANCH   1  64
ATOM     64  C   UNL A   1      40.403  21.175  26.438  1.00  0.00     0.116 C 
BRANCH  64  65
ATOM     65  N   UNL A   1      39.778  22.485  26.434  1.00  0.00    -0.356 N 
ATOM     66  C   UNL A   1      38.571  22.875  25.931  1.00  0.00     0.223 C 
ATOM     67  H   UNL A   1      40.304  23.200  26.859  1.00  0.00     0.163 HD
ATOM     68  O   UNL A   1      38.269  24.063  26.013  1.00  0.00    -0.275 OA
BRANCH  66  69
ATOM     69  C   UNL A   1      37.643  21.827  25.324  1.00  0.00     0.082 C 
ATOM     70  C   UNL A   1      37.435  22.039  23.816  1.00  0.00     0.035 C 
ATOM     71  C   UNL A   1      36.294  21.803  26.059  1.00  0.00     0.035 C 
ATOM     72  C   UNL A   1      36.489  23.194  23.484  1.00  0.00     0.120 C 
ATOM     73  C   UNL A   1      35.420  22.997  25.695  1.00  0.00     0.120 C 
ATOM     74  N   UNL A   1      35.248  23.097  24.249  1.00  0.00    -0.339 N 
ATOM     75  C   UNL A   1      34.033  23.175  23.572  1.00  0.00     0.255 C 
ATOM     76  O   UNL A   1      33.916  23.345  22.363  1.00  0.00    -0.269 OA
BRANCH  75  77
ATOM     77  C   UNL A   1      32.789  23.048  24.348  1.00  0.00     0.060 A 
ATOM     78  C   UNL A   1      32.175  24.191  24.830  1.00  0.00     0.038 A 
ATOM     79  C   UNL A   1      32.215  21.813  24.598  1.00  0.00     0.055 A 
ATOM     80  C   UNL A   1      31.025  24.080  25.642  1.00  0.00     0.102 A 
ATOM     81  C   UNL A   1      31.042  21.707  25.393  1.00  0.00     0.043 A 
ATOM     82  Cl  UNL A   1      32.925  20.345  24.013  1.00  0.00    -0.083 Cl
ATOM     83  C   UNL A   1      30.335  22.831  26.051  1.00  0.00     0.062 A 
ATOM     84  Cl  UNL A   1      28.470  22.679  27.537  1.00  0.00    -0.083 Cl
BRANCH  80  85
ATOM     85  S   UNL A   1      30.442  25.594  26.240  1.00  0.00     0.244 S 
ATOM     86  O   UNL A   1      29.018  25.485  26.465  1.00  0.00    -0.207 OA
ATOM     87  O   UNL A   1      31.388  26.132  27.182  1.00  0.00    -0.207 OA
BRANCH  85  88
ATOM     88  N   UNL A   1      30.764  26.108  24.697  1.00  0.00    -0.193 NA
ATOM     89  C   UNL A   1      31.807  27.739  24.937  1.00  0.00     0.131 C 
ATOM     90  C   UNL A   1      29.002  26.247  23.866  1.00  0.00     0.131 C 
ATOM     91  C   UNL A   1      31.093  29.400  24.251  1.00  0.00     0.177 C 
ATOM     92  C   UNL A   1      28.419  27.978  23.227  1.00  0.00     0.177 C 
ATOM     93  O   UNL A   1      29.518  29.429  23.337  1.00  0.00    -0.379 OA
ENDBRANCH  85  88
ENDBRANCH  80  85
ENDBRANCH  75  77
ENDBRANCH  66  69
ENDBRANCH  64  65
ENDBRANCH   1  64
TORSDOF 14
ENDMDL
