MODEL 1
REMARK VINA RESULT:     -11.8      0.000      0.000
REMARK SMILES C=C1c2ccccc2C(=O)N1[C@](C)(C(=O)NCCCCNC(=O)c1ccc(-c2c3nc(c(-c4c(F)cccc4F)c4ccc([nH]4)c(-c4c(F)cccc4F)c4nc(c(-c5c(F)cccc5F)c5ccc2[nH]5)C=C4)C=C3)cc1)C(F)(F)F
REMARK SMILES IDX 19 1 18 2 17 3 16 4 14 5 15 6 12 8 13 9 11 10 1 11 2 12 3 13
REMARK SMILES IDX 4 14 8 15 9 16 5 17 7 18 10 19 6 20 78 21 79 22 80 23 81 24
REMARK SMILES IDX 20 25 21 26 22 27 23 29 24 30 25 31 77 32 26 33 76 34 27 35
REMARK SMILES IDX 28 36 29 37 70 38 30 39 75 40 69 41 71 42 31 43 74 44 68 45
REMARK SMILES IDX 67 46 32 48 58 49 41 50 57 51 42 52 45 53 56 54 72 55 43 56
REMARK SMILES IDX 44 57 55 59 73 60 46 61 33 62 34 63 39 64 35 65 36 66 38 67
REMARK SMILES IDX 40 68 37 69 59 70 60 71 65 72 61 73 62 74 64 75 66 76 63 77
REMARK SMILES IDX 47 78 48 79 53 80 49 81 50 82 52 83 54 84 51 85
REMARK H PARENT 16 7 21 28 71 47 45 58
REMARK Flexibility Score: inf
ROOT
ATOM      1  C   UNL A   1      32.301  30.320  26.094  1.00  0.00     0.023 C 
ENDROOT
BRANCH   1   2
ATOM      2  C   UNL A   1      31.435  29.161  26.582  1.00  0.00     0.023 C 
BRANCH   2   3
ATOM      3  C   UNL A   1      32.191  27.952  27.112  1.00  0.00     0.116 C 
BRANCH   3   4
ATOM      4  N   UNL A   1      31.455  26.703  27.082  1.00  0.00    -0.354 N 
ATOM      5  C   UNL A   1      31.607  25.610  26.273  1.00  0.00     0.255 C 
ATOM      6  O   UNL A   1      31.319  24.539  26.829  1.00  0.00    -0.272 OA
ATOM      7  H   UNL A   1      30.733  26.630  27.748  1.00  0.00     0.163 HD
BRANCH   5   8
ATOM      8  C   UNL A   1      32.162  25.628  24.810  1.00  0.00     0.219 C 
ATOM      9  C   UNL A   1      32.107  24.271  24.076  1.00  0.00     0.056 C 
BRANCH   8  10
ATOM     10  N   UNL A   1      31.442  26.695  24.036  1.00  0.00    -0.285 N 
ATOM     11  C   UNL A   1      33.141  27.888  22.656  1.00  0.00     0.038 C 
ATOM     12  C   UNL A   1      31.922  27.670  23.154  1.00  0.00     0.046 C 
ATOM     13  C   UNL A   1      30.773  28.499  22.748  1.00  0.00     0.010 A 
ATOM     14  C   UNL A   1      30.635  29.626  21.950  1.00  0.00     0.011 A 
ATOM     15  C   UNL A   1      29.643  27.967  23.350  1.00  0.00     0.049 A 
ATOM     16  C   UNL A   1      30.050  26.791  24.100  1.00  0.00     0.260 C 
ATOM     17  C   UNL A   1      29.360  30.194  21.797  1.00  0.00     0.001 A 
ATOM     18  C   UNL A   1      28.372  28.505  23.226  1.00  0.00     0.014 A 
ATOM     19  O   UNL A   1      29.229  26.062  24.630  1.00  0.00    -0.269 OA
ATOM     20  C   UNL A   1      28.237  29.643  22.437  1.00  0.00     0.001 A 
ENDBRANCH   8  10
BRANCH   8  21
ATOM     21  C   UNL A   1      33.676  25.838  25.102  1.00  0.00     0.420 C 
ATOM     22  F   UNL A   1      34.080  25.098  26.171  1.00  0.00    -0.168 F 
ATOM     23  F   UNL A   1      34.444  25.403  24.064  1.00  0.00    -0.168 F 
ATOM     24  F   UNL A   1      34.043  27.114  25.343  1.00  0.00    -0.168 F 
ENDBRANCH   8  21
ENDBRANCH   5   8
ENDBRANCH   3   4
ENDBRANCH   2   3
ENDBRANCH   1   2
BRANCH   1  25
ATOM     25  C   UNL A   1      33.040  31.117  27.167  1.00  0.00     0.116 C 
BRANCH  25  26
ATOM     26  N   UNL A   1      32.499  32.451  27.400  1.00  0.00    -0.352 N 
ATOM     27  C   UNL A   1      33.040  33.517  28.083  1.00  0.00     0.251 C 
ATOM     28  H   UNL A   1      31.610  32.615  27.009  1.00  0.00     0.163 HD
ATOM     29  O   UNL A   1      32.402  34.555  28.233  1.00  0.00    -0.269 OA
BRANCH  27  30
ATOM     30  C   UNL A   1      34.381  33.387  28.686  1.00  0.00     0.039 A 
ATOM     31  C   UNL A   1      34.496  32.807  29.952  1.00  0.00     0.014 A 
ATOM     32  C   UNL A   1      35.519  33.765  27.974  1.00  0.00     0.014 A 
ATOM     33  C   UNL A   1      35.761  32.485  30.447  1.00  0.00     0.010 A 
ATOM     34  C   UNL A   1      36.773  33.372  28.432  1.00  0.00     0.010 A 
ATOM     35  C   UNL A   1      36.902  32.702  29.658  1.00  0.00    -0.014 A 
BRANCH  35  36
ATOM     36  C   UNL A   1      38.235  32.187  30.062  1.00  0.00     0.031 A 
ATOM     37  C   UNL A   1      38.725  30.869  29.539  1.00  0.00     0.074 A 
ATOM     38  C   UNL A   1      38.955  32.858  30.983  1.00  0.00     0.049 A 
ATOM     39  N   UNL A   1      39.790  30.187  29.882  1.00  0.00    -0.248 NA
ATOM     40  C   UNL A   1      37.893  30.214  28.518  1.00  0.00     0.031 C 
ATOM     41  C   UNL A   1      38.569  34.127  31.603  1.00  0.00     0.029 A 
ATOM     42  N   UNL A   1      40.155  32.553  31.575  1.00  0.00    -0.354 N 
ATOM     43  C   UNL A   1      39.744  29.019  29.134  1.00  0.00     0.074 A 
ATOM     44  C   UNL A   1      38.525  29.062  28.355  1.00  0.00     0.031 C 
ATOM     45  C   UNL A   1      39.525  34.503  32.469  1.00  0.00     0.029 A 
ATOM     46  C   UNL A   1      40.565  33.481  32.502  1.00  0.00     0.049 A 
ATOM     47  H   UNL A   1      40.675  31.745  31.355  1.00  0.00     0.167 HD
ATOM     48  C   UNL A   1      40.646  28.010  29.088  1.00  0.00     0.037 A 
ATOM     49  C   UNL A   1      41.649  33.500  33.300  1.00  0.00     0.037 A 
ATOM     50  C   UNL A   1      41.871  27.981  29.841  1.00  0.00     0.049 A 
ATOM     51  C   UNL A   1      42.623  32.358  33.246  1.00  0.00     0.074 A 
ATOM     52  C   UNL A   1      42.882  27.036  29.809  1.00  0.00     0.029 A 
ATOM     53  N   UNL A   1      42.251  28.942  30.766  1.00  0.00    -0.354 N 
ATOM     54  N   UNL A   1      42.596  31.285  32.494  1.00  0.00    -0.248 NA
ATOM     55  C   UNL A   1      43.774  32.424  34.158  1.00  0.00     0.031 C 
ATOM     56  C   UNL A   1      43.858  27.409  30.740  1.00  0.00     0.029 A 
ATOM     57  C   UNL A   1      43.471  28.602  31.327  1.00  0.00     0.049 A 
ATOM     58  H   UNL A   1      41.731  29.748  30.991  1.00  0.00     0.167 HD
ATOM     59  C   UNL A   1      43.733  30.559  32.826  1.00  0.00     0.074 A 
ATOM     60  C   UNL A   1      44.434  31.320  33.840  1.00  0.00     0.031 C 
ATOM     61  C   UNL A   1      44.157  29.371  32.333  1.00  0.00     0.037 A 
BRANCH  48  62
ATOM     62  C   UNL A   1      40.338  26.857  28.182  1.00  0.00     0.057 A 
ATOM     63  C   UNL A   1      40.881  26.768  26.893  1.00  0.00     0.134 A 
ATOM     64  C   UNL A   1      39.504  25.815  28.606  1.00  0.00     0.134 A 
ATOM     65  F   UNL A   1      41.676  27.741  26.423  1.00  0.00    -0.206 F 
ATOM     66  C   UNL A   1      40.584  25.698  26.048  1.00  0.00     0.040 A 
ATOM     67  C   UNL A   1      39.219  24.727  27.778  1.00  0.00     0.040 A 
ATOM     68  F   UNL A   1      38.955  25.836  29.829  1.00  0.00    -0.206 F 
ATOM     69  C   UNL A   1      39.754  24.671  26.493  1.00  0.00     0.006 A 
ENDBRANCH  48  62
BRANCH  49  70
ATOM     70  C   UNL A   1      41.881  34.647  34.211  1.00  0.00     0.057 A 
ATOM     71  C   UNL A   1      42.610  35.762  33.785  1.00  0.00     0.134 A 
ATOM     72  C   UNL A   1      41.387  34.658  35.520  1.00  0.00     0.134 A 
ATOM     73  F   UNL A   1      43.125  35.799  32.547  1.00  0.00    -0.206 F 
ATOM     74  C   UNL A   1      42.851  36.845  34.632  1.00  0.00     0.040 A 
ATOM     75  C   UNL A   1      41.604  35.743  36.373  1.00  0.00     0.040 A 
ATOM     76  F   UNL A   1      40.678  33.620  35.986  1.00  0.00    -0.206 F 
ATOM     77  C   UNL A   1      42.343  36.838  35.930  1.00  0.00     0.006 A 
ENDBRANCH  49  70
BRANCH  61  78
ATOM     78  C   UNL A   1      45.448  28.829  32.867  1.00  0.00     0.057 A 
ATOM     79  C   UNL A   1      46.680  29.173  32.297  1.00  0.00     0.134 A 
ATOM     80  C   UNL A   1      45.461  27.995  33.992  1.00  0.00     0.134 A 
ATOM     81  F   UNL A   1      46.730  29.956  31.209  1.00  0.00    -0.206 F 
ATOM     82  C   UNL A   1      47.882  28.697  32.823  1.00  0.00     0.040 A 
ATOM     83  C   UNL A   1      46.657  27.529  34.538  1.00  0.00     0.040 A 
ATOM     84  F   UNL A   1      44.313  27.634  34.586  1.00  0.00    -0.206 F 
ATOM     85  C   UNL A   1      47.872  27.878  33.951  1.00  0.00     0.006 A 
ENDBRANCH  61  78
ENDBRANCH  35  36
ENDBRANCH  27  30
ENDBRANCH  25  26
ENDBRANCH   1  25
TORSDOF 13
ENDMDL
MODEL 2
REMARK VINA RESULT:     -11.8      3.129      7.910
REMARK SMILES C=C1c2ccccc2C(=O)N1[C@](C)(C(=O)NCCCCNC(=O)c1ccc(-c2c3nc(c(-c4c(F)cccc4F)c4ccc([nH]4)c(-c4c(F)cccc4F)c4nc(c(-c5c(F)cccc5F)c5ccc2[nH]5)C=C4)C=C3)cc1)C(F)(F)F
REMARK SMILES IDX 19 1 18 2 17 3 16 4 14 5 15 6 12 8 13 9 11 10 1 11 2 12 3 13
REMARK SMILES IDX 4 14 8 15 9 16 5 17 7 18 10 19 6 20 78 21 79 22 80 23 81 24
REMARK SMILES IDX 20 25 21 26 22 27 23 29 24 30 25 31 77 32 26 33 76 34 27 35
REMARK SMILES IDX 28 36 29 37 70 38 30 39 75 40 69 41 71 42 31 43 74 44 68 45
REMARK SMILES IDX 67 46 32 48 58 49 41 50 57 51 42 52 45 53 56 54 72 55 43 56
REMARK SMILES IDX 44 57 55 59 73 60 46 61 33 62 34 63 39 64 35 65 36 66 38 67
REMARK SMILES IDX 40 68 37 69 59 70 60 71 65 72 61 73 62 74 64 75 66 76 63 77
REMARK SMILES IDX 47 78 48 79 53 80 49 81 50 82 52 83 54 84 51 85
REMARK H PARENT 16 7 21 28 71 47 45 58
REMARK Flexibility Score: inf
ROOT
ATOM      1  C   UNL A   1      32.291  29.044  26.768  1.00  0.00     0.023 C 
ENDROOT
BRANCH   1   2
ATOM      2  C   UNL A   1      31.762  27.718  27.310  1.00  0.00     0.023 C 
BRANCH   2   3
ATOM      3  C   UNL A   1      31.771  26.555  26.328  1.00  0.00     0.116 C 
BRANCH   3   4
ATOM      4  N   UNL A   1      31.576  25.246  26.922  1.00  0.00    -0.354 N 
ATOM      5  C   UNL A   1      32.119  24.036  26.586  1.00  0.00     0.255 C 
ATOM      6  O   UNL A   1      32.283  23.281  27.556  1.00  0.00    -0.272 OA
ATOM      7  H   UNL A   1      30.956  25.225  27.687  1.00  0.00     0.163 HD
BRANCH   5   8
ATOM      8  C   UNL A   1      32.587  23.612  25.153  1.00  0.00     0.219 C 
ATOM      9  C   UNL A   1      32.392  24.685  24.061  1.00  0.00     0.056 C 
BRANCH   8  10
ATOM     10  N   UNL A   1      34.019  23.165  25.229  1.00  0.00    -0.285 N 
ATOM     11  C   UNL A   1      34.085  20.765  24.561  1.00  0.00     0.038 C 
ATOM     12  C   UNL A   1      34.602  21.913  25.003  1.00  0.00     0.046 C 
ATOM     13  C   UNL A   1      36.041  22.038  25.298  1.00  0.00     0.010 A 
ATOM     14  C   UNL A   1      37.100  21.143  25.310  1.00  0.00     0.011 A 
ATOM     15  C   UNL A   1      36.282  23.362  25.634  1.00  0.00     0.049 A 
ATOM     16  C   UNL A   1      35.028  24.087  25.520  1.00  0.00     0.260 C 
ATOM     17  C   UNL A   1      38.373  21.608  25.678  1.00  0.00     0.001 A 
ATOM     18  C   UNL A   1      37.522  23.852  26.010  1.00  0.00     0.014 A 
ATOM     19  O   UNL A   1      34.983  25.298  25.645  1.00  0.00    -0.269 OA
ATOM     20  C   UNL A   1      38.582  22.951  26.034  1.00  0.00     0.001 A 
ENDBRANCH   8  10
BRANCH   8  21
ATOM     21  C   UNL A   1      31.507  22.540  24.826  1.00  0.00     0.420 C 
ATOM     22  F   UNL A   1      30.251  23.038  24.993  1.00  0.00    -0.168 F 
ATOM     23  F   UNL A   1      31.565  22.165  23.518  1.00  0.00    -0.168 F 
ATOM     24  F   UNL A   1      31.584  21.407  25.555  1.00  0.00    -0.168 F 
ENDBRANCH   8  21
ENDBRANCH   5   8
ENDBRANCH   3   4
ENDBRANCH   2   3
ENDBRANCH   1   2
BRANCH   1  25
ATOM     25  C   UNL A   1      33.727  29.407  27.141  1.00  0.00     0.116 C 
BRANCH  25  26
ATOM     26  N   UNL A   1      33.846  30.601  27.971  1.00  0.00    -0.352 N 
ATOM     27  C   UNL A   1      34.897  31.039  28.743  1.00  0.00     0.251 C 
ATOM     28  H   UNL A   1      33.051  31.182  27.980  1.00  0.00     0.163 HD
ATOM     29  O   UNL A   1      34.791  32.048  29.434  1.00  0.00    -0.269 OA
BRANCH  27  30
ATOM     30  C   UNL A   1      36.147  30.254  28.779  1.00  0.00     0.039 A 
ATOM     31  C   UNL A   1      37.001  30.298  27.674  1.00  0.00     0.014 A 
ATOM     32  C   UNL A   1      36.507  29.544  29.925  1.00  0.00     0.014 A 
ATOM     33  C   UNL A   1      38.275  29.736  27.769  1.00  0.00     0.010 A 
ATOM     34  C   UNL A   1      37.803  29.055  30.046  1.00  0.00     0.010 A 
ATOM     35  C   UNL A   1      38.710  29.174  28.980  1.00  0.00    -0.014 A 
BRANCH  35  36
ATOM     36  C   UNL A   1      40.120  28.755  29.182  1.00  0.00     0.031 A 
ATOM     37  C   UNL A   1      41.123  29.725  29.733  1.00  0.00     0.074 A 
ATOM     38  C   UNL A   1      40.516  27.536  28.767  1.00  0.00     0.049 A 
ATOM     39  N   UNL A   1      42.421  29.595  29.848  1.00  0.00    -0.248 NA
ATOM     40  C   UNL A   1      40.604  31.025  30.186  1.00  0.00     0.031 C 
ATOM     41  C   UNL A   1      39.648  26.517  28.173  1.00  0.00     0.029 A 
ATOM     42  N   UNL A   1      41.759  26.953  28.764  1.00  0.00    -0.354 N 
ATOM     43  C   UNL A   1      42.874  30.800  30.368  1.00  0.00     0.074 A 
ATOM     44  C   UNL A   1      41.721  31.664  30.502  1.00  0.00     0.031 C 
ATOM     45  C   UNL A   1      40.380  25.428  27.885  1.00  0.00     0.029 A 
ATOM     46  C   UNL A   1      41.774  25.688  28.228  1.00  0.00     0.049 A 
ATOM     47  H   UNL A   1      42.564  27.400  29.113  1.00  0.00     0.167 HD
ATOM     48  C   UNL A   1      44.135  31.148  30.719  1.00  0.00     0.037 A 
ATOM     49  C   UNL A   1      42.797  24.837  28.022  1.00  0.00     0.037 A 
ATOM     50  C   UNL A   1      45.276  30.279  30.612  1.00  0.00     0.049 A 
ATOM     51  C   UNL A   1      44.189  25.256  28.399  1.00  0.00     0.074 A 
ATOM     52  C   UNL A   1      46.581  30.516  31.007  1.00  0.00     0.029 A 
ATOM     53  N   UNL A   1      45.249  29.004  30.069  1.00  0.00    -0.354 N 
ATOM     54  N   UNL A   1      44.596  26.378  28.941  1.00  0.00    -0.248 NA
ATOM     55  C   UNL A   1      45.267  24.293  28.128  1.00  0.00     0.031 C 
ATOM     56  C   UNL A   1      47.350  29.397  30.671  1.00  0.00     0.029 A 
ATOM     57  C   UNL A   1      46.517  28.450  30.097  1.00  0.00     0.049 A 
ATOM     58  H   UNL A   1      44.445  28.557  29.714  1.00  0.00     0.167 HD
ATOM     59  C   UNL A   1      45.970  26.250  29.095  1.00  0.00     0.074 A 
ATOM     60  C   UNL A   1      46.327  24.936  28.598  1.00  0.00     0.031 C 
ATOM     61  C   UNL A   1      46.855  27.140  29.602  1.00  0.00     0.037 A 
BRANCH  48  62
ATOM     62  C   UNL A   1      44.338  32.530  31.260  1.00  0.00     0.057 A 
ATOM     63  C   UNL A   1      44.638  33.613  30.421  1.00  0.00     0.134 A 
ATOM     64  C   UNL A   1      44.216  32.789  32.631  1.00  0.00     0.134 A 
ATOM     65  F   UNL A   1      44.781  33.427  29.100  1.00  0.00    -0.206 F 
ATOM     66  C   UNL A   1      44.835  34.897  30.929  1.00  0.00     0.040 A 
ATOM     67  C   UNL A   1      44.388  34.075  33.148  1.00  0.00     0.040 A 
ATOM     68  F   UNL A   1      43.927  31.799  33.488  1.00  0.00    -0.206 F 
ATOM     69  C   UNL A   1      44.705  35.131  32.296  1.00  0.00     0.006 A 
ENDBRANCH  48  62
BRANCH  49  70
ATOM     70  C   UNL A   1      42.544  23.496  27.441  1.00  0.00     0.057 A 
ATOM     71  C   UNL A   1      42.639  23.285  26.062  1.00  0.00     0.134 A 
ATOM     72  C   UNL A   1      42.201  22.400  28.242  1.00  0.00     0.134 A 
ATOM     73  F   UNL A   1      42.944  24.302  25.243  1.00  0.00    -0.206 F 
ATOM     74  C   UNL A   1      42.390  22.033  25.495  1.00  0.00     0.040 A 
ATOM     75  C   UNL A   1      41.969  21.139  27.691  1.00  0.00     0.040 A 
ATOM     76  F   UNL A   1      42.099  22.538  29.572  1.00  0.00    -0.206 F 
ATOM     77  C   UNL A   1      42.058  20.955  26.312  1.00  0.00     0.006 A 
ENDBRANCH  49  70
BRANCH  61  78
ATOM     78  C   UNL A   1      48.291  26.718  29.667  1.00  0.00     0.057 A 
ATOM     79  C   UNL A   1      48.785  25.955  30.732  1.00  0.00     0.134 A 
ATOM     80  C   UNL A   1      49.176  27.036  28.629  1.00  0.00     0.134 A 
ATOM     81  F   UNL A   1      47.989  25.632  31.763  1.00  0.00    -0.206 F 
ATOM     82  C   UNL A   1      50.114  25.531  30.768  1.00  0.00     0.040 A 
ATOM     83  C   UNL A   1      50.502  26.601  28.645  1.00  0.00     0.040 A 
ATOM     84  F   UNL A   1      48.762  27.760  27.578  1.00  0.00    -0.206 F 
ATOM     85  C   UNL A   1      50.975  25.848  29.718  1.00  0.00     0.006 A 
ENDBRANCH  61  78
ENDBRANCH  35  36
ENDBRANCH  27  30
ENDBRANCH  25  26
ENDBRANCH   1  25
TORSDOF 13
ENDMDL
MODEL 3
REMARK VINA RESULT:     -11.7      3.493      8.152
REMARK SMILES C=C1c2ccccc2C(=O)N1[C@](C)(C(=O)NCCCCNC(=O)c1ccc(-c2c3nc(c(-c4c(F)cccc4F)c4ccc([nH]4)c(-c4c(F)cccc4F)c4nc(c(-c5c(F)cccc5F)c5ccc2[nH]5)C=C4)C=C3)cc1)C(F)(F)F
REMARK SMILES IDX 19 1 18 2 17 3 16 4 14 5 15 6 12 8 13 9 11 10 1 11 2 12 3 13
REMARK SMILES IDX 4 14 8 15 9 16 5 17 7 18 10 19 6 20 78 21 79 22 80 23 81 24
REMARK SMILES IDX 20 25 21 26 22 27 23 29 24 30 25 31 77 32 26 33 76 34 27 35
REMARK SMILES IDX 28 36 29 37 70 38 30 39 75 40 69 41 71 42 31 43 74 44 68 45
REMARK SMILES IDX 67 46 32 48 58 49 41 50 57 51 42 52 45 53 56 54 72 55 43 56
REMARK SMILES IDX 44 57 55 59 73 60 46 61 33 62 34 63 39 64 35 65 36 66 38 67
REMARK SMILES IDX 40 68 37 69 59 70 60 71 65 72 61 73 62 74 64 75 66 76 63 77
REMARK SMILES IDX 47 78 48 79 53 80 49 81 50 82 52 83 54 84 51 85
REMARK H PARENT 16 7 21 28 71 47 45 58
REMARK Flexibility Score: inf
ROOT
ATOM      1  C   UNL A   1      36.744  21.398  25.038  1.00  0.00     0.023 C 
ENDROOT
BRANCH   1   2
ATOM      2  C   UNL A   1      35.630  21.495  26.078  1.00  0.00     0.023 C 
BRANCH   2   3
ATOM      3  C   UNL A   1      34.742  22.728  25.980  1.00  0.00     0.116 C 
BRANCH   3   4
ATOM      4  N   UNL A   1      33.330  22.489  26.206  1.00  0.00    -0.354 N 
ATOM      5  C   UNL A   1      32.271  22.588  25.345  1.00  0.00     0.255 C 
ATOM      6  O   UNL A   1      31.361  21.780  25.586  1.00  0.00    -0.272 OA
ATOM      7  H   UNL A   1      33.096  22.213  27.122  1.00  0.00     0.163 HD
BRANCH   5   8
ATOM      8  C   UNL A   1      32.186  23.544  24.109  1.00  0.00     0.219 C 
ATOM      9  C   UNL A   1      30.858  23.479  23.326  1.00  0.00     0.056 C 
BRANCH   8  10
ATOM     10  N   UNL A   1      32.483  24.944  24.564  1.00  0.00    -0.285 N 
ATOM     11  C   UNL A   1      33.659  26.100  22.695  1.00  0.00     0.038 C 
ATOM     12  C   UNL A   1      33.160  25.992  23.928  1.00  0.00     0.046 C 
ATOM     13  C   UNL A   1      33.218  27.118  24.877  1.00  0.00     0.010 A 
ATOM     14  C   UNL A   1      33.797  28.378  24.837  1.00  0.00     0.011 A 
ATOM     15  C   UNL A   1      32.534  26.734  26.019  1.00  0.00     0.049 A 
ATOM     16  C   UNL A   1      32.008  25.397  25.797  1.00  0.00     0.260 C 
ATOM     17  C   UNL A   1      33.681  29.210  25.963  1.00  0.00     0.001 A 
ATOM     18  C   UNL A   1      32.407  27.525  27.150  1.00  0.00     0.014 A 
ATOM     19  O   UNL A   1      31.262  24.868  26.602  1.00  0.00    -0.269 OA
ATOM     20  C   UNL A   1      32.998  28.784  27.115  1.00  0.00     0.001 A 
ENDBRANCH   8  10
BRANCH   8  21
ATOM     21  C   UNL A   1      33.214  22.853  23.166  1.00  0.00     0.420 C 
ATOM     22  F   UNL A   1      33.197  21.501  23.324  1.00  0.00    -0.168 F 
ATOM     23  F   UNL A   1      32.897  23.057  21.857  1.00  0.00    -0.168 F 
ATOM     24  F   UNL A   1      34.493  23.253  23.319  1.00  0.00    -0.168 F 
ENDBRANCH   8  21
ENDBRANCH   5   8
ENDBRANCH   3   4
ENDBRANCH   2   3
ENDBRANCH   1   2
BRANCH   1  25
ATOM     25  C   UNL A   1      38.174  21.528  25.558  1.00  0.00     0.116 C 
BRANCH  25  26
ATOM     26  N   UNL A   1      38.952  20.296  25.484  1.00  0.00    -0.352 N 
ATOM     27  C   UNL A   1      40.244  20.040  25.885  1.00  0.00     0.251 C 
ATOM     28  H   UNL A   1      38.480  19.529  25.085  1.00  0.00     0.163 HD
ATOM     29  O   UNL A   1      40.759  18.946  25.681  1.00  0.00    -0.269 OA
BRANCH  27  30
ATOM     30  C   UNL A   1      41.031  21.115  26.519  1.00  0.00     0.039 A 
ATOM     31  C   UNL A   1      41.725  22.012  25.704  1.00  0.00     0.014 A 
ATOM     32  C   UNL A   1      41.021  21.280  27.905  1.00  0.00     0.014 A 
ATOM     33  C   UNL A   1      42.301  23.151  26.270  1.00  0.00     0.010 A 
ATOM     34  C   UNL A   1      41.524  22.453  28.457  1.00  0.00     0.010 A 
ATOM     35  C   UNL A   1      42.142  23.414  27.640  1.00  0.00    -0.014 A 
BRANCH  35  36
ATOM     36  C   UNL A   1      42.558  24.708  28.237  1.00  0.00     0.031 A 
ATOM     37  C   UNL A   1      41.549  25.797  28.457  1.00  0.00     0.074 A 
ATOM     38  C   UNL A   1      43.863  24.938  28.480  1.00  0.00     0.049 A 
ATOM     39  N   UNL A   1      41.740  27.038  28.830  1.00  0.00    -0.248 NA
ATOM     40  C   UNL A   1      40.143  25.457  28.192  1.00  0.00     0.031 C 
ATOM     41  C   UNL A   1      44.949  23.979  28.267  1.00  0.00     0.029 A 
ATOM     42  N   UNL A   1      44.503  26.062  28.941  1.00  0.00    -0.354 N 
ATOM     43  C   UNL A   1      40.484  27.628  28.827  1.00  0.00     0.074 A 
ATOM     44  C   UNL A   1      39.546  26.625  28.370  1.00  0.00     0.031 C 
ATOM     45  C   UNL A   1      46.115  24.547  28.618  1.00  0.00     0.029 A 
ATOM     46  C   UNL A   1      45.867  25.922  29.035  1.00  0.00     0.049 A 
ATOM     47  H   UNL A   1      44.028  26.890  29.183  1.00  0.00     0.167 HD
ATOM     48  C   UNL A   1      40.141  28.887  29.189  1.00  0.00     0.037 A 
ATOM     49  C   UNL A   1      46.813  26.807  29.401  1.00  0.00     0.037 A 
ATOM     50  C   UNL A   1      41.070  29.874  29.670  1.00  0.00     0.049 A 
ATOM     51  C   UNL A   1      46.410  28.204  29.777  1.00  0.00     0.074 A 
ATOM     52  C   UNL A   1      40.808  31.154  30.128  1.00  0.00     0.029 A 
ATOM     53  N   UNL A   1      42.442  29.692  29.755  1.00  0.00    -0.354 N 
ATOM     54  N   UNL A   1      45.211  28.733  29.822  1.00  0.00    -0.248 NA
ATOM     55  C   UNL A   1      47.490  29.130  30.145  1.00  0.00     0.031 C 
ATOM     56  C   UNL A   1      42.027  31.758  30.457  1.00  0.00     0.029 A 
ATOM     57  C   UNL A   1      43.044  30.843  30.235  1.00  0.00     0.049 A 
ATOM     58  H   UNL A   1      42.919  28.866  29.508  1.00  0.00     0.167 HD
ATOM     59  C   UNL A   1      45.390  30.044  30.241  1.00  0.00     0.074 A 
ATOM     60  C   UNL A   1      46.812  30.228  30.448  1.00  0.00     0.031 C 
ATOM     61  C   UNL A   1      44.459  31.008  30.438  1.00  0.00     0.037 A 
BRANCH  48  62
ATOM     62  C   UNL A   1      38.694  29.260  29.084  1.00  0.00     0.057 A 
ATOM     63  C   UNL A   1      37.844  29.237  30.198  1.00  0.00     0.134 A 
ATOM     64  C   UNL A   1      38.144  29.663  27.860  1.00  0.00     0.134 A 
ATOM     65  F   UNL A   1      38.307  28.847  31.396  1.00  0.00    -0.206 F 
ATOM     66  C   UNL A   1      36.495  29.575  30.095  1.00  0.00     0.040 A 
ATOM     67  C   UNL A   1      36.801  30.026  27.749  1.00  0.00     0.040 A 
ATOM     68  F   UNL A   1      38.903  29.711  26.755  1.00  0.00    -0.206 F 
ATOM     69  C   UNL A   1      35.972  29.976  28.867  1.00  0.00     0.006 A 
ENDBRANCH  48  62
BRANCH  49  70
ATOM     70  C   UNL A   1      48.237  26.396  29.445  1.00  0.00     0.057 A 
ATOM     71  C   UNL A   1      48.771  25.787  30.586  1.00  0.00     0.134 A 
ATOM     72  C   UNL A   1      49.096  26.599  28.359  1.00  0.00     0.134 A 
ATOM     73  F   UNL A   1      48.001  25.583  31.665  1.00  0.00    -0.206 F 
ATOM     74  C   UNL A   1      50.113  25.406  30.651  1.00  0.00     0.040 A 
ATOM     75  C   UNL A   1      50.435  26.206  28.402  1.00  0.00     0.040 A 
ATOM     76  F   UNL A   1      48.642  27.174  27.235  1.00  0.00    -0.206 F 
ATOM     77  C   UNL A   1      50.947  25.611  29.554  1.00  0.00     0.006 A 
ENDBRANCH  49  70
BRANCH  61  78
ATOM     78  C   UNL A   1      44.945  32.341  30.921  1.00  0.00     0.057 A 
ATOM     79  C   UNL A   1      45.105  32.615  32.284  1.00  0.00     0.134 A 
ATOM     80  C   UNL A   1      45.303  33.343  30.010  1.00  0.00     0.134 A 
ATOM     81  F   UNL A   1      44.764  31.701  33.205  1.00  0.00    -0.206 F 
ATOM     82  C   UNL A   1      45.594  33.845  32.726  1.00  0.00     0.040 A 
ATOM     83  C   UNL A   1      45.812  34.569  30.439  1.00  0.00     0.040 A 
ATOM     84  F   UNL A   1      45.178  33.139  28.689  1.00  0.00    -0.206 F 
ATOM     85  C   UNL A   1      45.957  34.823  31.801  1.00  0.00     0.006 A 
ENDBRANCH  61  78
ENDBRANCH  35  36
ENDBRANCH  27  30
ENDBRANCH  25  26
ENDBRANCH   1  25
TORSDOF 13
ENDMDL
