MODEL 1
REMARK VINA RESULT:     -12.0      0.000      0.000
REMARK SMILES C[C@@H]1[C@@H](C(=O)NCCCCNC(=O)c2ccc(-c3c4nc(c(-c5c(F)cccc5F)c5ccc([nH]5)c(-c5c(F)cccc5F)c5nc(c(-c6c(F)cccc6F)c6ccc3[nH]6)C=C5)C=C4)cc2)CCN1C(=O)CN1C(=O)CNC1=O
REMARK SMILES IDX 8 1 7 2 6 3 4 4 5 5 3 7 1 8 2 9 70 10 68 11 69 12 71 13
REMARK SMILES IDX 72 14 73 15 74 16 75 17 79 18 76 19 77 20 78 21 80 22 9 24
REMARK SMILES IDX 10 25 11 26 12 27 13 29 14 30 15 31 67 32 16 33 66 34 17 35
REMARK SMILES IDX 18 36 19 37 60 38 20 39 65 40 59 41 61 42 21 43 64 44 58 45
REMARK SMILES IDX 57 46 22 48 48 49 31 50 47 51 32 52 35 53 46 54 62 55 33 56
REMARK SMILES IDX 34 57 45 59 63 60 36 61 23 62 24 63 29 64 25 65 26 66 28 67
REMARK SMILES IDX 30 68 27 69 49 70 50 71 55 72 51 73 52 74 54 75 56 76 53 77
REMARK SMILES IDX 37 78 38 79 43 80 39 81 40 82 42 83 44 84 41 85
REMARK H PARENT 6 6 78 23 11 28 61 47 35 58
REMARK Flexibility Score: inf
ROOT
ATOM      1  C   UNL A   1      31.679  30.933  25.878  1.00  0.00     0.023 C 
ENDROOT
BRANCH   1   2
ATOM      2  C   UNL A   1      32.855  30.159  26.467  1.00  0.00     0.116 C 
BRANCH   2   3
ATOM      3  N   UNL A   1      32.429  29.149  27.409  1.00  0.00    -0.356 N 
ATOM      4  C   UNL A   1      31.765  27.981  27.195  1.00  0.00     0.225 C 
ATOM      5  O   UNL A   1      31.199  27.490  28.175  1.00  0.00    -0.275 OA
ATOM      6  H   UNL A   1      32.656  29.333  28.350  1.00  0.00     0.163 HD
BRANCH   4   7
ATOM      7  C   UNL A   1      31.564  27.418  25.786  1.00  0.00     0.102 C 
ATOM      8  C   UNL A   1      29.626  26.323  24.570  1.00  0.00     0.032 C 
ATOM      9  C   UNL A   1      30.520  26.271  25.810  1.00  0.00     0.094 C 
ATOM     10  N   UNL A   1      31.327  25.036  25.835  1.00  0.00    -0.338 N 
ATOM     11  C   UNL A   1      32.752  26.748  25.086  1.00  0.00     0.037 C 
ATOM     12  C   UNL A   1      32.716  25.308  25.551  1.00  0.00     0.121 C 
BRANCH  10  13
ATOM     13  C   UNL A   1      30.995  23.793  26.356  1.00  0.00     0.243 C 
ATOM     14  O   UNL A   1      30.152  23.665  27.248  1.00  0.00    -0.273 OA
BRANCH  13  15
ATOM     15  C   UNL A   1      31.647  22.569  25.729  1.00  0.00     0.230 C 
BRANCH  15  16
ATOM     16  N   UNL A   1      33.010  22.307  26.146  1.00  0.00    -0.253 N 
ATOM     17  C   UNL A   1      33.982  21.936  25.258  1.00  0.00     0.250 C 
ATOM     18  C   UNL A   1      33.436  22.082  27.422  1.00  0.00     0.325 C 
ATOM     19  O   UNL A   1      33.907  21.986  24.038  1.00  0.00    -0.272 OA
ATOM     20  C   UNL A   1      35.169  21.389  26.030  1.00  0.00     0.218 C 
ATOM     21  N   UNL A   1      34.689  21.518  27.371  1.00  0.00    -0.329 N 
ATOM     22  O   UNL A   1      32.864  22.333  28.466  1.00  0.00    -0.248 OA
ATOM     23  H   UNL A   1      35.197  21.235  28.165  1.00  0.00     0.165 HD
ENDBRANCH  15  16
ENDBRANCH  13  15
ENDBRANCH  10  13
ENDBRANCH   4   7
ENDBRANCH   2   3
ENDBRANCH   1   2
BRANCH   1  24
ATOM     24  C   UNL A   1      31.385  32.283  26.533  1.00  0.00     0.023 C 
BRANCH  24  25
ATOM     25  C   UNL A   1      32.535  32.889  27.332  1.00  0.00     0.116 C 
BRANCH  25  26
ATOM     26  N   UNL A   1      32.317  34.288  27.670  1.00  0.00    -0.352 N 
ATOM     27  C   UNL A   1      32.949  35.088  28.591  1.00  0.00     0.251 C 
ATOM     28  H   UNL A   1      31.602  34.732  27.158  1.00  0.00     0.163 HD
ATOM     29  O   UNL A   1      32.512  36.210  28.829  1.00  0.00    -0.269 OA
BRANCH  27  30
ATOM     30  C   UNL A   1      34.138  34.594  29.319  1.00  0.00     0.039 A 
ATOM     31  C   UNL A   1      33.976  34.086  30.611  1.00  0.00     0.014 A 
ATOM     32  C   UNL A   1      35.408  34.635  28.739  1.00  0.00     0.014 A 
ATOM     33  C   UNL A   1      35.073  33.549  31.290  1.00  0.00     0.010 A 
ATOM     34  C   UNL A   1      36.481  34.023  29.380  1.00  0.00     0.010 A 
ATOM     35  C   UNL A   1      36.328  33.477  30.663  1.00  0.00    -0.014 A 
BRANCH  35  36
ATOM     36  C   UNL A   1      37.494  32.846  31.333  1.00  0.00     0.031 A 
ATOM     37  C   UNL A   1      38.163  31.650  30.715  1.00  0.00     0.074 A 
ATOM     38  C   UNL A   1      37.906  33.302  32.532  1.00  0.00     0.049 A 
ATOM     39  N   UNL A   1      39.133  30.907  31.185  1.00  0.00    -0.248 NA
ATOM     40  C   UNL A   1      37.653  31.211  29.406  1.00  0.00     0.031 C 
ATOM     41  C   UNL A   1      37.313  34.424  33.264  1.00  0.00     0.029 A 
ATOM     42  N   UNL A   1      38.915  32.868  33.356  1.00  0.00    -0.354 N 
ATOM     43  C   UNL A   1      39.335  29.907  30.242  1.00  0.00     0.074 A 
ATOM     44  C   UNL A   1      38.350  30.103  29.202  1.00  0.00     0.031 C 
ATOM     45  C   UNL A   1      37.985  34.605  34.413  1.00  0.00     0.029 A 
ATOM     46  C   UNL A   1      39.028  33.589  34.519  1.00  0.00     0.049 A 
ATOM     47  H   UNL A   1      39.502  32.109  33.133  1.00  0.00     0.167 HD
ATOM     48  C   UNL A   1      40.271  28.928  30.230  1.00  0.00     0.037 A 
ATOM     49  C   UNL A   1      39.873  33.445  35.557  1.00  0.00     0.037 A 
ATOM     50  C   UNL A   1      41.268  28.750  31.253  1.00  0.00     0.049 A 
ATOM     51  C   UNL A   1      40.903  32.351  35.522  1.00  0.00     0.074 A 
ATOM     52  C   UNL A   1      42.293  27.822  31.305  1.00  0.00     0.029 A 
ATOM     53  N   UNL A   1      41.365  29.519  32.403  1.00  0.00    -0.354 N 
ATOM     54  N   UNL A   1      41.120  31.449  34.596  1.00  0.00    -0.248 NA
ATOM     55  C   UNL A   1      41.811  32.258  36.674  1.00  0.00     0.031 C 
ATOM     56  C   UNL A   1      42.986  28.004  32.507  1.00  0.00     0.029 A 
ATOM     57  C   UNL A   1      42.423  29.076  33.179  1.00  0.00     0.049 A 
ATOM     58  H   UNL A   1      40.769  30.268  32.633  1.00  0.00     0.167 HD
ATOM     59  C   UNL A   1      42.210  30.707  35.035  1.00  0.00     0.074 A 
ATOM     60  C   UNL A   1      42.612  31.269  36.307  1.00  0.00     0.031 C 
ATOM     61  C   UNL A   1      42.822  29.656  34.436  1.00  0.00     0.037 A 
BRANCH  48  62
ATOM     62  C   UNL A   1      40.258  27.977  29.068  1.00  0.00     0.057 A 
ATOM     63  C   UNL A   1      39.506  26.794  29.091  1.00  0.00     0.134 A 
ATOM     64  C   UNL A   1      40.988  28.254  27.906  1.00  0.00     0.134 A 
ATOM     65  F   UNL A   1      38.793  26.461  30.179  1.00  0.00    -0.206 F 
ATOM     66  C   UNL A   1      39.508  25.905  28.014  1.00  0.00     0.040 A 
ATOM     67  C   UNL A   1      40.975  27.388  26.811  1.00  0.00     0.040 A 
ATOM     68  F   UNL A   1      41.724  29.372  27.813  1.00  0.00    -0.206 F 
ATOM     69  C   UNL A   1      40.240  26.205  26.866  1.00  0.00     0.006 A 
ENDBRANCH  48  62
BRANCH  49  70
ATOM     70  C   UNL A   1      39.803  34.381  36.708  1.00  0.00     0.057 A 
ATOM     71  C   UNL A   1      40.479  35.608  36.678  1.00  0.00     0.134 A 
ATOM     72  C   UNL A   1      39.072  34.075  37.862  1.00  0.00     0.134 A 
ATOM     73  F   UNL A   1      41.211  35.949  35.608  1.00  0.00    -0.206 F 
ATOM     74  C   UNL A   1      40.446  36.488  37.762  1.00  0.00     0.040 A 
ATOM     75  C   UNL A   1      39.011  34.957  38.943  1.00  0.00     0.040 A 
ATOM     76  F   UNL A   1      38.397  32.921  37.948  1.00  0.00    -0.206 F 
ATOM     77  C   UNL A   1      39.706  36.164  38.896  1.00  0.00     0.006 A 
ENDBRANCH  49  70
BRANCH  61  78
ATOM     78  C   UNL A   1      44.023  29.077  35.124  1.00  0.00     0.057 A 
ATOM     79  C   UNL A   1      45.322  29.528  34.860  1.00  0.00     0.134 A 
ATOM     80  C   UNL A   1      43.871  28.076  36.093  1.00  0.00     0.134 A 
ATOM     81  F   UNL A   1      45.537  30.475  33.934  1.00  0.00    -0.206 F 
ATOM     82  C   UNL A   1      46.429  28.990  35.518  1.00  0.00     0.040 A 
ATOM     83  C   UNL A   1      44.967  27.549  36.778  1.00  0.00     0.040 A 
ATOM     84  F   UNL A   1      42.654  27.604  36.400  1.00  0.00    -0.206 F 
ATOM     85  C   UNL A   1      46.251  28.002  36.485  1.00  0.00     0.006 A 
ENDBRANCH  61  78
ENDBRANCH  35  36
ENDBRANCH  27  30
ENDBRANCH  25  26
ENDBRANCH  24  25
ENDBRANCH   1  24
TORSDOF 14
ENDMDL
MODEL 2
REMARK VINA RESULT:     -12.0      4.333      9.289
REMARK SMILES C[C@@H]1[C@@H](C(=O)NCCCCNC(=O)c2ccc(-c3c4nc(c(-c5c(F)cccc5F)c5ccc([nH]5)c(-c5c(F)cccc5F)c5nc(c(-c6c(F)cccc6F)c6ccc3[nH]6)C=C5)C=C4)cc2)CCN1C(=O)CN1C(=O)CNC1=O
REMARK SMILES IDX 8 1 7 2 6 3 4 4 5 5 3 7 1 8 2 9 70 10 68 11 69 12 71 13
REMARK SMILES IDX 72 14 73 15 74 16 75 17 79 18 76 19 77 20 78 21 80 22 9 24
REMARK SMILES IDX 10 25 11 26 12 27 13 29 14 30 15 31 67 32 16 33 66 34 17 35
REMARK SMILES IDX 18 36 19 37 60 38 20 39 65 40 59 41 61 42 21 43 64 44 58 45
REMARK SMILES IDX 57 46 22 48 48 49 31 50 47 51 32 52 35 53 46 54 62 55 33 56
REMARK SMILES IDX 34 57 45 59 63 60 36 61 23 62 24 63 29 64 25 65 26 66 28 67
REMARK SMILES IDX 30 68 27 69 49 70 50 71 55 72 51 73 52 74 54 75 56 76 53 77
REMARK SMILES IDX 37 78 38 79 43 80 39 81 40 82 42 83 44 84 41 85
REMARK H PARENT 6 6 78 23 11 28 61 47 35 58
REMARK Flexibility Score: inf
ROOT
ATOM      1  C   UNL A   1      36.493  20.396  24.974  1.00  0.00     0.023 C 
ENDROOT
BRANCH   1   2
ATOM      2  C   UNL A   1      36.491  21.550  25.972  1.00  0.00     0.116 C 
BRANCH   2   3
ATOM      3  N   UNL A   1      35.182  21.779  26.542  1.00  0.00    -0.356 N 
ATOM      4  C   UNL A   1      34.438  22.917  26.587  1.00  0.00     0.225 C 
ATOM      5  O   UNL A   1      33.545  22.949  27.439  1.00  0.00    -0.275 OA
ATOM      6  H   UNL A   1      34.766  20.992  26.963  1.00  0.00     0.163 HD
BRANCH   4   7
ATOM      7  C   UNL A   1      34.811  24.154  25.767  1.00  0.00     0.102 C 
ATOM      8  C   UNL A   1      34.092  26.587  25.794  1.00  0.00     0.032 C 
ATOM      9  C   UNL A   1      33.613  25.137  25.701  1.00  0.00     0.094 C 
ATOM     10  N   UNL A   1      32.982  24.865  24.396  1.00  0.00    -0.338 N 
ATOM     11  C   UNL A   1      35.156  23.977  24.284  1.00  0.00     0.037 C 
ATOM     12  C   UNL A   1      33.824  24.035  23.566  1.00  0.00     0.121 C 
BRANCH  10  13
ATOM     13  C   UNL A   1      31.659  25.041  24.018  1.00  0.00     0.243 C 
ATOM     14  O   UNL A   1      30.724  24.599  24.692  1.00  0.00    -0.273 OA
BRANCH  13  15
ATOM     15  C   UNL A   1      31.385  25.878  22.776  1.00  0.00     0.230 C 
BRANCH  15  16
ATOM     16  N   UNL A   1      31.992  27.195  22.766  1.00  0.00    -0.253 N 
ATOM     17  C   UNL A   1      33.200  27.431  22.172  1.00  0.00     0.250 C 
ATOM     18  C   UNL A   1      31.650  28.248  23.562  1.00  0.00     0.325 C 
ATOM     19  O   UNL A   1      33.801  26.676  21.420  1.00  0.00    -0.272 OA
ATOM     20  C   UNL A   1      33.722  28.778  22.641  1.00  0.00     0.218 C 
ATOM     21  N   UNL A   1      32.666  29.173  23.523  1.00  0.00    -0.329 N 
ATOM     22  O   UNL A   1      30.630  28.411  24.205  1.00  0.00    -0.248 OA
ATOM     23  H   UNL A   1      32.668  30.010  24.040  1.00  0.00     0.165 HD
ENDBRANCH  15  16
ENDBRANCH  13  15
ENDBRANCH  10  13
ENDBRANCH   4   7
ENDBRANCH   2   3
ENDBRANCH   1   2
BRANCH   1  24
ATOM     24  C   UNL A   1      37.811  19.629  24.859  1.00  0.00     0.023 C 
BRANCH  24  25
ATOM     25  C   UNL A   1      38.956  20.157  25.718  1.00  0.00     0.116 C 
BRANCH  25  26
ATOM     26  N   UNL A   1      40.093  19.250  25.767  1.00  0.00    -0.352 N 
ATOM     27  C   UNL A   1      41.407  19.491  26.092  1.00  0.00     0.251 C 
ATOM     28  H   UNL A   1      39.890  18.316  25.529  1.00  0.00     0.163 HD
ATOM     29  O   UNL A   1      42.249  18.613  25.926  1.00  0.00    -0.269 OA
BRANCH  27  30
ATOM     30  C   UNL A   1      41.818  20.813  26.613  1.00  0.00     0.039 A 
ATOM     31  C   UNL A   1      42.277  21.780  25.714  1.00  0.00     0.014 A 
ATOM     32  C   UNL A   1      41.760  21.100  27.978  1.00  0.00     0.014 A 
ATOM     33  C   UNL A   1      42.603  23.058  26.175  1.00  0.00     0.010 A 
ATOM     34  C   UNL A   1      42.001  22.396  28.424  1.00  0.00     0.010 A 
ATOM     35  C   UNL A   1      42.429  23.389  27.530  1.00  0.00    -0.014 A 
BRANCH  35  36
ATOM     36  C   UNL A   1      42.700  24.760  28.034  1.00  0.00     0.031 A 
ATOM     37  C   UNL A   1      44.092  25.148  28.452  1.00  0.00     0.074 A 
ATOM     38  C   UNL A   1      41.685  25.632  28.185  1.00  0.00     0.049 A 
ATOM     39  N   UNL A   1      44.514  26.260  28.998  1.00  0.00    -0.248 NA
ATOM     40  C   UNL A   1      45.145  24.137  28.258  1.00  0.00     0.031 C 
ATOM     41  C   UNL A   1      40.281  25.366  27.863  1.00  0.00     0.029 A 
ATOM     42  N   UNL A   1      41.676  26.920  28.662  1.00  0.00    -0.354 N 
ATOM     43  C   UNL A   1      45.871  26.076  29.229  1.00  0.00     0.074 A 
ATOM     44  C   UNL A   1      46.190  24.727  28.818  1.00  0.00     0.031 C 
ATOM     45  C   UNL A   1      39.553  26.464  28.127  1.00  0.00     0.029 A 
ATOM     46  C   UNL A   1      40.429  27.496  28.674  1.00  0.00     0.049 A 
ATOM     47  H   UNL A   1      42.487  27.386  28.968  1.00  0.00     0.167 HD
ATOM     48  C   UNL A   1      46.776  26.958  29.716  1.00  0.00     0.037 A 
ATOM     49  C   UNL A   1      40.034  28.716  29.084  1.00  0.00     0.037 A 
ATOM     50  C   UNL A   1      46.463  28.310  30.100  1.00  0.00     0.049 A 
ATOM     51  C   UNL A   1      41.056  29.678  29.623  1.00  0.00     0.074 A 
ATOM     52  C   UNL A   1      47.319  29.298  30.554  1.00  0.00     0.029 A 
ATOM     53  N   UNL A   1      45.191  28.863  30.072  1.00  0.00    -0.354 N 
ATOM     54  N   UNL A   1      42.347  29.511  29.780  1.00  0.00    -0.248 NA
ATOM     55  C   UNL A   1      40.569  31.001  30.034  1.00  0.00     0.031 C 
ATOM     56  C   UNL A   1      46.558  30.437  30.839  1.00  0.00     0.029 A 
ATOM     57  C   UNL A   1      45.237  30.174  30.516  1.00  0.00     0.049 A 
ATOM     58  H   UNL A   1      44.377  28.393  29.780  1.00  0.00     0.167 HD
ATOM     59  C   UNL A   1      42.830  30.717  30.273  1.00  0.00     0.074 A 
ATOM     60  C   UNL A   1      41.694  31.608  30.382  1.00  0.00     0.031 C 
ATOM     61  C   UNL A   1      44.100  31.055  30.604  1.00  0.00     0.037 A 
BRANCH  48  62
ATOM     62  C   UNL A   1      48.194  26.484  29.857  1.00  0.00     0.057 A 
ATOM     63  C   UNL A   1      49.139  26.665  28.838  1.00  0.00     0.134 A 
ATOM     64  C   UNL A   1      48.626  25.855  31.032  1.00  0.00     0.134 A 
ATOM     65  F   UNL A   1      48.788  27.249  27.681  1.00  0.00    -0.206 F 
ATOM     66  C   UNL A   1      50.452  26.209  28.969  1.00  0.00     0.040 A 
ATOM     67  C   UNL A   1      49.944  25.421  31.186  1.00  0.00     0.040 A 
ATOM     68  F   UNL A   1      47.776  25.655  32.051  1.00  0.00    -0.206 F 
ATOM     69  C   UNL A   1      50.859  25.590  30.149  1.00  0.00     0.006 A 
ENDBRANCH  48  62
BRANCH  49  70
ATOM     70  C   UNL A   1      38.607  29.112  28.975  1.00  0.00     0.057 A 
ATOM     71  C   UNL A   1      38.087  29.593  27.767  1.00  0.00     0.134 A 
ATOM     72  C   UNL A   1      37.734  29.028  30.065  1.00  0.00     0.134 A 
ATOM     73  F   UNL A   1      38.878  29.715  26.691  1.00  0.00    -0.206 F 
ATOM     74  C   UNL A   1      36.754  29.996  27.653  1.00  0.00     0.040 A 
ATOM     75  C   UNL A   1      36.394  29.403  29.959  1.00  0.00     0.040 A 
ATOM     76  F   UNL A   1      38.170  28.566  31.246  1.00  0.00    -0.206 F 
ATOM     77  C   UNL A   1      35.904  29.896  28.751  1.00  0.00     0.006 A 
ENDBRANCH  49  70
BRANCH  61  78
ATOM     78  C   UNL A   1      44.339  32.462  31.065  1.00  0.00     0.057 A 
ATOM     79  C   UNL A   1      44.625  33.501  30.171  1.00  0.00     0.134 A 
ATOM     80  C   UNL A   1      44.246  32.787  32.426  1.00  0.00     0.134 A 
ATOM     81  F   UNL A   1      44.741  33.254  28.857  1.00  0.00    -0.206 F 
ATOM     82  C   UNL A   1      44.831  34.809  30.614  1.00  0.00     0.040 A 
ATOM     83  C   UNL A   1      44.422  34.095  32.878  1.00  0.00     0.040 A 
ATOM     84  F   UNL A   1      43.968  31.841  33.335  1.00  0.00    -0.206 F 
ATOM     85  C   UNL A   1      44.722  35.109  31.971  1.00  0.00     0.006 A 
ENDBRANCH  61  78
ENDBRANCH  35  36
ENDBRANCH  27  30
ENDBRANCH  25  26
ENDBRANCH  24  25
ENDBRANCH   1  24
TORSDOF 14
ENDMDL
MODEL 3
REMARK VINA RESULT:     -12.0      4.185      9.337
REMARK SMILES C[C@@H]1[C@@H](C(=O)NCCCCNC(=O)c2ccc(-c3c4nc(c(-c5c(F)cccc5F)c5ccc([nH]5)c(-c5c(F)cccc5F)c5nc(c(-c6c(F)cccc6F)c6ccc3[nH]6)C=C5)C=C4)cc2)CCN1C(=O)CN1C(=O)CNC1=O
REMARK SMILES IDX 8 1 7 2 6 3 4 4 5 5 3 7 1 8 2 9 70 10 68 11 69 12 71 13
REMARK SMILES IDX 72 14 73 15 74 16 75 17 79 18 76 19 77 20 78 21 80 22 9 24
REMARK SMILES IDX 10 25 11 26 12 27 13 29 14 30 15 31 67 32 16 33 66 34 17 35
REMARK SMILES IDX 18 36 19 37 60 38 20 39 65 40 59 41 61 42 21 43 64 44 58 45
REMARK SMILES IDX 57 46 22 48 48 49 31 50 47 51 32 52 35 53 46 54 62 55 33 56
REMARK SMILES IDX 34 57 45 59 63 60 36 61 23 62 24 63 29 64 25 65 26 66 28 67
REMARK SMILES IDX 30 68 27 69 49 70 50 71 55 72 51 73 52 74 54 75 56 76 53 77
REMARK SMILES IDX 37 78 38 79 43 80 39 81 40 82 42 83 44 84 41 85
REMARK H PARENT 6 6 78 23 11 28 61 47 35 58
REMARK Flexibility Score: inf
ROOT
ATOM      1  C   UNL A   1      36.524  19.530  24.922  1.00  0.00     0.023 C 
ENDROOT
BRANCH   1   2
ATOM      2  C   UNL A   1      35.544  20.650  25.257  1.00  0.00     0.116 C 
BRANCH   2   3
ATOM      3  N   UNL A   1      34.167  20.223  25.153  1.00  0.00    -0.356 N 
ATOM      4  C   UNL A   1      33.071  20.910  24.731  1.00  0.00     0.225 C 
ATOM      5  O   UNL A   1      31.978  20.459  25.085  1.00  0.00    -0.275 OA
ATOM      6  H   UNL A   1      33.996  19.293  25.428  1.00  0.00     0.163 HD
BRANCH   4   7
ATOM      7  C   UNL A   1      33.192  22.266  24.032  1.00  0.00     0.102 C 
ATOM      8  C   UNL A   1      34.203  24.505  24.662  1.00  0.00     0.032 C 
ATOM      9  C   UNL A   1      33.220  23.410  25.080  1.00  0.00     0.094 C 
ATOM     10  N   UNL A   1      31.836  23.918  25.112  1.00  0.00    -0.338 N 
ATOM     11  C   UNL A   1      32.060  22.718  23.102  1.00  0.00     0.037 C 
ATOM     12  C   UNL A   1      31.058  23.397  24.012  1.00  0.00     0.121 C 
BRANCH  10  13
ATOM     13  C   UNL A   1      31.163  24.540  26.154  1.00  0.00     0.243 C 
ATOM     14  O   UNL A   1      31.271  24.154  27.321  1.00  0.00    -0.273 OA
BRANCH  13  15
ATOM     15  C   UNL A   1      30.345  25.780  25.824  1.00  0.00     0.230 C 
BRANCH  15  16
ATOM     16  N   UNL A   1      31.108  26.996  25.628  1.00  0.00    -0.253 N 
ATOM     17  C   UNL A   1      31.433  27.823  26.668  1.00  0.00     0.250 C 
ATOM     18  C   UNL A   1      31.323  27.634  24.442  1.00  0.00     0.325 C 
ATOM     19  O   UNL A   1      31.333  27.565  27.860  1.00  0.00    -0.272 OA
ATOM     20  C   UNL A   1      31.894  29.156  26.109  1.00  0.00     0.218 C 
ATOM     21  N   UNL A   1      31.757  28.912  24.706  1.00  0.00    -0.329 N 
ATOM     22  O   UNL A   1      31.192  27.198  23.314  1.00  0.00    -0.248 OA
ATOM     23  H   UNL A   1      31.952  29.581  24.011  1.00  0.00     0.165 HD
ENDBRANCH  15  16
ENDBRANCH  13  15
ENDBRANCH  10  13
ENDBRANCH   4   7
ENDBRANCH   2   3
ENDBRANCH   1   2
BRANCH   1  24
ATOM     24  C   UNL A   1      37.953  19.977  24.609  1.00  0.00     0.023 C 
BRANCH  24  25
ATOM     25  C   UNL A   1      38.865  20.159  25.818  1.00  0.00     0.116 C 
BRANCH  25  26
ATOM     26  N   UNL A   1      40.011  19.263  25.805  1.00  0.00    -0.352 N 
ATOM     27  C   UNL A   1      41.335  19.510  26.081  1.00  0.00     0.251 C 
ATOM     28  H   UNL A   1      39.806  18.331  25.559  1.00  0.00     0.163 HD
ATOM     29  O   UNL A   1      42.176  18.643  25.866  1.00  0.00    -0.269 OA
BRANCH  27  30
ATOM     30  C   UNL A   1      41.755  20.826  26.609  1.00  0.00     0.039 A 
ATOM     31  C   UNL A   1      42.264  21.779  25.722  1.00  0.00     0.014 A 
ATOM     32  C   UNL A   1      41.657  21.122  27.970  1.00  0.00     0.014 A 
ATOM     33  C   UNL A   1      42.600  23.052  26.187  1.00  0.00     0.010 A 
ATOM     34  C   UNL A   1      41.910  22.415  28.417  1.00  0.00     0.010 A 
ATOM     35  C   UNL A   1      42.388  23.394  27.533  1.00  0.00    -0.014 A 
BRANCH  35  36
ATOM     36  C   UNL A   1      42.670  24.762  28.039  1.00  0.00     0.031 A 
ATOM     37  C   UNL A   1      44.067  25.141  28.449  1.00  0.00     0.074 A 
ATOM     38  C   UNL A   1      41.661  25.640  28.200  1.00  0.00     0.049 A 
ATOM     39  N   UNL A   1      44.499  26.249  28.995  1.00  0.00    -0.248 NA
ATOM     40  C   UNL A   1      45.113  24.125  28.246  1.00  0.00     0.031 C 
ATOM     41  C   UNL A   1      40.254  25.383  27.886  1.00  0.00     0.029 A 
ATOM     42  N   UNL A   1      41.663  26.926  28.680  1.00  0.00    -0.354 N 
ATOM     43  C   UNL A   1      45.857  26.057  29.217  1.00  0.00     0.074 A 
ATOM     44  C   UNL A   1      46.166  24.707  28.801  1.00  0.00     0.031 C 
ATOM     45  C   UNL A   1      39.534  26.484  28.158  1.00  0.00     0.029 A 
ATOM     46  C   UNL A   1      40.419  27.509  28.702  1.00  0.00     0.049 A 
ATOM     47  H   UNL A   1      42.479  27.387  28.982  1.00  0.00     0.167 HD
ATOM     48  C   UNL A   1      46.770  26.932  29.700  1.00  0.00     0.037 A 
ATOM     49  C   UNL A   1      40.034  28.730  29.118  1.00  0.00     0.037 A 
ATOM     50  C   UNL A   1      46.467  28.285  30.090  1.00  0.00     0.049 A 
ATOM     51  C   UNL A   1      41.065  29.685  29.653  1.00  0.00     0.074 A 
ATOM     52  C   UNL A   1      47.332  29.267  30.541  1.00  0.00     0.029 A 
ATOM     53  N   UNL A   1      45.198  28.845  30.072  1.00  0.00    -0.354 N 
ATOM     54  N   UNL A   1      42.356  29.510  29.801  1.00  0.00    -0.248 NA
ATOM     55  C   UNL A   1      40.588  31.010  30.070  1.00  0.00     0.031 C 
ATOM     56  C   UNL A   1      46.580  30.409  30.834  1.00  0.00     0.029 A 
ATOM     57  C   UNL A   1      45.255  30.155  30.519  1.00  0.00     0.049 A 
ATOM     58  H   UNL A   1      44.380  28.380  29.784  1.00  0.00     0.167 HD
ATOM     59  C   UNL A   1      42.849  30.712  30.294  1.00  0.00     0.074 A 
ATOM     60  C   UNL A   1      41.719  31.609  30.412  1.00  0.00     0.031 C 
ATOM     61  C   UNL A   1      44.124  31.042  30.617  1.00  0.00     0.037 A 
BRANCH  48  62
ATOM     62  C   UNL A   1      48.186  26.449  29.831  1.00  0.00     0.057 A 
ATOM     63  C   UNL A   1      48.646  25.816  30.994  1.00  0.00     0.134 A 
ATOM     64  C   UNL A   1      49.095  26.601  28.777  1.00  0.00     0.134 A 
ATOM     65  F   UNL A   1      47.830  25.649  32.046  1.00  0.00    -0.206 F 
ATOM     66  C   UNL A   1      49.967  25.381  31.115  1.00  0.00     0.040 A 
ATOM     67  C   UNL A   1      50.411  26.144  28.876  1.00  0.00     0.040 A 
ATOM     68  F   UNL A   1      48.721  27.192  27.632  1.00  0.00    -0.206 F 
ATOM     69  C   UNL A   1      50.852  25.540  30.051  1.00  0.00     0.006 A 
ENDBRANCH  48  62
BRANCH  49  70
ATOM     70  C   UNL A   1      38.609  29.135  29.019  1.00  0.00     0.057 A 
ATOM     71  C   UNL A   1      38.070  29.572  27.803  1.00  0.00     0.134 A 
ATOM     72  C   UNL A   1      37.756  29.103  30.128  1.00  0.00     0.134 A 
ATOM     73  F   UNL A   1      38.841  29.643  26.709  1.00  0.00    -0.206 F 
ATOM     74  C   UNL A   1      36.739  29.982  27.698  1.00  0.00     0.040 A 
ATOM     75  C   UNL A   1      36.417  29.485  30.032  1.00  0.00     0.040 A 
ATOM     76  F   UNL A   1      38.210  28.685  31.319  1.00  0.00    -0.206 F 
ATOM     77  C   UNL A   1      35.908  29.934  28.814  1.00  0.00     0.006 A 
ENDBRANCH  49  70
BRANCH  61  78
ATOM     78  C   UNL A   1      44.374  32.447  31.081  1.00  0.00     0.057 A 
ATOM     79  C   UNL A   1      44.352  32.798  32.436  1.00  0.00     0.134 A 
ATOM     80  C   UNL A   1      44.678  33.455  30.156  1.00  0.00     0.134 A 
ATOM     81  F   UNL A   1      44.055  31.882  33.371  1.00  0.00    -0.206 F 
ATOM     82  C   UNL A   1      44.601  34.106  32.854  1.00  0.00     0.040 A 
ATOM     83  C   UNL A   1      44.956  34.760  30.563  1.00  0.00     0.040 A 
ATOM     84  F   UNL A   1      44.723  33.185  28.843  1.00  0.00    -0.206 F 
ATOM     85  C   UNL A   1      44.911  35.090  31.916  1.00  0.00     0.006 A 
ENDBRANCH  61  78
ENDBRANCH  35  36
ENDBRANCH  27  30
ENDBRANCH  25  26
ENDBRANCH  24  25
ENDBRANCH   1  24
TORSDOF 14
ENDMDL
