MODEL 1
REMARK VINA RESULT:     -11.5      0.000      0.000
REMARK SMILES CC(C)[C@H](CNC(=O)[C@H]1CSc2ccccc21)C(=O)NCCCCNC(=O)c1ccc(-c2c3nc(c(-c4c(F)cccc4F)c4ccc([nH]4)c(-c4c(F)cccc4F)c4nc(c(-c5c(F)cccc5F)c5ccc2[nH]5)C=C4)C=C3)cc1
REMARK SMILES IDX 22 1 21 2 20 3 18 4 19 5 4 7 2 8 1 9 3 10 5 11 6 12 7 13
REMARK SMILES IDX 8 15 9 16 10 17 17 18 11 19 12 20 16 21 13 22 15 23 14 24
REMARK SMILES IDX 23 25 24 26 25 27 26 28 27 30 28 31 29 32 81 33 30 34 80 35
REMARK SMILES IDX 31 36 32 37 33 38 74 39 34 40 79 41 73 42 75 43 35 44 78 45
REMARK SMILES IDX 72 46 71 47 36 49 62 50 45 51 61 52 46 53 49 54 60 55 76 56
REMARK SMILES IDX 47 57 48 58 59 60 77 61 50 62 37 63 38 64 43 65 39 66 40 67
REMARK SMILES IDX 42 68 44 69 41 70 63 71 64 72 69 73 65 74 66 75 68 76 70 77
REMARK SMILES IDX 67 78 51 79 52 80 57 81 53 82 54 83 56 84 58 85 55 86
REMARK H PARENT 20 6 6 14 25 29 75 48 49 59
REMARK Flexibility Score: inf
ROOT
ATOM      1  C   UNL A   1      36.820  20.953  25.056  1.00  0.00     0.023 C 
ENDROOT
BRANCH   1   2
ATOM      2  C   UNL A   1      35.414  20.355  25.090  1.00  0.00     0.116 C 
BRANCH   2   3
ATOM      3  N   UNL A   1      34.532  20.900  26.107  1.00  0.00    -0.356 N 
ATOM      4  C   UNL A   1      33.536  21.822  26.068  1.00  0.00     0.225 C 
ATOM      5  O   UNL A   1      32.950  22.001  27.145  1.00  0.00    -0.275 OA
ATOM      6  H   UNL A   1      34.688  20.525  27.003  1.00  0.00     0.163 HD
BRANCH   4   7
ATOM      7  C   UNL A   1      33.121  22.660  24.847  1.00  0.00     0.100 C 
BRANCH   7   8
ATOM      8  C   UNL A   1      34.105  23.769  24.335  1.00  0.00    -0.003 C 
ATOM      9  C   UNL A   1      35.017  24.411  25.390  1.00  0.00     0.008 C 
ATOM     10  C   UNL A   1      34.897  23.408  23.074  1.00  0.00     0.008 C 
ENDBRANCH   7   8
BRANCH   7  11
ATOM     11  C   UNL A   1      31.635  23.103  24.825  1.00  0.00     0.129 C 
BRANCH  11  12
ATOM     12  N   UNL A   1      31.194  24.056  25.850  1.00  0.00    -0.355 N 
ATOM     13  C   UNL A   1      30.972  25.411  25.801  1.00  0.00     0.228 C 
ATOM     14  H   UNL A   1      31.028  23.651  26.732  1.00  0.00     0.163 HD
ATOM     15  O   UNL A   1      30.040  25.831  26.499  1.00  0.00    -0.274 OA
BRANCH  13  16
ATOM     16  C   UNL A   1      31.926  26.408  25.143  1.00  0.00     0.120 C 
ATOM     17  C   UNL A   1      31.573  26.918  23.771  1.00  0.00     0.093 C 
ATOM     18  C   UNL A   1      32.261  27.692  25.889  1.00  0.00    -0.021 A 
ATOM     19  S   UNL A   1      30.650  28.470  23.967  1.00  0.00    -0.125 SA
ATOM     20  C   UNL A   1      31.657  28.845  25.358  1.00  0.00     0.011 A 
ATOM     21  C   UNL A   1      33.242  27.828  26.859  1.00  0.00     0.006 A 
ATOM     22  C   UNL A   1      32.009  30.122  25.758  1.00  0.00     0.015 A 
ATOM     23  C   UNL A   1      33.623  29.115  27.259  1.00  0.00     0.000 A 
ATOM     24  C   UNL A   1      33.014  30.254  26.710  1.00  0.00     0.001 A 
ENDBRANCH  13  16
ENDBRANCH  11  12
ENDBRANCH   7  11
ENDBRANCH   4   7
ENDBRANCH   2   3
ENDBRANCH   1   2
BRANCH   1  25
ATOM     25  C   UNL A   1      37.952  19.949  24.932  1.00  0.00     0.023 C 
BRANCH  25  26
ATOM     26  C   UNL A   1      39.151  20.379  25.752  1.00  0.00     0.116 C 
BRANCH  26  27
ATOM     27  N   UNL A   1      40.032  19.238  26.016  1.00  0.00    -0.352 N 
ATOM     28  C   UNL A   1      41.404  19.214  26.126  1.00  0.00     0.251 C 
ATOM     29  H   UNL A   1      39.581  18.370  26.131  1.00  0.00     0.163 HD
ATOM     30  O   UNL A   1      42.032  18.170  25.991  1.00  0.00    -0.269 OA
BRANCH  28  31
ATOM     31  C   UNL A   1      42.098  20.482  26.405  1.00  0.00     0.039 A 
ATOM     32  C   UNL A   1      42.251  20.862  27.734  1.00  0.00     0.014 A 
ATOM     33  C   UNL A   1      42.517  21.321  25.371  1.00  0.00     0.014 A 
ATOM     34  C   UNL A   1      42.557  22.175  28.025  1.00  0.00     0.010 A 
ATOM     35  C   UNL A   1      43.004  22.594  25.685  1.00  0.00     0.010 A 
ATOM     36  C   UNL A   1      42.972  23.052  27.012  1.00  0.00    -0.014 A 
BRANCH  36  37
ATOM     37  C   UNL A   1      43.373  24.426  27.406  1.00  0.00     0.031 A 
ATOM     38  C   UNL A   1      44.789  24.902  27.239  1.00  0.00     0.074 A 
ATOM     39  C   UNL A   1      42.411  25.277  27.821  1.00  0.00     0.049 A 
ATOM     40  N   UNL A   1      45.303  26.070  27.536  1.00  0.00    -0.248 NA
ATOM     41  C   UNL A   1      45.759  23.949  26.677  1.00  0.00     0.031 C 
ATOM     42  C   UNL A   1      40.995  24.930  27.994  1.00  0.00     0.029 A 
ATOM     43  N   UNL A   1      42.457  26.612  28.119  1.00  0.00    -0.354 N 
ATOM     44  C   UNL A   1      46.657  25.978  27.237  1.00  0.00     0.074 A 
ATOM     45  C   UNL A   1      46.891  24.636  26.750  1.00  0.00     0.031 C 
ATOM     46  C   UNL A   1      40.297  26.039  28.263  1.00  0.00     0.029 A 
ATOM     47  C   UNL A   1      41.226  27.149  28.408  1.00  0.00     0.049 A 
ATOM     48  H   UNL A   1      43.290  27.136  28.125  1.00  0.00     0.167 HD
ATOM     49  C   UNL A   1      47.613  26.931  27.357  1.00  0.00     0.037 A 
ATOM     50  C   UNL A   1      40.883  28.391  28.788  1.00  0.00     0.037 A 
ATOM     51  C   UNL A   1      47.357  28.274  27.816  1.00  0.00     0.049 A 
ATOM     52  C   UNL A   1      41.969  29.406  28.961  1.00  0.00     0.074 A 
ATOM     53  C   UNL A   1      48.250  29.318  27.974  1.00  0.00     0.029 A 
ATOM     54  N   UNL A   1      46.109  28.757  28.181  1.00  0.00    -0.354 N 
ATOM     55  N   UNL A   1      43.251  29.293  28.715  1.00  0.00    -0.248 NA
ATOM     56  C   UNL A   1      41.566  30.712  29.495  1.00  0.00     0.031 C 
ATOM     57  C   UNL A   1      47.549  30.422  28.475  1.00  0.00     0.029 A 
ATOM     58  C   UNL A   1      46.211  30.080  28.583  1.00  0.00     0.049 A 
ATOM     59  H   UNL A   1      45.273  28.238  28.158  1.00  0.00     0.167 HD
ATOM     60  C   UNL A   1      43.811  30.514  29.058  1.00  0.00     0.074 A 
ATOM     61  C   UNL A   1      42.720  31.362  29.499  1.00  0.00     0.031 C 
ATOM     62  C   UNL A   1      45.110  30.898  29.024  1.00  0.00     0.037 A 
BRANCH  49  63
ATOM     63  C   UNL A   1      49.026  26.543  27.025  1.00  0.00     0.057 A 
ATOM     64  C   UNL A   1      49.516  26.693  25.720  1.00  0.00     0.134 A 
ATOM     65  C   UNL A   1      49.898  26.005  27.981  1.00  0.00     0.134 A 
ATOM     66  F   UNL A   1      48.735  27.198  24.753  1.00  0.00    -0.206 F 
ATOM     67  C   UNL A   1      50.819  26.325  25.380  1.00  0.00     0.040 A 
ATOM     68  C   UNL A   1      51.212  25.655  27.658  1.00  0.00     0.040 A 
ATOM     69  F   UNL A   1      49.499  25.848  29.252  1.00  0.00    -0.206 F 
ATOM     70  C   UNL A   1      51.674  25.810  26.352  1.00  0.00     0.006 A 
ENDBRANCH  49  63
BRANCH  50  71
ATOM     71  C   UNL A   1      39.465  28.717  29.081  1.00  0.00     0.057 A 
ATOM     72  C   UNL A   1      38.624  29.260  28.101  1.00  0.00     0.134 A 
ATOM     73  C   UNL A   1      38.916  28.497  30.349  1.00  0.00     0.134 A 
ATOM     74  F   UNL A   1      39.091  29.504  26.867  1.00  0.00    -0.206 F 
ATOM     75  C   UNL A   1      37.298  29.589  28.373  1.00  0.00     0.040 A 
ATOM     76  C   UNL A   1      37.581  28.791  30.627  1.00  0.00     0.040 A 
ATOM     77  F   UNL A   1      39.666  27.965  31.326  1.00  0.00    -0.206 F 
ATOM     78  C   UNL A   1      36.768  29.345  29.639  1.00  0.00     0.006 A 
ENDBRANCH  50  71
BRANCH  62  79
ATOM     79  C   UNL A   1      45.399  32.304  29.453  1.00  0.00     0.057 A 
ATOM     80  C   UNL A   1      45.738  32.588  30.781  1.00  0.00     0.134 A 
ATOM     81  C   UNL A   1      45.353  33.375  28.550  1.00  0.00     0.134 A 
ATOM     82  F   UNL A   1      45.795  31.607  31.694  1.00  0.00    -0.206 F 
ATOM     83  C   UNL A   1      46.025  33.888  31.197  1.00  0.00     0.040 A 
ATOM     84  C   UNL A   1      45.666  34.674  28.948  1.00  0.00     0.040 A 
ATOM     85  F   UNL A   1      45.056  33.163  27.259  1.00  0.00    -0.206 F 
ATOM     86  C   UNL A   1      45.999  34.933  30.276  1.00  0.00     0.006 A 
ENDBRANCH  62  79
ENDBRANCH  36  37
ENDBRANCH  28  31
ENDBRANCH  26  27
ENDBRANCH  25  26
ENDBRANCH   1  25
TORSDOF 15
ENDMDL
MODEL 2
REMARK VINA RESULT:     -11.4      1.856      2.543
REMARK SMILES CC(C)[C@H](CNC(=O)[C@H]1CSc2ccccc21)C(=O)NCCCCNC(=O)c1ccc(-c2c3nc(c(-c4c(F)cccc4F)c4ccc([nH]4)c(-c4c(F)cccc4F)c4nc(c(-c5c(F)cccc5F)c5ccc2[nH]5)C=C4)C=C3)cc1
REMARK SMILES IDX 22 1 21 2 20 3 18 4 19 5 4 7 2 8 1 9 3 10 5 11 6 12 7 13
REMARK SMILES IDX 8 15 9 16 10 17 17 18 11 19 12 20 16 21 13 22 15 23 14 24
REMARK SMILES IDX 23 25 24 26 25 27 26 28 27 30 28 31 29 32 81 33 30 34 80 35
REMARK SMILES IDX 31 36 32 37 33 38 74 39 34 40 79 41 73 42 75 43 35 44 78 45
REMARK SMILES IDX 72 46 71 47 36 49 62 50 45 51 61 52 46 53 49 54 60 55 76 56
REMARK SMILES IDX 47 57 48 58 59 60 77 61 50 62 37 63 38 64 43 65 39 66 40 67
REMARK SMILES IDX 42 68 44 69 41 70 63 71 64 72 69 73 65 74 66 75 68 76 70 77
REMARK SMILES IDX 67 78 51 79 52 80 57 81 53 82 54 83 56 84 58 85 55 86
REMARK H PARENT 20 6 6 14 25 29 75 48 49 59
REMARK Flexibility Score: inf
ROOT
ATOM      1  C   UNL A   1      36.937  21.517  24.432  1.00  0.00     0.023 C 
ENDROOT
BRANCH   1   2
ATOM      2  C   UNL A   1      35.566  21.786  25.053  1.00  0.00     0.116 C 
BRANCH   2   3
ATOM      3  N   UNL A   1      34.451  21.110  24.412  1.00  0.00    -0.356 N 
ATOM      4  C   UNL A   1      33.150  21.451  24.224  1.00  0.00     0.225 C 
ATOM      5  O   UNL A   1      32.488  20.632  23.571  1.00  0.00    -0.275 OA
ATOM      6  H   UNL A   1      34.687  20.230  24.041  1.00  0.00     0.163 HD
BRANCH   4   7
ATOM      7  C   UNL A   1      32.451  22.706  24.773  1.00  0.00     0.100 C 
BRANCH   7   8
ATOM      8  C   UNL A   1      32.080  22.746  26.296  1.00  0.00    -0.003 C 
ATOM      9  C   UNL A   1      33.219  23.092  27.266  1.00  0.00     0.008 C 
ATOM     10  C   UNL A   1      30.811  23.533  26.640  1.00  0.00     0.008 C 
ENDBRANCH   7   8
BRANCH   7  11
ATOM     11  C   UNL A   1      31.348  23.300  23.859  1.00  0.00     0.129 C 
BRANCH  11  12
ATOM     12  N   UNL A   1      31.740  23.725  22.510  1.00  0.00    -0.355 N 
ATOM     13  C   UNL A   1      32.554  24.745  22.075  1.00  0.00     0.228 C 
ATOM     14  H   UNL A   1      31.351  23.184  21.787  1.00  0.00     0.163 HD
ATOM     15  O   UNL A   1      33.225  24.506  21.063  1.00  0.00    -0.274 OA
BRANCH  13  16
ATOM     16  C   UNL A   1      32.493  26.173  22.617  1.00  0.00     0.120 C 
ATOM     17  C   UNL A   1      31.316  27.025  22.224  1.00  0.00     0.093 C 
ATOM     18  C   UNL A   1      32.552  26.379  24.125  1.00  0.00    -0.021 A 
ATOM     19  S   UNL A   1      30.045  26.859  23.511  1.00  0.00    -0.125 SA
ATOM     20  C   UNL A   1      31.328  26.752  24.707  1.00  0.00     0.011 A 
ATOM     21  C   UNL A   1      33.709  26.442  24.886  1.00  0.00     0.006 A 
ATOM     22  C   UNL A   1      31.229  27.193  26.015  1.00  0.00     0.015 A 
ATOM     23  C   UNL A   1      33.627  26.906  26.204  1.00  0.00     0.000 A 
ATOM     24  C   UNL A   1      32.396  27.282  26.764  1.00  0.00     0.001 A 
ENDBRANCH  13  16
ENDBRANCH  11  12
ENDBRANCH   7  11
ENDBRANCH   4   7
ENDBRANCH   2   3
ENDBRANCH   1   2
BRANCH   1  25
ATOM     25  C   UNL A   1      37.677  20.312  24.983  1.00  0.00     0.023 C 
BRANCH  25  26
ATOM     26  C   UNL A   1      38.918  20.737  25.741  1.00  0.00     0.116 C 
BRANCH  26  27
ATOM     27  N   UNL A   1      39.842  19.610  25.892  1.00  0.00    -0.352 N 
ATOM     28  C   UNL A   1      41.206  19.632  26.081  1.00  0.00     0.251 C 
ATOM     29  H   UNL A   1      39.432  18.716  25.855  1.00  0.00     0.163 HD
ATOM     30  O   UNL A   1      41.894  18.647  25.838  1.00  0.00    -0.269 OA
BRANCH  28  31
ATOM     31  C   UNL A   1      41.816  20.876  26.580  1.00  0.00     0.039 A 
ATOM     32  C   UNL A   1      41.836  21.085  27.956  1.00  0.00     0.014 A 
ATOM     33  C   UNL A   1      42.284  21.855  25.703  1.00  0.00     0.014 A 
ATOM     34  C   UNL A   1      42.057  22.358  28.436  1.00  0.00     0.010 A 
ATOM     35  C   UNL A   1      42.684  23.093  26.218  1.00  0.00     0.010 A 
ATOM     36  C   UNL A   1      42.518  23.373  27.584  1.00  0.00    -0.014 A 
BRANCH  36  37
ATOM     37  C   UNL A   1      42.821  24.697  28.183  1.00  0.00     0.031 A 
ATOM     38  C   UNL A   1      44.235  25.111  28.481  1.00  0.00     0.074 A 
ATOM     39  C   UNL A   1      41.804  25.566  28.358  1.00  0.00     0.049 A 
ATOM     40  N   UNL A   1      44.670  26.230  29.005  1.00  0.00    -0.248 NA
ATOM     41  C   UNL A   1      45.302  24.149  28.161  1.00  0.00     0.031 C 
ATOM     42  C   UNL A   1      40.392  25.280  28.075  1.00  0.00     0.029 A 
ATOM     43  N   UNL A   1      41.797  26.875  28.758  1.00  0.00    -0.354 N 
ATOM     44  C   UNL A   1      46.048  26.090  29.116  1.00  0.00     0.074 A 
ATOM     45  C   UNL A   1      46.379  24.772  28.619  1.00  0.00     0.031 C 
ATOM     46  C   UNL A   1      39.677  26.404  28.209  1.00  0.00     0.029 A 
ATOM     47  C   UNL A   1      40.551  27.454  28.708  1.00  0.00     0.049 A 
ATOM     48  H   UNL A   1      42.605  27.355  29.051  1.00  0.00     0.167 HD
ATOM     49  C   UNL A   1      46.951  26.984  29.587  1.00  0.00     0.037 A 
ATOM     50  C   UNL A   1      40.146  28.684  29.064  1.00  0.00     0.037 A 
ATOM     51  C   UNL A   1      46.608  28.306  30.050  1.00  0.00     0.049 A 
ATOM     52  C   UNL A   1      41.159  29.631  29.628  1.00  0.00     0.074 A 
ATOM     53  C   UNL A   1      47.442  29.292  30.546  1.00  0.00     0.029 A 
ATOM     54  N   UNL A   1      45.322  28.827  30.064  1.00  0.00    -0.354 N 
ATOM     55  N   UNL A   1      42.453  29.469  29.765  1.00  0.00    -0.248 NA
ATOM     56  C   UNL A   1      40.652  30.918  30.117  1.00  0.00     0.031 C 
ATOM     57  C   UNL A   1      46.655  30.394  30.899  1.00  0.00     0.029 A 
ATOM     58  C   UNL A   1      45.337  30.114  30.578  1.00  0.00     0.049 A 
ATOM     59  H   UNL A   1      44.517  28.352  29.755  1.00  0.00     0.167 HD
ATOM     60  C   UNL A   1      42.918  30.636  30.352  1.00  0.00     0.074 A 
ATOM     61  C   UNL A   1      41.770  31.507  30.512  1.00  0.00     0.031 C 
ATOM     62  C   UNL A   1      44.178  30.956  30.734  1.00  0.00     0.037 A 
BRANCH  49  63
ATOM     63  C   UNL A   1      48.387  26.548  29.660  1.00  0.00     0.057 A 
ATOM     64  C   UNL A   1      48.861  25.848  30.778  1.00  0.00     0.134 A 
ATOM     65  C   UNL A   1      49.307  26.831  28.642  1.00  0.00     0.134 A 
ATOM     66  F   UNL A   1      48.037  25.547  31.792  1.00  0.00    -0.206 F 
ATOM     67  C   UNL A   1      50.194  25.446  30.880  1.00  0.00     0.040 A 
ATOM     68  C   UNL A   1      50.638  26.412  28.720  1.00  0.00     0.040 A 
ATOM     69  F   UNL A   1      48.917  27.483  27.536  1.00  0.00    -0.206 F 
ATOM     70  C   UNL A   1      51.086  25.722  29.846  1.00  0.00     0.006 A 
ENDBRANCH  49  63
BRANCH  50  71
ATOM     71  C   UNL A   1      38.715  29.061  28.946  1.00  0.00     0.057 A 
ATOM     72  C   UNL A   1      38.184  29.542  27.742  1.00  0.00     0.134 A 
ATOM     73  C   UNL A   1      37.845  28.954  30.036  1.00  0.00     0.134 A 
ATOM     74  F   UNL A   1      38.968  29.676  26.662  1.00  0.00    -0.206 F 
ATOM     75  C   UNL A   1      36.847  29.918  27.630  1.00  0.00     0.040 A 
ATOM     76  C   UNL A   1      36.496  29.297  29.929  1.00  0.00     0.040 A 
ATOM     77  F   UNL A   1      38.289  28.486  31.212  1.00  0.00    -0.206 F 
ATOM     78  C   UNL A   1      35.995  29.787  28.724  1.00  0.00     0.006 A 
ENDBRANCH  50  71
BRANCH  62  79
ATOM     79  C   UNL A   1      44.365  32.315  31.336  1.00  0.00     0.057 A 
ATOM     80  C   UNL A   1      44.614  33.427  30.523  1.00  0.00     0.134 A 
ATOM     81  C   UNL A   1      44.288  32.525  32.720  1.00  0.00     0.134 A 
ATOM     82  F   UNL A   1      44.704  33.290  29.191  1.00  0.00    -0.206 F 
ATOM     83  C   UNL A   1      44.776  34.702  31.063  1.00  0.00     0.040 A 
ATOM     84  C   UNL A   1      44.419  33.800  33.269  1.00  0.00     0.040 A 
ATOM     85  F   UNL A   1      44.028  31.502  33.549  1.00  0.00    -0.206 F 
ATOM     86  C   UNL A   1      44.668  34.892  32.440  1.00  0.00     0.006 A 
ENDBRANCH  62  79
ENDBRANCH  36  37
ENDBRANCH  28  31
ENDBRANCH  26  27
ENDBRANCH  25  26
ENDBRANCH   1  25
TORSDOF 15
ENDMDL
MODEL 3
REMARK VINA RESULT:     -11.4      5.214     10.320
REMARK SMILES CC(C)[C@H](CNC(=O)[C@H]1CSc2ccccc21)C(=O)NCCCCNC(=O)c1ccc(-c2c3nc(c(-c4c(F)cccc4F)c4ccc([nH]4)c(-c4c(F)cccc4F)c4nc(c(-c5c(F)cccc5F)c5ccc2[nH]5)C=C4)C=C3)cc1
REMARK SMILES IDX 22 1 21 2 20 3 18 4 19 5 4 7 2 8 1 9 3 10 5 11 6 12 7 13
REMARK SMILES IDX 8 15 9 16 10 17 17 18 11 19 12 20 16 21 13 22 15 23 14 24
REMARK SMILES IDX 23 25 24 26 25 27 26 28 27 30 28 31 29 32 81 33 30 34 80 35
REMARK SMILES IDX 31 36 32 37 33 38 74 39 34 40 79 41 73 42 75 43 35 44 78 45
REMARK SMILES IDX 72 46 71 47 36 49 62 50 45 51 61 52 46 53 49 54 60 55 76 56
REMARK SMILES IDX 47 57 48 58 59 60 77 61 50 62 37 63 38 64 43 65 39 66 40 67
REMARK SMILES IDX 42 68 44 69 41 70 63 71 64 72 69 73 65 74 66 75 68 76 70 77
REMARK SMILES IDX 67 78 51 79 52 80 57 81 53 82 54 83 56 84 58 85 55 86
REMARK H PARENT 20 6 6 14 25 29 75 48 49 59
REMARK Flexibility Score: inf
ROOT
ATOM      1  C   UNL A   1      31.795  30.494  26.857  1.00  0.00     0.023 C 
ENDROOT
BRANCH   1   2
ATOM      2  C   UNL A   1      32.125  29.898  25.488  1.00  0.00     0.116 C 
BRANCH   2   3
ATOM      3  N   UNL A   1      31.049  29.944  24.515  1.00  0.00    -0.356 N 
ATOM      4  C   UNL A   1      30.477  28.999  23.724  1.00  0.00     0.225 C 
ATOM      5  O   UNL A   1      29.523  29.399  23.042  1.00  0.00    -0.275 OA
ATOM      6  H   UNL A   1      30.655  30.840  24.407  1.00  0.00     0.163 HD
BRANCH   4   7
ATOM      7  C   UNL A   1      30.931  27.536  23.583  1.00  0.00     0.100 C 
BRANCH   7   8
ATOM      8  C   UNL A   1      32.127  27.217  22.620  1.00  0.00    -0.003 C 
ATOM      9  C   UNL A   1      33.511  27.087  23.271  1.00  0.00     0.008 C 
ATOM     10  C   UNL A   1      31.880  26.076  21.627  1.00  0.00     0.008 C 
ENDBRANCH   7   8
BRANCH   7  11
ATOM     11  C   UNL A   1      29.786  26.495  23.503  1.00  0.00     0.129 C 
BRANCH  11  12
ATOM     12  N   UNL A   1      29.584  25.616  24.661  1.00  0.00    -0.355 N 
ATOM     13  C   UNL A   1      30.465  25.109  25.586  1.00  0.00     0.228 C 
ATOM     14  H   UNL A   1      28.650  25.340  24.800  1.00  0.00     0.163 HD
ATOM     15  O   UNL A   1      30.030  24.991  26.739  1.00  0.00    -0.274 OA
BRANCH  13  16
ATOM     16  C   UNL A   1      31.817  24.492  25.227  1.00  0.00     0.120 C 
ATOM     17  C   UNL A   1      32.840  24.352  26.323  1.00  0.00     0.093 C 
ATOM     18  C   UNL A   1      31.836  23.110  24.589  1.00  0.00    -0.021 A 
ATOM     19  S   UNL A   1      32.671  22.693  27.043  1.00  0.00    -0.125 SA
ATOM     20  C   UNL A   1      32.277  22.084  25.442  1.00  0.00     0.011 A 
ATOM     21  C   UNL A   1      31.675  22.843  23.238  1.00  0.00     0.006 A 
ATOM     22  C   UNL A   1      32.570  20.810  24.986  1.00  0.00     0.015 A 
ATOM     23  C   UNL A   1      31.988  21.565  22.759  1.00  0.00     0.000 A 
ATOM     24  C   UNL A   1      32.434  20.556  23.627  1.00  0.00     0.001 A 
ENDBRANCH  13  16
ENDBRANCH  11  12
ENDBRANCH   7  11
ENDBRANCH   4   7
ENDBRANCH   2   3
ENDBRANCH   1   2
BRANCH   1  25
ATOM     25  C   UNL A   1      31.590  31.997  26.881  1.00  0.00     0.023 C 
BRANCH  25  26
ATOM     26  C   UNL A   1      32.804  32.702  27.450  1.00  0.00     0.116 C 
BRANCH  26  27
ATOM     27  N   UNL A   1      32.549  34.138  27.593  1.00  0.00    -0.352 N 
ATOM     28  C   UNL A   1      32.989  34.999  28.572  1.00  0.00     0.251 C 
ATOM     29  H   UNL A   1      31.987  34.541  26.892  1.00  0.00     0.163 HD
ATOM     30  O   UNL A   1      32.426  36.069  28.773  1.00  0.00    -0.269 OA
BRANCH  28  31
ATOM     31  C   UNL A   1      34.155  34.596  29.377  1.00  0.00     0.039 A 
ATOM     32  C   UNL A   1      35.415  34.705  28.797  1.00  0.00     0.014 A 
ATOM     33  C   UNL A   1      34.000  34.041  30.648  1.00  0.00     0.014 A 
ATOM     34  C   UNL A   1      36.471  34.018  29.357  1.00  0.00     0.010 A 
ATOM     35  C   UNL A   1      35.118  33.506  31.296  1.00  0.00     0.010 A 
ATOM     36  C   UNL A   1      36.351  33.438  30.629  1.00  0.00    -0.014 A 
BRANCH  36  37
ATOM     37  C   UNL A   1      37.554  32.790  31.211  1.00  0.00     0.031 A 
ATOM     38  C   UNL A   1      38.082  33.196  32.558  1.00  0.00     0.074 A 
ATOM     39  C   UNL A   1      38.102  31.751  30.548  1.00  0.00     0.049 A 
ATOM     40  N   UNL A   1      39.121  32.733  33.207  1.00  0.00    -0.248 NA
ATOM     41  C   UNL A   1      37.364  34.265  33.270  1.00  0.00     0.031 C 
ATOM     42  C   UNL A   1      37.652  31.250  29.242  1.00  0.00     0.029 A 
ATOM     43  N   UNL A   1      39.112  30.894  30.894  1.00  0.00    -0.354 N 
ATOM     44  C   UNL A   1      39.204  33.477  34.377  1.00  0.00     0.074 A 
ATOM     45  C   UNL A   1      38.121  34.435  34.345  1.00  0.00     0.031 C 
ATOM     46  C   UNL A   1      38.309  30.121  28.951  1.00  0.00     0.029 A 
ATOM     47  C   UNL A   1      39.310  29.887  29.980  1.00  0.00     0.049 A 
ATOM     48  H   UNL A   1      39.644  30.989  31.717  1.00  0.00     0.167 HD
ATOM     49  C   UNL A   1      40.103  33.366  35.385  1.00  0.00     0.037 A 
ATOM     50  C   UNL A   1      40.224  28.903  29.949  1.00  0.00     0.037 A 
ATOM     51  C   UNL A   1      41.160  32.385  35.415  1.00  0.00     0.049 A 
ATOM     52  C   UNL A   1      41.236  28.839  31.052  1.00  0.00     0.074 A 
ATOM     53  C   UNL A   1      42.124  32.183  36.386  1.00  0.00     0.029 A 
ATOM     54  N   UNL A   1      41.381  31.435  34.429  1.00  0.00    -0.354 N 
ATOM     55  N   UNL A   1      41.327  29.577  32.131  1.00  0.00    -0.248 NA
ATOM     56  C   UNL A   1      42.289  27.827  30.916  1.00  0.00     0.031 C 
ATOM     57  C   UNL A   1      42.955  31.137  35.968  1.00  0.00     0.029 A 
ATOM     58  C   UNL A   1      42.479  30.655  34.759  1.00  0.00     0.049 A 
ATOM     59  H   UNL A   1      40.839  31.329  33.614  1.00  0.00     0.167 HD
ATOM     60  C   UNL A   1      42.446  29.116  32.809  1.00  0.00     0.074 A 
ATOM     61  C   UNL A   1      42.978  28.013  32.031  1.00  0.00     0.031 C 
ATOM     62  C   UNL A   1      42.991  29.569  33.963  1.00  0.00     0.037 A 
BRANCH  49  63
ATOM     63  C   UNL A   1      40.006  34.352  36.514  1.00  0.00     0.057 A 
ATOM     64  C   UNL A   1      39.245  34.056  37.653  1.00  0.00     0.134 A 
ATOM     65  C   UNL A   1      40.646  35.598  36.475  1.00  0.00     0.134 A 
ATOM     66  F   UNL A   1      38.602  32.883  37.756  1.00  0.00    -0.206 F 
ATOM     67  C   UNL A   1      39.123  34.961  38.709  1.00  0.00     0.040 A 
ATOM     68  C   UNL A   1      40.552  36.502  37.536  1.00  0.00     0.040 A 
ATOM     69  F   UNL A   1      41.404  35.941  35.423  1.00  0.00    -0.206 F 
ATOM     70  C   UNL A   1      39.784  36.186  38.656  1.00  0.00     0.006 A 
ENDBRANCH  49  63
BRANCH  50  71
ATOM     71  C   UNL A   1      40.254  27.946  28.815  1.00  0.00     0.057 A 
ATOM     72  C   UNL A   1      39.574  26.722  28.877  1.00  0.00     0.134 A 
ATOM     73  C   UNL A   1      40.965  28.230  27.645  1.00  0.00     0.134 A 
ATOM     74  F   UNL A   1      38.880  26.386  29.974  1.00  0.00    -0.206 F 
ATOM     75  C   UNL A   1      39.614  25.809  27.824  1.00  0.00     0.040 A 
ATOM     76  C   UNL A   1      40.987  27.338  26.571  1.00  0.00     0.040 A 
ATOM     77  F   UNL A   1      41.623  29.392  27.519  1.00  0.00    -0.206 F 
ATOM     78  C   UNL A   1      40.315  26.121  26.661  1.00  0.00     0.006 A 
ENDBRANCH  50  71
BRANCH  62  79
ATOM     79  C   UNL A   1      44.209  28.845  34.451  1.00  0.00     0.057 A 
ATOM     80  C   UNL A   1      44.087  27.714  35.267  1.00  0.00     0.134 A 
ATOM     81  C   UNL A   1      45.502  29.262  34.106  1.00  0.00     0.134 A 
ATOM     82  F   UNL A   1      42.877  27.268  35.636  1.00  0.00    -0.206 F 
ATOM     83  C   UNL A   1      45.208  27.018  35.718  1.00  0.00     0.040 A 
ATOM     84  C   UNL A   1      46.629  28.557  34.528  1.00  0.00     0.040 A 
ATOM     85  F   UNL A   1      45.683  30.326  33.308  1.00  0.00    -0.206 F 
ATOM     86  C   UNL A   1      46.483  27.434  35.340  1.00  0.00     0.006 A 
ENDBRANCH  62  79
ENDBRANCH  36  37
ENDBRANCH  28  31
ENDBRANCH  26  27
ENDBRANCH  25  26
ENDBRANCH   1  25
TORSDOF 15
ENDMDL
