MODEL 1
REMARK VINA RESULT:      -9.8      0.000      0.000
REMARK SMILES CC(=O)Oc1ccccc1C(=O)NCCCCNC(=O)c1ccc(-c2c3nc(c(-c4c(F)cccc4F)c4ccc([nH]4)c(-c4c(F)cccc4F)c4nc(c(-c5c(F)cccc5F)c5ccc2[nH]5)C=C4)C=C3)cc1
REMARK SMILES IDX 15 1 14 2 13 3 11 4 12 5 10 7 5 8 6 9 7 10 9 11 8 12 4 13
REMARK SMILES IDX 2 14 1 15 3 16 16 17 17 18 18 19 19 20 20 22 21 23 22 24
REMARK SMILES IDX 74 25 23 26 73 27 24 28 25 29 26 30 67 31 27 32 72 33 66 34
REMARK SMILES IDX 68 35 28 36 71 37 65 38 64 39 29 41 55 42 38 43 54 44 39 45
REMARK SMILES IDX 42 46 53 47 69 48 40 49 41 50 52 52 70 53 43 54 30 55 31 56
REMARK SMILES IDX 36 57 32 58 33 59 35 60 37 61 34 62 56 63 57 64 62 65 58 66
REMARK SMILES IDX 59 67 61 68 63 69 60 70 44 71 45 72 50 73 46 74 47 75 49 76
REMARK SMILES IDX 51 77 48 78
REMARK H PARENT 13 6 18 21 68 40 42 51
REMARK Flexibility Score: inf
ROOT
ATOM      1  C   UNL A   1      33.702  35.166  28.679  1.00  0.00     0.023 C 
ENDROOT
BRANCH   1   2
ATOM      2  C   UNL A   1      33.765  35.320  30.191  1.00  0.00     0.116 C 
BRANCH   2   3
ATOM      3  N   UNL A   1      33.722  34.096  30.954  1.00  0.00    -0.352 N 
ATOM      4  C   UNL A   1      34.748  33.355  31.496  1.00  0.00     0.255 C 
ATOM      5  O   UNL A   1      34.434  32.346  32.132  1.00  0.00    -0.269 OA
ATOM      6  H   UNL A   1      32.819  33.735  31.110  1.00  0.00     0.163 HD
BRANCH   4   7
ATOM      7  C   UNL A   1      36.197  33.641  31.274  1.00  0.00     0.082 A 
ATOM      8  C   UNL A   1      37.080  34.313  32.130  1.00  0.00     0.143 A 
ATOM      9  C   UNL A   1      38.406  34.572  31.747  1.00  0.00     0.048 A 
ATOM     10  C   UNL A   1      38.889  34.109  30.526  1.00  0.00     0.004 A 
ATOM     11  C   UNL A   1      36.721  33.152  30.060  1.00  0.00     0.018 A 
ATOM     12  C   UNL A   1      38.050  33.383  29.688  1.00  0.00     0.001 A 
BRANCH   8  13
ATOM     13  O   UNL A   1      36.723  34.862  33.368  1.00  0.00    -0.426 OA
BRANCH  13  14
ATOM     14  C   UNL A   1      36.492  33.968  34.406  1.00  0.00     0.308 C 
ATOM     15  C   UNL A   1      37.767  33.226  34.696  1.00  0.00     0.139 C 
ATOM     16  O   UNL A   1      35.432  33.789  34.992  1.00  0.00    -0.252 OA
ENDBRANCH  13  14
ENDBRANCH   8  13
ENDBRANCH   4   7
ENDBRANCH   2   3
ENDBRANCH   1   2
BRANCH   1  17
ATOM     17  C   UNL A   1      33.240  33.811  28.146  1.00  0.00     0.023 C 
BRANCH  17  18
ATOM     18  C   UNL A   1      34.314  32.795  27.762  1.00  0.00     0.116 C 
BRANCH  18  19
ATOM     19  N   UNL A   1      33.812  31.484  27.372  1.00  0.00    -0.352 N 
ATOM     20  C   UNL A   1      34.354  30.234  27.589  1.00  0.00     0.251 C 
ATOM     21  H   UNL A   1      32.959  31.491  26.882  1.00  0.00     0.163 HD
ATOM     22  O   UNL A   1      33.766  29.233  27.194  1.00  0.00    -0.269 OA
BRANCH  20  23
ATOM     23  C   UNL A   1      35.682  30.103  28.233  1.00  0.00     0.039 A 
ATOM     24  C   UNL A   1      35.736  29.683  29.565  1.00  0.00     0.014 A 
ATOM     25  C   UNL A   1      36.861  30.313  27.516  1.00  0.00     0.014 A 
ATOM     26  C   UNL A   1      36.967  29.349  30.136  1.00  0.00     0.010 A 
ATOM     27  C   UNL A   1      38.077  29.905  28.060  1.00  0.00     0.010 A 
ATOM     28  C   UNL A   1      38.140  29.391  29.364  1.00  0.00    -0.014 A 
BRANCH  28  29
ATOM     29  C   UNL A   1      39.421  28.843  29.884  1.00  0.00     0.031 A 
ATOM     30  C   UNL A   1      40.086  29.454  31.084  1.00  0.00     0.074 A 
ATOM     31  C   UNL A   1      40.032  27.841  29.219  1.00  0.00     0.049 A 
ATOM     32  N   UNL A   1      41.232  29.150  31.640  1.00  0.00    -0.248 NA
ATOM     33  C   UNL A   1      39.383  30.573  31.730  1.00  0.00     0.031 C 
ATOM     34  C   UNL A   1      39.527  27.199  28.003  1.00  0.00     0.029 A 
ATOM     35  N   UNL A   1      41.218  27.193  29.463  1.00  0.00    -0.354 N 
ATOM     36  C   UNL A   1      41.393  30.045  32.689  1.00  0.00     0.074 A 
ATOM     37  C   UNL A   1      40.253  30.937  32.659  1.00  0.00     0.031 C 
ATOM     38  C   UNL A   1      40.382  26.236  27.624  1.00  0.00     0.029 A 
ATOM     39  C   UNL A   1      41.513  26.215  28.544  1.00  0.00     0.049 A 
ATOM     40  H   UNL A   1      41.803  27.409  30.226  1.00  0.00     0.167 HD
ATOM     41  C   UNL A   1      42.387  30.106  33.607  1.00  0.00     0.037 A 
ATOM     42  C   UNL A   1      42.577  25.394  28.448  1.00  0.00     0.037 A 
ATOM     43  C   UNL A   1      43.512  29.208  33.646  1.00  0.00     0.049 A 
ATOM     44  C   UNL A   1      43.669  25.481  29.478  1.00  0.00     0.074 A 
ATOM     45  C   UNL A   1      44.537  29.148  34.574  1.00  0.00     0.029 A 
ATOM     46  N   UNL A   1      43.764  28.215  32.710  1.00  0.00    -0.354 N 
ATOM     47  N   UNL A   1      43.767  26.280  30.513  1.00  0.00    -0.248 NA
ATOM     48  C   UNL A   1      44.795  24.546  29.333  1.00  0.00     0.031 C 
ATOM     49  C   UNL A   1      45.432  28.150  34.175  1.00  0.00     0.029 A 
ATOM     50  C   UNL A   1      44.940  27.555  33.026  1.00  0.00     0.049 A 
ATOM     51  H   UNL A   1      43.192  28.011  31.935  1.00  0.00     0.167 HD
ATOM     52  C   UNL A   1      44.947  25.928  31.155  1.00  0.00     0.074 A 
ATOM     53  C   UNL A   1      45.524  24.834  30.401  1.00  0.00     0.031 C 
ATOM     54  C   UNL A   1      45.502  26.464  32.270  1.00  0.00     0.037 A 
BRANCH  41  55
ATOM     55  C   UNL A   1      42.297  31.184  34.648  1.00  0.00     0.057 A 
ATOM     56  C   UNL A   1      42.890  32.440  34.462  1.00  0.00     0.134 A 
ATOM     57  C   UNL A   1      41.594  30.972  35.840  1.00  0.00     0.134 A 
ATOM     58  F   UNL A   1      43.586  32.705  33.347  1.00  0.00    -0.206 F 
ATOM     59  C   UNL A   1      42.814  33.435  35.438  1.00  0.00     0.040 A 
ATOM     60  C   UNL A   1      41.487  31.970  36.811  1.00  0.00     0.040 A 
ATOM     61  F   UNL A   1      40.996  29.796  36.080  1.00  0.00    -0.206 F 
ATOM     62  C   UNL A   1      42.106  33.203  36.615  1.00  0.00     0.006 A 
ENDBRANCH  41  55
BRANCH  42  63
ATOM     63  C   UNL A   1      42.651  24.398  27.349  1.00  0.00     0.057 A 
ATOM     64  C   UNL A   1      42.164  23.097  27.523  1.00  0.00     0.134 A 
ATOM     65  C   UNL A   1      43.210  24.717  26.106  1.00  0.00     0.134 A 
ATOM     66  F   UNL A   1      41.635  22.725  28.697  1.00  0.00    -0.206 F 
ATOM     67  C   UNL A   1      42.242  22.144  26.505  1.00  0.00     0.040 A 
ATOM     68  C   UNL A   1      43.273  23.781  25.071  1.00  0.00     0.040 A 
ATOM     69  F   UNL A   1      43.688  25.948  25.874  1.00  0.00    -0.206 F 
ATOM     70  C   UNL A   1      42.794  22.487  25.273  1.00  0.00     0.006 A 
ENDBRANCH  42  63
BRANCH  54  71
ATOM     71  C   UNL A   1      46.782  25.854  32.762  1.00  0.00     0.057 A 
ATOM     72  C   UNL A   1      48.032  26.289  32.306  1.00  0.00     0.134 A 
ATOM     73  C   UNL A   1      46.763  24.846  33.735  1.00  0.00     0.134 A 
ATOM     74  F   UNL A   1      48.120  27.241  31.364  1.00  0.00    -0.206 F 
ATOM     75  C   UNL A   1      49.218  25.728  32.785  1.00  0.00     0.040 A 
ATOM     76  C   UNL A   1      47.942  24.297  34.241  1.00  0.00     0.040 A 
ATOM     77  F   UNL A   1      45.598  24.390  34.220  1.00  0.00    -0.206 F 
ATOM     78  C   UNL A   1      49.174  24.735  33.761  1.00  0.00     0.006 A 
ENDBRANCH  54  71
ENDBRANCH  28  29
ENDBRANCH  20  23
ENDBRANCH  18  19
ENDBRANCH  17  18
ENDBRANCH   1  17
TORSDOF 13
ENDMDL
MODEL 2
REMARK VINA RESULT:      -9.7      5.542     10.759
REMARK SMILES CC(=O)Oc1ccccc1C(=O)NCCCCNC(=O)c1ccc(-c2c3nc(c(-c4c(F)cccc4F)c4ccc([nH]4)c(-c4c(F)cccc4F)c4nc(c(-c5c(F)cccc5F)c5ccc2[nH]5)C=C4)C=C3)cc1
REMARK SMILES IDX 15 1 14 2 13 3 11 4 12 5 10 7 5 8 6 9 7 10 9 11 8 12 4 13
REMARK SMILES IDX 2 14 1 15 3 16 16 17 17 18 18 19 19 20 20 22 21 23 22 24
REMARK SMILES IDX 74 25 23 26 73 27 24 28 25 29 26 30 67 31 27 32 72 33 66 34
REMARK SMILES IDX 68 35 28 36 71 37 65 38 64 39 29 41 55 42 38 43 54 44 39 45
REMARK SMILES IDX 42 46 53 47 69 48 40 49 41 50 52 52 70 53 43 54 30 55 31 56
REMARK SMILES IDX 36 57 32 58 33 59 35 60 37 61 34 62 56 63 57 64 62 65 58 66
REMARK SMILES IDX 59 67 61 68 63 69 60 70 44 71 45 72 50 73 46 74 47 75 49 76
REMARK SMILES IDX 51 77 48 78
REMARK H PARENT 13 6 18 21 68 40 42 51
REMARK Flexibility Score: inf
ROOT
ATOM      1  C   UNL A   1      36.997  21.733  24.460  1.00  0.00     0.023 C 
ENDROOT
BRANCH   1   2
ATOM      2  C   UNL A   1      36.697  22.712  25.585  1.00  0.00     0.116 C 
BRANCH   2   3
ATOM      3  N   UNL A   1      35.877  22.207  26.660  1.00  0.00    -0.352 N 
ATOM      4  C   UNL A   1      34.572  21.766  26.646  1.00  0.00     0.255 C 
ATOM      5  O   UNL A   1      34.108  21.357  27.713  1.00  0.00    -0.269 OA
ATOM      6  H   UNL A   1      36.319  22.172  27.540  1.00  0.00     0.163 HD
BRANCH   4   7
ATOM      7  C   UNL A   1      33.672  21.850  25.457  1.00  0.00     0.082 A 
ATOM      8  C   UNL A   1      33.370  20.839  24.535  1.00  0.00     0.143 A 
ATOM      9  C   UNL A   1      32.559  21.093  23.418  1.00  0.00     0.048 A 
ATOM     10  C   UNL A   1      31.984  22.349  23.238  1.00  0.00     0.004 A 
ATOM     11  C   UNL A   1      33.049  23.101  25.270  1.00  0.00     0.018 A 
ATOM     12  C   UNL A   1      32.216  23.350  24.174  1.00  0.00     0.001 A 
BRANCH   8  13
ATOM     13  O   UNL A   1      33.904  19.545  24.574  1.00  0.00    -0.426 OA
BRANCH  13  14
ATOM     14  C   UNL A   1      32.996  18.493  24.585  1.00  0.00     0.308 C 
ATOM     15  C   UNL A   1      33.155  17.706  23.314  1.00  0.00     0.139 C 
ATOM     16  O   UNL A   1      32.185  18.240  25.465  1.00  0.00    -0.252 OA
ENDBRANCH  13  14
ENDBRANCH   8  13
ENDBRANCH   4   7
ENDBRANCH   2   3
ENDBRANCH   1   2
BRANCH   1  17
ATOM     17  C   UNL A   1      37.748  20.458  24.841  1.00  0.00     0.023 C 
BRANCH  17  18
ATOM     18  C   UNL A   1      38.981  20.598  25.732  1.00  0.00     0.116 C 
BRANCH  18  19
ATOM     19  N   UNL A   1      39.867  19.441  25.745  1.00  0.00    -0.352 N 
ATOM     20  C   UNL A   1      41.192  19.353  26.116  1.00  0.00     0.251 C 
ATOM     21  H   UNL A   1      39.459  18.598  25.445  1.00  0.00     0.163 HD
ATOM     22  O   UNL A   1      41.770  18.272  26.074  1.00  0.00    -0.269 OA
BRANCH  20  23
ATOM     23  C   UNL A   1      41.940  20.574  26.495  1.00  0.00     0.039 A 
ATOM     24  C   UNL A   1      42.432  21.396  25.476  1.00  0.00     0.014 A 
ATOM     25  C   UNL A   1      42.087  20.951  27.831  1.00  0.00     0.014 A 
ATOM     26  C   UNL A   1      42.954  22.653  25.792  1.00  0.00     0.010 A 
ATOM     27  C   UNL A   1      42.534  22.234  28.138  1.00  0.00     0.010 A 
ATOM     28  C   UNL A   1      42.944  23.110  27.120  1.00  0.00    -0.014 A 
BRANCH  28  29
ATOM     29  C   UNL A   1      43.298  24.516  27.451  1.00  0.00     0.031 A 
ATOM     30  C   UNL A   1      44.726  24.979  27.402  1.00  0.00     0.074 A 
ATOM     31  C   UNL A   1      42.336  25.358  27.880  1.00  0.00     0.049 A 
ATOM     32  N   UNL A   1      45.228  26.147  27.715  1.00  0.00    -0.248 NA
ATOM     33  C   UNL A   1      45.725  23.992  26.969  1.00  0.00     0.031 C 
ATOM     34  C   UNL A   1      40.919  25.019  28.035  1.00  0.00     0.029 A 
ATOM     35  N   UNL A   1      42.404  26.672  28.277  1.00  0.00    -0.354 N 
ATOM     36  C   UNL A   1      46.599  26.031  27.530  1.00  0.00     0.074 A 
ATOM     37  C   UNL A   1      46.855  24.665  27.129  1.00  0.00     0.031 C 
ATOM     38  C   UNL A   1      40.251  26.099  28.468  1.00  0.00     0.029 A 
ATOM     39  C   UNL A   1      41.192  27.197  28.658  1.00  0.00     0.049 A 
ATOM     40  H   UNL A   1      43.242  27.188  28.287  1.00  0.00     0.167 HD
ATOM     41  C   UNL A   1      47.555  26.982  27.660  1.00  0.00     0.037 A 
ATOM     42  C   UNL A   1      40.873  28.424  29.113  1.00  0.00     0.037 A 
ATOM     43  C   UNL A   1      47.298  28.346  28.043  1.00  0.00     0.049 A 
ATOM     44  C   UNL A   1      41.952  29.462  29.251  1.00  0.00     0.074 A 
ATOM     45  C   UNL A   1      48.192  29.398  28.141  1.00  0.00     0.029 A 
ATOM     46  N   UNL A   1      46.054  28.846  28.401  1.00  0.00    -0.354 N 
ATOM     47  N   UNL A   1      43.234  29.360  28.994  1.00  0.00    -0.248 NA
ATOM     48  C   UNL A   1      41.539  30.788  29.734  1.00  0.00     0.031 C 
ATOM     49  C   UNL A   1      47.497  30.522  28.600  1.00  0.00     0.029 A 
ATOM     50  C   UNL A   1      46.162  30.184  28.741  1.00  0.00     0.049 A 
ATOM     51  H   UNL A   1      45.218  28.325  28.411  1.00  0.00     0.167 HD
ATOM     52  C   UNL A   1      43.775  30.612  29.259  1.00  0.00     0.074 A 
ATOM     53  C   UNL A   1      42.680  31.460  29.683  1.00  0.00     0.031 C 
ATOM     54  C   UNL A   1      45.064  31.020  29.158  1.00  0.00     0.037 A 
BRANCH  41  55
ATOM     55  C   UNL A   1      48.973  26.573  27.383  1.00  0.00     0.057 A 
ATOM     56  C   UNL A   1      49.521  26.638  26.094  1.00  0.00     0.134 A 
ATOM     57  C   UNL A   1      49.807  26.130  28.417  1.00  0.00     0.134 A 
ATOM     58  F   UNL A   1      48.774  27.044  25.058  1.00  0.00    -0.206 F 
ATOM     59  C   UNL A   1      50.836  26.245  25.840  1.00  0.00     0.040 A 
ATOM     60  C   UNL A   1      51.132  25.762  28.179  1.00  0.00     0.040 A 
ATOM     61  F   UNL A   1      49.350  26.051  29.676  1.00  0.00    -0.206 F 
ATOM     62  C   UNL A   1      51.648  25.810  26.885  1.00  0.00     0.006 A 
ENDBRANCH  41  55
BRANCH  42  63
ATOM     63  C   UNL A   1      39.463  28.749  29.448  1.00  0.00     0.057 A 
ATOM     64  C   UNL A   1      38.601  29.291  28.487  1.00  0.00     0.134 A 
ATOM     65  C   UNL A   1      38.944  28.531  30.730  1.00  0.00     0.134 A 
ATOM     66  F   UNL A   1      39.044  29.540  27.247  1.00  0.00    -0.206 F 
ATOM     67  C   UNL A   1      37.278  29.617  28.792  1.00  0.00     0.040 A 
ATOM     68  C   UNL A   1      37.617  28.832  31.042  1.00  0.00     0.040 A 
ATOM     69  F   UNL A   1      39.717  28.009  31.694  1.00  0.00    -0.206 F 
ATOM     70  C   UNL A   1      36.782  29.383  30.072  1.00  0.00     0.006 A 
ENDBRANCH  42  63
BRANCH  54  71
ATOM     71  C   UNL A   1      45.357  32.456  29.480  1.00  0.00     0.057 A 
ATOM     72  C   UNL A   1      45.765  32.859  30.757  1.00  0.00     0.134 A 
ATOM     73  C   UNL A   1      45.269  33.441  28.487  1.00  0.00     0.134 A 
ATOM     74  F   UNL A   1      45.856  31.968  31.756  1.00  0.00    -0.206 F 
ATOM     75  C   UNL A   1      46.054  34.196  31.041  1.00  0.00     0.040 A 
ATOM     76  C   UNL A   1      45.582  34.775  28.752  1.00  0.00     0.040 A 
ATOM     77  F   UNL A   1      44.892  33.119  27.241  1.00  0.00    -0.206 F 
ATOM     78  C   UNL A   1      45.971  35.156  30.034  1.00  0.00     0.006 A 
ENDBRANCH  54  71
ENDBRANCH  28  29
ENDBRANCH  20  23
ENDBRANCH  18  19
ENDBRANCH  17  18
ENDBRANCH   1  17
TORSDOF 13
ENDMDL
MODEL 3
REMARK VINA RESULT:      -9.6      5.465     10.567
REMARK SMILES CC(=O)Oc1ccccc1C(=O)NCCCCNC(=O)c1ccc(-c2c3nc(c(-c4c(F)cccc4F)c4ccc([nH]4)c(-c4c(F)cccc4F)c4nc(c(-c5c(F)cccc5F)c5ccc2[nH]5)C=C4)C=C3)cc1
REMARK SMILES IDX 15 1 14 2 13 3 11 4 12 5 10 7 5 8 6 9 7 10 9 11 8 12 4 13
REMARK SMILES IDX 2 14 1 15 3 16 16 17 17 18 18 19 19 20 20 22 21 23 22 24
REMARK SMILES IDX 74 25 23 26 73 27 24 28 25 29 26 30 67 31 27 32 72 33 66 34
REMARK SMILES IDX 68 35 28 36 71 37 65 38 64 39 29 41 55 42 38 43 54 44 39 45
REMARK SMILES IDX 42 46 53 47 69 48 40 49 41 50 52 52 70 53 43 54 30 55 31 56
REMARK SMILES IDX 36 57 32 58 33 59 35 60 37 61 34 62 56 63 57 64 62 65 58 66
REMARK SMILES IDX 59 67 61 68 63 69 60 70 44 71 45 72 50 73 46 74 47 75 49 76
REMARK SMILES IDX 51 77 48 78
REMARK H PARENT 13 6 18 21 68 40 42 51
REMARK Flexibility Score: inf
ROOT
ATOM      1  C   UNL A   1      37.095  21.249  24.554  1.00  0.00     0.023 C 
ENDROOT
BRANCH   1   2
ATOM      2  C   UNL A   1      36.543  22.287  25.519  1.00  0.00     0.116 C 
BRANCH   2   3
ATOM      3  N   UNL A   1      35.615  21.798  26.510  1.00  0.00    -0.352 N 
ATOM      4  C   UNL A   1      34.268  21.531  26.406  1.00  0.00     0.255 C 
ATOM      5  O   UNL A   1      33.704  21.092  27.411  1.00  0.00    -0.269 OA
ATOM      6  H   UNL A   1      36.005  21.630  27.398  1.00  0.00     0.163 HD
BRANCH   4   7
ATOM      7  C   UNL A   1      33.445  21.834  25.196  1.00  0.00     0.082 A 
ATOM      8  C   UNL A   1      32.830  23.047  24.858  1.00  0.00     0.143 A 
ATOM      9  C   UNL A   1      32.021  23.157  23.716  1.00  0.00     0.048 A 
ATOM     10  C   UNL A   1      31.863  22.071  22.859  1.00  0.00     0.004 A 
ATOM     11  C   UNL A   1      33.298  20.762  24.293  1.00  0.00     0.018 A 
ATOM     12  C   UNL A   1      32.516  20.876  23.139  1.00  0.00     0.001 A 
BRANCH   8  13
ATOM     13  O   UNL A   1      32.875  24.206  25.643  1.00  0.00    -0.426 OA
BRANCH  13  14
ATOM     14  C   UNL A   1      31.786  24.444  26.471  1.00  0.00     0.308 C 
ATOM     15  C   UNL A   1      31.173  25.765  26.095  1.00  0.00     0.139 C 
ATOM     16  O   UNL A   1      31.382  23.720  27.371  1.00  0.00    -0.252 OA
ENDBRANCH  13  14
ENDBRANCH   8  13
ENDBRANCH   4   7
ENDBRANCH   2   3
ENDBRANCH   1   2
BRANCH   1  17
ATOM     17  C   UNL A   1      37.853  20.074  25.169  1.00  0.00     0.023 C 
BRANCH  17  18
ATOM     18  C   UNL A   1      39.241  20.346  25.746  1.00  0.00     0.116 C 
BRANCH  18  19
ATOM     19  N   UNL A   1      40.145  19.203  25.744  1.00  0.00    -0.352 N 
ATOM     20  C   UNL A   1      41.480  19.137  26.084  1.00  0.00     0.251 C 
ATOM     21  H   UNL A   1      39.743  18.352  25.456  1.00  0.00     0.163 HD
ATOM     22  O   UNL A   1      42.074  18.065  26.032  1.00  0.00    -0.269 OA
BRANCH  20  23
ATOM     23  C   UNL A   1      42.216  20.372  26.440  1.00  0.00     0.039 A 
ATOM     24  C   UNL A   1      42.861  21.080  25.421  1.00  0.00     0.014 A 
ATOM     25  C   UNL A   1      42.208  20.873  27.743  1.00  0.00     0.014 A 
ATOM     26  C   UNL A   1      43.383  22.349  25.682  1.00  0.00     0.010 A 
ATOM     27  C   UNL A   1      42.658  22.170  27.983  1.00  0.00     0.010 A 
ATOM     28  C   UNL A   1      43.223  22.933  26.950  1.00  0.00    -0.014 A 
BRANCH  28  29
ATOM     29  C   UNL A   1      43.581  24.356  27.191  1.00  0.00     0.031 A 
ATOM     30  C   UNL A   1      45.007  24.816  27.085  1.00  0.00     0.074 A 
ATOM     31  C   UNL A   1      42.627  25.222  27.590  1.00  0.00     0.049 A 
ATOM     32  N   UNL A   1      45.514  26.000  27.319  1.00  0.00    -0.248 NA
ATOM     33  C   UNL A   1      45.999  23.805  26.690  1.00  0.00     0.031 C 
ATOM     34  C   UNL A   1      41.215  24.892  27.794  1.00  0.00     0.029 A 
ATOM     35  N   UNL A   1      42.701  26.556  27.908  1.00  0.00    -0.354 N 
ATOM     36  C   UNL A   1      46.881  25.874  27.113  1.00  0.00     0.074 A 
ATOM     37  C   UNL A   1      47.131  24.486  26.788  1.00  0.00     0.031 C 
ATOM     38  C   UNL A   1      40.553  25.995  28.176  1.00  0.00     0.029 A 
ATOM     39  C   UNL A   1      41.497  27.102  28.283  1.00  0.00     0.049 A 
ATOM     40  H   UNL A   1      43.539  27.073  27.871  1.00  0.00     0.167 HD
ATOM     41  C   UNL A   1      47.839  26.830  27.168  1.00  0.00     0.037 A 
ATOM     42  C   UNL A   1      41.186  28.354  28.672  1.00  0.00     0.037 A 
ATOM     43  C   UNL A   1      47.588  28.214  27.477  1.00  0.00     0.049 A 
ATOM     44  C   UNL A   1      42.266  29.398  28.727  1.00  0.00     0.074 A 
ATOM     45  C   UNL A   1      48.482  29.270  27.494  1.00  0.00     0.029 A 
ATOM     46  N   UNL A   1      46.351  28.734  27.830  1.00  0.00    -0.354 N 
ATOM     47  N   UNL A   1      43.542  29.282  28.450  1.00  0.00    -0.248 NA
ATOM     48  C   UNL A   1      41.862  30.750  29.141  1.00  0.00     0.031 C 
ATOM     49  C   UNL A   1      47.795  30.419  27.901  1.00  0.00     0.029 A 
ATOM     50  C   UNL A   1      46.463  30.090  28.089  1.00  0.00     0.049 A 
ATOM     51  H   UNL A   1      45.516  28.215  27.887  1.00  0.00     0.167 HD
ATOM     52  C   UNL A   1      44.087  30.546  28.630  1.00  0.00     0.074 A 
ATOM     53  C   UNL A   1      43.001  31.418  29.027  1.00  0.00     0.031 C 
ATOM     54  C   UNL A   1      45.373  30.949  28.479  1.00  0.00     0.037 A 
BRANCH  41  55
ATOM     55  C   UNL A   1      49.251  26.407  26.886  1.00  0.00     0.057 A 
ATOM     56  C   UNL A   1      50.112  25.980  27.906  1.00  0.00     0.134 A 
ATOM     57  C   UNL A   1      49.751  26.405  25.578  1.00  0.00     0.134 A 
ATOM     58  F   UNL A   1      49.699  25.967  29.182  1.00  0.00    -0.206 F 
ATOM     59  C   UNL A   1      51.428  25.598  27.640  1.00  0.00     0.040 A 
ATOM     60  C   UNL A   1      51.057  25.998  25.296  1.00  0.00     0.040 A 
ATOM     61  F   UNL A   1      48.980  26.794  24.552  1.00  0.00    -0.206 F 
ATOM     62  C   UNL A   1      51.902  25.602  26.330  1.00  0.00     0.006 A 
ENDBRANCH  41  55
BRANCH  42  63
ATOM     63  C   UNL A   1      39.783  28.697  29.016  1.00  0.00     0.057 A 
ATOM     64  C   UNL A   1      39.293  28.511  30.315  1.00  0.00     0.134 A 
ATOM     65  C   UNL A   1      38.898  29.214  28.062  1.00  0.00     0.134 A 
ATOM     66  F   UNL A   1      40.086  28.002  31.268  1.00  0.00    -0.206 F 
ATOM     67  C   UNL A   1      37.972  28.812  30.649  1.00  0.00     0.040 A 
ATOM     68  C   UNL A   1      37.581  29.542  28.388  1.00  0.00     0.040 A 
ATOM     69  F   UNL A   1      39.307  29.422  26.802  1.00  0.00    -0.206 F 
ATOM     70  C   UNL A   1      37.112  29.334  29.684  1.00  0.00     0.006 A 
ENDBRANCH  42  63
BRANCH  54  71
ATOM     71  C   UNL A   1      45.671  32.401  28.711  1.00  0.00     0.057 A 
ATOM     72  C   UNL A   1      46.101  32.879  29.955  1.00  0.00     0.134 A 
ATOM     73  C   UNL A   1      45.565  33.326  27.664  1.00  0.00     0.134 A 
ATOM     74  F   UNL A   1      46.210  32.047  31.002  1.00  0.00    -0.206 F 
ATOM     75  C   UNL A   1      46.395  34.229  30.154  1.00  0.00     0.040 A 
ATOM     76  C   UNL A   1      45.882  34.673  27.844  1.00  0.00     0.040 A 
ATOM     77  F   UNL A   1      45.167  32.932  26.445  1.00  0.00    -0.206 F 
ATOM     78  C   UNL A   1      46.292  35.128  29.095  1.00  0.00     0.006 A 
ENDBRANCH  54  71
ENDBRANCH  28  29
ENDBRANCH  20  23
ENDBRANCH  18  19
ENDBRANCH  17  18
ENDBRANCH   1  17
TORSDOF 13
ENDMDL
