MODEL 1
REMARK VINA RESULT:     -12.5      0.000      0.000
REMARK SMILES O=C(NC1(C(=O)NCCCCNC(=O)c2ccc(-c3c4nc(c(-c5c(F)cccc5F)c5ccc([nH]5)c(-c5c(F)cccc5F)c5nc(c(-c6c(F)cccc6F)c6ccc3[nH]6)C=C5)C=C4)cc2)CC[NH2+]CC1)OCC1c2ccccc2-c2ccccc21
REMARK SMILES IDX 8 1 7 2 5 3 6 4 4 6 69 7 73 8 70 9 72 10 71 11 3 14 1 15
REMARK SMILES IDX 2 16 74 18 75 19 76 20 77 21 88 22 78 23 82 24 83 25 87 26
REMARK SMILES IDX 79 27 81 28 84 29 86 30 80 31 85 32 9 33 10 34 11 35 12 36
REMARK SMILES IDX 13 37 14 39 15 40 16 41 68 42 17 43 67 44 18 45 19 46 20 47
REMARK SMILES IDX 61 48 21 49 66 50 60 51 62 52 22 53 65 54 59 55 58 56 23 58
REMARK SMILES IDX 49 59 32 60 48 61 33 62 36 63 47 64 63 65 34 66 35 67 46 69
REMARK SMILES IDX 64 70 37 71 24 72 25 73 30 74 26 75 27 76 29 77 31 78 28 79
REMARK SMILES IDX 50 80 51 81 56 82 52 83 53 84 55 85 57 86 54 87 38 88 39 89
REMARK SMILES IDX 44 90 40 91 41 92 43 93 45 94 42 95
REMARK H PARENT 7 5 71 12 71 13 3 17 12 38 62 57 36 68
REMARK Flexibility Score: inf
ROOT
ATOM      1  C   UNL A   1      36.870  23.285  25.763  1.00  0.00     0.116 C 
ENDROOT
BRANCH   1   2
ATOM      2  N   UNL A   1      36.263  23.583  24.481  1.00  0.00    -0.354 N 
ATOM      3  C   UNL A   1      35.051  23.288  23.941  1.00  0.00     0.246 C 
ATOM      4  O   UNL A   1      34.961  23.477  22.719  1.00  0.00    -0.272 OA
ATOM      5  H   UNL A   1      36.846  24.104  23.882  1.00  0.00     0.163 HD
BRANCH   3   6
ATOM      6  C   UNL A   1      33.889  22.584  24.720  1.00  0.00     0.132 C 
ATOM      7  C   UNL A   1      34.339  21.104  24.745  1.00  0.00     0.100 C 
ATOM      8  C   UNL A   1      33.566  23.145  26.123  1.00  0.00     0.100 C 
ATOM      9  C   UNL A   1      33.589  20.242  25.742  1.00  0.00     0.263 C 
ATOM     10  C   UNL A   1      32.850  22.128  27.007  1.00  0.00     0.263 C 
ATOM     11  N   UNL A   1      33.588  20.868  27.058  1.00  0.00    -0.346 N 
ATOM     12  H   UNL A   1      34.549  21.052  27.346  1.00  0.00     0.346 HD
ATOM     13  H   UNL A   1      33.141  20.243  27.729  1.00  0.00     0.346 HD
BRANCH   6  14
ATOM     14  N   UNL A   1      32.667  22.704  23.875  1.00  0.00    -0.307 N 
ATOM     15  O   UNL A   1      30.848  23.834  23.114  1.00  0.00    -0.225 OA
ATOM     16  C   UNL A   1      31.832  23.787  23.843  1.00  0.00     0.408 C 
ATOM     17  H   UNL A   1      32.442  21.942  23.294  1.00  0.00     0.168 HD
BRANCH  16  18
ATOM     18  O   UNL A   1      32.241  24.775  24.667  1.00  0.00    -0.449 OA
BRANCH  18  19
ATOM     19  C   UNL A   1      31.260  25.744  25.049  1.00  0.00     0.248 C 
BRANCH  19  20
ATOM     20  C   UNL A   1      31.625  27.125  24.488  1.00  0.00     0.088 C 
ATOM     21  C   UNL A   1      30.478  27.993  23.971  1.00  0.00    -0.029 A 
ATOM     22  C   UNL A   1      32.313  28.084  25.458  1.00  0.00    -0.029 A 
ATOM     23  C   UNL A   1      29.341  27.642  23.258  1.00  0.00     0.005 A 
ATOM     24  C   UNL A   1      30.707  29.336  24.337  1.00  0.00    -0.014 A 
ATOM     25  C   UNL A   1      31.769  29.381  25.320  1.00  0.00    -0.014 A 
ATOM     26  C   UNL A   1      33.282  27.816  26.413  1.00  0.00     0.005 A 
ATOM     27  C   UNL A   1      28.476  28.660  22.846  1.00  0.00     0.000 A 
ATOM     28  C   UNL A   1      29.911  30.350  23.840  1.00  0.00     0.009 A 
ATOM     29  C   UNL A   1      32.133  30.398  26.192  1.00  0.00     0.009 A 
ATOM     30  C   UNL A   1      33.637  28.836  27.298  1.00  0.00     0.000 A 
ATOM     31  C   UNL A   1      28.782  30.006  23.093  1.00  0.00     0.001 A 
ATOM     32  C   UNL A   1      33.056  30.110  27.201  1.00  0.00     0.001 A 
ENDBRANCH  19  20
ENDBRANCH  18  19
ENDBRANCH  16  18
ENDBRANCH   6  14
ENDBRANCH   3   6
ENDBRANCH   1   2
BRANCH   1  33
ATOM     33  C   UNL A   1      38.209  22.555  25.611  1.00  0.00     0.023 C 
BRANCH  33  34
ATOM     34  C   UNL A   1      38.162  21.178  24.938  1.00  0.00     0.023 C 
BRANCH  34  35
ATOM     35  C   UNL A   1      38.353  19.981  25.864  1.00  0.00     0.116 C 
BRANCH  35  36
ATOM     36  N   UNL A   1      39.567  19.231  25.631  1.00  0.00    -0.352 N 
ATOM     37  C   UNL A   1      40.868  19.552  25.934  1.00  0.00     0.251 C 
ATOM     38  H   UNL A   1      39.444  18.361  25.186  1.00  0.00     0.163 HD
ATOM     39  O   UNL A   1      41.762  18.753  25.661  1.00  0.00    -0.269 OA
BRANCH  37  40
ATOM     40  C   UNL A   1      41.231  20.858  26.543  1.00  0.00     0.039 A 
ATOM     41  C   UNL A   1      41.746  21.842  25.693  1.00  0.00     0.014 A 
ATOM     42  C   UNL A   1      41.146  21.113  27.915  1.00  0.00     0.014 A 
ATOM     43  C   UNL A   1      42.147  23.079  26.207  1.00  0.00     0.010 A 
ATOM     44  C   UNL A   1      41.495  22.374  28.422  1.00  0.00     0.010 A 
ATOM     45  C   UNL A   1      42.014  23.366  27.576  1.00  0.00    -0.014 A 
BRANCH  45  46
ATOM     46  C   UNL A   1      42.451  24.696  28.093  1.00  0.00     0.031 A 
ATOM     47  C   UNL A   1      43.913  25.040  28.206  1.00  0.00     0.074 A 
ATOM     48  C   UNL A   1      41.529  25.620  28.428  1.00  0.00     0.049 A 
ATOM     49  N   UNL A   1      44.473  26.185  28.515  1.00  0.00    -0.248 NA
ATOM     50  C   UNL A   1      44.875  23.957  27.951  1.00  0.00     0.031 C 
ATOM     51  C   UNL A   1      40.080  25.413  28.405  1.00  0.00     0.029 A 
ATOM     52  N   UNL A   1      41.670  26.925  28.833  1.00  0.00    -0.354 N 
ATOM     53  C   UNL A   1      45.844  25.959  28.492  1.00  0.00     0.074 A 
ATOM     54  C   UNL A   1      46.031  24.556  28.193  1.00  0.00     0.031 C 
ATOM     55  C   UNL A   1      39.467  26.560  28.734  1.00  0.00     0.029 A 
ATOM     56  C   UNL A   1      40.475  27.580  29.015  1.00  0.00     0.049 A 
ATOM     57  H   UNL A   1      42.545  27.352  28.979  1.00  0.00     0.167 HD
ATOM     58  C   UNL A   1      46.857  26.842  28.678  1.00  0.00     0.037 A 
ATOM     59  C   UNL A   1      40.216  28.857  29.354  1.00  0.00     0.037 A 
ATOM     60  C   UNL A   1      46.676  28.242  28.965  1.00  0.00     0.049 A 
ATOM     61  C   UNL A   1      41.357  29.815  29.567  1.00  0.00     0.074 A 
ATOM     62  C   UNL A   1      47.641  29.225  29.110  1.00  0.00     0.029 A 
ATOM     63  N   UNL A   1      45.450  28.859  29.164  1.00  0.00    -0.354 N 
ATOM     64  N   UNL A   1      42.646  29.607  29.450  1.00  0.00    -0.248 NA
ATOM     65  C   UNL A   1      41.004  31.190  29.949  1.00  0.00     0.031 C 
ATOM     66  C   UNL A   1      47.003  30.422  29.451  1.00  0.00     0.029 A 
ATOM     67  C   UNL A   1      45.635  30.201  29.458  1.00  0.00     0.049 A 
ATOM     68  H   UNL A   1      44.576  28.409  29.103  1.00  0.00     0.167 HD
ATOM     69  C   UNL A   1      43.254  30.831  29.705  1.00  0.00     0.074 A 
ATOM     70  C   UNL A   1      42.192  31.779  29.970  1.00  0.00     0.031 C 
ATOM     71  C   UNL A   1      44.575  31.142  29.714  1.00  0.00     0.037 A 
BRANCH  58  72
ATOM     72  C   UNL A   1      48.261  26.314  28.586  1.00  0.00     0.057 A 
ATOM     73  C   UNL A   1      48.922  25.764  29.693  1.00  0.00     0.134 A 
ATOM     74  C   UNL A   1      48.950  26.322  27.366  1.00  0.00     0.134 A 
ATOM     75  F   UNL A   1      48.324  25.730  30.895  1.00  0.00    -0.206 F 
ATOM     76  C   UNL A   1      50.226  25.273  29.598  1.00  0.00     0.040 A 
ATOM     77  C   UNL A   1      50.242  25.806  27.252  1.00  0.00     0.040 A 
ATOM     78  F   UNL A   1      48.374  26.822  26.262  1.00  0.00    -0.206 F 
ATOM     79  C   UNL A   1      50.888  25.288  28.372  1.00  0.00     0.006 A 
ENDBRANCH  58  72
BRANCH  59  80
ATOM     80  C   UNL A   1      38.811  29.328  29.476  1.00  0.00     0.057 A 
ATOM     81  C   UNL A   1      38.151  29.325  30.710  1.00  0.00     0.134 A 
ATOM     82  C   UNL A   1      38.089  29.770  28.360  1.00  0.00     0.134 A 
ATOM     83  F   UNL A   1      38.782  28.893  31.813  1.00  0.00    -0.206 F 
ATOM     84  C   UNL A   1      36.817  29.721  30.828  1.00  0.00     0.040 A 
ATOM     85  C   UNL A   1      36.764  30.194  28.468  1.00  0.00     0.040 A 
ATOM     86  F   UNL A   1      38.665  29.801  27.150  1.00  0.00    -0.206 F 
ATOM     87  C   UNL A   1      36.121  30.162  29.705  1.00  0.00     0.006 A 
ENDBRANCH  59  80
BRANCH  71  88
ATOM     88  C   UNL A   1      44.944  32.574  29.976  1.00  0.00     0.057 A 
ATOM     89  C   UNL A   1      45.008  33.529  28.951  1.00  0.00     0.134 A 
ATOM     90  C   UNL A   1      45.217  33.011  31.280  1.00  0.00     0.134 A 
ATOM     91  F   UNL A   1      44.770  33.177  27.679  1.00  0.00    -0.206 F 
ATOM     92  C   UNL A   1      45.365  34.854  29.209  1.00  0.00     0.040 A 
ATOM     93  C   UNL A   1      45.543  34.341  31.554  1.00  0.00     0.040 A 
ATOM     94  F   UNL A   1      45.163  32.155  32.311  1.00  0.00    -0.206 F 
ATOM     95  C   UNL A   1      45.627  35.264  30.514  1.00  0.00     0.006 A 
ENDBRANCH  71  88
ENDBRANCH  45  46
ENDBRANCH  37  40
ENDBRANCH  35  36
ENDBRANCH  34  35
ENDBRANCH  33  34
ENDBRANCH   1  33
TORSDOF 15
ENDMDL
MODEL 2
REMARK VINA RESULT:     -12.5      3.764      9.071
REMARK SMILES O=C(NC1(C(=O)NCCCCNC(=O)c2ccc(-c3c4nc(c(-c5c(F)cccc5F)c5ccc([nH]5)c(-c5c(F)cccc5F)c5nc(c(-c6c(F)cccc6F)c6ccc3[nH]6)C=C5)C=C4)cc2)CC[NH2+]CC1)OCC1c2ccccc2-c2ccccc21
REMARK SMILES IDX 8 1 7 2 5 3 6 4 4 6 69 7 73 8 70 9 72 10 71 11 3 14 1 15
REMARK SMILES IDX 2 16 74 18 75 19 76 20 77 21 88 22 78 23 82 24 83 25 87 26
REMARK SMILES IDX 79 27 81 28 84 29 86 30 80 31 85 32 9 33 10 34 11 35 12 36
REMARK SMILES IDX 13 37 14 39 15 40 16 41 68 42 17 43 67 44 18 45 19 46 20 47
REMARK SMILES IDX 61 48 21 49 66 50 60 51 62 52 22 53 65 54 59 55 58 56 23 58
REMARK SMILES IDX 49 59 32 60 48 61 33 62 36 63 47 64 63 65 34 66 35 67 46 69
REMARK SMILES IDX 64 70 37 71 24 72 25 73 30 74 26 75 27 76 29 77 31 78 28 79
REMARK SMILES IDX 50 80 51 81 56 82 52 83 53 84 55 85 57 86 54 87 38 88 39 89
REMARK SMILES IDX 44 90 40 91 41 92 43 93 45 94 42 95
REMARK H PARENT 7 5 71 12 71 13 3 17 12 38 62 57 36 68
REMARK Flexibility Score: inf
ROOT
ATOM      1  C   UNL A   1      33.703  28.848  26.513  1.00  0.00     0.116 C 
ENDROOT
BRANCH   1   2
ATOM      2  N   UNL A   1      32.708  27.845  26.838  1.00  0.00    -0.354 N 
ATOM      3  C   UNL A   1      31.799  27.168  26.088  1.00  0.00     0.246 C 
ATOM      4  O   UNL A   1      30.926  26.571  26.735  1.00  0.00    -0.272 OA
ATOM      5  H   UNL A   1      32.687  27.608  27.794  1.00  0.00     0.163 HD
BRANCH   3   6
ATOM      6  C   UNL A   1      31.704  27.257  24.528  1.00  0.00     0.132 C 
ATOM      7  C   UNL A   1      31.016  28.624  24.302  1.00  0.00     0.100 C 
ATOM      8  C   UNL A   1      33.032  27.110  23.751  1.00  0.00     0.100 C 
ATOM      9  C   UNL A   1      31.113  29.144  22.881  1.00  0.00     0.263 C 
ATOM     10  C   UNL A   1      32.963  27.727  22.357  1.00  0.00     0.263 C 
ATOM     11  N   UNL A   1      32.497  29.110  22.420  1.00  0.00    -0.346 N 
ATOM     12  H   UNL A   1      33.083  29.635  23.070  1.00  0.00     0.346 HD
ATOM     13  H   UNL A   1      32.552  29.527  21.491  1.00  0.00     0.346 HD
BRANCH   6  14
ATOM     14  N   UNL A   1      30.782  26.172  24.087  1.00  0.00    -0.307 N 
ATOM     15  O   UNL A   1      30.324  24.011  23.555  1.00  0.00    -0.225 OA
ATOM     16  C   UNL A   1      31.132  24.863  23.904  1.00  0.00     0.408 C 
ATOM     17  H   UNL A   1      29.844  26.418  23.914  1.00  0.00     0.168 HD
BRANCH  16  18
ATOM     18  O   UNL A   1      32.434  24.637  24.182  1.00  0.00    -0.449 OA
BRANCH  18  19
ATOM     19  C   UNL A   1      33.042  23.508  23.548  1.00  0.00     0.248 C 
BRANCH  19  20
ATOM     20  C   UNL A   1      33.557  22.515  24.599  1.00  0.00     0.088 C 
ATOM     21  C   UNL A   1      33.410  21.026  24.283  1.00  0.00    -0.029 A 
ATOM     22  C   UNL A   1      35.044  22.605  24.938  1.00  0.00    -0.029 A 
ATOM     23  C   UNL A   1      32.375  20.340  23.667  1.00  0.00     0.005 A 
ATOM     24  C   UNL A   1      34.563  20.341  24.721  1.00  0.00    -0.014 A 
ATOM     25  C   UNL A   1      35.595  21.308  25.031  1.00  0.00    -0.014 A 
ATOM     26  C   UNL A   1      35.840  23.730  25.085  1.00  0.00     0.005 A 
ATOM     27  C   UNL A   1      32.470  18.949  23.563  1.00  0.00     0.000 A 
ATOM     28  C   UNL A   1      34.609  18.960  24.715  1.00  0.00     0.009 A 
ATOM     29  C   UNL A   1      36.963  21.129  25.191  1.00  0.00     0.009 A 
ATOM     30  C   UNL A   1      37.217  23.550  25.232  1.00  0.00     0.000 A 
ATOM     31  C   UNL A   1      33.555  18.260  24.125  1.00  0.00     0.001 A 
ATOM     32  C   UNL A   1      37.777  22.263  25.268  1.00  0.00     0.001 A 
ENDBRANCH  19  20
ENDBRANCH  18  19
ENDBRANCH  16  18
ENDBRANCH   6  14
ENDBRANCH   3   6
ENDBRANCH   1   2
BRANCH   1  33
ATOM     33  C   UNL A   1      33.585  30.089  27.404  1.00  0.00     0.023 C 
BRANCH  33  34
ATOM     34  C   UNL A   1      32.286  30.895  27.280  1.00  0.00     0.023 C 
BRANCH  34  35
ATOM     35  C   UNL A   1      32.392  32.209  26.514  1.00  0.00     0.116 C 
BRANCH  35  36
ATOM     36  N   UNL A   1      32.129  33.389  27.309  1.00  0.00    -0.352 N 
ATOM     37  C   UNL A   1      32.932  34.027  28.223  1.00  0.00     0.251 C 
ATOM     38  H   UNL A   1      31.242  33.794  27.176  1.00  0.00     0.163 HD
ATOM     39  O   UNL A   1      32.515  35.039  28.782  1.00  0.00    -0.269 OA
BRANCH  37  40
ATOM     40  C   UNL A   1      34.273  33.502  28.589  1.00  0.00     0.039 A 
ATOM     41  C   UNL A   1      34.365  32.730  29.751  1.00  0.00     0.014 A 
ATOM     42  C   UNL A   1      35.434  33.801  27.871  1.00  0.00     0.014 A 
ATOM     43  C   UNL A   1      35.604  32.240  30.176  1.00  0.00     0.010 A 
ATOM     44  C   UNL A   1      36.668  33.263  28.266  1.00  0.00     0.010 A 
ATOM     45  C   UNL A   1      36.769  32.488  29.433  1.00  0.00    -0.014 A 
BRANCH  45  46
ATOM     46  C   UNL A   1      38.075  31.952  29.913  1.00  0.00     0.031 A 
ATOM     47  C   UNL A   1      38.825  32.626  31.032  1.00  0.00     0.074 A 
ATOM     48  C   UNL A   1      38.577  30.825  29.369  1.00  0.00     0.049 A 
ATOM     49  N   UNL A   1      39.907  32.231  31.659  1.00  0.00    -0.248 NA
ATOM     50  C   UNL A   1      38.303  33.917  31.502  1.00  0.00     0.031 C 
ATOM     51  C   UNL A   1      37.979  30.087  28.255  1.00  0.00     0.029 A 
ATOM     52  N   UNL A   1      39.692  30.090  29.691  1.00  0.00    -0.354 N 
ATOM     53  C   UNL A   1      40.191  33.222  32.591  1.00  0.00     0.074 A 
ATOM     54  C   UNL A   1      39.201  34.262  32.411  1.00  0.00     0.031 C 
ATOM     55  C   UNL A   1      38.706  28.984  28.018  1.00  0.00     0.029 A 
ATOM     56  C   UNL A   1      39.835  28.945  28.944  1.00  0.00     0.049 A 
ATOM     57  H   UNL A   1      40.330  30.358  30.392  1.00  0.00     0.167 HD
ATOM     58  C   UNL A   1      41.171  33.255  33.529  1.00  0.00     0.037 A 
ATOM     59  C   UNL A   1      40.758  27.966  29.004  1.00  0.00     0.037 A 
ATOM     60  C   UNL A   1      42.152  32.217  33.720  1.00  0.00     0.049 A 
ATOM     61  C   UNL A   1      41.842  28.031  30.046  1.00  0.00     0.074 A 
ATOM     62  C   UNL A   1      43.145  32.135  34.683  1.00  0.00     0.029 A 
ATOM     63  N   UNL A   1      42.275  31.086  32.927  1.00  0.00    -0.354 N 
ATOM     64  N   UNL A   1      42.041  28.929  30.980  1.00  0.00    -0.248 NA
ATOM     65  C   UNL A   1      42.825  26.937  30.047  1.00  0.00     0.031 C 
ATOM     66  C   UNL A   1      43.902  30.985  34.437  1.00  0.00     0.029 A 
ATOM     67  C   UNL A   1      43.344  30.317  33.360  1.00  0.00     0.049 A 
ATOM     68  H   UNL A   1      41.688  30.863  32.169  1.00  0.00     0.167 HD
ATOM     69  C   UNL A   1      43.145  28.489  31.702  1.00  0.00     0.074 A 
ATOM     70  C   UNL A   1      43.564  27.238  31.106  1.00  0.00     0.031 C 
ATOM     71  C   UNL A   1      43.753  29.069  32.767  1.00  0.00     0.037 A 
BRANCH  58  72
ATOM     72  C   UNL A   1      41.236  34.464  34.420  1.00  0.00     0.057 A 
ATOM     73  C   UNL A   1      40.574  34.512  35.655  1.00  0.00     0.134 A 
ATOM     74  C   UNL A   1      42.001  35.580  34.058  1.00  0.00     0.134 A 
ATOM     75  F   UNL A   1      39.819  33.480  36.063  1.00  0.00    -0.206 F 
ATOM     76  C   UNL A   1      40.643  35.638  36.479  1.00  0.00     0.040 A 
ATOM     77  C   UNL A   1      42.102  36.699  34.886  1.00  0.00     0.040 A 
ATOM     78  F   UNL A   1      42.671  35.598  32.896  1.00  0.00    -0.206 F 
ATOM     79  C   UNL A   1      41.414  36.734  36.097  1.00  0.00     0.006 A 
ENDBRANCH  58  72
BRANCH  59  80
ATOM     80  C   UNL A   1      40.681  26.808  28.075  1.00  0.00     0.057 A 
ATOM     81  C   UNL A   1      39.863  25.707  28.356  1.00  0.00     0.134 A 
ATOM     82  C   UNL A   1      41.439  26.763  26.899  1.00  0.00     0.134 A 
ATOM     83  F   UNL A   1      39.129  25.681  29.479  1.00  0.00    -0.206 F 
ATOM     84  C   UNL A   1      39.818  24.594  27.515  1.00  0.00     0.040 A 
ATOM     85  C   UNL A   1      41.384  25.668  26.034  1.00  0.00     0.040 A 
ATOM     86  F   UNL A   1      42.240  27.787  26.570  1.00  0.00    -0.206 F 
ATOM     87  C   UNL A   1      40.578  24.575  26.347  1.00  0.00     0.006 A 
ENDBRANCH  59  80
BRANCH  71  88
ATOM     88  C   UNL A   1      44.909  28.334  33.385  1.00  0.00     0.057 A 
ATOM     89  C   UNL A   1      46.235  28.563  32.992  1.00  0.00     0.134 A 
ATOM     90  C   UNL A   1      44.693  27.398  34.406  1.00  0.00     0.134 A 
ATOM     91  F   UNL A   1      46.513  29.436  32.013  1.00  0.00    -0.206 F 
ATOM     92  C   UNL A   1      47.298  27.863  33.567  1.00  0.00     0.040 A 
ATOM     93  C   UNL A   1      45.750  26.716  35.010  1.00  0.00     0.040 A 
ATOM     94  F   UNL A   1      43.451  27.138  34.840  1.00  0.00    -0.206 F 
ATOM     95  C   UNL A   1      47.057  26.941  34.584  1.00  0.00     0.006 A 
ENDBRANCH  71  88
ENDBRANCH  45  46
ENDBRANCH  37  40
ENDBRANCH  35  36
ENDBRANCH  34  35
ENDBRANCH  33  34
ENDBRANCH   1  33
TORSDOF 15
ENDMDL
MODEL 3
REMARK VINA RESULT:     -12.4      0.264      1.272
REMARK SMILES O=C(NC1(C(=O)NCCCCNC(=O)c2ccc(-c3c4nc(c(-c5c(F)cccc5F)c5ccc([nH]5)c(-c5c(F)cccc5F)c5nc(c(-c6c(F)cccc6F)c6ccc3[nH]6)C=C5)C=C4)cc2)CC[NH2+]CC1)OCC1c2ccccc2-c2ccccc21
REMARK SMILES IDX 8 1 7 2 5 3 6 4 4 6 69 7 73 8 70 9 72 10 71 11 3 14 1 15
REMARK SMILES IDX 2 16 74 18 75 19 76 20 77 21 88 22 78 23 82 24 83 25 87 26
REMARK SMILES IDX 79 27 81 28 84 29 86 30 80 31 85 32 9 33 10 34 11 35 12 36
REMARK SMILES IDX 13 37 14 39 15 40 16 41 68 42 17 43 67 44 18 45 19 46 20 47
REMARK SMILES IDX 61 48 21 49 66 50 60 51 62 52 22 53 65 54 59 55 58 56 23 58
REMARK SMILES IDX 49 59 32 60 48 61 33 62 36 63 47 64 63 65 34 66 35 67 46 69
REMARK SMILES IDX 64 70 37 71 24 72 25 73 30 74 26 75 27 76 29 77 31 78 28 79
REMARK SMILES IDX 50 80 51 81 56 82 52 83 53 84 55 85 57 86 54 87 38 88 39 89
REMARK SMILES IDX 44 90 40 91 41 92 43 93 45 94 42 95
REMARK H PARENT 7 5 71 12 71 13 3 17 12 38 62 57 36 68
REMARK Flexibility Score: inf
ROOT
ATOM      1  C   UNL A   1      36.687  23.105  25.698  1.00  0.00     0.116 C 
ENDROOT
BRANCH   1   2
ATOM      2  N   UNL A   1      36.073  23.426  24.425  1.00  0.00    -0.354 N 
ATOM      3  C   UNL A   1      34.851  23.157  23.894  1.00  0.00     0.246 C 
ATOM      4  O   UNL A   1      34.753  23.359  22.675  1.00  0.00    -0.272 OA
ATOM      5  H   UNL A   1      36.659  23.942  23.824  1.00  0.00     0.163 HD
BRANCH   3   6
ATOM      6  C   UNL A   1      33.684  22.468  24.678  1.00  0.00     0.132 C 
ATOM      7  C   UNL A   1      34.092  20.976  24.660  1.00  0.00     0.100 C 
ATOM      8  C   UNL A   1      33.403  23.004  26.100  1.00  0.00     0.100 C 
ATOM      9  C   UNL A   1      33.335  20.112  25.650  1.00  0.00     0.263 C 
ATOM     10  C   UNL A   1      32.674  21.986  26.973  1.00  0.00     0.263 C 
ATOM     11  N   UNL A   1      33.377  20.706  26.981  1.00  0.00    -0.346 N 
ATOM     12  H   UNL A   1      34.348  20.855  27.254  1.00  0.00     0.346 HD
ATOM     13  H   UNL A   1      32.924  20.077  27.644  1.00  0.00     0.346 HD
BRANCH   6  14
ATOM     14  N   UNL A   1      32.450  22.643  23.859  1.00  0.00    -0.307 N 
ATOM     15  O   UNL A   1      30.651  23.841  23.160  1.00  0.00    -0.225 OA
ATOM     16  C   UNL A   1      31.646  23.749  23.870  1.00  0.00     0.408 C 
ATOM     17  H   UNL A   1      32.194  21.902  23.264  1.00  0.00     0.168 HD
BRANCH  16  18
ATOM     18  O   UNL A   1      32.098  24.705  24.709  1.00  0.00    -0.449 OA
BRANCH  18  19
ATOM     19  C   UNL A   1      31.157  25.703  25.115  1.00  0.00     0.248 C 
BRANCH  19  20
ATOM     20  C   UNL A   1      31.530  27.066  24.515  1.00  0.00     0.088 C 
ATOM     21  C   UNL A   1      30.387  27.925  23.972  1.00  0.00    -0.029 A 
ATOM     22  C   UNL A   1      32.223  28.049  25.457  1.00  0.00    -0.029 A 
ATOM     23  C   UNL A   1      29.249  27.559  23.270  1.00  0.00     0.005 A 
ATOM     24  C   UNL A   1      30.624  29.277  24.300  1.00  0.00    -0.014 A 
ATOM     25  C   UNL A   1      31.685  29.343  25.282  1.00  0.00    -0.014 A 
ATOM     26  C   UNL A   1      33.190  27.803  26.419  1.00  0.00     0.005 A 
ATOM     27  C   UNL A   1      28.389  28.569  22.828  1.00  0.00     0.000 A 
ATOM     28  C   UNL A   1      29.833  30.280  23.773  1.00  0.00     0.009 A 
ATOM     29  C   UNL A   1      32.055  30.384  26.124  1.00  0.00     0.009 A 
ATOM     30  C   UNL A   1      33.550  28.846  27.275  1.00  0.00     0.000 A 
ATOM     31  C   UNL A   1      28.702  29.920  23.036  1.00  0.00     0.001 A 
ATOM     32  C   UNL A   1      32.977  30.120  27.140  1.00  0.00     0.001 A 
ENDBRANCH  19  20
ENDBRANCH  18  19
ENDBRANCH  16  18
ENDBRANCH   6  14
ENDBRANCH   3   6
ENDBRANCH   1   2
BRANCH   1  33
ATOM     33  C   UNL A   1      38.084  22.497  25.528  1.00  0.00     0.023 C 
BRANCH  33  34
ATOM     34  C   UNL A   1      38.146  21.100  24.900  1.00  0.00     0.023 C 
BRANCH  34  35
ATOM     35  C   UNL A   1      38.399  19.949  25.868  1.00  0.00     0.116 C 
BRANCH  35  36
ATOM     36  N   UNL A   1      39.624  19.219  25.623  1.00  0.00    -0.352 N 
ATOM     37  C   UNL A   1      40.919  19.551  25.935  1.00  0.00     0.251 C 
ATOM     38  H   UNL A   1      39.513  18.356  25.162  1.00  0.00     0.163 HD
ATOM     39  O   UNL A   1      41.824  18.769  25.649  1.00  0.00    -0.269 OA
BRANCH  37  40
ATOM     40  C   UNL A   1      41.265  20.849  26.569  1.00  0.00     0.039 A 
ATOM     41  C   UNL A   1      41.737  21.867  25.734  1.00  0.00     0.014 A 
ATOM     42  C   UNL A   1      41.203  21.068  27.948  1.00  0.00     0.014 A 
ATOM     43  C   UNL A   1      42.119  23.100  26.271  1.00  0.00     0.010 A 
ATOM     44  C   UNL A   1      41.533  22.324  28.480  1.00  0.00     0.010 A 
ATOM     45  C   UNL A   1      42.010  23.350  27.649  1.00  0.00    -0.014 A 
BRANCH  45  46
ATOM     46  C   UNL A   1      42.426  24.676  28.190  1.00  0.00     0.031 A 
ATOM     47  C   UNL A   1      43.881  25.007  28.395  1.00  0.00     0.074 A 
ATOM     48  C   UNL A   1      41.493  25.610  28.464  1.00  0.00     0.049 A 
ATOM     49  N   UNL A   1      44.431  26.147  28.737  1.00  0.00    -0.248 NA
ATOM     50  C   UNL A   1      44.846  23.914  28.204  1.00  0.00     0.031 C 
ATOM     51  C   UNL A   1      40.047  25.417  28.351  1.00  0.00     0.029 A 
ATOM     52  N   UNL A   1      41.621  26.915  28.876  1.00  0.00    -0.354 N 
ATOM     53  C   UNL A   1      45.798  25.908  28.801  1.00  0.00     0.074 A 
ATOM     54  C   UNL A   1      45.991  24.503  28.517  1.00  0.00     0.031 C 
ATOM     55  C   UNL A   1      39.425  26.571  28.638  1.00  0.00     0.029 A 
ATOM     56  C   UNL A   1      40.423  27.581  28.981  1.00  0.00     0.049 A 
ATOM     57  H   UNL A   1      42.489  27.334  29.076  1.00  0.00     0.167 HD
ATOM     58  C   UNL A   1      46.806  26.782  29.050  1.00  0.00     0.037 A 
ATOM     59  C   UNL A   1      40.155  28.862  29.301  1.00  0.00     0.037 A 
ATOM     60  C   UNL A   1      46.621  28.184  29.321  1.00  0.00     0.049 A 
ATOM     61  C   UNL A   1      41.291  29.809  29.584  1.00  0.00     0.074 A 
ATOM     62  C   UNL A   1      47.585  29.158  29.525  1.00  0.00     0.029 A 
ATOM     63  N   UNL A   1      45.391  28.813  29.441  1.00  0.00    -0.354 N 
ATOM     64  N   UNL A   1      42.582  29.589  29.549  1.00  0.00    -0.248 NA
ATOM     65  C   UNL A   1      40.927  31.188  29.940  1.00  0.00     0.031 C 
ATOM     66  C   UNL A   1      46.937  30.362  29.824  1.00  0.00     0.029 A 
ATOM     67  C   UNL A   1      45.570  30.154  29.745  1.00  0.00     0.049 A 
ATOM     68  H   UNL A   1      44.518  28.371  29.327  1.00  0.00     0.167 HD
ATOM     69  C   UNL A   1      43.185  30.807  29.840  1.00  0.00     0.074 A 
ATOM     70  C   UNL A   1      42.117  31.766  30.036  1.00  0.00     0.031 C 
ATOM     71  C   UNL A   1      44.505  31.105  29.932  1.00  0.00     0.037 A 
BRANCH  58  72
ATOM     72  C   UNL A   1      48.208  26.240  29.047  1.00  0.00     0.057 A 
ATOM     73  C   UNL A   1      48.990  26.209  27.884  1.00  0.00     0.134 A 
ATOM     74  C   UNL A   1      48.799  25.779  30.231  1.00  0.00     0.134 A 
ATOM     75  F   UNL A   1      48.485  26.629  26.714  1.00  0.00    -0.206 F 
ATOM     76  C   UNL A   1      50.293  25.707  27.892  1.00  0.00     0.040 A 
ATOM     77  C   UNL A   1      50.112  25.303  30.257  1.00  0.00     0.040 A 
ATOM     78  F   UNL A   1      48.114  25.791  31.384  1.00  0.00    -0.206 F 
ATOM     79  C   UNL A   1      50.860  25.257  29.083  1.00  0.00     0.006 A 
ENDBRANCH  58  72
BRANCH  59  80
ATOM     80  C   UNL A   1      38.751  29.347  29.332  1.00  0.00     0.057 A 
ATOM     81  C   UNL A   1      38.023  29.380  30.528  1.00  0.00     0.134 A 
ATOM     82  C   UNL A   1      38.096  29.764  28.168  1.00  0.00     0.134 A 
ATOM     83  F   UNL A   1      38.588  28.972  31.674  1.00  0.00    -0.206 F 
ATOM     84  C   UNL A   1      36.689  29.789  30.562  1.00  0.00     0.040 A 
ATOM     85  C   UNL A   1      36.770  30.202  28.191  1.00  0.00     0.040 A 
ATOM     86  F   UNL A   1      38.737  29.760  26.991  1.00  0.00    -0.206 F 
ATOM     87  C   UNL A   1      36.060  30.206  29.391  1.00  0.00     0.006 A 
ENDBRANCH  59  80
BRANCH  71  88
ATOM     88  C   UNL A   1      44.870  32.535  30.214  1.00  0.00     0.057 A 
ATOM     89  C   UNL A   1      45.071  33.012  31.517  1.00  0.00     0.134 A 
ATOM     90  C   UNL A   1      45.046  33.445  29.162  1.00  0.00     0.134 A 
ATOM     91  F   UNL A   1      44.908  32.199  32.571  1.00  0.00    -0.206 F 
ATOM     92  C   UNL A   1      45.398  34.347  31.764  1.00  0.00     0.040 A 
ATOM     93  C   UNL A   1      45.405  34.774  29.395  1.00  0.00     0.040 A 
ATOM     94  F   UNL A   1      44.881  33.055  27.889  1.00  0.00    -0.206 F 
ATOM     95  C   UNL A   1      45.572  35.230  30.700  1.00  0.00     0.006 A 
ENDBRANCH  71  88
ENDBRANCH  45  46
ENDBRANCH  37  40
ENDBRANCH  35  36
ENDBRANCH  34  35
ENDBRANCH  33  34
ENDBRANCH   1  33
TORSDOF 15
ENDMDL
