MODEL 1
REMARK VINA RESULT:     -12.2      0.000      0.000
REMARK SMILES Cc1cc(C(=O)N2C[C@@H](C(=O)NCCCCNC(=O)c3ccc(-c4c5nc(c(-c6c(F)cccc6F)c6ccc([nH]6)c(-c6c(F)cccc6F)c6nc(c(-c7c(F)cccc7F)c7ccc4[nH]7)C=C6)C=C5)cc3)[C@H](C3CC3)C2)sc1C
REMARK SMILES IDX 14 1 13 2 12 3 10 4 11 5 9 7 7 8 8 9 78 10 74 11 5 12 6 13
REMARK SMILES IDX 4 14 1 15 2 16 3 17 80 18 79 19 81 20 75 21 76 22 77 23
REMARK SMILES IDX 15 24 16 25 17 26 18 27 19 29 20 30 21 31 73 32 22 33 72 34
REMARK SMILES IDX 23 35 24 36 25 37 66 38 26 39 71 40 65 41 67 42 27 43 70 44
REMARK SMILES IDX 64 45 63 46 28 48 54 49 37 50 53 51 38 52 41 53 52 54 68 55
REMARK SMILES IDX 39 56 40 57 51 59 69 60 42 61 29 62 30 63 35 64 31 65 32 66
REMARK SMILES IDX 34 67 36 68 33 69 55 70 56 71 61 72 57 73 58 74 60 75 62 76
REMARK SMILES IDX 59 77 43 78 44 79 49 80 45 81 46 82 48 83 50 84 47 85
REMARK H PARENT 12 6 17 28 67 47 41 58
REMARK Flexibility Score: inf
ROOT
ATOM      1  C   UNL A   1      31.778  30.421  26.828  1.00  0.00     0.023 C 
ENDROOT
BRANCH   1   2
ATOM      2  C   UNL A   1      33.211  29.931  27.001  1.00  0.00     0.116 C 
BRANCH   2   3
ATOM      3  N   UNL A   1      33.865  29.573  25.757  1.00  0.00    -0.356 N 
ATOM      4  C   UNL A   1      33.625  28.511  24.929  1.00  0.00     0.225 C 
ATOM      5  O   UNL A   1      34.199  28.490  23.839  1.00  0.00    -0.275 OA
ATOM      6  H   UNL A   1      34.584  30.179  25.468  1.00  0.00     0.163 HD
BRANCH   4   7
ATOM      7  C   UNL A   1      32.699  27.393  25.364  1.00  0.00     0.103 C 
ATOM      8  N   UNL A   1      32.492  25.097  25.554  1.00  0.00    -0.337 N 
ATOM      9  C   UNL A   1      33.513  26.123  25.598  1.00  0.00     0.133 C 
ATOM     10  C   UNL A   1      31.529  25.425  24.526  1.00  0.00     0.124 C 
ATOM     11  C   UNL A   1      31.692  26.946  24.276  1.00  0.00     0.026 C 
BRANCH   8  12
ATOM     12  C   UNL A   1      32.298  23.975  26.343  1.00  0.00     0.263 C 
ATOM     13  O   UNL A   1      31.638  24.089  27.381  1.00  0.00    -0.268 OA
BRANCH  12  14
ATOM     14  C   UNL A   1      32.939  22.705  26.011  1.00  0.00     0.093 A 
ATOM     15  C   UNL A   1      36.078  20.790  25.172  1.00  0.00     0.045 C 
ATOM     16  C   UNL A   1      34.663  21.213  25.397  1.00  0.00    -0.037 A 
ATOM     17  C   UNL A   1      34.303  22.477  25.976  1.00  0.00     0.029 A 
ATOM     18  C   UNL A   1      33.533  20.492  25.054  1.00  0.00     0.005 A 
ATOM     19  S   UNL A   1      32.102  21.379  25.331  1.00  0.00    -0.135 S 
ATOM     20  C   UNL A   1      33.445  19.131  24.446  1.00  0.00     0.056 C 
ENDBRANCH  12  14
ENDBRANCH   8  12
BRANCH  11  21
ATOM     21  C   UNL A   1      30.333  27.612  24.255  1.00  0.00    -0.005 C 
ATOM     22  C   UNL A   1      29.677  28.202  23.030  1.00  0.00     0.004 C 
ATOM     23  C   UNL A   1      29.132  26.940  23.645  1.00  0.00     0.004 C 
ENDBRANCH  11  21
ENDBRANCH   4   7
ENDBRANCH   2   3
ENDBRANCH   1   2
BRANCH   1  24
ATOM     24  C   UNL A   1      31.587  31.937  26.789  1.00  0.00     0.023 C 
BRANCH  24  25
ATOM     25  C   UNL A   1      32.757  32.777  27.292  1.00  0.00     0.116 C 
BRANCH  25  26
ATOM     26  N   UNL A   1      32.389  34.138  27.656  1.00  0.00    -0.352 N 
ATOM     27  C   UNL A   1      32.957  35.001  28.566  1.00  0.00     0.251 C 
ATOM     28  H   UNL A   1      31.610  34.499  27.175  1.00  0.00     0.163 HD
ATOM     29  O   UNL A   1      32.437  36.086  28.792  1.00  0.00    -0.269 OA
BRANCH  27  30
ATOM     30  C   UNL A   1      34.167  34.597  29.316  1.00  0.00     0.039 A 
ATOM     31  C   UNL A   1      34.022  34.159  30.634  1.00  0.00     0.014 A 
ATOM     32  C   UNL A   1      35.427  34.608  28.714  1.00  0.00     0.014 A 
ATOM     33  C   UNL A   1      35.120  33.617  31.307  1.00  0.00     0.010 A 
ATOM     34  C   UNL A   1      36.502  33.999  29.356  1.00  0.00     0.010 A 
ATOM     35  C   UNL A   1      36.353  33.471  30.648  1.00  0.00    -0.014 A 
BRANCH  35  36
ATOM     36  C   UNL A   1      37.467  32.707  31.263  1.00  0.00     0.031 A 
ATOM     37  C   UNL A   1      38.086  33.153  32.557  1.00  0.00     0.074 A 
ATOM     38  C   UNL A   1      37.984  31.652  30.600  1.00  0.00     0.049 A 
ATOM     39  N   UNL A   1      39.117  32.659  33.192  1.00  0.00    -0.248 NA
ATOM     40  C   UNL A   1      37.481  34.324  33.210  1.00  0.00     0.031 C 
ATOM     41  C   UNL A   1      37.514  31.150  29.307  1.00  0.00     0.029 A 
ATOM     42  N   UNL A   1      39.031  30.820  30.915  1.00  0.00    -0.354 N 
ATOM     43  C   UNL A   1      39.294  33.462  34.311  1.00  0.00     0.074 A 
ATOM     44  C   UNL A   1      38.291  34.505  34.243  1.00  0.00     0.031 C 
ATOM     45  C   UNL A   1      38.253  30.089  28.950  1.00  0.00     0.029 A 
ATOM     46  C   UNL A   1      39.275  29.857  29.965  1.00  0.00     0.049 A 
ATOM     47  H   UNL A   1      39.556  30.906  31.743  1.00  0.00     0.167 HD
ATOM     48  C   UNL A   1      40.195  33.331  35.312  1.00  0.00     0.037 A 
ATOM     49  C   UNL A   1      40.220  28.901  29.911  1.00  0.00     0.037 A 
ATOM     50  C   UNL A   1      41.179  32.284  35.391  1.00  0.00     0.049 A 
ATOM     51  C   UNL A   1      41.215  28.786  31.031  1.00  0.00     0.074 A 
ATOM     52  C   UNL A   1      42.088  32.028  36.403  1.00  0.00     0.029 A 
ATOM     53  N   UNL A   1      41.386  31.321  34.415  1.00  0.00    -0.354 N 
ATOM     54  N   UNL A   1      41.321  29.507  32.119  1.00  0.00    -0.248 NA
ATOM     55  C   UNL A   1      42.223  27.721  30.914  1.00  0.00     0.031 C 
ATOM     56  C   UNL A   1      42.874  30.935  36.021  1.00  0.00     0.029 A 
ATOM     57  C   UNL A   1      42.427  30.485  34.790  1.00  0.00     0.049 A 
ATOM     58  H   UNL A   1      40.872  31.241  33.580  1.00  0.00     0.167 HD
ATOM     59  C   UNL A   1      42.392  28.975  32.826  1.00  0.00     0.074 A 
ATOM     60  C   UNL A   1      42.891  27.857  32.052  1.00  0.00     0.031 C 
ATOM     61  C   UNL A   1      42.915  29.378  34.009  1.00  0.00     0.037 A 
BRANCH  48  62
ATOM     62  C   UNL A   1      40.154  34.347  36.417  1.00  0.00     0.057 A 
ATOM     63  C   UNL A   1      39.399  34.141  37.578  1.00  0.00     0.134 A 
ATOM     64  C   UNL A   1      40.911  35.523  36.336  1.00  0.00     0.134 A 
ATOM     65  F   UNL A   1      38.644  33.040  37.712  1.00  0.00    -0.206 F 
ATOM     66  C   UNL A   1      39.381  35.079  38.613  1.00  0.00     0.040 A 
ATOM     67  C   UNL A   1      40.920  36.456  37.374  1.00  0.00     0.040 A 
ATOM     68  F   UNL A   1      41.661  35.779  35.254  1.00  0.00    -0.206 F 
ATOM     69  C   UNL A   1      40.148  36.237  38.515  1.00  0.00     0.006 A 
ENDBRANCH  48  62
BRANCH  49  70
ATOM     70  C   UNL A   1      40.267  27.966  28.760  1.00  0.00     0.057 A 
ATOM     71  C   UNL A   1      39.592  26.741  28.800  1.00  0.00     0.134 A 
ATOM     72  C   UNL A   1      40.991  28.267  27.600  1.00  0.00     0.134 A 
ATOM     73  F   UNL A   1      38.899  26.389  29.892  1.00  0.00    -0.206 F 
ATOM     74  C   UNL A   1      39.649  25.839  27.735  1.00  0.00     0.040 A 
ATOM     75  C   UNL A   1      41.038  27.385  26.518  1.00  0.00     0.040 A 
ATOM     76  F   UNL A   1      41.655  29.428  27.498  1.00  0.00    -0.206 F 
ATOM     77  C   UNL A   1      40.370  26.164  26.588  1.00  0.00     0.006 A 
ENDBRANCH  49  70
BRANCH  61  78
ATOM     78  C   UNL A   1      44.076  28.594  34.544  1.00  0.00     0.057 A 
ATOM     79  C   UNL A   1      43.893  27.495  35.393  1.00  0.00     0.134 A 
ATOM     80  C   UNL A   1      45.389  28.920  34.180  1.00  0.00     0.134 A 
ATOM     81  F   UNL A   1      42.661  27.141  35.790  1.00  0.00    -0.206 F 
ATOM     82  C   UNL A   1      44.976  26.761  35.879  1.00  0.00     0.040 A 
ATOM     83  C   UNL A   1      46.478  28.180  34.640  1.00  0.00     0.040 A 
ATOM     84  F   UNL A   1      45.632  29.957  33.365  1.00  0.00    -0.206 F 
ATOM     85  C   UNL A   1      46.273  27.099  35.496  1.00  0.00     0.006 A 
ENDBRANCH  61  78
ENDBRANCH  35  36
ENDBRANCH  27  30
ENDBRANCH  25  26
ENDBRANCH  24  25
ENDBRANCH   1  24
TORSDOF 14
ENDMDL
MODEL 2
REMARK VINA RESULT:     -12.1      0.516      6.176
REMARK SMILES Cc1cc(C(=O)N2C[C@@H](C(=O)NCCCCNC(=O)c3ccc(-c4c5nc(c(-c6c(F)cccc6F)c6ccc([nH]6)c(-c6c(F)cccc6F)c6nc(c(-c7c(F)cccc7F)c7ccc4[nH]7)C=C6)C=C5)cc3)[C@H](C3CC3)C2)sc1C
REMARK SMILES IDX 14 1 13 2 12 3 10 4 11 5 9 7 7 8 8 9 78 10 74 11 5 12 6 13
REMARK SMILES IDX 4 14 1 15 2 16 3 17 80 18 79 19 81 20 75 21 76 22 77 23
REMARK SMILES IDX 15 24 16 25 17 26 18 27 19 29 20 30 21 31 73 32 22 33 72 34
REMARK SMILES IDX 23 35 24 36 25 37 66 38 26 39 71 40 65 41 67 42 27 43 70 44
REMARK SMILES IDX 64 45 63 46 28 48 54 49 37 50 53 51 38 52 41 53 52 54 68 55
REMARK SMILES IDX 39 56 40 57 51 59 69 60 42 61 29 62 30 63 35 64 31 65 32 66
REMARK SMILES IDX 34 67 36 68 33 69 55 70 56 71 61 72 57 73 58 74 60 75 62 76
REMARK SMILES IDX 59 77 43 78 44 79 49 80 45 81 46 82 48 83 50 84 47 85
REMARK H PARENT 12 6 17 28 67 47 41 58
REMARK Flexibility Score: inf
ROOT
ATOM      1  C   UNL A   1      32.011  30.121  26.913  1.00  0.00     0.023 C 
ENDROOT
BRANCH   1   2
ATOM      2  C   UNL A   1      33.452  29.632  26.976  1.00  0.00     0.116 C 
BRANCH   2   3
ATOM      3  N   UNL A   1      34.019  29.296  25.683  1.00  0.00    -0.356 N 
ATOM      4  C   UNL A   1      33.698  28.267  24.842  1.00  0.00     0.225 C 
ATOM      5  O   UNL A   1      34.203  28.265  23.717  1.00  0.00    -0.275 OA
ATOM      6  H   UNL A   1      34.734  29.893  25.368  1.00  0.00     0.163 HD
BRANCH   4   7
ATOM      7  C   UNL A   1      32.772  27.159  25.301  1.00  0.00     0.103 C 
ATOM      8  N   UNL A   1      32.536  24.865  25.479  1.00  0.00    -0.337 N 
ATOM      9  C   UNL A   1      33.574  25.875  25.494  1.00  0.00     0.133 C 
ATOM     10  C   UNL A   1      31.541  25.217  24.489  1.00  0.00     0.124 C 
ATOM     11  C   UNL A   1      31.719  26.737  24.246  1.00  0.00     0.026 C 
BRANCH   8  12
ATOM     12  C   UNL A   1      32.353  23.739  26.266  1.00  0.00     0.263 C 
ATOM     13  O   UNL A   1      31.673  23.839  27.292  1.00  0.00    -0.268 OA
BRANCH  12  14
ATOM     14  C   UNL A   1      33.028  22.484  25.945  1.00  0.00     0.093 A 
ATOM     15  C   UNL A   1      36.217  20.647  25.118  1.00  0.00     0.045 C 
ATOM     16  C   UNL A   1      34.791  21.034  25.342  1.00  0.00    -0.037 A 
ATOM     17  C   UNL A   1      34.398  22.293  25.908  1.00  0.00     0.029 A 
ATOM     18  C   UNL A   1      33.680  20.277  25.012  1.00  0.00     0.005 A 
ATOM     19  S   UNL A   1      32.226  21.127  25.284  1.00  0.00    -0.135 S 
ATOM     20  C   UNL A   1      33.628  18.907  24.420  1.00  0.00     0.056 C 
ENDBRANCH  12  14
ENDBRANCH   8  12
BRANCH  11  21
ATOM     21  C   UNL A   1      30.371  27.425  24.281  1.00  0.00    -0.005 C 
ATOM     22  C   UNL A   1      29.637  27.951  23.071  1.00  0.00     0.004 C 
ATOM     23  C   UNL A   1      29.121  26.738  23.798  1.00  0.00     0.004 C 
ENDBRANCH  11  21
ENDBRANCH   4   7
ENDBRANCH   2   3
ENDBRANCH   1   2
BRANCH   1  24
ATOM     24  C   UNL A   1      31.819  31.630  26.772  1.00  0.00     0.023 C 
BRANCH  24  25
ATOM     25  C   UNL A   1      32.906  32.508  27.386  1.00  0.00     0.116 C 
BRANCH  25  26
ATOM     26  N   UNL A   1      32.480  33.876  27.644  1.00  0.00    -0.352 N 
ATOM     27  C   UNL A   1      32.998  34.824  28.498  1.00  0.00     0.251 C 
ATOM     28  H   UNL A   1      31.698  34.171  27.124  1.00  0.00     0.163 HD
ATOM     29  O   UNL A   1      32.433  35.901  28.635  1.00  0.00    -0.269 OA
BRANCH  27  30
ATOM     30  C   UNL A   1      34.207  34.522  29.295  1.00  0.00     0.039 A 
ATOM     31  C   UNL A   1      34.049  34.087  30.614  1.00  0.00     0.014 A 
ATOM     32  C   UNL A   1      35.484  34.623  28.738  1.00  0.00     0.014 A 
ATOM     33  C   UNL A   1      35.160  33.638  31.332  1.00  0.00     0.010 A 
ATOM     34  C   UNL A   1      36.578  34.105  29.426  1.00  0.00     0.010 A 
ATOM     35  C   UNL A   1      36.422  33.581  30.719  1.00  0.00    -0.014 A 
BRANCH  35  36
ATOM     36  C   UNL A   1      37.569  32.911  31.383  1.00  0.00     0.031 A 
ATOM     37  C   UNL A   1      38.216  31.703  30.768  1.00  0.00     0.074 A 
ATOM     38  C   UNL A   1      37.971  33.344  32.595  1.00  0.00     0.049 A 
ATOM     39  N   UNL A   1      39.167  30.943  31.246  1.00  0.00    -0.248 NA
ATOM     40  C   UNL A   1      37.709  31.278  29.454  1.00  0.00     0.031 C 
ATOM     41  C   UNL A   1      37.389  34.470  33.329  1.00  0.00     0.029 A 
ATOM     42  N   UNL A   1      38.955  32.878  33.433  1.00  0.00    -0.354 N 
ATOM     43  C   UNL A   1      39.367  29.945  30.301  1.00  0.00     0.074 A 
ATOM     44  C   UNL A   1      38.404  30.169  29.243  1.00  0.00     0.031 C 
ATOM     45  C   UNL A   1      38.038  34.620  34.494  1.00  0.00     0.029 A 
ATOM     46  C   UNL A   1      39.053  33.580  34.611  1.00  0.00     0.049 A 
ATOM     47  H   UNL A   1      39.534  32.114  33.211  1.00  0.00     0.167 HD
ATOM     48  C   UNL A   1      40.281  28.947  30.306  1.00  0.00     0.037 A 
ATOM     49  C   UNL A   1      39.862  33.399  35.672  1.00  0.00     0.037 A 
ATOM     50  C   UNL A   1      41.251  28.735  31.347  1.00  0.00     0.049 A 
ATOM     51  C   UNL A   1      40.859  32.276  35.655  1.00  0.00     0.074 A 
ATOM     52  C   UNL A   1      42.263  27.793  31.405  1.00  0.00     0.029 A 
ATOM     53  N   UNL A   1      41.326  29.474  32.519  1.00  0.00    -0.354 N 
ATOM     54  N   UNL A   1      41.085  31.386  34.720  1.00  0.00    -0.248 NA
ATOM     55  C   UNL A   1      41.715  32.132  36.842  1.00  0.00     0.031 C 
ATOM     56  C   UNL A   1      42.925  27.934  32.630  1.00  0.00     0.029 A 
ATOM     57  C   UNL A   1      42.352  28.991  33.317  1.00  0.00     0.049 A 
ATOM     58  H   UNL A   1      40.739  30.229  32.750  1.00  0.00     0.167 HD
ATOM     59  C   UNL A   1      42.118  30.590  35.195  1.00  0.00     0.074 A 
ATOM     60  C   UNL A   1      42.489  31.114  36.494  1.00  0.00     0.031 C 
ATOM     61  C   UNL A   1      42.707  29.520  34.608  1.00  0.00     0.037 A 
BRANCH  48  62
ATOM     62  C   UNL A   1      40.281  28.004  29.137  1.00  0.00     0.057 A 
ATOM     63  C   UNL A   1      39.508  26.836  29.135  1.00  0.00     0.134 A 
ATOM     64  C   UNL A   1      41.027  28.289  27.987  1.00  0.00     0.134 A 
ATOM     65  F   UNL A   1      38.780  26.501  30.211  1.00  0.00    -0.206 F 
ATOM     66  C   UNL A   1      39.493  25.973  28.038  1.00  0.00     0.040 A 
ATOM     67  C   UNL A   1      41.002  27.446  26.874  1.00  0.00     0.040 A 
ATOM     68  F   UNL A   1      41.784  29.395  27.921  1.00  0.00    -0.206 F 
ATOM     69  C   UNL A   1      40.237  26.281  26.900  1.00  0.00     0.006 A 
ENDBRANCH  48  62
BRANCH  49  70
ATOM     70  C   UNL A   1      39.772  34.313  36.838  1.00  0.00     0.057 A 
ATOM     71  C   UNL A   1      39.013  33.970  37.963  1.00  0.00     0.134 A 
ATOM     72  C   UNL A   1      40.431  35.548  36.855  1.00  0.00     0.134 A 
ATOM     73  F   UNL A   1      38.344  32.809  37.997  1.00  0.00    -0.206 F 
ATOM     74  C   UNL A   1      38.898  34.831  39.057  1.00  0.00     0.040 A 
ATOM     75  C   UNL A   1      40.343  36.408  37.951  1.00  0.00     0.040 A 
ATOM     76  F   UNL A   1      41.179  35.931  35.809  1.00  0.00    -0.206 F 
ATOM     77  C   UNL A   1      39.569  36.052  39.053  1.00  0.00     0.006 A 
ENDBRANCH  49  70
BRANCH  61  78
ATOM     78  C   UNL A   1      43.822  28.856  35.360  1.00  0.00     0.057 A 
ATOM     79  C   UNL A   1      45.158  29.237  35.181  1.00  0.00     0.134 A 
ATOM     80  C   UNL A   1      43.555  27.849  36.296  1.00  0.00     0.134 A 
ATOM     81  F   UNL A   1      45.481  30.185  34.289  1.00  0.00    -0.206 F 
ATOM     82  C   UNL A   1      46.192  28.625  35.893  1.00  0.00     0.040 A 
ATOM     83  C   UNL A   1      44.577  27.246  37.030  1.00  0.00     0.040 A 
ATOM     84  F   UNL A   1      42.296  27.443  36.519  1.00  0.00    -0.206 F 
ATOM     85  C   UNL A   1      45.901  27.631  36.825  1.00  0.00     0.006 A 
ENDBRANCH  61  78
ENDBRANCH  35  36
ENDBRANCH  27  30
ENDBRANCH  25  26
ENDBRANCH  24  25
ENDBRANCH   1  24
TORSDOF 14
ENDMDL
MODEL 3
REMARK VINA RESULT:     -12.1      4.839     10.122
REMARK SMILES Cc1cc(C(=O)N2C[C@@H](C(=O)NCCCCNC(=O)c3ccc(-c4c5nc(c(-c6c(F)cccc6F)c6ccc([nH]6)c(-c6c(F)cccc6F)c6nc(c(-c7c(F)cccc7F)c7ccc4[nH]7)C=C6)C=C5)cc3)[C@H](C3CC3)C2)sc1C
REMARK SMILES IDX 14 1 13 2 12 3 10 4 11 5 9 7 7 8 8 9 78 10 74 11 5 12 6 13
REMARK SMILES IDX 4 14 1 15 2 16 3 17 80 18 79 19 81 20 75 21 76 22 77 23
REMARK SMILES IDX 15 24 16 25 17 26 18 27 19 29 20 30 21 31 73 32 22 33 72 34
REMARK SMILES IDX 23 35 24 36 25 37 66 38 26 39 71 40 65 41 67 42 27 43 70 44
REMARK SMILES IDX 64 45 63 46 28 48 54 49 37 50 53 51 38 52 41 53 52 54 68 55
REMARK SMILES IDX 39 56 40 57 51 59 69 60 42 61 29 62 30 63 35 64 31 65 32 66
REMARK SMILES IDX 34 67 36 68 33 69 55 70 56 71 61 72 57 73 58 74 60 75 62 76
REMARK SMILES IDX 59 77 43 78 44 79 49 80 45 81 46 82 48 83 50 84 47 85
REMARK H PARENT 12 6 17 28 67 47 41 58
REMARK Flexibility Score: inf
ROOT
ATOM      1  C   UNL A   1      37.366  21.484  24.384  1.00  0.00     0.023 C 
ENDROOT
BRANCH   1   2
ATOM      2  C   UNL A   1      37.434  22.775  25.190  1.00  0.00     0.116 C 
BRANCH   2   3
ATOM      3  N   UNL A   1      36.428  22.874  26.231  1.00  0.00    -0.356 N 
ATOM      4  C   UNL A   1      35.099  23.181  26.121  1.00  0.00     0.225 C 
ATOM      5  O   UNL A   1      34.395  23.053  27.124  1.00  0.00    -0.275 OA
ATOM      6  H   UNL A   1      36.746  22.696  27.144  1.00  0.00     0.163 HD
BRANCH   4   7
ATOM      7  C   UNL A   1      34.534  23.684  24.809  1.00  0.00     0.103 C 
ATOM      8  N   UNL A   1      33.259  25.350  23.832  1.00  0.00    -0.337 N 
ATOM      9  C   UNL A   1      34.161  25.157  24.949  1.00  0.00     0.133 C 
ATOM     10  C   UNL A   1      32.428  24.176  23.682  1.00  0.00     0.124 C 
ATOM     11  C   UNL A   1      33.183  23.036  24.413  1.00  0.00     0.026 C 
BRANCH   8  12
ATOM     12  C   UNL A   1      33.146  26.391  22.926  1.00  0.00     0.263 C 
ATOM     13  O   UNL A   1      33.765  26.319  21.860  1.00  0.00    -0.268 OA
BRANCH  12  14
ATOM     14  C   UNL A   1      32.390  27.596  23.261  1.00  0.00     0.093 A 
ATOM     15  C   UNL A   1      31.597  30.331  25.735  1.00  0.00     0.045 C 
ATOM     16  C   UNL A   1      31.599  29.396  24.570  1.00  0.00    -0.037 A 
ATOM     17  C   UNL A   1      32.628  28.419  24.348  1.00  0.00     0.029 A 
ATOM     18  C   UNL A   1      30.623  29.310  23.593  1.00  0.00     0.005 A 
ATOM     19  S   UNL A   1      30.908  28.014  22.520  1.00  0.00    -0.135 S 
ATOM     20  C   UNL A   1      29.393  30.139  23.429  1.00  0.00     0.056 C 
ENDBRANCH  12  14
ENDBRANCH   8  12
BRANCH  11  21
ATOM     21  C   UNL A   1      33.222  21.801  23.538  1.00  0.00    -0.005 C 
ATOM     22  C   UNL A   1      32.463  20.525  23.810  1.00  0.00     0.004 C 
ATOM     23  C   UNL A   1      32.059  21.415  22.664  1.00  0.00     0.004 C 
ENDBRANCH  11  21
ENDBRANCH   4   7
ENDBRANCH   2   3
ENDBRANCH   1   2
BRANCH   1  24
ATOM     24  C   UNL A   1      37.937  20.239  25.060  1.00  0.00     0.023 C 
BRANCH  24  25
ATOM     25  C   UNL A   1      39.149  20.457  25.960  1.00  0.00     0.116 C 
BRANCH  25  26
ATOM     26  N   UNL A   1      40.127  19.380  25.899  1.00  0.00    -0.352 N 
ATOM     27  C   UNL A   1      41.487  19.397  26.117  1.00  0.00     0.251 C 
ATOM     28  H   UNL A   1      39.758  18.498  25.665  1.00  0.00     0.163 HD
ATOM     29  O   UNL A   1      42.153  18.388  25.927  1.00  0.00    -0.269 OA
BRANCH  27  30
ATOM     30  C   UNL A   1      42.155  20.651  26.528  1.00  0.00     0.039 A 
ATOM     31  C   UNL A   1      42.716  21.466  25.541  1.00  0.00     0.014 A 
ATOM     32  C   UNL A   1      42.192  21.046  27.868  1.00  0.00     0.014 A 
ATOM     33  C   UNL A   1      43.204  22.730  25.883  1.00  0.00     0.010 A 
ATOM     34  C   UNL A   1      42.609  22.333  28.196  1.00  0.00     0.010 A 
ATOM     35  C   UNL A   1      43.092  23.199  27.202  1.00  0.00    -0.014 A 
BRANCH  35  36
ATOM     36  C   UNL A   1      43.403  24.610  27.545  1.00  0.00     0.031 A 
ATOM     37  C   UNL A   1      44.824  25.086  27.633  1.00  0.00     0.074 A 
ATOM     38  C   UNL A   1      42.394  25.445  27.867  1.00  0.00     0.049 A 
ATOM     39  N   UNL A   1      45.282  26.255  28.000  1.00  0.00    -0.248 NA
ATOM     40  C   UNL A   1      45.871  24.112  27.286  1.00  0.00     0.031 C 
ATOM     41  C   UNL A   1      40.972  25.092  27.878  1.00  0.00     0.029 A 
ATOM     42  N   UNL A   1      42.409  26.759  28.264  1.00  0.00    -0.354 N 
ATOM     43  C   UNL A   1      46.665  26.156  27.942  1.00  0.00     0.074 A 
ATOM     44  C   UNL A   1      46.974  24.797  27.548  1.00  0.00     0.031 C 
ATOM     45  C   UNL A   1      40.254  26.166  28.241  1.00  0.00     0.029 A 
ATOM     46  C   UNL A   1      41.161  27.271  28.528  1.00  0.00     0.049 A 
ATOM     47  H   UNL A   1      43.238  27.286  28.351  1.00  0.00     0.167 HD
ATOM     48  C   UNL A   1      47.592  27.115  28.174  1.00  0.00     0.037 A 
ATOM     49  C   UNL A   1      40.789  28.489  28.963  1.00  0.00     0.037 A 
ATOM     50  C   UNL A   1      47.286  28.471  28.546  1.00  0.00     0.049 A 
ATOM     51  C   UNL A   1      41.839  29.530  29.225  1.00  0.00     0.074 A 
ATOM     52  C   UNL A   1      48.155  29.532  28.734  1.00  0.00     0.029 A 
ATOM     53  N   UNL A   1      46.009  28.953  28.793  1.00  0.00    -0.354 N 
ATOM     54  N   UNL A   1      43.140  29.443  29.092  1.00  0.00    -0.248 NA
ATOM     55  C   UNL A   1      41.369  30.841  29.696  1.00  0.00     0.031 C 
ATOM     56  C   UNL A   1      47.409  30.645  29.135  1.00  0.00     0.029 A 
ATOM     57  C   UNL A   1      46.071  30.290  29.156  1.00  0.00     0.049 A 
ATOM     58  H   UNL A   1      45.182  28.426  28.720  1.00  0.00     0.167 HD
ATOM     59  C   UNL A   1      43.643  30.688  29.445  1.00  0.00     0.074 A 
ATOM     60  C   UNL A   1      42.505  31.521  29.779  1.00  0.00     0.031 C 
ATOM     61  C   UNL A   1      44.931  31.105  29.489  1.00  0.00     0.037 A 
BRANCH  48  62
ATOM     62  C   UNL A   1      49.036  26.732  28.026  1.00  0.00     0.057 A 
ATOM     63  C   UNL A   1      49.803  26.314  29.121  1.00  0.00     0.134 A 
ATOM     64  C   UNL A   1      49.653  26.739  26.769  1.00  0.00     0.134 A 
ATOM     65  F   UNL A   1      49.273  26.296  30.354  1.00  0.00    -0.206 F 
ATOM     66  C   UNL A   1      51.139  25.937  28.976  1.00  0.00     0.040 A 
ATOM     67  C   UNL A   1      50.982  26.341  26.607  1.00  0.00     0.040 A 
ATOM     68  F   UNL A   1      48.974  27.122  25.677  1.00  0.00    -0.206 F 
ATOM     69  C   UNL A   1      51.730  25.944  27.714  1.00  0.00     0.006 A 
ENDBRANCH  48  62
BRANCH  49  70
ATOM     70  C   UNL A   1      39.352  28.797  29.168  1.00  0.00     0.057 A 
ATOM     71  C   UNL A   1      38.573  29.319  28.129  1.00  0.00     0.134 A 
ATOM     72  C   UNL A   1      38.726  28.590  30.403  1.00  0.00     0.134 A 
ATOM     73  F   UNL A   1      39.121  29.558  26.929  1.00  0.00    -0.206 F 
ATOM     74  C   UNL A   1      37.226  29.639  28.315  1.00  0.00     0.040 A 
ATOM     75  C   UNL A   1      37.375  28.884  30.596  1.00  0.00     0.040 A 
ATOM     76  F   UNL A   1      39.418  28.087  31.436  1.00  0.00    -0.206 F 
ATOM     77  C   UNL A   1      36.623  29.416  29.551  1.00  0.00     0.006 A 
ENDBRANCH  49  70
BRANCH  61  78
ATOM     78  C   UNL A   1      45.176  32.527  29.898  1.00  0.00     0.057 A 
ATOM     79  C   UNL A   1      45.169  33.571  28.965  1.00  0.00     0.134 A 
ATOM     80  C   UNL A   1      45.387  32.859  31.242  1.00  0.00     0.134 A 
ATOM     81  F   UNL A   1      44.987  33.317  27.661  1.00  0.00    -0.206 F 
ATOM     82  C   UNL A   1      45.385  34.896  29.353  1.00  0.00     0.040 A 
ATOM     83  C   UNL A   1      45.581  34.180  31.645  1.00  0.00     0.040 A 
ATOM     84  F   UNL A   1      45.399  31.906  32.186  1.00  0.00    -0.206 F 
ATOM     85  C   UNL A   1      45.585  35.203  30.697  1.00  0.00     0.006 A 
ENDBRANCH  61  78
ENDBRANCH  35  36
ENDBRANCH  27  30
ENDBRANCH  25  26
ENDBRANCH  24  25
ENDBRANCH   1  24
TORSDOF 14
ENDMDL
