MODEL 1
REMARK VINA RESULT:     -12.8      0.000      0.000
REMARK SMILES NC(=O)C[C@H](NC(=O)C1(c2ccccc2)CCN(C(=O)[C@@H]2CCC[NH2+]2)CC1)C(=O)NCCCCNC(=O)c1ccc(-c2c3nc(c(-c4c(F)cccc4F)c4ccc([nH]4)c(-c4c(F)cccc4F)c4nc(c(-c5c(F)cccc5F)c5ccc2[nH]5)C=C4)C=C3)cc1
REMARK SMILES IDX 32 1 31 2 30 3 28 4 29 5 5 7 4 8 2 9 1 10 3 13 6 14 7 15
REMARK SMILES IDX 8 17 9 18 16 19 27 20 17 21 26 22 18 23 19 24 20 25 10 26
REMARK SMILES IDX 11 27 15 28 12 29 14 30 13 31 21 32 22 33 25 34 23 35 24 36
REMARK SMILES IDX 33 39 34 40 35 41 36 42 37 44 38 45 39 46 91 47 40 48 90 49
REMARK SMILES IDX 41 50 42 51 43 52 84 53 44 54 89 55 83 56 85 57 45 58 88 59
REMARK SMILES IDX 82 60 81 61 46 63 72 64 55 65 71 66 56 67 59 68 70 69 86 70
REMARK SMILES IDX 57 71 58 72 69 74 87 75 60 76 47 77 48 78 53 79 49 80 50 81
REMARK SMILES IDX 52 82 54 83 51 84 73 85 74 86 79 87 75 88 76 89 78 90 80 91
REMARK SMILES IDX 77 92 61 93 62 94 67 95 63 96 64 97 66 98 68 99 65 100
REMARK H PARENT 30 6 1 11 1 12 6 16 25 37 25 38 35 43 85 62 59 73
REMARK Flexibility Score: inf
ROOT
ATOM      1  C   UNL A   1      34.437  32.981  29.026  1.00  0.00     0.023 C 
ENDROOT
BRANCH   1   2
ATOM      2  C   UNL A   1      34.611  32.072  27.830  1.00  0.00     0.116 C 
BRANCH   2   3
ATOM      3  N   UNL A   1      34.315  30.692  28.086  1.00  0.00    -0.354 N 
ATOM      4  C   UNL A   1      33.811  29.756  27.249  1.00  0.00     0.243 C 
ATOM      5  O   UNL A   1      33.912  28.585  27.639  1.00  0.00    -0.273 OA
ATOM      6  H   UNL A   1      34.507  30.381  29.000  1.00  0.00     0.163 HD
BRANCH   4   7
ATOM      7  C   UNL A   1      33.038  30.069  25.930  1.00  0.00     0.180 C 
BRANCH   7   8
ATOM      8  C   UNL A   1      31.581  30.415  26.340  1.00  0.00     0.134 C 
BRANCH   8   9
ATOM      9  C   UNL A   1      31.117  31.824  26.060  1.00  0.00     0.220 C 
ATOM     10  N   UNL A   1      30.318  31.942  24.958  1.00  0.00    -0.370 N 
ATOM     11  H   UNL A   1      29.967  32.825  24.698  1.00  0.00     0.159 HD
ATOM     12  H   UNL A   1      30.094  31.146  24.425  1.00  0.00     0.159 HD
ATOM     13  O   UNL A   1      31.393  32.798  26.745  1.00  0.00    -0.275 OA
ENDBRANCH   8   9
ENDBRANCH   7   8
BRANCH   7  14
ATOM     14  N   UNL A   1      33.233  29.463  24.576  1.00  0.00    -0.343 N 
ATOM     15  C   UNL A   1      32.683  28.823  23.521  1.00  0.00     0.231 C 
ATOM     16  H   UNL A   1      34.186  29.585  24.357  1.00  0.00     0.164 HD
ATOM     17  O   UNL A   1      33.361  29.005  22.493  1.00  0.00    -0.274 OA
BRANCH  15  18
ATOM     18  C   UNL A   1      31.447  27.849  23.427  1.00  0.00     0.077 C 
ATOM     19  C   UNL A   1      31.069  27.438  24.894  1.00  0.00     0.043 C 
ATOM     20  C   UNL A   1      31.730  26.546  22.667  1.00  0.00     0.043 C 
ATOM     21  C   UNL A   1      32.069  26.474  25.548  1.00  0.00     0.121 C 
ATOM     22  C   UNL A   1      32.802  25.744  23.348  1.00  0.00     0.121 C 
ATOM     23  N   UNL A   1      32.417  25.348  24.674  1.00  0.00    -0.337 N 
ATOM     24  C   UNL A   1      32.645  24.091  25.224  1.00  0.00     0.280 C 
ATOM     25  O   UNL A   1      32.507  23.899  26.437  1.00  0.00    -0.268 OA
BRANCH  18  26
ATOM     26  C   UNL A   1      30.174  28.587  22.872  1.00  0.00    -0.032 A 
ATOM     27  C   UNL A   1      28.868  28.215  23.254  1.00  0.00     0.005 A 
ATOM     28  C   UNL A   1      30.281  29.739  22.063  1.00  0.00     0.005 A 
ATOM     29  C   UNL A   1      27.745  28.943  22.846  1.00  0.00     0.000 A 
ATOM     30  C   UNL A   1      29.152  30.450  21.633  1.00  0.00     0.000 A 
ATOM     31  C   UNL A   1      27.883  30.050  22.022  1.00  0.00     0.000 A 
ENDBRANCH  18  26
BRANCH  24  32
ATOM     32  C   UNL A   1      33.108  22.907  24.330  1.00  0.00     0.272 C 
ATOM     33  C   UNL A   1      32.057  21.848  24.033  1.00  0.00     0.081 C 
ATOM     34  N   UNL A   1      34.304  22.200  24.849  1.00  0.00    -0.336 N 
ATOM     35  C   UNL A   1      32.872  20.583  23.835  1.00  0.00     0.068 C 
ATOM     36  C   UNL A   1      34.072  20.758  24.748  1.00  0.00     0.261 C 
ATOM     37  H   UNL A   1      34.459  22.456  25.824  1.00  0.00     0.346 HD
ATOM     38  H   UNL A   1      35.127  22.460  24.306  1.00  0.00     0.346 HD
ENDBRANCH  24  32
ENDBRANCH  15  18
ENDBRANCH   7  14
ENDBRANCH   4   7
ENDBRANCH   2   3
ENDBRANCH   1   2
BRANCH   1  39
ATOM     39  C   UNL A   1      33.497  34.155  28.794  1.00  0.00     0.023 C 
BRANCH  39  40
ATOM     40  C   UNL A   1      33.845  35.434  29.549  1.00  0.00     0.116 C 
BRANCH  40  41
ATOM     41  N   UNL A   1      32.765  35.955  30.379  1.00  0.00    -0.352 N 
ATOM     42  C   UNL A   1      32.637  35.879  31.750  1.00  0.00     0.251 C 
ATOM     43  H   UNL A   1      32.038  36.417  29.902  1.00  0.00     0.163 HD
ATOM     44  O   UNL A   1      31.667  36.321  32.344  1.00  0.00    -0.269 OA
BRANCH  42  45
ATOM     45  C   UNL A   1      33.694  35.183  32.496  1.00  0.00     0.039 A 
ATOM     46  C   UNL A   1      33.456  33.870  32.905  1.00  0.00     0.014 A 
ATOM     47  C   UNL A   1      34.948  35.779  32.640  1.00  0.00     0.014 A 
ATOM     48  C   UNL A   1      34.519  33.104  33.371  1.00  0.00     0.010 A 
ATOM     49  C   UNL A   1      36.017  34.992  33.033  1.00  0.00     0.010 A 
ATOM     50  C   UNL A   1      35.813  33.645  33.380  1.00  0.00    -0.014 A 
BRANCH  50  51
ATOM     51  C   UNL A   1      36.993  32.826  33.732  1.00  0.00     0.031 A 
ATOM     52  C   UNL A   1      37.722  33.115  35.007  1.00  0.00     0.074 A 
ATOM     53  C   UNL A   1      37.463  31.924  32.849  1.00  0.00     0.049 A 
ATOM     54  N   UNL A   1      38.881  32.673  35.415  1.00  0.00    -0.248 NA
ATOM     55  C   UNL A   1      37.077  34.067  35.928  1.00  0.00     0.031 C 
ATOM     56  C   UNL A   1      36.848  31.595  31.561  1.00  0.00     0.029 A 
ATOM     57  N   UNL A   1      38.585  31.137  32.892  1.00  0.00    -0.354 N 
ATOM     58  C   UNL A   1      39.121  33.320  36.620  1.00  0.00     0.074 A 
ATOM     59  C   UNL A   1      38.010  34.214  36.856  1.00  0.00     0.031 C 
ATOM     60  C   UNL A   1      37.596  30.667  30.941  1.00  0.00     0.029 A 
ATOM     61  C   UNL A   1      38.763  30.372  31.764  1.00  0.00     0.049 A 
ATOM     62  H   UNL A   1      39.204  31.122  33.657  1.00  0.00     0.167 HD
ATOM     63  C   UNL A   1      40.171  33.164  37.459  1.00  0.00     0.037 A 
ATOM     64  C   UNL A   1      39.769  29.542  31.430  1.00  0.00     0.037 A 
ATOM     65  C   UNL A   1      41.247  32.240  37.226  1.00  0.00     0.049 A 
ATOM     66  C   UNL A   1      40.915  29.372  32.389  1.00  0.00     0.074 A 
ATOM     67  C   UNL A   1      42.332  31.958  38.034  1.00  0.00     0.029 A 
ATOM     68  N   UNL A   1      41.362  31.438  36.099  1.00  0.00    -0.354 N 
ATOM     69  N   UNL A   1      41.114  29.957  33.546  1.00  0.00    -0.248 NA
ATOM     70  C   UNL A   1      41.972  28.430  32.001  1.00  0.00     0.031 C 
ATOM     71  C   UNL A   1      43.122  31.006  37.382  1.00  0.00     0.029 A 
ATOM     72  C   UNL A   1      42.507  30.666  36.187  1.00  0.00     0.049 A 
ATOM     73  H   UNL A   1      40.725  31.421  35.349  1.00  0.00     0.167 HD
ATOM     74  C   UNL A   1      42.299  29.430  34.040  1.00  0.00     0.074 A 
ATOM     75  C   UNL A   1      42.774  28.478  33.056  1.00  0.00     0.031 C 
ATOM     76  C   UNL A   1      42.937  29.707  35.203  1.00  0.00     0.037 A 
BRANCH  63  77
ATOM     77  C   UNL A   1      40.195  34.011  38.696  1.00  0.00     0.057 A 
ATOM     78  C   UNL A   1      40.843  35.253  38.730  1.00  0.00     0.134 A 
ATOM     79  C   UNL A   1      39.559  33.583  39.867  1.00  0.00     0.134 A 
ATOM     80  F   UNL A   1      41.488  35.712  37.646  1.00  0.00    -0.206 F 
ATOM     81  C   UNL A   1      40.882  36.025  39.891  1.00  0.00     0.040 A 
ATOM     82  C   UNL A   1      39.566  34.359  41.027  1.00  0.00     0.040 A 
ATOM     83  F   UNL A   1      38.919  32.404  39.904  1.00  0.00    -0.206 F 
ATOM     84  C   UNL A   1      40.236  35.581  41.043  1.00  0.00     0.006 A 
ENDBRANCH  63  77
BRANCH  64  85
ATOM     85  C   UNL A   1      39.728  28.799  30.146  1.00  0.00     0.057 A 
ATOM     86  C   UNL A   1      39.147  27.528  30.071  1.00  0.00     0.134 A 
ATOM     87  C   UNL A   1      40.253  29.337  28.966  1.00  0.00     0.134 A 
ATOM     88  F   UNL A   1      38.639  26.953  31.171  1.00  0.00    -0.206 F 
ATOM     89  C   UNL A   1      39.106  26.810  28.875  1.00  0.00     0.040 A 
ATOM     90  C   UNL A   1      40.200  28.640  27.757  1.00  0.00     0.040 A 
ATOM     91  F   UNL A   1      40.813  30.556  28.967  1.00  0.00    -0.206 F 
ATOM     92  C   UNL A   1      39.631  27.369  27.711  1.00  0.00     0.006 A 
ENDBRANCH  64  85
BRANCH  76  93
ATOM     93  C   UNL A   1      44.184  28.934  35.503  1.00  0.00     0.057 A 
ATOM     94  C   UNL A   1      45.448  29.395  35.119  1.00  0.00     0.134 A 
ATOM     95  C   UNL A   1      44.119  27.755  36.256  1.00  0.00     0.134 A 
ATOM     96  F   UNL A   1      45.571  30.511  34.386  1.00  0.00    -0.206 F 
ATOM     97  C   UNL A   1      46.609  28.703  35.469  1.00  0.00     0.040 A 
ATOM     98  C   UNL A   1      45.273  27.067  36.631  1.00  0.00     0.040 A 
ATOM     99  F   UNL A   1      42.936  27.269  36.660  1.00  0.00    -0.206 F 
ATOM    100  C   UNL A   1      46.522  27.542  36.236  1.00  0.00     0.006 A 
ENDBRANCH  76  93
ENDBRANCH  50  51
ENDBRANCH  42  45
ENDBRANCH  40  41
ENDBRANCH  39  40
ENDBRANCH   1  39
TORSDOF 17
ENDMDL
MODEL 2
REMARK VINA RESULT:     -12.0      4.501      9.322
REMARK SMILES NC(=O)C[C@H](NC(=O)C1(c2ccccc2)CCN(C(=O)[C@@H]2CCC[NH2+]2)CC1)C(=O)NCCCCNC(=O)c1ccc(-c2c3nc(c(-c4c(F)cccc4F)c4ccc([nH]4)c(-c4c(F)cccc4F)c4nc(c(-c5c(F)cccc5F)c5ccc2[nH]5)C=C4)C=C3)cc1
REMARK SMILES IDX 32 1 31 2 30 3 28 4 29 5 5 7 4 8 2 9 1 10 3 13 6 14 7 15
REMARK SMILES IDX 8 17 9 18 16 19 27 20 17 21 26 22 18 23 19 24 20 25 10 26
REMARK SMILES IDX 11 27 15 28 12 29 14 30 13 31 21 32 22 33 25 34 23 35 24 36
REMARK SMILES IDX 33 39 34 40 35 41 36 42 37 44 38 45 39 46 91 47 40 48 90 49
REMARK SMILES IDX 41 50 42 51 43 52 84 53 44 54 89 55 83 56 85 57 45 58 88 59
REMARK SMILES IDX 82 60 81 61 46 63 72 64 55 65 71 66 56 67 59 68 70 69 86 70
REMARK SMILES IDX 57 71 58 72 69 74 87 75 60 76 47 77 48 78 53 79 49 80 50 81
REMARK SMILES IDX 52 82 54 83 51 84 73 85 74 86 79 87 75 88 76 89 78 90 80 91
REMARK SMILES IDX 77 92 61 93 62 94 67 95 63 96 64 97 66 98 68 99 65 100
REMARK H PARENT 30 6 1 11 1 12 6 16 25 37 25 38 35 43 85 62 59 73
REMARK Flexibility Score: inf
ROOT
ATOM      1  C   UNL A   1      34.398  21.619  26.986  1.00  0.00     0.023 C 
ENDROOT
BRANCH   1   2
ATOM      2  C   UNL A   1      33.592  22.704  27.663  1.00  0.00     0.116 C 
BRANCH   2   3
ATOM      3  N   UNL A   1      32.171  22.519  27.593  1.00  0.00    -0.354 N 
ATOM      4  C   UNL A   1      31.256  23.191  26.856  1.00  0.00     0.243 C 
ATOM      5  O   UNL A   1      30.144  22.654  26.773  1.00  0.00    -0.273 OA
ATOM      6  H   UNL A   1      31.809  21.801  28.162  1.00  0.00     0.163 HD
BRANCH   4   7
ATOM      7  C   UNL A   1      31.485  24.602  26.231  1.00  0.00     0.180 C 
BRANCH   7   8
ATOM      8  C   UNL A   1      32.467  24.410  25.044  1.00  0.00     0.134 C 
BRANCH   8   9
ATOM      9  C   UNL A   1      31.906  23.762  23.801  1.00  0.00     0.220 C 
ATOM     10  N   UNL A   1      30.541  23.707  23.766  1.00  0.00    -0.370 N 
ATOM     11  H   UNL A   1      30.085  23.301  22.993  1.00  0.00     0.159 HD
ATOM     12  H   UNL A   1      30.014  24.074  24.512  1.00  0.00     0.159 HD
ATOM     13  O   UNL A   1      32.577  23.327  22.877  1.00  0.00    -0.275 OA
ENDBRANCH   8   9
ENDBRANCH   7   8
BRANCH   7  14
ATOM     14  N   UNL A   1      31.514  25.928  26.924  1.00  0.00    -0.343 N 
ATOM     15  C   UNL A   1      31.614  27.271  26.816  1.00  0.00     0.231 C 
ATOM     16  H   UNL A   1      31.418  25.736  27.884  1.00  0.00     0.164 HD
ATOM     17  O   UNL A   1      31.109  27.831  27.806  1.00  0.00    -0.274 OA
BRANCH  15  18
ATOM     18  C   UNL A   1      32.329  28.176  25.741  1.00  0.00     0.077 C 
ATOM     19  C   UNL A   1      33.873  27.934  25.886  1.00  0.00     0.043 C 
ATOM     20  C   UNL A   1      32.103  29.682  25.936  1.00  0.00     0.043 C 
ATOM     21  C   UNL A   1      34.486  28.553  27.149  1.00  0.00     0.121 C 
ATOM     22  C   UNL A   1      32.650  30.144  27.256  1.00  0.00     0.121 C 
ATOM     23  N   UNL A   1      34.070  29.947  27.349  1.00  0.00    -0.337 N 
ATOM     24  C   UNL A   1      34.965  30.864  27.889  1.00  0.00     0.280 C 
ATOM     25  O   UNL A   1      36.125  30.531  28.154  1.00  0.00    -0.268 OA
BRANCH  18  26
ATOM     26  C   UNL A   1      31.981  27.716  24.278  1.00  0.00    -0.032 A 
ATOM     27  C   UNL A   1      32.982  27.376  23.344  1.00  0.00     0.005 A 
ATOM     28  C   UNL A   1      30.649  27.498  23.868  1.00  0.00     0.005 A 
ATOM     29  C   UNL A   1      32.667  26.862  22.081  1.00  0.00     0.000 A 
ATOM     30  C   UNL A   1      30.335  27.009  22.592  1.00  0.00     0.000 A 
ATOM     31  C   UNL A   1      31.346  26.693  21.696  1.00  0.00     0.000 A 
ENDBRANCH  18  26
BRANCH  24  32
ATOM     32  C   UNL A   1      34.518  32.320  28.198  1.00  0.00     0.272 C 
ATOM     33  C   UNL A   1      35.550  33.404  27.928  1.00  0.00     0.081 C 
ATOM     34  N   UNL A   1      34.036  32.514  29.588  1.00  0.00    -0.336 N 
ATOM     35  C   UNL A   1      35.192  34.492  28.924  1.00  0.00     0.068 C 
ATOM     36  C   UNL A   1      34.626  33.743  30.117  1.00  0.00     0.261 C 
ATOM     37  H   UNL A   1      34.318  31.720  30.164  1.00  0.00     0.346 HD
ATOM     38  H   UNL A   1      33.018  32.582  29.598  1.00  0.00     0.346 HD
ENDBRANCH  24  32
ENDBRANCH  15  18
ENDBRANCH   7  14
ENDBRANCH   4   7
ENDBRANCH   2   3
ENDBRANCH   1   2
BRANCH   1  39
ATOM     39  C   UNL A   1      35.078  22.051  25.695  1.00  0.00     0.023 C 
BRANCH  39  40
ATOM     40  C   UNL A   1      36.528  22.504  25.835  1.00  0.00     0.116 C 
BRANCH  40  41
ATOM     41  N   UNL A   1      37.512  21.461  25.569  1.00  0.00    -0.352 N 
ATOM     42  C   UNL A   1      38.849  21.452  25.902  1.00  0.00     0.251 C 
ATOM     43  H   UNL A   1      37.181  20.667  25.091  1.00  0.00     0.163 HD
ATOM     44  O   UNL A   1      39.596  20.537  25.597  1.00  0.00    -0.269 OA
BRANCH  42  45
ATOM     45  C   UNL A   1      39.386  22.627  26.602  1.00  0.00     0.039 A 
ATOM     46  C   UNL A   1      40.351  22.421  27.590  1.00  0.00     0.014 A 
ATOM     47  C   UNL A   1      39.047  23.908  26.165  1.00  0.00     0.014 A 
ATOM     48  C   UNL A   1      41.063  23.513  28.076  1.00  0.00     0.010 A 
ATOM     49  C   UNL A   1      39.809  24.981  26.596  1.00  0.00     0.010 A 
ATOM     50  C   UNL A   1      40.836  24.787  27.537  1.00  0.00    -0.014 A 
BRANCH  50  51
ATOM     51  C   UNL A   1      41.664  25.950  27.920  1.00  0.00     0.031 A 
ATOM     52  C   UNL A   1      41.059  27.024  28.768  1.00  0.00     0.074 A 
ATOM     53  C   UNL A   1      42.900  26.085  27.400  1.00  0.00     0.049 A 
ATOM     54  N   UNL A   1      41.520  28.212  29.052  1.00  0.00    -0.248 NA
ATOM     55  C   UNL A   1      39.732  26.737  29.339  1.00  0.00     0.031 C 
ATOM     56  C   UNL A   1      43.568  25.114  26.530  1.00  0.00     0.029 A 
ATOM     57  N   UNL A   1      43.804  27.110  27.509  1.00  0.00    -0.354 N 
ATOM     58  C   UNL A   1      40.527  28.827  29.802  1.00  0.00     0.074 A 
ATOM     59  C   UNL A   1      39.422  27.898  29.894  1.00  0.00     0.031 C 
ATOM     60  C   UNL A   1      44.779  25.585  26.193  1.00  0.00     0.029 A 
ATOM     61  C   UNL A   1      44.953  26.908  26.783  1.00  0.00     0.049 A 
ATOM     62  H   UNL A   1      43.646  27.913  28.056  1.00  0.00     0.167 HD
ATOM     63  C   UNL A   1      40.547  30.052  30.374  1.00  0.00     0.037 A 
ATOM     64  C   UNL A   1      46.016  27.714  26.600  1.00  0.00     0.037 A 
ATOM     65  C   UNL A   1      41.671  30.946  30.305  1.00  0.00     0.049 A 
ATOM     66  C   UNL A   1      46.023  29.063  27.264  1.00  0.00     0.074 A 
ATOM     67  C   UNL A   1      41.824  32.187  30.894  1.00  0.00     0.029 A 
ATOM     68  N   UNL A   1      42.841  30.681  29.608  1.00  0.00    -0.354 N 
ATOM     69  N   UNL A   1      45.096  29.620  28.006  1.00  0.00    -0.248 NA
ATOM     70  C   UNL A   1      47.217  29.895  27.069  1.00  0.00     0.031 C 
ATOM     71  C   UNL A   1      43.077  32.688  30.528  1.00  0.00     0.029 A 
ATOM     72  C   UNL A   1      43.719  31.741  29.746  1.00  0.00     0.049 A 
ATOM     73  H   UNL A   1      43.020  29.862  29.093  1.00  0.00     0.167 HD
ATOM     74  C   UNL A   1      45.607  30.851  28.394  1.00  0.00     0.074 A 
ATOM     75  C   UNL A   1      46.926  30.959  27.805  1.00  0.00     0.031 C 
ATOM     76  C   UNL A   1      45.038  31.806  29.170  1.00  0.00     0.037 A 
BRANCH  63  77
ATOM     77  C   UNL A   1      39.319  30.484  31.119  1.00  0.00     0.057 A 
ATOM     78  C   UNL A   1      39.037  30.023  32.412  1.00  0.00     0.134 A 
ATOM     79  C   UNL A   1      38.410  31.378  30.539  1.00  0.00     0.134 A 
ATOM     80  F   UNL A   1      39.858  29.150  33.015  1.00  0.00    -0.206 F 
ATOM     81  C   UNL A   1      37.881  30.411  33.089  1.00  0.00     0.040 A 
ATOM     82  C   UNL A   1      37.265  31.797  31.219  1.00  0.00     0.040 A 
ATOM     83  F   UNL A   1      38.620  31.860  29.305  1.00  0.00    -0.206 F 
ATOM     84  C   UNL A   1      36.993  31.306  32.495  1.00  0.00     0.006 A 
ENDBRANCH  63  77
BRANCH  64  85
ATOM     85  C   UNL A   1      47.163  27.260  25.775  1.00  0.00     0.057 A 
ATOM     86  C   UNL A   1      48.210  26.525  26.344  1.00  0.00     0.134 A 
ATOM     87  C   UNL A   1      47.242  27.537  24.406  1.00  0.00     0.134 A 
ATOM     88  F   UNL A   1      48.199  26.240  27.655  1.00  0.00    -0.206 F 
ATOM     89  C   UNL A   1      49.302  26.097  25.587  1.00  0.00     0.040 A 
ATOM     90  C   UNL A   1      48.316  27.097  23.631  1.00  0.00     0.040 A 
ATOM     91  F   UNL A   1      46.265  28.228  23.798  1.00  0.00    -0.206 F 
ATOM     92  C   UNL A   1      49.354  26.380  24.223  1.00  0.00     0.006 A 
ENDBRANCH  64  85
BRANCH  76  93
ATOM     93  C   UNL A   1      45.856  33.022  29.472  1.00  0.00     0.057 A 
ATOM     94  C   UNL A   1      45.778  34.178  28.688  1.00  0.00     0.134 A 
ATOM     95  C   UNL A   1      46.670  33.059  30.611  1.00  0.00     0.134 A 
ATOM     96  F   UNL A   1      45.025  34.198  27.579  1.00  0.00    -0.206 F 
ATOM     97  C   UNL A   1      46.490  35.331  29.023  1.00  0.00     0.040 A 
ATOM     98  C   UNL A   1      47.369  34.212  30.969  1.00  0.00     0.040 A 
ATOM     99  F   UNL A   1      46.778  31.984  31.407  1.00  0.00    -0.206 F 
ATOM    100  C   UNL A   1      47.280  35.351  30.172  1.00  0.00     0.006 A 
ENDBRANCH  76  93
ENDBRANCH  50  51
ENDBRANCH  42  45
ENDBRANCH  40  41
ENDBRANCH  39  40
ENDBRANCH   1  39
TORSDOF 17
ENDMDL
MODEL 3
REMARK VINA RESULT:     -11.9      2.896      9.314
REMARK SMILES NC(=O)C[C@H](NC(=O)C1(c2ccccc2)CCN(C(=O)[C@@H]2CCC[NH2+]2)CC1)C(=O)NCCCCNC(=O)c1ccc(-c2c3nc(c(-c4c(F)cccc4F)c4ccc([nH]4)c(-c4c(F)cccc4F)c4nc(c(-c5c(F)cccc5F)c5ccc2[nH]5)C=C4)C=C3)cc1
REMARK SMILES IDX 32 1 31 2 30 3 28 4 29 5 5 7 4 8 2 9 1 10 3 13 6 14 7 15
REMARK SMILES IDX 8 17 9 18 16 19 27 20 17 21 26 22 18 23 19 24 20 25 10 26
REMARK SMILES IDX 11 27 15 28 12 29 14 30 13 31 21 32 22 33 25 34 23 35 24 36
REMARK SMILES IDX 33 39 34 40 35 41 36 42 37 44 38 45 39 46 91 47 40 48 90 49
REMARK SMILES IDX 41 50 42 51 43 52 84 53 44 54 89 55 83 56 85 57 45 58 88 59
REMARK SMILES IDX 82 60 81 61 46 63 72 64 55 65 71 66 56 67 59 68 70 69 86 70
REMARK SMILES IDX 57 71 58 72 69 74 87 75 60 76 47 77 48 78 53 79 49 80 50 81
REMARK SMILES IDX 52 82 54 83 51 84 73 85 74 86 79 87 75 88 76 89 78 90 80 91
REMARK SMILES IDX 77 92 61 93 62 94 67 95 63 96 64 97 66 98 68 99 65 100
REMARK H PARENT 30 6 1 11 1 12 6 16 25 37 25 38 35 43 85 62 59 73
REMARK Flexibility Score: inf
ROOT
ATOM      1  C   UNL A   1      40.804  21.961  27.505  1.00  0.00     0.023 C 
ENDROOT
BRANCH   1   2
ATOM      2  C   UNL A   1      39.834  21.622  26.396  1.00  0.00     0.116 C 
BRANCH   2   3
ATOM      3  N   UNL A   1      39.121  22.749  25.866  1.00  0.00    -0.354 N 
ATOM      4  C   UNL A   1      37.786  22.960  25.798  1.00  0.00     0.243 C 
ATOM      5  O   UNL A   1      37.445  24.124  25.549  1.00  0.00    -0.273 OA
ATOM      6  H   UNL A   1      39.682  23.470  25.500  1.00  0.00     0.163 HD
BRANCH   4   7
ATOM      7  C   UNL A   1      36.703  21.840  25.897  1.00  0.00     0.180 C 
BRANCH   7   8
ATOM      8  C   UNL A   1      36.796  21.015  24.585  1.00  0.00     0.134 C 
BRANCH   8   9
ATOM      9  C   UNL A   1      36.955  19.522  24.736  1.00  0.00     0.220 C 
ATOM     10  N   UNL A   1      38.226  19.122  25.039  1.00  0.00    -0.370 N 
ATOM     11  H   UNL A   1      38.426  18.165  25.157  1.00  0.00     0.159 HD
ATOM     12  H   UNL A   1      38.942  19.791  25.141  1.00  0.00     0.159 HD
ATOM     13  O   UNL A   1      36.050  18.709  24.623  1.00  0.00    -0.275 OA
ENDBRANCH   8   9
ENDBRANCH   7   8
BRANCH   7  14
ATOM     14  N   UNL A   1      35.365  21.902  26.563  1.00  0.00    -0.343 N 
ATOM     15  C   UNL A   1      34.040  21.650  26.490  1.00  0.00     0.231 C 
ATOM     16  H   UNL A   1      35.520  22.306  27.448  1.00  0.00     0.164 HD
ATOM     17  O   UNL A   1      33.546  21.555  27.628  1.00  0.00    -0.274 OA
BRANCH  15  18
ATOM     18  C   UNL A   1      33.065  21.573  25.253  1.00  0.00     0.077 C 
ATOM     19  C   UNL A   1      33.817  22.210  24.031  1.00  0.00     0.043 C 
ATOM     20  C   UNL A   1      31.764  22.368  25.428  1.00  0.00     0.043 C 
ATOM     21  C   UNL A   1      33.960  23.735  24.113  1.00  0.00     0.121 C 
ATOM     22  C   UNL A   1      32.045  23.833  25.607  1.00  0.00     0.121 C 
ATOM     23  N   UNL A   1      32.698  24.399  24.460  1.00  0.00    -0.337 N 
ATOM     24  C   UNL A   1      32.392  25.637  23.904  1.00  0.00     0.280 C 
ATOM     25  O   UNL A   1      33.148  26.161  23.078  1.00  0.00    -0.268 OA
BRANCH  18  26
ATOM     26  C   UNL A   1      32.790  20.084  24.830  1.00  0.00    -0.032 A 
ATOM     27  C   UNL A   1      32.548  19.721  23.489  1.00  0.00     0.005 A 
ATOM     28  C   UNL A   1      32.897  19.021  25.752  1.00  0.00     0.005 A 
ATOM     29  C   UNL A   1      32.413  18.383  23.100  1.00  0.00     0.000 A 
ATOM     30  C   UNL A   1      32.734  17.684  25.365  1.00  0.00     0.000 A 
ATOM     31  C   UNL A   1      32.490  17.364  24.038  1.00  0.00     0.000 A 
ENDBRANCH  18  26
BRANCH  24  32
ATOM     32  C   UNL A   1      31.109  26.402  24.330  1.00  0.00     0.272 C 
ATOM     33  C   UNL A   1      29.797  25.852  23.792  1.00  0.00     0.081 C 
ATOM     34  N   UNL A   1      31.140  27.849  24.003  1.00  0.00    -0.336 N 
ATOM     35  C   UNL A   1      28.902  27.075  23.715  1.00  0.00     0.068 C 
ATOM     36  C   UNL A   1      29.852  28.222  23.418  1.00  0.00     0.261 C 
ATOM     37  H   UNL A   1      31.889  28.035  23.335  1.00  0.00     0.346 HD
ATOM     38  H   UNL A   1      31.311  28.394  24.848  1.00  0.00     0.346 HD
ENDBRANCH  24  32
ENDBRANCH  15  18
ENDBRANCH   7  14
ENDBRANCH   4   7
ENDBRANCH   2   3
ENDBRANCH   1   2
BRANCH   1  39
ATOM     39  C   UNL A   1      42.265  21.982  27.080  1.00  0.00     0.023 C 
BRANCH  39  40
ATOM     40  C   UNL A   1      42.883  23.368  26.918  1.00  0.00     0.116 C 
BRANCH  40  41
ATOM     41  N   UNL A   1      42.273  24.179  25.872  1.00  0.00    -0.352 N 
ATOM     42  C   UNL A   1      41.647  25.401  26.002  1.00  0.00     0.251 C 
ATOM     43  H   UNL A   1      42.313  23.810  24.960  1.00  0.00     0.163 HD
ATOM     44  O   UNL A   1      41.135  25.981  25.059  1.00  0.00    -0.269 OA
BRANCH  42  45
ATOM     45  C   UNL A   1      41.553  25.979  27.350  1.00  0.00     0.039 A 
ATOM     46  C   UNL A   1      42.562  26.849  27.764  1.00  0.00     0.014 A 
ATOM     47  C   UNL A   1      40.401  25.778  28.111  1.00  0.00     0.014 A 
ATOM     48  C   UNL A   1      42.368  27.610  28.913  1.00  0.00     0.010 A 
ATOM     49  C   UNL A   1      40.178  26.590  29.209  1.00  0.00     0.010 A 
ATOM     50  C   UNL A   1      41.151  27.527  29.604  1.00  0.00    -0.014 A 
BRANCH  50  51
ATOM     51  C   UNL A   1      40.844  28.417  30.744  1.00  0.00     0.031 A 
ATOM     52  C   UNL A   1      39.769  29.447  30.590  1.00  0.00     0.074 A 
ATOM     53  C   UNL A   1      41.614  28.372  31.848  1.00  0.00     0.049 A 
ATOM     54  N   UNL A   1      39.472  30.454  31.367  1.00  0.00    -0.248 NA
ATOM     55  C   UNL A   1      38.945  29.356  29.373  1.00  0.00     0.031 C 
ATOM     56  C   UNL A   1      42.713  27.431  32.081  1.00  0.00     0.029 A 
ATOM     57  N   UNL A   1      41.604  29.156  32.973  1.00  0.00    -0.354 N 
ATOM     58  C   UNL A   1      38.453  31.137  30.716  1.00  0.00     0.074 A 
ATOM     59  C   UNL A   1      38.212  30.455  29.464  1.00  0.00     0.031 C 
ATOM     60  C   UNL A   1      43.265  27.687  33.278  1.00  0.00     0.029 A 
ATOM     61  C   UNL A   1      42.591  28.836  33.874  1.00  0.00     0.049 A 
ATOM     62  H   UNL A   1      40.953  29.879  33.121  1.00  0.00     0.167 HD
ATOM     63  C   UNL A   1      37.771  32.226  31.138  1.00  0.00     0.037 A 
ATOM     64  C   UNL A   1      42.923  29.421  35.040  1.00  0.00     0.037 A 
ATOM     65  C   UNL A   1      37.999  32.865  32.406  1.00  0.00     0.049 A 
ATOM     66  C   UNL A   1      42.137  30.619  35.497  1.00  0.00     0.074 A 
ATOM     67  C   UNL A   1      37.330  33.940  32.962  1.00  0.00     0.029 A 
ATOM     68  N   UNL A   1      38.968  32.476  33.318  1.00  0.00    -0.354 N 
ATOM     69  N   UNL A   1      41.147  31.233  34.895  1.00  0.00    -0.248 NA
ATOM     70  C   UNL A   1      42.509  31.204  36.792  1.00  0.00     0.031 C 
ATOM     71  C   UNL A   1      37.916  34.220  34.201  1.00  0.00     0.029 A 
ATOM     72  C   UNL A   1      38.921  33.295  34.432  1.00  0.00     0.049 A 
ATOM     73  H   UNL A   1      39.596  31.728  33.193  1.00  0.00     0.167 HD
ATOM     74  C   UNL A   1      40.756  32.254  35.749  1.00  0.00     0.074 A 
ATOM     75  C   UNL A   1      41.615  32.176  36.913  1.00  0.00     0.031 C 
ATOM     76  C   UNL A   1      39.773  33.173  35.588  1.00  0.00     0.037 A 
BRANCH  63  77
ATOM     77  C   UNL A   1      36.724  32.782  30.221  1.00  0.00     0.057 A 
ATOM     78  C   UNL A   1      37.049  33.637  29.160  1.00  0.00     0.134 A 
ATOM     79  C   UNL A   1      35.374  32.454  30.397  1.00  0.00     0.134 A 
ATOM     80  F   UNL A   1      38.322  34.005  28.949  1.00  0.00    -0.206 F 
ATOM     81  C   UNL A   1      36.066  34.170  28.325  1.00  0.00     0.040 A 
ATOM     82  C   UNL A   1      34.385  32.958  29.550  1.00  0.00     0.040 A 
ATOM     83  F   UNL A   1      34.994  31.640  31.393  1.00  0.00    -0.206 F 
ATOM     84  C   UNL A   1      34.730  33.825  28.515  1.00  0.00     0.006 A 
ENDBRANCH  63  77
BRANCH  64  85
ATOM     85  C   UNL A   1      44.033  28.874  35.860  1.00  0.00     0.057 A 
ATOM     86  C   UNL A   1      45.340  29.352  35.709  1.00  0.00     0.134 A 
ATOM     87  C   UNL A   1      43.819  27.874  36.815  1.00  0.00     0.134 A 
ATOM     88  F   UNL A   1      45.610  30.300  34.800  1.00  0.00    -0.206 F 
ATOM     89  C   UNL A   1      46.397  28.844  36.465  1.00  0.00     0.040 A 
ATOM     90  C   UNL A   1      44.863  27.371  37.594  1.00  0.00     0.040 A 
ATOM     91  F   UNL A   1      42.588  27.381  37.017  1.00  0.00    -0.206 F 
ATOM     92  C   UNL A   1      46.159  27.852  37.415  1.00  0.00     0.006 A 
ENDBRANCH  64  85
BRANCH  76  93
ATOM     93  C   UNL A   1      39.536  34.130  36.715  1.00  0.00     0.057 A 
ATOM     94  C   UNL A   1      38.778  33.776  37.836  1.00  0.00     0.134 A 
ATOM     95  C   UNL A   1      40.144  35.391  36.709  1.00  0.00     0.134 A 
ATOM     96  F   UNL A   1      38.162  32.586  37.893  1.00  0.00    -0.206 F 
ATOM     97  C   UNL A   1      38.626  34.650  38.914  1.00  0.00     0.040 A 
ATOM     98  C   UNL A   1      40.018  36.264  37.788  1.00  0.00     0.040 A 
ATOM     99  F   UNL A   1      40.890  35.783  35.664  1.00  0.00    -0.206 F 
ATOM    100  C   UNL A   1      39.256  35.894  38.894  1.00  0.00     0.006 A 
ENDBRANCH  76  93
ENDBRANCH  50  51
ENDBRANCH  42  45
ENDBRANCH  40  41
ENDBRANCH  39  40
ENDBRANCH   1  39
TORSDOF 17
ENDMDL
