MODEL 1
REMARK VINA RESULT:     -12.3      0.000      0.000
REMARK SMILES CC1(C)S[C@H](c2ccc(-c3ccccc3)o2)[NH2+][C@H]1C(=O)NCCCCNC(=O)c1ccc(-c2c3nc(c(-c4c(F)cccc4F)c4ccc([nH]4)c(-c4c(F)cccc4F)c4nc(c(-c5c(F)cccc5F)c5ccc2[nH]5)C=C4)C=C3)cc1
REMARK SMILES IDX 23 1 22 2 21 3 19 4 20 5 18 7 1 8 2 9 3 10 4 11 5 12 17 13
REMARK SMILES IDX 6 16 7 17 16 18 8 19 9 20 10 21 11 22 15 23 12 24 14 25
REMARK SMILES IDX 13 26 24 27 25 28 26 29 27 30 28 32 29 33 30 34 82 35 31 36
REMARK SMILES IDX 81 37 32 38 33 39 34 40 75 41 35 42 80 43 74 44 76 45 36 46
REMARK SMILES IDX 79 47 73 48 72 49 37 51 63 52 46 53 62 54 47 55 50 56 61 57
REMARK SMILES IDX 77 58 48 59 49 60 60 62 78 63 51 64 38 65 39 66 44 67 40 68
REMARK SMILES IDX 41 69 43 70 45 71 42 72 64 73 65 74 70 75 66 76 67 77 69 78
REMARK SMILES IDX 71 79 68 80 52 81 53 82 58 83 54 84 55 85 57 86 59 87 56 88
REMARK H PARENT 21 6 17 14 17 15 26 31 76 50 50 61
REMARK Flexibility Score: inf
ROOT
ATOM      1  C   UNL A   1      37.082  21.585  24.431  1.00  0.00     0.023 C 
ENDROOT
BRANCH   1   2
ATOM      2  C   UNL A   1      36.680  22.601  25.501  1.00  0.00     0.116 C 
BRANCH   2   3
ATOM      3  N   UNL A   1      35.790  22.026  26.495  1.00  0.00    -0.351 N 
ATOM      4  C   UNL A   1      34.457  22.160  26.754  1.00  0.00     0.279 C 
ATOM      5  O   UNL A   1      34.055  21.598  27.780  1.00  0.00    -0.268 OA
ATOM      6  H   UNL A   1      36.244  21.409  27.111  1.00  0.00     0.163 HD
BRANCH   4   7
ATOM      7  C   UNL A   1      33.474  22.989  25.895  1.00  0.00     0.289 C 
ATOM      8  C   UNL A   1      32.227  20.794  25.134  1.00  0.00     0.030 C 
ATOM      9  C   UNL A   1      32.741  22.189  24.796  1.00  0.00     0.078 C 
ATOM     10  C   UNL A   1      33.598  22.094  23.528  1.00  0.00     0.030 C 
ATOM     11  S   UNL A   1      31.261  23.189  24.449  1.00  0.00    -0.078 SA
ATOM     12  C   UNL A   1      31.454  24.270  25.891  1.00  0.00     0.311 C 
ATOM     13  N   UNL A   1      32.572  23.823  26.718  1.00  0.00    -0.317 N 
ATOM     14  H   UNL A   1      32.220  23.276  27.503  1.00  0.00     0.348 HD
ATOM     15  H   UNL A   1      33.081  24.632  27.077  1.00  0.00     0.348 HD
BRANCH  12  16
ATOM     16  C   UNL A   1      31.516  25.690  25.433  1.00  0.00     0.172 A 
ATOM     17  C   UNL A   1      32.427  26.688  25.730  1.00  0.00     0.054 A 
ATOM     18  O   UNL A   1      30.534  26.191  24.619  1.00  0.00    -0.454 OA
ATOM     19  C   UNL A   1      31.994  27.846  25.057  1.00  0.00     0.051 A 
ATOM     20  C   UNL A   1      30.843  27.501  24.380  1.00  0.00     0.134 A 
BRANCH  20  21
ATOM     21  C   UNL A   1      29.960  28.249  23.501  1.00  0.00     0.017 A 
ATOM     22  C   UNL A   1      28.579  28.023  23.488  1.00  0.00     0.012 A 
ATOM     23  C   UNL A   1      30.487  29.264  22.687  1.00  0.00     0.012 A 
ATOM     24  C   UNL A   1      27.740  28.810  22.694  1.00  0.00     0.001 A 
ATOM     25  C   UNL A   1      29.651  30.041  21.884  1.00  0.00     0.001 A 
ATOM     26  C   UNL A   1      28.277  29.819  21.894  1.00  0.00     0.000 A 
ENDBRANCH  20  21
ENDBRANCH  12  16
ENDBRANCH   4   7
ENDBRANCH   2   3
ENDBRANCH   1   2
BRANCH   1  27
ATOM     27  C   UNL A   1      37.788  20.340  24.947  1.00  0.00     0.023 C 
BRANCH  27  28
ATOM     28  C   UNL A   1      38.968  20.620  25.859  1.00  0.00     0.116 C 
BRANCH  28  29
ATOM     29  N   UNL A   1      39.968  19.560  25.843  1.00  0.00    -0.352 N 
ATOM     30  C   UNL A   1      41.318  19.641  26.097  1.00  0.00     0.251 C 
ATOM     31  H   UNL A   1      39.631  18.663  25.619  1.00  0.00     0.163 HD
ATOM     32  O   UNL A   1      42.047  18.679  25.911  1.00  0.00    -0.269 OA
BRANCH  30  33
ATOM     33  C   UNL A   1      41.874  20.922  26.575  1.00  0.00     0.039 A 
ATOM     34  C   UNL A   1      42.253  21.890  25.643  1.00  0.00     0.014 A 
ATOM     35  C   UNL A   1      41.967  21.177  27.945  1.00  0.00     0.014 A 
ATOM     36  C   UNL A   1      42.667  23.145  26.090  1.00  0.00     0.010 A 
ATOM     37  C   UNL A   1      42.279  22.455  28.383  1.00  0.00     0.010 A 
ATOM     38  C   UNL A   1      42.651  23.446  27.462  1.00  0.00    -0.014 A 
BRANCH  38  39
ATOM     39  C   UNL A   1      43.070  24.771  27.973  1.00  0.00     0.031 A 
ATOM     40  C   UNL A   1      42.023  25.813  28.259  1.00  0.00     0.074 A 
ATOM     41  C   UNL A   1      44.377  25.063  28.103  1.00  0.00     0.049 A 
ATOM     42  N   UNL A   1      42.173  27.066  28.603  1.00  0.00    -0.248 NA
ATOM     43  C   UNL A   1      40.619  25.401  28.091  1.00  0.00     0.031 C 
ATOM     44  C   UNL A   1      45.487  24.157  27.799  1.00  0.00     0.029 A 
ATOM     45  N   UNL A   1      44.996  26.215  28.516  1.00  0.00    -0.354 N 
ATOM     46  C   UNL A   1      40.889  27.595  28.659  1.00  0.00     0.074 A 
ATOM     47  C   UNL A   1      39.979  26.548  28.253  1.00  0.00     0.031 C 
ATOM     48  C   UNL A   1      46.647  24.778  28.063  1.00  0.00     0.029 A 
ATOM     49  C   UNL A   1      46.366  26.134  28.523  1.00  0.00     0.049 A 
ATOM     50  H   UNL A   1      44.503  27.025  28.782  1.00  0.00     0.167 HD
ATOM     51  C   UNL A   1      40.500  28.832  29.044  1.00  0.00     0.037 A 
ATOM     52  C   UNL A   1      47.288  27.053  28.866  1.00  0.00     0.037 A 
ATOM     53  C   UNL A   1      41.406  29.851  29.497  1.00  0.00     0.049 A 
ATOM     54  C   UNL A   1      46.829  28.406  29.336  1.00  0.00     0.074 A 
ATOM     55  C   UNL A   1      41.115  31.118  29.971  1.00  0.00     0.029 A 
ATOM     56  N   UNL A   1      42.785  29.710  29.546  1.00  0.00    -0.354 N 
ATOM     57  N   UNL A   1      45.609  28.876  29.440  1.00  0.00    -0.248 NA
ATOM     58  C   UNL A   1      47.875  29.351  29.749  1.00  0.00     0.031 C 
ATOM     59  C   UNL A   1      42.322  31.752  30.284  1.00  0.00     0.029 A 
ATOM     60  C   UNL A   1      43.360  30.868  30.040  1.00  0.00     0.049 A 
ATOM     61  H   UNL A   1      43.281  28.905  29.270  1.00  0.00     0.167 HD
ATOM     62  C   UNL A   1      45.738  30.157  29.960  1.00  0.00     0.074 A 
ATOM     63  C   UNL A   1      47.154  30.386  30.158  1.00  0.00     0.031 C 
ATOM     64  C   UNL A   1      44.771  31.063  30.247  1.00  0.00     0.037 A 
BRANCH  51  65
ATOM     65  C   UNL A   1      39.032  29.134  29.002  1.00  0.00     0.057 A 
ATOM     66  C   UNL A   1      38.220  29.012  30.138  1.00  0.00     0.134 A 
ATOM     67  C   UNL A   1      38.421  29.556  27.815  1.00  0.00     0.134 A 
ATOM     68  F   UNL A   1      38.739  28.594  31.303  1.00  0.00    -0.206 F 
ATOM     69  C   UNL A   1      36.848  29.265  30.087  1.00  0.00     0.040 A 
ATOM     70  C   UNL A   1      37.055  29.840  27.759  1.00  0.00     0.040 A 
ATOM     71  F   UNL A   1      39.139  29.696  26.690  1.00  0.00    -0.206 F 
ATOM     72  C   UNL A   1      36.263  29.687  28.895  1.00  0.00     0.006 A 
ENDBRANCH  51  65
BRANCH  52  73
ATOM     73  C   UNL A   1      48.731  26.712  28.825  1.00  0.00     0.057 A 
ATOM     74  C   UNL A   1      49.484  26.914  27.661  1.00  0.00     0.134 A 
ATOM     75  C   UNL A   1      49.392  26.176  29.935  1.00  0.00     0.134 A 
ATOM     76  F   UNL A   1      48.901  27.411  26.559  1.00  0.00    -0.206 F 
ATOM     77  C   UNL A   1      50.835  26.574  27.594  1.00  0.00     0.040 A 
ATOM     78  C   UNL A   1      50.750  25.852  29.890  1.00  0.00     0.040 A 
ATOM     79  F   UNL A   1      48.731  25.968  31.082  1.00  0.00    -0.206 F 
ATOM     80  C   UNL A   1      51.473  26.044  28.714  1.00  0.00     0.006 A 
ENDBRANCH  52  73
BRANCH  64  81
ATOM     81  C   UNL A   1      45.212  32.362  30.852  1.00  0.00     0.057 A 
ATOM     82  C   UNL A   1      45.509  33.481  30.065  1.00  0.00     0.134 A 
ATOM     83  C   UNL A   1      45.302  32.502  32.242  1.00  0.00     0.134 A 
ATOM     84  F   UNL A   1      45.453  33.406  28.727  1.00  0.00    -0.206 F 
ATOM     85  C   UNL A   1      45.903  34.690  30.640  1.00  0.00     0.040 A 
ATOM     86  C   UNL A   1      45.670  33.712  32.830  1.00  0.00     0.040 A 
ATOM     87  F   UNL A   1      45.021  31.468  33.051  1.00  0.00    -0.206 F 
ATOM     88  C   UNL A   1      45.978  34.808  32.027  1.00  0.00     0.006 A 
ENDBRANCH  64  81
ENDBRANCH  38  39
ENDBRANCH  30  33
ENDBRANCH  28  29
ENDBRANCH  27  28
ENDBRANCH   1  27
TORSDOF 13
ENDMDL
MODEL 2
REMARK VINA RESULT:     -12.3      4.892     10.288
REMARK SMILES CC1(C)S[C@H](c2ccc(-c3ccccc3)o2)[NH2+][C@H]1C(=O)NCCCCNC(=O)c1ccc(-c2c3nc(c(-c4c(F)cccc4F)c4ccc([nH]4)c(-c4c(F)cccc4F)c4nc(c(-c5c(F)cccc5F)c5ccc2[nH]5)C=C4)C=C3)cc1
REMARK SMILES IDX 23 1 22 2 21 3 19 4 20 5 18 7 1 8 2 9 3 10 4 11 5 12 17 13
REMARK SMILES IDX 6 16 7 17 16 18 8 19 9 20 10 21 11 22 15 23 12 24 14 25
REMARK SMILES IDX 13 26 24 27 25 28 26 29 27 30 28 32 29 33 30 34 82 35 31 36
REMARK SMILES IDX 81 37 32 38 33 39 34 40 75 41 35 42 80 43 74 44 76 45 36 46
REMARK SMILES IDX 79 47 73 48 72 49 37 51 63 52 46 53 62 54 47 55 50 56 61 57
REMARK SMILES IDX 77 58 48 59 49 60 60 62 78 63 51 64 38 65 39 66 44 67 40 68
REMARK SMILES IDX 41 69 43 70 45 71 42 72 64 73 65 74 70 75 66 76 67 77 69 78
REMARK SMILES IDX 71 79 68 80 52 81 53 82 58 83 54 84 55 85 57 86 59 87 56 88
REMARK H PARENT 21 6 17 14 17 15 26 31 76 50 50 61
REMARK Flexibility Score: inf
ROOT
ATOM      1  C   UNL A   1      42.617  23.282  28.839  1.00  0.00     0.023 C 
ENDROOT
BRANCH   1   2
ATOM      2  C   UNL A   1      44.066  22.958  29.209  1.00  0.00     0.116 C 
BRANCH   2   3
ATOM      3  N   UNL A   1      44.888  22.712  28.037  1.00  0.00    -0.351 N 
ATOM      4  C   UNL A   1      45.560  23.525  27.171  1.00  0.00     0.279 C 
ATOM      5  O   UNL A   1      46.066  22.959  26.193  1.00  0.00    -0.268 OA
ATOM      6  H   UNL A   1      44.980  21.757  27.822  1.00  0.00     0.163 HD
BRANCH   4   7
ATOM      7  C   UNL A   1      45.670  25.060  27.314  1.00  0.00     0.289 C 
ATOM      8  C   UNL A   1      48.274  24.879  27.679  1.00  0.00     0.030 C 
ATOM      9  C   UNL A   1      46.952  25.555  28.020  1.00  0.00     0.078 C 
ATOM     10  C   UNL A   1      46.776  25.535  29.544  1.00  0.00     0.030 C 
ATOM     11  S   UNL A   1      47.117  27.277  27.455  1.00  0.00    -0.078 SA
ATOM     12  C   UNL A   1      45.867  27.141  26.151  1.00  0.00     0.311 C 
ATOM     13  N   UNL A   1      45.385  25.766  26.046  1.00  0.00    -0.317 N 
ATOM     14  H   UNL A   1      45.861  25.294  25.277  1.00  0.00     0.348 HD
ATOM     15  H   UNL A   1      44.381  25.765  25.867  1.00  0.00     0.348 HD
BRANCH  12  16
ATOM     16  C   UNL A   1      44.816  28.179  26.370  1.00  0.00     0.172 A 
ATOM     17  C   UNL A   1      43.445  28.115  26.200  1.00  0.00     0.054 A 
ATOM     18  O   UNL A   1      45.173  29.442  26.764  1.00  0.00    -0.454 OA
ATOM     19  C   UNL A   1      42.936  29.389  26.518  1.00  0.00     0.051 A 
ATOM     20  C   UNL A   1      44.019  30.168  26.869  1.00  0.00     0.134 A 
BRANCH  20  21
ATOM     21  C   UNL A   1      44.132  31.547  27.313  1.00  0.00     0.017 A 
ATOM     22  C   UNL A   1      44.320  32.594  26.403  1.00  0.00     0.012 A 
ATOM     23  C   UNL A   1      43.992  31.852  28.676  1.00  0.00     0.012 A 
ATOM     24  C   UNL A   1      44.344  33.920  26.846  1.00  0.00     0.001 A 
ATOM     25  C   UNL A   1      44.030  33.175  29.119  1.00  0.00     0.001 A 
ATOM     26  C   UNL A   1      44.198  34.208  28.203  1.00  0.00     0.000 A 
ENDBRANCH  20  21
ENDBRANCH  12  16
ENDBRANCH   4   7
ENDBRANCH   2   3
ENDBRANCH   1   2
BRANCH   1  27
ATOM     27  C   UNL A   1      41.908  22.227  28.002  1.00  0.00     0.023 C 
BRANCH  27  28
ATOM     28  C   UNL A   1      41.721  22.605  26.544  1.00  0.00     0.116 C 
BRANCH  28  29
ATOM     29  N   UNL A   1      40.349  22.439  26.081  1.00  0.00    -0.352 N 
ATOM     30  C   UNL A   1      39.252  23.233  26.323  1.00  0.00     0.251 C 
ATOM     31  H   UNL A   1      40.185  21.647  25.518  1.00  0.00     0.163 HD
ATOM     32  O   UNL A   1      38.137  22.881  25.971  1.00  0.00    -0.269 OA
BRANCH  30  33
ATOM     33  C   UNL A   1      39.445  24.508  27.040  1.00  0.00     0.039 A 
ATOM     34  C   UNL A   1      39.040  24.608  28.372  1.00  0.00     0.014 A 
ATOM     35  C   UNL A   1      40.074  25.581  26.405  1.00  0.00     0.014 A 
ATOM     36  C   UNL A   1      39.327  25.770  29.090  1.00  0.00     0.010 A 
ATOM     37  C   UNL A   1      40.449  26.691  27.146  1.00  0.00     0.010 A 
ATOM     38  C   UNL A   1      40.063  26.805  28.490  1.00  0.00    -0.014 A 
BRANCH  38  39
ATOM     39  C   UNL A   1      40.399  28.048  29.224  1.00  0.00     0.031 A 
ATOM     40  C   UNL A   1      41.768  28.195  29.829  1.00  0.00     0.074 A 
ATOM     41  C   UNL A   1      39.462  28.995  29.412  1.00  0.00     0.049 A 
ATOM     42  N   UNL A   1      42.234  29.142  30.601  1.00  0.00    -0.248 NA
ATOM     43  C   UNL A   1      42.727  27.108  29.567  1.00  0.00     0.031 C 
ATOM     44  C   UNL A   1      38.082  28.938  28.926  1.00  0.00     0.029 A 
ATOM     45  N   UNL A   1      39.528  30.193  30.077  1.00  0.00    -0.354 N 
ATOM     46  C   UNL A   1      43.523  28.748  30.940  1.00  0.00     0.074 A 
ATOM     47  C   UNL A   1      43.742  27.450  30.344  1.00  0.00     0.031 C 
ATOM     48  C   UNL A   1      37.442  30.061  29.285  1.00  0.00     0.029 A 
ATOM     49  C   UNL A   1      38.354  30.903  30.052  1.00  0.00     0.049 A 
ATOM     50  H   UNL A   1      40.342  30.512  30.531  1.00  0.00     0.167 HD
ATOM     51  C   UNL A   1      44.452  29.421  31.657  1.00  0.00     0.037 A 
ATOM     52  C   UNL A   1      38.054  32.101  30.588  1.00  0.00     0.037 A 
ATOM     53  C   UNL A   1      44.246  30.734  32.202  1.00  0.00     0.049 A 
ATOM     54  C   UNL A   1      39.118  32.851  31.340  1.00  0.00     0.074 A 
ATOM     55  C   UNL A   1      45.140  31.534  32.891  1.00  0.00     0.029 A 
ATOM     56  N   UNL A   1      43.060  31.447  32.105  1.00  0.00    -0.354 N 
ATOM     57  N   UNL A   1      40.351  32.493  31.606  1.00  0.00    -0.248 NA
ATOM     58  C   UNL A   1      38.751  34.177  31.858  1.00  0.00     0.031 C 
ATOM     59  C   UNL A   1      44.487  32.723  33.231  1.00  0.00     0.029 A 
ATOM     60  C   UNL A   1      43.198  32.678  32.722  1.00  0.00     0.049 A 
ATOM     61  H   UNL A   1      42.242  31.125  31.662  1.00  0.00     0.167 HD
ATOM     62  C   UNL A   1      40.918  33.561  32.290  1.00  0.00     0.074 A 
ATOM     63  C   UNL A   1      39.896  34.582  32.391  1.00  0.00     0.031 C 
ATOM     64  C   UNL A   1      42.172  33.685  32.791  1.00  0.00     0.037 A 
BRANCH  51  65
ATOM     65  C   UNL A   1      45.774  28.745  31.874  1.00  0.00     0.057 A 
ATOM     66  C   UNL A   1      45.983  27.856  32.937  1.00  0.00     0.134 A 
ATOM     67  C   UNL A   1      46.850  28.983  31.010  1.00  0.00     0.134 A 
ATOM     68  F   UNL A   1      45.000  27.600  33.813  1.00  0.00    -0.206 F 
ATOM     69  C   UNL A   1      47.224  27.254  33.152  1.00  0.00     0.040 A 
ATOM     70  C   UNL A   1      48.087  28.364  31.198  1.00  0.00     0.040 A 
ATOM     71  F   UNL A   1      46.718  29.822  29.970  1.00  0.00    -0.206 F 
ATOM     72  C   UNL A   1      48.279  27.503  32.277  1.00  0.00     0.006 A 
ENDBRANCH  51  65
BRANCH  52  73
ATOM     73  C   UNL A   1      36.705  32.688  30.392  1.00  0.00     0.057 A 
ATOM     74  C   UNL A   1      36.424  33.484  29.275  1.00  0.00     0.134 A 
ATOM     75  C   UNL A   1      35.670  32.475  31.309  1.00  0.00     0.134 A 
ATOM     76  F   UNL A   1      37.380  33.737  28.370  1.00  0.00    -0.206 F 
ATOM     77  C   UNL A   1      35.170  34.067  29.088  1.00  0.00     0.040 A 
ATOM     78  C   UNL A   1      34.404  33.033  31.124  1.00  0.00     0.040 A 
ATOM     79  F   UNL A   1      35.873  31.714  32.394  1.00  0.00    -0.206 F 
ATOM     80  C   UNL A   1      34.153  33.838  30.014  1.00  0.00     0.006 A 
ENDBRANCH  52  73
BRANCH  64  81
ATOM     81  C   UNL A   1      42.519  34.988  33.446  1.00  0.00     0.057 A 
ATOM     82  C   UNL A   1      43.098  36.043  32.734  1.00  0.00     0.134 A 
ATOM     83  C   UNL A   1      42.232  35.197  34.801  1.00  0.00     0.134 A 
ATOM     84  F   UNL A   1      43.408  35.900  31.436  1.00  0.00    -0.206 F 
ATOM     85  C   UNL A   1      43.402  37.257  33.351  1.00  0.00     0.040 A 
ATOM     86  C   UNL A   1      42.508  36.414  35.424  1.00  0.00     0.040 A 
ATOM     87  F   UNL A   1      41.668  34.227  35.536  1.00  0.00    -0.206 F 
ATOM     88  C   UNL A   1      43.101  37.446  34.699  1.00  0.00     0.006 A 
ENDBRANCH  64  81
ENDBRANCH  38  39
ENDBRANCH  30  33
ENDBRANCH  28  29
ENDBRANCH  27  28
ENDBRANCH   1  27
TORSDOF 13
ENDMDL
MODEL 3
REMARK VINA RESULT:     -12.2      4.531      8.350
REMARK SMILES CC1(C)S[C@H](c2ccc(-c3ccccc3)o2)[NH2+][C@H]1C(=O)NCCCCNC(=O)c1ccc(-c2c3nc(c(-c4c(F)cccc4F)c4ccc([nH]4)c(-c4c(F)cccc4F)c4nc(c(-c5c(F)cccc5F)c5ccc2[nH]5)C=C4)C=C3)cc1
REMARK SMILES IDX 23 1 22 2 21 3 19 4 20 5 18 7 1 8 2 9 3 10 4 11 5 12 17 13
REMARK SMILES IDX 6 16 7 17 16 18 8 19 9 20 10 21 11 22 15 23 12 24 14 25
REMARK SMILES IDX 13 26 24 27 25 28 26 29 27 30 28 32 29 33 30 34 82 35 31 36
REMARK SMILES IDX 81 37 32 38 33 39 34 40 75 41 35 42 80 43 74 44 76 45 36 46
REMARK SMILES IDX 79 47 73 48 72 49 37 51 63 52 46 53 62 54 47 55 50 56 61 57
REMARK SMILES IDX 77 58 48 59 49 60 60 62 78 63 51 64 38 65 39 66 44 67 40 68
REMARK SMILES IDX 41 69 43 70 45 71 42 72 64 73 65 74 70 75 66 76 67 77 69 78
REMARK SMILES IDX 71 79 68 80 52 81 53 82 58 83 54 84 55 85 57 86 59 87 56 88
REMARK H PARENT 21 6 17 14 17 15 26 31 76 50 50 61
REMARK Flexibility Score: inf
ROOT
ATOM      1  C   UNL A   1      32.044  30.096  26.896  1.00  0.00     0.023 C 
ENDROOT
BRANCH   1   2
ATOM      2  C   UNL A   1      33.443  29.910  26.304  1.00  0.00     0.116 C 
BRANCH   2   3
ATOM      3  N   UNL A   1      33.886  28.529  26.371  1.00  0.00    -0.351 N 
ATOM      4  C   UNL A   1      33.492  27.382  25.746  1.00  0.00     0.279 C 
ATOM      5  O   UNL A   1      34.029  26.343  26.151  1.00  0.00    -0.268 OA
ATOM      6  H   UNL A   1      34.629  28.391  27.002  1.00  0.00     0.163 HD
BRANCH   4   7
ATOM      7  C   UNL A   1      32.414  27.311  24.641  1.00  0.00     0.289 C 
ATOM      8  C   UNL A   1      33.888  25.619  23.257  1.00  0.00     0.030 C 
ATOM      9  C   UNL A   1      32.919  26.796  23.274  1.00  0.00     0.078 C 
ATOM     10  C   UNL A   1      33.530  27.938  22.454  1.00  0.00     0.030 C 
ATOM     11  S   UNL A   1      31.408  26.203  22.452  1.00  0.00    -0.078 SA
ATOM     12  C   UNL A   1      30.374  26.279  23.938  1.00  0.00     0.311 C 
ATOM     13  N   UNL A   1      31.177  26.644  25.101  1.00  0.00    -0.317 N 
ATOM     14  H   UNL A   1      31.417  25.804  25.629  1.00  0.00     0.348 HD
ATOM     15  H   UNL A   1      30.647  27.275  25.703  1.00  0.00     0.348 HD
BRANCH  12  16
ATOM     16  C   UNL A   1      29.193  27.152  23.668  1.00  0.00     0.172 A 
ATOM     17  C   UNL A   1      27.841  26.902  23.820  1.00  0.00     0.054 A 
ATOM     18  O   UNL A   1      29.373  28.405  23.144  1.00  0.00    -0.454 OA
ATOM     19  C   UNL A   1      27.163  28.057  23.386  1.00  0.00     0.051 A 
ATOM     20  C   UNL A   1      28.131  28.957  22.993  1.00  0.00     0.134 A 
BRANCH  20  21
ATOM     21  C   UNL A   1      28.058  30.316  22.482  1.00  0.00     0.017 A 
ATOM     22  C   UNL A   1      28.043  31.420  23.342  1.00  0.00     0.012 A 
ATOM     23  C   UNL A   1      28.060  30.537  21.096  1.00  0.00     0.012 A 
ATOM     24  C   UNL A   1      28.054  32.719  22.826  1.00  0.00     0.001 A 
ATOM     25  C   UNL A   1      28.058  31.835  20.581  1.00  0.00     0.001 A 
ATOM     26  C   UNL A   1      28.063  32.925  21.447  1.00  0.00     0.000 A 
ENDBRANCH  20  21
ENDBRANCH  12  16
ENDBRANCH   4   7
ENDBRANCH   2   3
ENDBRANCH   1   2
BRANCH   1  27
ATOM     27  C   UNL A   1      31.514  31.522  26.880  1.00  0.00     0.023 C 
BRANCH  27  28
ATOM     28  C   UNL A   1      32.550  32.573  26.523  1.00  0.00     0.116 C 
BRANCH  28  29
ATOM     29  N   UNL A   1      32.375  33.821  27.254  1.00  0.00    -0.352 N 
ATOM     30  C   UNL A   1      33.081  34.297  28.334  1.00  0.00     0.251 C 
ATOM     31  H   UNL A   1      31.650  34.404  26.930  1.00  0.00     0.163 HD
ATOM     32  O   UNL A   1      32.721  35.307  28.919  1.00  0.00    -0.269 OA
BRANCH  30  33
ATOM     33  C   UNL A   1      34.268  33.549  28.790  1.00  0.00     0.039 A 
ATOM     34  C   UNL A   1      35.521  34.161  28.735  1.00  0.00     0.014 A 
ATOM     35  C   UNL A   1      34.126  32.265  29.319  1.00  0.00     0.014 A 
ATOM     36  C   UNL A   1      36.628  33.504  29.274  1.00  0.00     0.010 A 
ATOM     37  C   UNL A   1      35.204  31.659  29.945  1.00  0.00     0.010 A 
ATOM     38  C   UNL A   1      36.470  32.263  29.912  1.00  0.00    -0.014 A 
BRANCH  38  39
ATOM     39  C   UNL A   1      37.618  31.542  30.508  1.00  0.00     0.031 A 
ATOM     40  C   UNL A   1      38.013  31.837  31.930  1.00  0.00     0.074 A 
ATOM     41  C   UNL A   1      38.346  30.693  29.760  1.00  0.00     0.049 A 
ATOM     42  N   UNL A   1      39.045  31.408  32.609  1.00  0.00    -0.248 NA
ATOM     43  C   UNL A   1      37.155  32.777  32.671  1.00  0.00     0.031 C 
ATOM     44  C   UNL A   1      38.098  30.372  28.352  1.00  0.00     0.029 A 
ATOM     45  N   UNL A   1      39.454  29.951  30.077  1.00  0.00    -0.354 N 
ATOM     46  C   UNL A   1      38.976  32.050  33.839  1.00  0.00     0.074 A 
ATOM     47  C   UNL A   1      37.841  32.943  33.791  1.00  0.00     0.031 C 
ATOM     48  C   UNL A   1      39.010  29.478  27.938  1.00  0.00     0.029 A 
ATOM     49  C   UNL A   1      39.924  29.187  29.038  1.00  0.00     0.049 A 
ATOM     50  H   UNL A   1      39.875  29.966  30.968  1.00  0.00     0.167 HD
ATOM     51  C   UNL A   1      39.769  31.887  34.923  1.00  0.00     0.037 A 
ATOM     52  C   UNL A   1      40.973  28.346  28.984  1.00  0.00     0.037 A 
ATOM     53  C   UNL A   1      40.863  30.958  34.983  1.00  0.00     0.049 A 
ATOM     54  C   UNL A   1      41.811  28.146  30.217  1.00  0.00     0.074 A 
ATOM     55  C   UNL A   1      41.692  30.667  36.051  1.00  0.00     0.029 A 
ATOM     56  N   UNL A   1      41.272  30.158  33.926  1.00  0.00    -0.354 N 
ATOM     57  N   UNL A   1      41.702  28.716  31.393  1.00  0.00    -0.248 NA
ATOM     58  C   UNL A   1      42.911  27.176  30.118  1.00  0.00     0.031 C 
ATOM     59  C   UNL A   1      42.618  29.705  35.633  1.00  0.00     0.029 A 
ATOM     60  C   UNL A   1      42.342  29.373  34.316  1.00  0.00     0.049 A 
ATOM     61  H   UNL A   1      40.861  30.150  33.031  1.00  0.00     0.167 HD
ATOM     62  C   UNL A   1      42.694  28.151  32.183  1.00  0.00     0.074 A 
ATOM     63  C   UNL A   1      43.390  27.188  31.355  1.00  0.00     0.031 C 
ATOM     64  C   UNL A   1      43.003  28.406  33.478  1.00  0.00     0.037 A 
BRANCH  51  65
ATOM     65  C   UNL A   1      39.462  32.724  36.130  1.00  0.00     0.057 A 
ATOM     66  C   UNL A   1      38.546  32.306  37.105  1.00  0.00     0.134 A 
ATOM     67  C   UNL A   1      40.091  33.960  36.323  1.00  0.00     0.134 A 
ATOM     68  F   UNL A   1      37.894  31.141  36.971  1.00  0.00    -0.206 F 
ATOM     69  C   UNL A   1      38.242  33.102  38.211  1.00  0.00     0.040 A 
ATOM     70  C   UNL A   1      39.816  34.751  37.440  1.00  0.00     0.040 A 
ATOM     71  F   UNL A   1      40.981  34.420  35.430  1.00  0.00    -0.206 F 
ATOM     72  C   UNL A   1      38.883  34.327  38.384  1.00  0.00     0.006 A 
ENDBRANCH  51  65
BRANCH  52  73
ATOM     73  C   UNL A   1      41.263  27.594  27.738  1.00  0.00     0.057 A 
ATOM     74  C   UNL A   1      42.072  28.147  26.738  1.00  0.00     0.134 A 
ATOM     75  C   UNL A   1      40.741  26.316  27.512  1.00  0.00     0.134 A 
ATOM     76  F   UNL A   1      42.588  29.375  26.890  1.00  0.00    -0.206 F 
ATOM     77  C   UNL A   1      42.333  27.467  25.548  1.00  0.00     0.040 A 
ATOM     78  C   UNL A   1      41.012  25.614  26.336  1.00  0.00     0.040 A 
ATOM     79  F   UNL A   1      39.968  25.728  28.436  1.00  0.00    -0.206 F 
ATOM     80  C   UNL A   1      41.804  26.193  25.346  1.00  0.00     0.006 A 
ENDBRANCH  52  73
BRANCH  64  81
ATOM     81  C   UNL A   1      44.108  27.597  34.088  1.00  0.00     0.057 A 
ATOM     82  C   UNL A   1      45.434  28.045  34.098  1.00  0.00     0.134 A 
ATOM     83  C   UNL A   1      43.831  26.372  34.706  1.00  0.00     0.134 A 
ATOM     84  F   UNL A   1      45.765  29.206  33.512  1.00  0.00    -0.206 F 
ATOM     85  C   UNL A   1      46.452  27.291  34.683  1.00  0.00     0.040 A 
ATOM     86  C   UNL A   1      44.835  25.620  35.316  1.00  0.00     0.040 A 
ATOM     87  F   UNL A   1      42.577  25.893  34.737  1.00  0.00    -0.206 F 
ATOM     88  C   UNL A   1      46.150  26.077  35.300  1.00  0.00     0.006 A 
ENDBRANCH  64  81
ENDBRANCH  38  39
ENDBRANCH  30  33
ENDBRANCH  28  29
ENDBRANCH  27  28
ENDBRANCH   1  27
TORSDOF 13
ENDMDL
