MODEL 1
REMARK VINA RESULT:     -11.7      0.000      0.000
REMARK SMILES CC(C)(CC(=O)NCCCCNC(=O)c1ccc(-c2c3nc(c(-c4c(F)cccc4F)c4ccc([nH]4)c(-c4c(F)cccc4F)c4nc(c(-c5c(F)cccc5F)c5ccc2[nH]5)C=C4)C=C3)cc1)Cc1nc([C@@]2(C)CCCO2)no1
REMARK SMILES IDX 8 1 7 2 5 3 6 4 4 6 2 7 1 8 3 9 69 10 70 11 71 12 80 13
REMARK SMILES IDX 72 14 79 15 73 16 74 17 75 18 78 19 76 20 77 21 9 22 10 23
REMARK SMILES IDX 11 24 12 25 13 26 14 28 15 29 16 30 68 31 17 32 67 33 18 34
REMARK SMILES IDX 19 35 20 36 61 37 21 38 66 39 60 40 62 41 22 42 65 43 59 44
REMARK SMILES IDX 58 45 23 47 49 48 32 49 48 50 33 51 36 52 47 53 63 54 34 55
REMARK SMILES IDX 35 56 46 58 64 59 37 60 24 61 25 62 30 63 26 64 27 65 29 66
REMARK SMILES IDX 31 67 28 68 50 69 51 70 56 71 52 72 53 73 55 74 57 75 54 76
REMARK SMILES IDX 38 77 39 78 44 79 40 80 41 81 43 82 45 83 42 84
REMARK H PARENT 7 5 12 27 62 46 36 57
REMARK Flexibility Score: inf
ROOT
ATOM      1  C   UNL A   1      32.760  29.946  25.859  1.00  0.00     0.116 C 
ENDROOT
BRANCH   1   2
ATOM      2  N   UNL A   1      33.353  29.702  24.562  1.00  0.00    -0.356 N 
ATOM      3  C   UNL A   1      33.929  28.576  24.074  1.00  0.00     0.220 C 
ATOM      4  O   UNL A   1      34.283  28.553  22.896  1.00  0.00    -0.275 OA
ATOM      5  H   UNL A   1      33.336  30.466  23.941  1.00  0.00     0.163 HD
BRANCH   3   6
ATOM      6  C   UNL A   1      34.099  27.352  24.947  1.00  0.00     0.107 C 
BRANCH   6   7
ATOM      7  C   UNL A   1      33.104  26.161  24.818  1.00  0.00    -0.018 C 
ATOM      8  C   UNL A   1      33.738  24.776  25.055  1.00  0.00     0.012 C 
ATOM      9  C   UNL A   1      32.141  26.340  26.035  1.00  0.00     0.012 C 
BRANCH   7  10
ATOM     10  C   UNL A   1      32.234  26.142  23.525  1.00  0.00     0.107 C 
BRANCH  10  11
ATOM     11  C   UNL A   1      30.963  26.941  23.452  1.00  0.00     0.227 A 
ATOM     12  N   UNL A   1      30.687  28.181  23.083  1.00  0.00    -0.193 NA
ATOM     13  O   UNL A   1      29.835  26.208  23.701  1.00  0.00    -0.339 OA
ATOM     14  C   UNL A   1      29.291  28.214  23.148  1.00  0.00     0.203 A 
ATOM     15  N   UNL A   1      28.747  27.039  23.500  1.00  0.00    -0.059 NA
BRANCH  14  16
ATOM     16  C   UNL A   1      28.390  29.401  22.814  1.00  0.00     0.128 C 
ATOM     17  C   UNL A   1      26.902  29.178  23.124  1.00  0.00     0.051 C 
ATOM     18  C   UNL A   1      28.863  30.696  23.503  1.00  0.00     0.046 C 
ATOM     19  O   UNL A   1      28.433  29.709  21.385  1.00  0.00    -0.367 OA
ATOM     20  C   UNL A   1      28.430  31.780  22.542  1.00  0.00     0.032 C 
ATOM     21  C   UNL A   1      28.620  31.117  21.198  1.00  0.00     0.161 C 
ENDBRANCH  14  16
ENDBRANCH  10  11
ENDBRANCH   7  10
ENDBRANCH   6   7
ENDBRANCH   3   6
ENDBRANCH   1   2
BRANCH   1  22
ATOM     22  C   UNL A   1      31.376  30.565  25.739  1.00  0.00     0.023 C 
BRANCH  22  23
ATOM     23  C   UNL A   1      31.229  31.893  26.442  1.00  0.00     0.023 C 
BRANCH  23  24
ATOM     24  C   UNL A   1      32.508  32.450  27.007  1.00  0.00     0.116 C 
BRANCH  24  25
ATOM     25  N   UNL A   1      32.356  33.827  27.447  1.00  0.00    -0.352 N 
ATOM     26  C   UNL A   1      33.035  34.487  28.436  1.00  0.00     0.251 C 
ATOM     27  H   UNL A   1      31.674  34.355  26.971  1.00  0.00     0.163 HD
ATOM     28  O   UNL A   1      32.649  35.591  28.820  1.00  0.00    -0.269 OA
BRANCH  26  29
ATOM     29  C   UNL A   1      34.222  33.857  29.047  1.00  0.00     0.039 A 
ATOM     30  C   UNL A   1      35.490  34.362  28.752  1.00  0.00     0.014 A 
ATOM     31  C   UNL A   1      34.084  32.768  29.912  1.00  0.00     0.014 A 
ATOM     32  C   UNL A   1      36.611  33.776  29.335  1.00  0.00     0.010 A 
ATOM     33  C   UNL A   1      35.180  32.288  30.606  1.00  0.00     0.010 A 
ATOM     34  C   UNL A   1      36.461  32.740  30.272  1.00  0.00    -0.014 A 
BRANCH  34  35
ATOM     35  C   UNL A   1      37.634  32.028  30.827  1.00  0.00     0.031 A 
ATOM     36  C   UNL A   1      38.094  32.347  32.226  1.00  0.00     0.074 A 
ATOM     37  C   UNL A   1      38.291  31.129  30.072  1.00  0.00     0.049 A 
ATOM     38  N   UNL A   1      39.104  31.856  32.898  1.00  0.00    -0.248 NA
ATOM     39  C   UNL A   1      37.345  33.387  32.957  1.00  0.00     0.031 C 
ATOM     40  C   UNL A   1      37.969  30.786  28.686  1.00  0.00     0.029 A 
ATOM     41  N   UNL A   1      39.363  30.332  30.374  1.00  0.00    -0.354 N 
ATOM     42  C   UNL A   1      39.115  32.538  34.109  1.00  0.00     0.074 A 
ATOM     43  C   UNL A   1      38.073  33.535  34.051  1.00  0.00     0.031 C 
ATOM     44  C   UNL A   1      38.798  29.814  28.272  1.00  0.00     0.029 A 
ATOM     45  C   UNL A   1      39.727  29.492  29.349  1.00  0.00     0.049 A 
ATOM     46  H   UNL A   1      39.828  30.357  31.241  1.00  0.00     0.167 HD
ATOM     47  C   UNL A   1      39.895  32.325  35.194  1.00  0.00     0.037 A 
ATOM     48  C   UNL A   1      40.698  28.563  29.299  1.00  0.00     0.037 A 
ATOM     49  C   UNL A   1      40.903  31.303  35.257  1.00  0.00     0.049 A 
ATOM     50  C   UNL A   1      41.540  28.330  30.524  1.00  0.00     0.074 A 
ATOM     51  C   UNL A   1      41.719  30.959  36.318  1.00  0.00     0.029 A 
ATOM     52  N   UNL A   1      41.225  30.454  34.208  1.00  0.00    -0.354 N 
ATOM     53  N   UNL A   1      41.496  28.934  31.687  1.00  0.00    -0.248 NA
ATOM     54  C   UNL A   1      42.555  27.272  30.432  1.00  0.00     0.031 C 
ATOM     55  C   UNL A   1      42.569  29.932  35.895  1.00  0.00     0.029 A 
ATOM     56  C   UNL A   1      42.238  29.595  34.592  1.00  0.00     0.049 A 
ATOM     57  H   UNL A   1      40.795  30.462  33.322  1.00  0.00     0.167 HD
ATOM     58  C   UNL A   1      42.448  28.303  32.480  1.00  0.00     0.074 A 
ATOM     59  C   UNL A   1      43.040  27.262  31.665  1.00  0.00     0.031 C 
ATOM     60  C   UNL A   1      42.799  28.557  33.764  1.00  0.00     0.037 A 
BRANCH  47  61
ATOM     61  C   UNL A   1      39.675  33.206  36.390  1.00  0.00     0.057 A 
ATOM     62  C   UNL A   1      38.745  32.884  37.391  1.00  0.00     0.134 A 
ATOM     63  C   UNL A   1      40.408  34.388  36.554  1.00  0.00     0.134 A 
ATOM     64  F   UNL A   1      37.993  31.776  37.289  1.00  0.00    -0.206 F 
ATOM     65  C   UNL A   1      38.530  33.719  38.488  1.00  0.00     0.040 A 
ATOM     66  C   UNL A   1      40.226  35.214  37.664  1.00  0.00     0.040 A 
ATOM     67  F   UNL A   1      41.315  34.758  35.637  1.00  0.00    -0.206 F 
ATOM     68  C   UNL A   1      39.278  34.885  38.631  1.00  0.00     0.006 A 
ENDBRANCH  47  61
BRANCH  48  69
ATOM     69  C   UNL A   1      40.893  27.754  28.069  1.00  0.00     0.057 A 
ATOM     70  C   UNL A   1      40.263  26.513  27.911  1.00  0.00     0.134 A 
ATOM     71  C   UNL A   1      41.719  28.192  27.028  1.00  0.00     0.134 A 
ATOM     72  F   UNL A   1      39.467  26.033  28.877  1.00  0.00    -0.206 F 
ATOM     73  C   UNL A   1      40.471  25.725  26.778  1.00  0.00     0.040 A 
ATOM     74  C   UNL A   1      41.915  27.428  25.878  1.00  0.00     0.040 A 
ATOM     75  F   UNL A   1      42.341  29.379  27.110  1.00  0.00    -0.206 F 
ATOM     76  C   UNL A   1      41.298  26.184  25.755  1.00  0.00     0.006 A 
ENDBRANCH  48  69
BRANCH  60  77
ATOM     77  C   UNL A   1      43.827  27.655  34.382  1.00  0.00     0.057 A 
ATOM     78  C   UNL A   1      45.187  27.988  34.420  1.00  0.00     0.134 A 
ATOM     79  C   UNL A   1      43.442  26.442  34.969  1.00  0.00     0.134 A 
ATOM     80  F   UNL A   1      45.623  29.131  33.868  1.00  0.00    -0.206 F 
ATOM     81  C   UNL A   1      46.131  27.129  34.984  1.00  0.00     0.040 A 
ATOM     82  C   UNL A   1      44.372  25.592  35.567  1.00  0.00     0.040 A 
ATOM     83  F   UNL A   1      42.152  26.070  34.981  1.00  0.00    -0.206 F 
ATOM     84  C   UNL A   1      45.723  25.930  35.565  1.00  0.00     0.006 A 
ENDBRANCH  60  77
ENDBRANCH  34  35
ENDBRANCH  26  29
ENDBRANCH  24  25
ENDBRANCH  23  24
ENDBRANCH  22  23
ENDBRANCH   1  22
TORSDOF 15
ENDMDL
MODEL 2
REMARK VINA RESULT:     -11.6      5.176      9.482
REMARK SMILES CC(C)(CC(=O)NCCCCNC(=O)c1ccc(-c2c3nc(c(-c4c(F)cccc4F)c4ccc([nH]4)c(-c4c(F)cccc4F)c4nc(c(-c5c(F)cccc5F)c5ccc2[nH]5)C=C4)C=C3)cc1)Cc1nc([C@@]2(C)CCCO2)no1
REMARK SMILES IDX 8 1 7 2 5 3 6 4 4 6 2 7 1 8 3 9 69 10 70 11 71 12 80 13
REMARK SMILES IDX 72 14 79 15 73 16 74 17 75 18 78 19 76 20 77 21 9 22 10 23
REMARK SMILES IDX 11 24 12 25 13 26 14 28 15 29 16 30 68 31 17 32 67 33 18 34
REMARK SMILES IDX 19 35 20 36 61 37 21 38 66 39 60 40 62 41 22 42 65 43 59 44
REMARK SMILES IDX 58 45 23 47 49 48 32 49 48 50 33 51 36 52 47 53 63 54 34 55
REMARK SMILES IDX 35 56 46 58 64 59 37 60 24 61 25 62 30 63 26 64 27 65 29 66
REMARK SMILES IDX 31 67 28 68 50 69 51 70 56 71 52 72 53 73 55 74 57 75 54 76
REMARK SMILES IDX 38 77 39 78 44 79 40 80 41 81 43 82 45 83 42 84
REMARK H PARENT 7 5 12 27 62 46 36 57
REMARK Flexibility Score: inf
ROOT
ATOM      1  C   UNL A   1      36.865  21.757  25.444  1.00  0.00     0.116 C 
ENDROOT
BRANCH   1   2
ATOM      2  N   UNL A   1      35.865  21.936  26.474  1.00  0.00    -0.356 N 
ATOM      3  C   UNL A   1      35.011  22.969  26.676  1.00  0.00     0.220 C 
ATOM      4  O   UNL A   1      34.164  22.873  27.563  1.00  0.00    -0.275 OA
ATOM      5  H   UNL A   1      35.793  21.200  27.124  1.00  0.00     0.163 HD
BRANCH   3   6
ATOM      6  C   UNL A   1      35.068  24.204  25.805  1.00  0.00     0.107 C 
BRANCH   6   7
ATOM      7  C   UNL A   1      34.098  24.348  24.595  1.00  0.00    -0.018 C 
ATOM      8  C   UNL A   1      33.778  25.805  24.208  1.00  0.00     0.012 C 
ATOM      9  C   UNL A   1      34.926  23.815  23.382  1.00  0.00     0.012 C 
BRANCH   7  10
ATOM     10  C   UNL A   1      32.786  23.512  24.677  1.00  0.00     0.107 C 
BRANCH  10  11
ATOM     11  C   UNL A   1      32.754  22.095  24.173  1.00  0.00     0.227 A 
ATOM     12  N   UNL A   1      33.097  20.932  24.703  1.00  0.00    -0.193 NA
ATOM     13  O   UNL A   1      32.132  21.954  22.963  1.00  0.00    -0.339 OA
ATOM     14  C   UNL A   1      32.686  20.021  23.727  1.00  0.00     0.203 A 
ATOM     15  N   UNL A   1      32.086  20.601  22.675  1.00  0.00    -0.059 NA
BRANCH  14  16
ATOM     16  C   UNL A   1      32.809  18.500  23.788  1.00  0.00     0.128 C 
ATOM     17  C   UNL A   1      32.416  17.775  22.492  1.00  0.00     0.051 C 
ATOM     18  C   UNL A   1      34.222  18.053  24.211  1.00  0.00     0.046 C 
ATOM     19  O   UNL A   1      31.926  17.941  24.812  1.00  0.00    -0.367 OA
ATOM     20  C   UNL A   1      33.974  16.749  24.934  1.00  0.00     0.032 C 
ATOM     21  C   UNL A   1      32.651  17.004  25.617  1.00  0.00     0.161 C 
ENDBRANCH  14  16
ENDBRANCH  10  11
ENDBRANCH   7  10
ENDBRANCH   6   7
ENDBRANCH   3   6
ENDBRANCH   1   2
BRANCH   1  22
ATOM     22  C   UNL A   1      36.738  20.403  24.764  1.00  0.00     0.023 C 
BRANCH  22  23
ATOM     23  C   UNL A   1      37.911  19.480  24.995  1.00  0.00     0.023 C 
BRANCH  23  24
ATOM     24  C   UNL A   1      39.040  20.085  25.785  1.00  0.00     0.116 C 
BRANCH  24  25
ATOM     25  N   UNL A   1      40.198  19.210  25.840  1.00  0.00    -0.352 N 
ATOM     26  C   UNL A   1      41.503  19.536  26.096  1.00  0.00     0.251 C 
ATOM     27  H   UNL A   1      40.021  18.256  25.672  1.00  0.00     0.163 HD
ATOM     28  O   UNL A   1      42.395  18.708  25.909  1.00  0.00    -0.269 OA
BRANCH  26  29
ATOM     29  C   UNL A   1      41.832  20.890  26.581  1.00  0.00     0.039 A 
ATOM     30  C   UNL A   1      42.130  21.893  25.656  1.00  0.00     0.014 A 
ATOM     31  C   UNL A   1      41.846  21.172  27.950  1.00  0.00     0.014 A 
ATOM     32  C   UNL A   1      42.431  23.175  26.111  1.00  0.00     0.010 A 
ATOM     33  C   UNL A   1      41.994  22.475  28.390  1.00  0.00     0.010 A 
ATOM     34  C   UNL A   1      42.356  23.474  27.482  1.00  0.00    -0.014 A 
BRANCH  34  35
ATOM     35  C   UNL A   1      42.772  24.795  28.004  1.00  0.00     0.031 A 
ATOM     36  C   UNL A   1      41.725  25.849  28.257  1.00  0.00     0.074 A 
ATOM     37  C   UNL A   1      44.075  25.050  28.222  1.00  0.00     0.049 A 
ATOM     38  N   UNL A   1      41.871  27.073  28.696  1.00  0.00    -0.248 NA
ATOM     39  C   UNL A   1      40.328  25.497  27.938  1.00  0.00     0.031 C 
ATOM     40  C   UNL A   1      45.178  24.125  27.955  1.00  0.00     0.029 A 
ATOM     41  N   UNL A   1      44.688  26.165  28.727  1.00  0.00    -0.354 N 
ATOM     42  C   UNL A   1      40.598  27.629  28.684  1.00  0.00     0.074 A 
ATOM     43  C   UNL A   1      39.704  26.649  28.115  1.00  0.00     0.031 C 
ATOM     44  C   UNL A   1      46.330  24.694  28.343  1.00  0.00     0.029 A 
ATOM     45  C   UNL A   1      46.050  26.033  28.851  1.00  0.00     0.049 A 
ATOM     46  H   UNL A   1      44.202  26.983  28.977  1.00  0.00     0.167 HD
ATOM     47  C   UNL A   1      40.197  28.836  29.146  1.00  0.00     0.037 A 
ATOM     48  C   UNL A   1      46.960  26.898  29.333  1.00  0.00     0.037 A 
ATOM     49  C   UNL A   1      41.086  29.791  29.747  1.00  0.00     0.049 A 
ATOM     50  C   UNL A   1      46.489  28.226  29.859  1.00  0.00     0.074 A 
ATOM     51  C   UNL A   1      40.788  31.023  30.298  1.00  0.00     0.029 A 
ATOM     52  N   UNL A   1      42.456  29.610  29.880  1.00  0.00    -0.354 N 
ATOM     53  N   UNL A   1      45.273  28.715  29.906  1.00  0.00    -0.248 NA
ATOM     54  C   UNL A   1      47.517  29.114  30.416  1.00  0.00     0.031 C 
ATOM     55  C   UNL A   1      41.985  31.609  30.722  1.00  0.00     0.029 A 
ATOM     56  C   UNL A   1      43.018  30.715  30.493  1.00  0.00     0.049 A 
ATOM     57  H   UNL A   1      42.953  28.813  29.583  1.00  0.00     0.167 HD
ATOM     58  C   UNL A   1      45.383  29.950  30.534  1.00  0.00     0.074 A 
ATOM     59  C   UNL A   1      46.783  30.124  30.860  1.00  0.00     0.031 C 
ATOM     60  C   UNL A   1      44.416  30.856  30.819  1.00  0.00     0.037 A 
BRANCH  47  61
ATOM     61  C   UNL A   1      38.738  29.175  29.026  1.00  0.00     0.057 A 
ATOM     62  C   UNL A   1      37.863  29.098  30.121  1.00  0.00     0.134 A 
ATOM     63  C   UNL A   1      38.199  29.595  27.804  1.00  0.00     0.134 A 
ATOM     64  F   UNL A   1      38.308  28.685  31.318  1.00  0.00    -0.206 F 
ATOM     65  C   UNL A   1      36.505  29.393  29.996  1.00  0.00     0.040 A 
ATOM     66  C   UNL A   1      36.849  29.924  27.674  1.00  0.00     0.040 A 
ATOM     67  F   UNL A   1      38.976  29.692  26.715  1.00  0.00    -0.206 F 
ATOM     68  C   UNL A   1      35.996  29.816  28.771  1.00  0.00     0.006 A 
ENDBRANCH  47  61
BRANCH  48  69
ATOM     69  C   UNL A   1      48.395  26.519  29.384  1.00  0.00     0.057 A 
ATOM     70  C   UNL A   1      48.923  25.827  30.481  1.00  0.00     0.134 A 
ATOM     71  C   UNL A   1      49.276  26.845  28.346  1.00  0.00     0.134 A 
ATOM     72  F   UNL A   1      48.133  25.494  31.512  1.00  0.00    -0.206 F 
ATOM     73  C   UNL A   1      50.278  25.502  30.560  1.00  0.00     0.040 A 
ATOM     74  C   UNL A   1      50.627  26.502  28.398  1.00  0.00     0.040 A 
ATOM     75  F   UNL A   1      48.832  27.494  27.259  1.00  0.00    -0.206 F 
ATOM     76  C   UNL A   1      51.134  25.837  29.513  1.00  0.00     0.006 A 
ENDBRANCH  48  69
BRANCH  60  77
ATOM     77  C   UNL A   1      44.832  32.086  31.572  1.00  0.00     0.057 A 
ATOM     78  C   UNL A   1      45.229  33.260  30.921  1.00  0.00     0.134 A 
ATOM     79  C   UNL A   1      44.814  32.097  32.973  1.00  0.00     0.134 A 
ATOM     80  F   UNL A   1      45.277  33.314  29.581  1.00  0.00    -0.206 F 
ATOM     81  C   UNL A   1      45.629  34.389  31.637  1.00  0.00     0.040 A 
ATOM     82  C   UNL A   1      45.178  33.230  33.699  1.00  0.00     0.040 A 
ATOM     83  F   UNL A   1      44.429  31.008  33.658  1.00  0.00    -0.206 F 
ATOM     84  C   UNL A   1      45.599  34.377  33.031  1.00  0.00     0.006 A 
ENDBRANCH  60  77
ENDBRANCH  34  35
ENDBRANCH  26  29
ENDBRANCH  24  25
ENDBRANCH  23  24
ENDBRANCH  22  23
ENDBRANCH   1  22
TORSDOF 15
ENDMDL
MODEL 3
REMARK VINA RESULT:     -11.4      5.651     10.440
REMARK SMILES CC(C)(CC(=O)NCCCCNC(=O)c1ccc(-c2c3nc(c(-c4c(F)cccc4F)c4ccc([nH]4)c(-c4c(F)cccc4F)c4nc(c(-c5c(F)cccc5F)c5ccc2[nH]5)C=C4)C=C3)cc1)Cc1nc([C@@]2(C)CCCO2)no1
REMARK SMILES IDX 8 1 7 2 5 3 6 4 4 6 2 7 1 8 3 9 69 10 70 11 71 12 80 13
REMARK SMILES IDX 72 14 79 15 73 16 74 17 75 18 78 19 76 20 77 21 9 22 10 23
REMARK SMILES IDX 11 24 12 25 13 26 14 28 15 29 16 30 68 31 17 32 67 33 18 34
REMARK SMILES IDX 19 35 20 36 61 37 21 38 66 39 60 40 62 41 22 42 65 43 59 44
REMARK SMILES IDX 58 45 23 47 49 48 32 49 48 50 33 51 36 52 47 53 63 54 34 55
REMARK SMILES IDX 35 56 46 58 64 59 37 60 24 61 25 62 30 63 26 64 27 65 29 66
REMARK SMILES IDX 31 67 28 68 50 69 51 70 56 71 52 72 53 73 55 74 57 75 54 76
REMARK SMILES IDX 38 77 39 78 44 79 40 80 41 81 43 82 45 83 42 84
REMARK H PARENT 7 5 12 27 62 46 36 57
REMARK Flexibility Score: inf
ROOT
ATOM      1  C   UNL A   1      37.323  21.990  25.368  1.00  0.00     0.116 C 
ENDROOT
BRANCH   1   2
ATOM      2  N   UNL A   1      36.257  22.162  26.329  1.00  0.00    -0.356 N 
ATOM      3  C   UNL A   1      35.300  23.120  26.395  1.00  0.00     0.220 C 
ATOM      4  O   UNL A   1      34.418  23.021  27.247  1.00  0.00    -0.275 OA
ATOM      5  H   UNL A   1      36.218  21.482  27.041  1.00  0.00     0.163 HD
BRANCH   3   6
ATOM      6  C   UNL A   1      35.290  24.273  25.416  1.00  0.00     0.107 C 
BRANCH   6   7
ATOM      7  C   UNL A   1      34.259  24.292  24.249  1.00  0.00    -0.018 C 
ATOM      8  C   UNL A   1      34.116  25.659  23.551  1.00  0.00     0.012 C 
ATOM      9  C   UNL A   1      34.908  23.384  23.155  1.00  0.00     0.012 C 
BRANCH   7  10
ATOM     10  C   UNL A   1      32.853  23.706  24.577  1.00  0.00     0.107 C 
BRANCH  10  11
ATOM     11  C   UNL A   1      32.628  22.219  24.568  1.00  0.00     0.227 A 
ATOM     12  N   UNL A   1      33.185  21.218  23.905  1.00  0.00    -0.193 NA
ATOM     13  O   UNL A   1      31.753  21.788  25.527  1.00  0.00    -0.339 OA
ATOM     14  C   UNL A   1      32.575  20.098  24.479  1.00  0.00     0.203 A 
ATOM     15  N   UNL A   1      31.722  20.405  25.469  1.00  0.00    -0.059 NA
BRANCH  14  16
ATOM     16  C   UNL A   1      32.833  18.636  24.124  1.00  0.00     0.128 C 
ATOM     17  C   UNL A   1      32.419  18.243  22.698  1.00  0.00     0.051 C 
ATOM     18  C   UNL A   1      34.305  18.239  24.352  1.00  0.00     0.046 C 
ATOM     19  O   UNL A   1      32.073  17.740  24.995  1.00  0.00    -0.367 OA
ATOM     20  C   UNL A   1      34.220  16.772  24.707  1.00  0.00     0.032 C 
ATOM     21  C   UNL A   1      32.928  16.702  25.488  1.00  0.00     0.161 C 
ENDBRANCH  14  16
ENDBRANCH  10  11
ENDBRANCH   7  10
ENDBRANCH   6   7
ENDBRANCH   3   6
ENDBRANCH   1   2
BRANCH   1  22
ATOM     22  C   UNL A   1      37.158  20.710  24.564  1.00  0.00     0.023 C 
BRANCH  22  23
ATOM     23  C   UNL A   1      38.089  19.595  24.976  1.00  0.00     0.023 C 
BRANCH  23  24
ATOM     24  C   UNL A   1      39.174  20.004  25.936  1.00  0.00     0.116 C 
BRANCH  24  25
ATOM     25  N   UNL A   1      40.325  19.120  25.868  1.00  0.00    -0.352 N 
ATOM     26  C   UNL A   1      41.650  19.433  26.009  1.00  0.00     0.251 C 
ATOM     27  H   UNL A   1      40.125  18.171  25.699  1.00  0.00     0.163 HD
ATOM     28  O   UNL A   1      42.515  18.603  25.726  1.00  0.00    -0.269 OA
BRANCH  26  29
ATOM     29  C   UNL A   1      42.033  20.776  26.489  1.00  0.00     0.039 A 
ATOM     30  C   UNL A   1      42.123  21.010  27.862  1.00  0.00     0.014 A 
ATOM     31  C   UNL A   1      42.305  21.804  25.582  1.00  0.00     0.014 A 
ATOM     32  C   UNL A   1      42.494  22.273  28.317  1.00  0.00     0.010 A 
ATOM     33  C   UNL A   1      42.820  23.007  26.030  1.00  0.00     0.010 A 
ATOM     34  C   UNL A   1      42.853  23.277  27.401  1.00  0.00    -0.014 A 
BRANCH  34  35
ATOM     35  C   UNL A   1      43.147  24.656  27.849  1.00  0.00     0.031 A 
ATOM     36  C   UNL A   1      44.582  25.111  27.936  1.00  0.00     0.074 A 
ATOM     37  C   UNL A   1      42.141  25.478  28.198  1.00  0.00     0.049 A 
ATOM     38  N   UNL A   1      45.063  26.266  28.318  1.00  0.00    -0.248 NA
ATOM     39  C   UNL A   1      45.620  24.123  27.586  1.00  0.00     0.031 C 
ATOM     40  C   UNL A   1      40.720  25.124  28.209  1.00  0.00     0.029 A 
ATOM     41  N   UNL A   1      42.163  26.787  28.602  1.00  0.00    -0.354 N 
ATOM     42  C   UNL A   1      46.445  26.131  28.268  1.00  0.00     0.074 A 
ATOM     43  C   UNL A   1      46.731  24.763  27.908  1.00  0.00     0.031 C 
ATOM     44  C   UNL A   1      40.003  26.204  28.557  1.00  0.00     0.029 A 
ATOM     45  C   UNL A   1      40.913  27.312  28.825  1.00  0.00     0.049 A 
ATOM     46  H   UNL A   1      42.993  27.301  28.721  1.00  0.00     0.167 HD
ATOM     47  C   UNL A   1      47.396  27.074  28.464  1.00  0.00     0.037 A 
ATOM     48  C   UNL A   1      40.553  28.554  29.193  1.00  0.00     0.037 A 
ATOM     49  C   UNL A   1      47.100  28.443  28.783  1.00  0.00     0.049 A 
ATOM     50  C   UNL A   1      41.626  29.591  29.386  1.00  0.00     0.074 A 
ATOM     51  C   UNL A   1      47.976  29.499  28.954  1.00  0.00     0.029 A 
ATOM     52  N   UNL A   1      45.821  28.945  28.975  1.00  0.00    -0.354 N 
ATOM     53  N   UNL A   1      42.927  29.470  29.270  1.00  0.00    -0.248 NA
ATOM     54  C   UNL A   1      41.177  30.943  29.743  1.00  0.00     0.031 C 
ATOM     55  C   UNL A   1      47.229  30.631  29.295  1.00  0.00     0.029 A 
ATOM     56  C   UNL A   1      45.885  30.293  29.275  1.00  0.00     0.049 A 
ATOM     57  H   UNL A   1      44.991  28.419  28.907  1.00  0.00     0.167 HD
ATOM     58  C   UNL A   1      43.450  30.737  29.500  1.00  0.00     0.074 A 
ATOM     59  C   UNL A   1      42.322  31.611  29.747  1.00  0.00     0.031 C 
ATOM     60  C   UNL A   1      44.743  31.144  29.502  1.00  0.00     0.037 A 
BRANCH  47  61
ATOM     61  C   UNL A   1      48.831  26.652  28.325  1.00  0.00     0.057 A 
ATOM     62  C   UNL A   1      49.499  26.681  27.091  1.00  0.00     0.134 A 
ATOM     63  C   UNL A   1      49.561  26.220  29.439  1.00  0.00     0.134 A 
ATOM     64  F   UNL A   1      48.854  27.065  25.978  1.00  0.00    -0.206 F 
ATOM     65  C   UNL A   1      50.826  26.265  26.965  1.00  0.00     0.040 A 
ATOM     66  C   UNL A   1      50.898  25.833  29.332  1.00  0.00     0.040 A 
ATOM     67  F   UNL A   1      48.987  26.167  30.650  1.00  0.00    -0.206 F 
ATOM     68  C   UNL A   1      51.531  25.847  28.091  1.00  0.00     0.006 A 
ENDBRANCH  47  61
BRANCH  48  69
ATOM     69  C   UNL A   1      39.118  28.897  29.358  1.00  0.00     0.057 A 
ATOM     70  C   UNL A   1      38.370  29.413  28.291  1.00  0.00     0.134 A 
ATOM     71  C   UNL A   1      38.460  28.729  30.581  1.00  0.00     0.134 A 
ATOM     72  F   UNL A   1      38.945  29.607  27.095  1.00  0.00    -0.206 F 
ATOM     73  C   UNL A   1      37.032  29.778  28.444  1.00  0.00     0.040 A 
ATOM     74  C   UNL A   1      37.115  29.064  30.741  1.00  0.00     0.040 A 
ATOM     75  F   UNL A   1      39.115  28.226  31.639  1.00  0.00    -0.206 F 
ATOM     76  C   UNL A   1      36.400  29.600  29.672  1.00  0.00     0.006 A 
ENDBRANCH  48  69
BRANCH  60  77
ATOM     77  C   UNL A   1      44.999  32.606  29.720  1.00  0.00     0.057 A 
ATOM     78  C   UNL A   1      45.229  33.142  30.993  1.00  0.00     0.134 A 
ATOM     79  C   UNL A   1      45.036  33.487  28.631  1.00  0.00     0.134 A 
ATOM     80  F   UNL A   1      45.198  32.355  32.080  1.00  0.00    -0.206 F 
ATOM     81  C   UNL A   1      45.448  34.508  31.179  1.00  0.00     0.040 A 
ATOM     82  C   UNL A   1      45.290  34.847  28.800  1.00  0.00     0.040 A 
ATOM     83  F   UNL A   1      44.839  33.035  27.382  1.00  0.00    -0.206 F 
ATOM     84  C   UNL A   1      45.484  35.364  30.079  1.00  0.00     0.006 A 
ENDBRANCH  60  77
ENDBRANCH  34  35
ENDBRANCH  26  29
ENDBRANCH  24  25
ENDBRANCH  23  24
ENDBRANCH  22  23
ENDBRANCH   1  22
TORSDOF 15
ENDMDL
