MODEL 1
REMARK VINA RESULT:     -12.0      0.000      0.000
REMARK SMILES Cc1cc(C(=O)N2[C@@H](C(=O)NCCCCNC(=O)c3ccc(-c4c5nc(c(-c6c(F)cccc6F)c6ccc([nH]6)c(-c6c(F)cccc6F)c6nc(c(-c7c(F)cccc7F)c7ccc4[nH]7)C=C6)C=C5)cc3)C[C@H]3CCCC[C@H]32)c(C)s1
REMARK SMILES IDX 13 1 12 2 11 3 9 4 10 5 8 7 7 8 79 9 73 10 74 11 78 12 75 13
REMARK SMILES IDX 77 14 76 15 5 16 6 17 4 18 1 19 2 20 3 21 82 22 80 23 81 24
REMARK SMILES IDX 14 25 15 26 16 27 17 28 18 30 19 31 20 32 72 33 21 34 71 35
REMARK SMILES IDX 22 36 23 37 24 38 65 39 25 40 70 41 64 42 66 43 26 44 69 45
REMARK SMILES IDX 63 46 62 47 27 49 53 50 36 51 52 52 37 53 40 54 51 55 67 56
REMARK SMILES IDX 38 57 39 58 50 60 68 61 41 62 28 63 29 64 34 65 30 66 31 67
REMARK SMILES IDX 33 68 35 69 32 70 54 71 55 72 60 73 56 74 57 75 59 76 61 77
REMARK SMILES IDX 58 78 42 79 43 80 48 81 44 82 45 83 47 84 49 85 46 86
REMARK H PARENT 11 6 16 29 66 48 40 59
REMARK Flexibility Score: inf
ROOT
ATOM      1  C   UNL A   1      36.839  22.126  24.166  1.00  0.00     0.023 C 
ENDROOT
BRANCH   1   2
ATOM      2  C   UNL A   1      36.140  23.282  24.877  1.00  0.00     0.116 C 
BRANCH   2   3
ATOM      3  N   UNL A   1      35.302  24.063  23.993  1.00  0.00    -0.354 N 
ATOM      4  C   UNL A   1      34.424  25.080  24.211  1.00  0.00     0.242 C 
ATOM      5  O   UNL A   1      33.961  25.611  23.190  1.00  0.00    -0.273 OA
ATOM      6  H   UNL A   1      35.382  23.808  23.045  1.00  0.00     0.163 HD
BRANCH   4   7
ATOM      7  C   UNL A   1      33.879  25.524  25.596  1.00  0.00     0.175 C 
ATOM      8  N   UNL A   1      32.466  25.348  25.955  1.00  0.00    -0.323 N 
ATOM      9  C   UNL A   1      31.789  26.636  26.094  1.00  0.00     0.089 C 
ATOM     10  C   UNL A   1      34.112  27.048  25.733  1.00  0.00     0.041 C 
ATOM     11  C   UNL A   1      32.927  27.535  26.578  1.00  0.00     0.014 C 
ATOM     12  C   UNL A   1      31.177  27.122  24.777  1.00  0.00     0.025 C 
ATOM     13  C   UNL A   1      32.629  29.028  26.487  1.00  0.00     0.006 C 
ATOM     14  C   UNL A   1      30.798  28.595  24.811  1.00  0.00     0.002 C 
ATOM     15  C   UNL A   1      32.008  29.455  25.161  1.00  0.00     0.000 C 
BRANCH   8  16
ATOM     16  C   UNL A   1      31.824  24.182  26.351  1.00  0.00     0.255 C 
ATOM     17  O   UNL A   1      31.055  24.175  27.310  1.00  0.00    -0.269 OA
BRANCH  16  18
ATOM     18  C   UNL A   1      32.118  22.948  25.619  1.00  0.00     0.053 A 
ATOM     19  C   UNL A   1      32.058  20.936  22.396  1.00  0.00     0.056 C 
ATOM     20  C   UNL A   1      32.222  21.503  23.763  1.00  0.00     0.003 A 
ATOM     21  C   UNL A   1      31.722  22.685  24.260  1.00  0.00     0.029 A 
ATOM     22  S   UNL A   1      33.168  20.693  24.926  1.00  0.00    -0.145 S 
ATOM     23  C   UNL A   1      32.957  21.943  26.082  1.00  0.00     0.014 A 
ATOM     24  C   UNL A   1      33.686  21.841  27.383  1.00  0.00     0.057 C 
ENDBRANCH  16  18
ENDBRANCH   8  16
ENDBRANCH   4   7
ENDBRANCH   2   3
ENDBRANCH   1   2
BRANCH   1  25
ATOM     25  C   UNL A   1      37.295  20.984  25.063  1.00  0.00     0.023 C 
BRANCH  25  26
ATOM     26  C   UNL A   1      38.664  21.165  25.700  1.00  0.00     0.116 C 
BRANCH  26  27
ATOM     27  N   UNL A   1      39.524  19.992  25.610  1.00  0.00    -0.352 N 
ATOM     28  C   UNL A   1      40.845  19.871  25.977  1.00  0.00     0.251 C 
ATOM     29  H   UNL A   1      39.106  19.181  25.238  1.00  0.00     0.163 HD
ATOM     30  O   UNL A   1      41.464  18.830  25.780  1.00  0.00    -0.269 OA
BRANCH  28  31
ATOM     31  C   UNL A   1      41.522  21.040  26.567  1.00  0.00     0.039 A 
ATOM     32  C   UNL A   1      42.044  22.017  25.718  1.00  0.00     0.014 A 
ATOM     33  C   UNL A   1      41.535  21.214  27.953  1.00  0.00     0.014 A 
ATOM     34  C   UNL A   1      42.496  23.221  26.260  1.00  0.00     0.010 A 
ATOM     35  C   UNL A   1      41.897  22.446  28.480  1.00  0.00     0.010 A 
ATOM     36  C   UNL A   1      42.376  23.463  27.638  1.00  0.00    -0.014 A 
BRANCH  36  37
ATOM     37  C   UNL A   1      42.742  24.773  28.231  1.00  0.00     0.031 A 
ATOM     38  C   UNL A   1      41.686  25.820  28.433  1.00  0.00     0.074 A 
ATOM     39  C   UNL A   1      44.033  25.049  28.500  1.00  0.00     0.049 A 
ATOM     40  N   UNL A   1      41.814  27.060  28.829  1.00  0.00    -0.248 NA
ATOM     41  C   UNL A   1      40.303  25.434  28.107  1.00  0.00     0.031 C 
ATOM     42  C   UNL A   1      45.161  24.139  28.288  1.00  0.00     0.029 A 
ATOM     43  N   UNL A   1      44.616  26.186  29.001  1.00  0.00    -0.354 N 
ATOM     44  C   UNL A   1      40.539  27.607  28.772  1.00  0.00     0.074 A 
ATOM     45  C   UNL A   1      39.660  26.583  28.252  1.00  0.00     0.031 C 
ATOM     46  C   UNL A   1      46.295  24.743  28.682  1.00  0.00     0.029 A 
ATOM     47  C   UNL A   1      45.979  26.091  29.142  1.00  0.00     0.049 A 
ATOM     48  H   UNL A   1      44.105  26.993  29.238  1.00  0.00     0.167 HD
ATOM     49  C   UNL A   1      40.132  28.842  29.145  1.00  0.00     0.037 A 
ATOM     50  C   UNL A   1      46.872  26.993  29.591  1.00  0.00     0.037 A 
ATOM     51  C   UNL A   1      40.998  29.841  29.708  1.00  0.00     0.049 A 
ATOM     52  C   UNL A   1      46.390  28.346  30.034  1.00  0.00     0.074 A 
ATOM     53  C   UNL A   1      40.670  31.098  30.184  1.00  0.00     0.029 A 
ATOM     54  N   UNL A   1      42.366  29.691  29.877  1.00  0.00    -0.354 N 
ATOM     55  N   UNL A   1      45.171  28.828  30.033  1.00  0.00    -0.248 NA
ATOM     56  C   UNL A   1      47.405  29.277  30.544  1.00  0.00     0.031 C 
ATOM     57  C   UNL A   1      41.846  31.718  30.620  1.00  0.00     0.029 A 
ATOM     58  C   UNL A   1      42.899  30.835  30.444  1.00  0.00     0.049 A 
ATOM     59  H   UNL A   1      42.881  28.888  29.631  1.00  0.00     0.167 HD
ATOM     60  C   UNL A   1      45.268  30.106  30.566  1.00  0.00     0.074 A 
ATOM     61  C   UNL A   1      46.663  30.321  30.889  1.00  0.00     0.031 C 
ATOM     62  C   UNL A   1      44.290  31.021  30.769  1.00  0.00     0.037 A 
BRANCH  49  63
ATOM     63  C   UNL A   1      38.678  29.167  28.968  1.00  0.00     0.057 A 
ATOM     64  C   UNL A   1      37.771  29.092  30.033  1.00  0.00     0.134 A 
ATOM     65  C   UNL A   1      38.181  29.569  27.722  1.00  0.00     0.134 A 
ATOM     66  F   UNL A   1      38.182  28.697  31.247  1.00  0.00    -0.206 F 
ATOM     67  C   UNL A   1      36.417  29.378  29.860  1.00  0.00     0.040 A 
ATOM     68  C   UNL A   1      36.833  29.884  27.543  1.00  0.00     0.040 A 
ATOM     69  F   UNL A   1      38.996  29.664  26.661  1.00  0.00    -0.206 F 
ATOM     70  C   UNL A   1      35.945  29.781  28.612  1.00  0.00     0.006 A 
ENDBRANCH  49  63
BRANCH  50  71
ATOM     71  C   UNL A   1      48.309  26.636  29.681  1.00  0.00     0.057 A 
ATOM     72  C   UNL A   1      49.195  26.954  28.644  1.00  0.00     0.134 A 
ATOM     73  C   UNL A   1      48.832  25.964  30.792  1.00  0.00     0.134 A 
ATOM     74  F   UNL A   1      48.747  27.581  27.545  1.00  0.00    -0.206 F 
ATOM     75  C   UNL A   1      50.544  26.604  28.699  1.00  0.00     0.040 A 
ATOM     76  C   UNL A   1      50.185  25.626  30.870  1.00  0.00     0.040 A 
ATOM     77  F   UNL A   1      48.038  25.638  31.821  1.00  0.00    -0.206 F 
ATOM     78  C   UNL A   1      51.043  25.940  29.818  1.00  0.00     0.006 A 
ENDBRANCH  50  71
BRANCH  62  79
ATOM     79  C   UNL A   1      44.688  32.321  31.400  1.00  0.00     0.057 A 
ATOM     80  C   UNL A   1      45.061  33.429  30.630  1.00  0.00     0.134 A 
ATOM     81  C   UNL A   1      44.657  32.476  32.791  1.00  0.00     0.134 A 
ATOM     82  F   UNL A   1      45.124  33.338  29.293  1.00  0.00    -0.206 F 
ATOM     83  C   UNL A   1      45.405  34.644  31.224  1.00  0.00     0.040 A 
ATOM     84  C   UNL A   1      44.976  33.691  33.395  1.00  0.00     0.040 A 
ATOM     85  F   UNL A   1      44.300  31.453  33.582  1.00  0.00    -0.206 F 
ATOM     86  C   UNL A   1      45.356  34.779  32.611  1.00  0.00     0.006 A 
ENDBRANCH  62  79
ENDBRANCH  36  37
ENDBRANCH  28  31
ENDBRANCH  26  27
ENDBRANCH  25  26
ENDBRANCH   1  25
TORSDOF 13
ENDMDL
MODEL 2
REMARK VINA RESULT:     -11.9      0.496      6.145
REMARK SMILES Cc1cc(C(=O)N2[C@@H](C(=O)NCCCCNC(=O)c3ccc(-c4c5nc(c(-c6c(F)cccc6F)c6ccc([nH]6)c(-c6c(F)cccc6F)c6nc(c(-c7c(F)cccc7F)c7ccc4[nH]7)C=C6)C=C5)cc3)C[C@H]3CCCC[C@H]32)c(C)s1
REMARK SMILES IDX 13 1 12 2 11 3 9 4 10 5 8 7 7 8 79 9 73 10 74 11 78 12 75 13
REMARK SMILES IDX 77 14 76 15 5 16 6 17 4 18 1 19 2 20 3 21 82 22 80 23 81 24
REMARK SMILES IDX 14 25 15 26 16 27 17 28 18 30 19 31 20 32 72 33 21 34 71 35
REMARK SMILES IDX 22 36 23 37 24 38 65 39 25 40 70 41 64 42 66 43 26 44 69 45
REMARK SMILES IDX 63 46 62 47 27 49 53 50 36 51 52 52 37 53 40 54 51 55 67 56
REMARK SMILES IDX 38 57 39 58 50 60 68 61 41 62 28 63 29 64 34 65 30 66 31 67
REMARK SMILES IDX 33 68 35 69 32 70 54 71 55 72 60 73 56 74 57 75 59 76 61 77
REMARK SMILES IDX 58 78 42 79 43 80 48 81 44 82 45 83 47 84 49 85 46 86
REMARK H PARENT 11 6 16 29 66 48 40 59
REMARK Flexibility Score: inf
ROOT
ATOM      1  C   UNL A   1      37.016  21.890  24.016  1.00  0.00     0.023 C 
ENDROOT
BRANCH   1   2
ATOM      2  C   UNL A   1      36.190  22.998  24.665  1.00  0.00     0.116 C 
BRANCH   2   3
ATOM      3  N   UNL A   1      35.233  23.593  23.756  1.00  0.00    -0.354 N 
ATOM      4  C   UNL A   1      34.287  24.557  23.913  1.00  0.00     0.242 C 
ATOM      5  O   UNL A   1      33.717  24.917  22.872  1.00  0.00    -0.273 OA
ATOM      6  H   UNL A   1      35.276  23.226  22.844  1.00  0.00     0.163 HD
BRANCH   4   7
ATOM      7  C   UNL A   1      33.794  25.131  25.270  1.00  0.00     0.175 C 
ATOM      8  N   UNL A   1      32.456  24.822  25.791  1.00  0.00    -0.323 N 
ATOM      9  C   UNL A   1      31.609  26.013  25.816  1.00  0.00     0.089 C 
ATOM     10  C   UNL A   1      33.808  26.675  25.169  1.00  0.00     0.041 C 
ATOM     11  C   UNL A   1      32.636  27.121  26.052  1.00  0.00     0.014 C 
ATOM     12  C   UNL A   1      30.828  26.205  24.512  1.00  0.00     0.025 C 
ATOM     13  C   UNL A   1      32.113  28.529  25.783  1.00  0.00     0.006 C 
ATOM     14  C   UNL A   1      30.239  27.601  24.378  1.00  0.00     0.002 C 
ATOM     15  C   UNL A   1      31.331  28.660  24.480  1.00  0.00     0.000 C 
BRANCH   8  16
ATOM     16  C   UNL A   1      32.028  23.655  26.409  1.00  0.00     0.255 C 
ATOM     17  O   UNL A   1      31.415  23.688  27.474  1.00  0.00    -0.269 OA
BRANCH  16  18
ATOM     18  C   UNL A   1      32.361  22.376  25.778  1.00  0.00     0.053 A 
ATOM     19  C   UNL A   1      32.192  20.033  22.791  1.00  0.00     0.056 C 
ATOM     20  C   UNL A   1      32.426  20.754  24.073  1.00  0.00     0.003 A 
ATOM     21  C   UNL A   1      31.872  21.941  24.497  1.00  0.00     0.029 A 
ATOM     22  S   UNL A   1      33.536  20.147  25.214  1.00  0.00    -0.145 S 
ATOM     23  C   UNL A   1      33.321  21.493  26.255  1.00  0.00     0.014 A 
ATOM     24  C   UNL A   1      34.168  21.587  27.483  1.00  0.00     0.057 C 
ENDBRANCH  16  18
ENDBRANCH   8  16
ENDBRANCH   4   7
ENDBRANCH   2   3
ENDBRANCH   1   2
BRANCH   1  25
ATOM     25  C   UNL A   1      37.395  20.733  24.930  1.00  0.00     0.023 C 
BRANCH  25  26
ATOM     26  C   UNL A   1      38.674  20.929  25.729  1.00  0.00     0.116 C 
BRANCH  26  27
ATOM     27  N   UNL A   1      39.604  19.809  25.649  1.00  0.00    -0.352 N 
ATOM     28  C   UNL A   1      40.933  19.775  26.006  1.00  0.00     0.251 C 
ATOM     29  H   UNL A   1      39.234  18.969  25.291  1.00  0.00     0.163 HD
ATOM     30  O   UNL A   1      41.613  18.772  25.819  1.00  0.00    -0.269 OA
BRANCH  28  31
ATOM     31  C   UNL A   1      41.541  20.992  26.575  1.00  0.00     0.039 A 
ATOM     32  C   UNL A   1      42.111  21.928  25.711  1.00  0.00     0.014 A 
ATOM     33  C   UNL A   1      41.441  21.248  27.944  1.00  0.00     0.014 A 
ATOM     34  C   UNL A   1      42.497  23.172  26.212  1.00  0.00     0.010 A 
ATOM     35  C   UNL A   1      41.740  22.517  28.421  1.00  0.00     0.010 A 
ATOM     36  C   UNL A   1      42.265  23.492  27.559  1.00  0.00    -0.014 A 
BRANCH  36  37
ATOM     37  C   UNL A   1      42.561  24.843  28.097  1.00  0.00     0.031 A 
ATOM     38  C   UNL A   1      43.956  25.180  28.538  1.00  0.00     0.074 A 
ATOM     39  C   UNL A   1      41.561  25.729  28.271  1.00  0.00     0.049 A 
ATOM     40  N   UNL A   1      44.399  26.257  29.134  1.00  0.00    -0.248 NA
ATOM     41  C   UNL A   1      44.985  24.150  28.315  1.00  0.00     0.031 C 
ATOM     42  C   UNL A   1      40.152  25.500  27.942  1.00  0.00     0.029 A 
ATOM     43  N   UNL A   1      41.577  27.003  28.783  1.00  0.00    -0.354 N 
ATOM     44  C   UNL A   1      45.745  26.022  29.382  1.00  0.00     0.074 A 
ATOM     45  C   UNL A   1      46.035  24.682  28.922  1.00  0.00     0.031 C 
ATOM     46  C   UNL A   1      39.446  26.604  28.234  1.00  0.00     0.029 A 
ATOM     47  C   UNL A   1      40.343  27.606  28.800  1.00  0.00     0.049 A 
ATOM     48  H   UNL A   1      42.396  27.442  29.106  1.00  0.00     0.167 HD
ATOM     49  C   UNL A   1      46.663  26.857  29.919  1.00  0.00     0.037 A 
ATOM     50  C   UNL A   1      39.979  28.830  29.228  1.00  0.00     0.037 A 
ATOM     51  C   UNL A   1      46.384  28.206  30.329  1.00  0.00     0.049 A 
ATOM     52  C   UNL A   1      41.025  29.753  29.787  1.00  0.00     0.074 A 
ATOM     53  C   UNL A   1      47.261  29.158  30.819  1.00  0.00     0.029 A 
ATOM     54  N   UNL A   1      45.130  28.797  30.289  1.00  0.00    -0.354 N 
ATOM     55  N   UNL A   1      42.307  29.540  29.958  1.00  0.00    -0.248 NA
ATOM     56  C   UNL A   1      40.574  31.087  30.207  1.00  0.00     0.031 C 
ATOM     57  C   UNL A   1      46.531  30.319  31.098  1.00  0.00     0.029 A 
ATOM     58  C   UNL A   1      45.207  30.099  30.752  1.00  0.00     0.049 A 
ATOM     59  H   UNL A   1      44.307  28.355  29.976  1.00  0.00     0.167 HD
ATOM     60  C   UNL A   1      42.821  30.719  30.479  1.00  0.00     0.074 A 
ATOM     61  C   UNL A   1      41.714  31.648  30.587  1.00  0.00     0.031 C 
ATOM     62  C   UNL A   1      44.095  31.009  30.838  1.00  0.00     0.037 A 
BRANCH  49  63
ATOM     63  C   UNL A   1      48.060  26.332  30.074  1.00  0.00     0.057 A 
ATOM     64  C   UNL A   1      48.490  25.722  31.259  1.00  0.00     0.134 A 
ATOM     65  C   UNL A   1      48.981  26.429  29.025  1.00  0.00     0.134 A 
ATOM     66  F   UNL A   1      47.660  25.614  32.308  1.00  0.00    -0.206 F 
ATOM     67  C   UNL A   1      49.795  25.251  31.406  1.00  0.00     0.040 A 
ATOM     68  C   UNL A   1      50.282  25.937  29.150  1.00  0.00     0.040 A 
ATOM     69  F   UNL A   1      48.633  27.000  27.862  1.00  0.00    -0.206 F 
ATOM     70  C   UNL A   1      50.694  25.353  30.346  1.00  0.00     0.006 A 
ENDBRANCH  49  63
BRANCH  50  71
ATOM     71  C   UNL A   1      38.566  29.269  29.109  1.00  0.00     0.057 A 
ATOM     72  C   UNL A   1      38.054  29.713  27.884  1.00  0.00     0.134 A 
ATOM     73  C   UNL A   1      37.700  29.264  30.208  1.00  0.00     0.134 A 
ATOM     74  F   UNL A   1      38.843  29.758  26.801  1.00  0.00    -0.206 F 
ATOM     75  C   UNL A   1      36.736  30.154  27.759  1.00  0.00     0.040 A 
ATOM     76  C   UNL A   1      36.372  29.682  30.092  1.00  0.00     0.040 A 
ATOM     77  F   UNL A   1      38.128  28.842  31.406  1.00  0.00    -0.206 F 
ATOM     78  C   UNL A   1      35.890  30.135  28.866  1.00  0.00     0.006 A 
ENDBRANCH  50  71
BRANCH  62  79
ATOM     79  C   UNL A   1      44.366  32.392  31.346  1.00  0.00     0.057 A 
ATOM     80  C   UNL A   1      44.305  32.701  32.710  1.00  0.00     0.134 A 
ATOM     81  C   UNL A   1      44.734  33.415  30.462  1.00  0.00     0.134 A 
ATOM     82  F   UNL A   1      43.944  31.768  33.602  1.00  0.00    -0.206 F 
ATOM     83  C   UNL A   1      44.585  33.986  33.177  1.00  0.00     0.040 A 
ATOM     84  C   UNL A   1      45.038  34.697  30.920  1.00  0.00     0.040 A 
ATOM     85  F   UNL A   1      44.818  33.179  29.145  1.00  0.00    -0.206 F 
ATOM     86  C   UNL A   1      44.960  34.986  32.281  1.00  0.00     0.006 A 
ENDBRANCH  62  79
ENDBRANCH  36  37
ENDBRANCH  28  31
ENDBRANCH  26  27
ENDBRANCH  25  26
ENDBRANCH   1  25
TORSDOF 13
ENDMDL
MODEL 3
REMARK VINA RESULT:     -11.8      3.138      8.448
REMARK SMILES Cc1cc(C(=O)N2[C@@H](C(=O)NCCCCNC(=O)c3ccc(-c4c5nc(c(-c6c(F)cccc6F)c6ccc([nH]6)c(-c6c(F)cccc6F)c6nc(c(-c7c(F)cccc7F)c7ccc4[nH]7)C=C6)C=C5)cc3)C[C@H]3CCCC[C@H]32)c(C)s1
REMARK SMILES IDX 13 1 12 2 11 3 9 4 10 5 8 7 7 8 79 9 73 10 74 11 78 12 75 13
REMARK SMILES IDX 77 14 76 15 5 16 6 17 4 18 1 19 2 20 3 21 82 22 80 23 81 24
REMARK SMILES IDX 14 25 15 26 16 27 17 28 18 30 19 31 20 32 72 33 21 34 71 35
REMARK SMILES IDX 22 36 23 37 24 38 65 39 25 40 70 41 64 42 66 43 26 44 69 45
REMARK SMILES IDX 63 46 62 47 27 49 53 50 36 51 52 52 37 53 40 54 51 55 67 56
REMARK SMILES IDX 38 57 39 58 50 60 68 61 41 62 28 63 29 64 34 65 30 66 31 67
REMARK SMILES IDX 33 68 35 69 32 70 54 71 55 72 60 73 56 74 57 75 59 76 61 77
REMARK SMILES IDX 58 78 42 79 43 80 48 81 44 82 45 83 47 84 49 85 46 86
REMARK H PARENT 11 6 16 29 66 48 40 59
REMARK Flexibility Score: inf
ROOT
ATOM      1  C   UNL A   1      31.850  29.438  27.263  1.00  0.00     0.023 C 
ENDROOT
BRANCH   1   2
ATOM      2  C   UNL A   1      32.772  28.425  26.587  1.00  0.00     0.116 C 
BRANCH   2   3
ATOM      3  N   UNL A   1      32.232  27.082  26.592  1.00  0.00    -0.354 N 
ATOM      4  C   UNL A   1      32.699  25.896  26.114  1.00  0.00     0.242 C 
ATOM      5  O   UNL A   1      32.020  24.901  26.406  1.00  0.00    -0.273 OA
ATOM      6  H   UNL A   1      31.352  27.012  27.027  1.00  0.00     0.163 HD
BRANCH   4   7
ATOM      7  C   UNL A   1      33.908  25.720  25.155  1.00  0.00     0.175 C 
ATOM      8  N   UNL A   1      33.738  25.176  23.802  1.00  0.00    -0.323 N 
ATOM      9  C   UNL A   1      34.382  23.870  23.671  1.00  0.00     0.089 C 
ATOM     10  C   UNL A   1      34.911  24.749  25.825  1.00  0.00     0.041 C 
ATOM     11  C   UNL A   1      35.550  23.998  24.650  1.00  0.00     0.014 C 
ATOM     12  C   UNL A   1      33.442  22.714  24.027  1.00  0.00     0.025 C 
ATOM     13  C   UNL A   1      36.218  22.674  25.007  1.00  0.00     0.006 C 
ATOM     14  C   UNL A   1      34.179  21.402  24.250  1.00  0.00     0.002 C 
ATOM     15  C   UNL A   1      35.236  21.555  25.338  1.00  0.00     0.000 C 
BRANCH   8  16
ATOM     16  C   UNL A   1      33.254  25.825  22.674  1.00  0.00     0.255 C 
ATOM     17  O   UNL A   1      33.786  25.674  21.576  1.00  0.00    -0.269 OA
BRANCH  16  18
ATOM     18  C   UNL A   1      32.112  26.728  22.834  1.00  0.00     0.053 A 
ATOM     19  C   UNL A   1      28.429  27.281  23.587  1.00  0.00     0.056 C 
ATOM     20  C   UNL A   1      29.885  27.346  23.284  1.00  0.00     0.003 A 
ATOM     21  C   UNL A   1      30.753  26.305  23.046  1.00  0.00     0.029 A 
ATOM     22  S   UNL A   1      30.694  28.845  23.251  1.00  0.00    -0.145 S 
ATOM     23  C   UNL A   1      32.216  28.107  22.970  1.00  0.00     0.014 A 
ATOM     24  C   UNL A   1      33.434  28.973  22.934  1.00  0.00     0.057 C 
ENDBRANCH  16  18
ENDBRANCH   8  16
ENDBRANCH   4   7
ENDBRANCH   2   3
ENDBRANCH   1   2
BRANCH   1  25
ATOM     25  C   UNL A   1      31.837  30.828  26.642  1.00  0.00     0.023 C 
BRANCH  25  26
ATOM     26  C   UNL A   1      32.944  31.759  27.112  1.00  0.00     0.116 C 
BRANCH  26  27
ATOM     27  N   UNL A   1      32.480  33.083  27.510  1.00  0.00    -0.352 N 
ATOM     28  C   UNL A   1      33.107  33.998  28.324  1.00  0.00     0.251 C 
ATOM     29  H   UNL A   1      31.605  33.357  27.151  1.00  0.00     0.163 HD
ATOM     30  O   UNL A   1      32.561  35.054  28.626  1.00  0.00    -0.269 OA
BRANCH  28  31
ATOM     31  C   UNL A   1      34.434  33.661  28.872  1.00  0.00     0.039 A 
ATOM     32  C   UNL A   1      34.511  33.053  30.126  1.00  0.00     0.014 A 
ATOM     33  C   UNL A   1      35.578  33.848  28.094  1.00  0.00     0.014 A 
ATOM     34  C   UNL A   1      35.734  32.540  30.561  1.00  0.00     0.010 A 
ATOM     35  C   UNL A   1      36.771  33.257  28.488  1.00  0.00     0.010 A 
ATOM     36  C   UNL A   1      36.859  32.592  29.722  1.00  0.00    -0.014 A 
BRANCH  36  37
ATOM     37  C   UNL A   1      38.144  31.959  30.107  1.00  0.00     0.031 A 
ATOM     38  C   UNL A   1      39.084  32.683  31.027  1.00  0.00     0.074 A 
ATOM     39  C   UNL A   1      38.500  30.780  29.562  1.00  0.00     0.049 A 
ATOM     40  N   UNL A   1      40.296  32.357  31.396  1.00  0.00    -0.248 NA
ATOM     41  C   UNL A   1      38.616  33.968  31.572  1.00  0.00     0.031 C 
ATOM     42  C   UNL A   1      37.702  30.007  28.607  1.00  0.00     0.029 A 
ATOM     43  N   UNL A   1      39.637  30.029  29.725  1.00  0.00    -0.354 N 
ATOM     44  C   UNL A   1      40.742  33.405  32.190  1.00  0.00     0.074 A 
ATOM     45  C   UNL A   1      39.695  34.403  32.205  1.00  0.00     0.031 C 
ATOM     46  C   UNL A   1      38.362  28.880  28.291  1.00  0.00     0.029 A 
ATOM     47  C   UNL A   1      39.641  28.866  28.994  1.00  0.00     0.049 A 
ATOM     48  H   UNL A   1      40.380  30.299  30.312  1.00  0.00     0.167 HD
ATOM     49  C   UNL A   1      41.908  33.516  32.867  1.00  0.00     0.037 A 
ATOM     50  C   UNL A   1      40.574  27.900  28.901  1.00  0.00     0.037 A 
ATOM     51  C   UNL A   1      42.926  32.502  32.891  1.00  0.00     0.049 A 
ATOM     52  C   UNL A   1      41.845  28.028  29.692  1.00  0.00     0.074 A 
ATOM     53  C   UNL A   1      44.112  32.486  33.603  1.00  0.00     0.029 A 
ATOM     54  N   UNL A   1      42.872  31.317  32.172  1.00  0.00    -0.354 N 
ATOM     55  N   UNL A   1      42.227  28.997  30.488  1.00  0.00    -0.248 NA
ATOM     56  C   UNL A   1      42.812  26.928  29.576  1.00  0.00     0.031 C 
ATOM     57  C   UNL A   1      44.788  31.300  33.296  1.00  0.00     0.029 A 
ATOM     58  C   UNL A   1      44.008  30.565  32.419  1.00  0.00     0.049 A 
ATOM     59  H   UNL A   1      42.135  31.050  31.576  1.00  0.00     0.167 HD
ATOM     60  C   UNL A   1      43.463  28.612  30.988  1.00  0.00     0.074 A 
ATOM     61  C   UNL A   1      43.763  27.317  30.414  1.00  0.00     0.031 C 
ATOM     62  C   UNL A   1      44.279  29.272  31.846  1.00  0.00     0.037 A 
BRANCH  49  63
ATOM     63  C   UNL A   1      42.128  34.776  33.651  1.00  0.00     0.057 A 
ATOM     64  C   UNL A   1      42.775  35.887  33.094  1.00  0.00     0.134 A 
ATOM     65  C   UNL A   1      41.681  34.884  34.973  1.00  0.00     0.134 A 
ATOM     66  F   UNL A   1      43.242  35.840  31.837  1.00  0.00    -0.206 F 
ATOM     67  C   UNL A   1      42.994  37.050  33.832  1.00  0.00     0.040 A 
ATOM     68  C   UNL A   1      41.870  36.052  35.713  1.00  0.00     0.040 A 
ATOM     69  F   UNL A   1      41.051  33.858  35.566  1.00  0.00    -0.206 F 
ATOM     70  C   UNL A   1      42.535  37.137  35.145  1.00  0.00     0.006 A 
ENDBRANCH  49  63
BRANCH  50  71
ATOM     71  C   UNL A   1      40.326  26.706  28.055  1.00  0.00     0.057 A 
ATOM     72  C   UNL A   1      39.511  25.662  28.509  1.00  0.00     0.134 A 
ATOM     73  C   UNL A   1      40.897  26.573  26.784  1.00  0.00     0.134 A 
ATOM     74  F   UNL A   1      38.952  25.725  29.727  1.00  0.00    -0.206 F 
ATOM     75  C   UNL A   1      39.287  24.521  27.738  1.00  0.00     0.040 A 
ATOM     76  C   UNL A   1      40.664  25.446  25.993  1.00  0.00     0.040 A 
ATOM     77  F   UNL A   1      41.681  27.542  26.289  1.00  0.00    -0.206 F 
ATOM     78  C   UNL A   1      39.862  24.413  26.474  1.00  0.00     0.006 A 
ENDBRANCH  50  71
BRANCH  62  79
ATOM     79  C   UNL A   1      45.553  28.589  32.241  1.00  0.00     0.057 A 
ATOM     80  C   UNL A   1      45.611  27.712  33.330  1.00  0.00     0.134 A 
ATOM     81  C   UNL A   1      46.723  28.780  31.495  1.00  0.00     0.134 A 
ATOM     82  F   UNL A   1      44.527  27.500  34.090  1.00  0.00    -0.206 F 
ATOM     83  C   UNL A   1      46.795  27.060  33.675  1.00  0.00     0.040 A 
ATOM     84  C   UNL A   1      47.907  28.116  31.816  1.00  0.00     0.040 A 
ATOM     85  F   UNL A   1      46.729  29.603  30.435  1.00  0.00    -0.206 F 
ATOM     86  C   UNL A   1      47.946  27.256  32.912  1.00  0.00     0.006 A 
ENDBRANCH  62  79
ENDBRANCH  36  37
ENDBRANCH  28  31
ENDBRANCH  26  27
ENDBRANCH  25  26
ENDBRANCH   1  25
TORSDOF 13
ENDMDL
