MODEL 1
REMARK VINA RESULT:     -10.1      0.000      0.000
REMARK SMILES CC(=O)C1=C(NCCCCNC(=O)c2ccc(-c3c4nc(c(-c5c(F)cccc5F)c5ccc([nH]5)c(-c5c(F)cccc5F)c5nc(c(-c6c(F)cccc6F)c6ccc3[nH]6)C=C5)C=C4)cc2)C(=O)N(c2ccc(C(=O)[O-])cc2)[C@H]1c1ccc([N+](=O)[O-])cc1
REMARK SMILES IDX 8 1 7 2 6 3 5 5 4 6 80 7 68 8 70 9 69 10 2 11 1 12 3 13
REMARK SMILES IDX 81 14 82 15 89 16 83 17 88 18 84 19 85 20 86 21 87 22 71 23
REMARK SMILES IDX 72 24 79 25 73 26 78 27 74 28 75 29 76 30 77 31 9 32 10 33
REMARK SMILES IDX 11 34 12 35 13 37 14 38 15 39 67 40 16 41 66 42 17 43 18 44
REMARK SMILES IDX 19 45 60 46 20 47 65 48 59 49 61 50 21 51 64 52 58 53 57 54
REMARK SMILES IDX 22 56 48 57 31 58 47 59 32 60 35 61 46 62 62 63 33 64 34 65
REMARK SMILES IDX 45 67 63 68 36 69 23 70 24 71 29 72 25 73 26 74 28 75 30 76
REMARK SMILES IDX 27 77 49 78 50 79 55 80 51 81 52 82 54 83 56 84 53 85 37 86
REMARK SMILES IDX 38 87 43 88 39 89 40 90 42 91 44 92 41 93
REMARK H PARENT 6 4 11 36 61 55 35 66
REMARK Flexibility Score: inf
ROOT
ATOM      1  C   UNL A   1      34.523  33.309  30.411  1.00  0.00     0.023 C 
ENDROOT
BRANCH   1   2
ATOM      2  C   UNL A   1      34.263  34.445  31.398  1.00  0.00     0.113 C 
BRANCH   2   3
ATOM      3  N   UNL A   1      35.495  35.129  31.722  1.00  0.00    -0.380 N 
ATOM      4  H   UNL A   1      35.572  36.053  31.390  1.00  0.00     0.160 HD
BRANCH   3   5
ATOM      5  C   UNL A   1      36.569  34.658  32.431  1.00  0.00     0.110 C 
ATOM      6  C   UNL A   1      37.804  34.254  32.116  1.00  0.00     0.051 C 
ATOM      7  C   UNL A   1      38.603  33.767  33.272  1.00  0.00     0.157 C 
ATOM      8  C   UNL A   1      36.506  34.553  33.939  1.00  0.00     0.275 C 
ATOM      9  N   UNL A   1      37.770  34.181  34.374  1.00  0.00    -0.295 N 
ATOM     10  O   UNL A   1      35.509  34.826  34.587  1.00  0.00    -0.267 OA
BRANCH   6  11
ATOM     11  C   UNL A   1      38.434  34.361  30.793  1.00  0.00     0.160 C 
ATOM     12  C   UNL A   1      37.932  33.472  29.690  1.00  0.00     0.093 C 
ATOM     13  O   UNL A   1      39.382  35.124  30.626  1.00  0.00    -0.295 OA
ENDBRANCH   6  11
BRANCH   7  14
ATOM     14  C   UNL A   1      38.767  32.243  33.259  1.00  0.00    -0.020 A 
ATOM     15  C   UNL A   1      37.696  31.392  32.904  1.00  0.00     0.013 A 
ATOM     16  C   UNL A   1      39.995  31.662  33.613  1.00  0.00     0.013 A 
ATOM     17  C   UNL A   1      37.843  30.004  32.901  1.00  0.00     0.086 A 
ATOM     18  C   UNL A   1      40.150  30.271  33.612  1.00  0.00     0.086 A 
ATOM     19  C   UNL A   1      39.073  29.447  33.258  1.00  0.00     0.269 A 
BRANCH  19  20
ATOM     20  N   UNL A   1      39.233  27.988  33.266  1.00  0.00     0.062 N 
ATOM     21  O   UNL A   1      38.280  27.303  32.866  1.00  0.00    -0.258 OA
ATOM     22  O   UNL A   1      40.311  27.529  33.665  1.00  0.00    -0.258 OA
ENDBRANCH  19  20
ENDBRANCH   7  14
BRANCH   9  23
ATOM     23  C   UNL A   1      38.200  34.088  35.712  1.00  0.00     0.045 A 
ATOM     24  C   UNL A   1      37.632  33.162  36.591  1.00  0.00     0.027 A 
ATOM     25  C   UNL A   1      39.241  34.911  36.161  1.00  0.00     0.027 A 
ATOM     26  C   UNL A   1      38.138  33.025  37.889  1.00  0.00     0.012 A 
ATOM     27  C   UNL A   1      39.711  34.813  37.472  1.00  0.00     0.012 A 
ATOM     28  C   UNL A   1      39.174  33.855  38.338  1.00  0.00    -0.003 A 
BRANCH  28  29
ATOM     29  C   UNL A   1      39.676  33.689  39.722  1.00  0.00     0.071 C 
ATOM     30  O   UNL A   1      39.948  34.590  40.497  1.00  0.00    -0.545 OA
ATOM     31  O   UNL A   1      39.816  32.399  40.073  1.00  0.00    -0.545 OA
ENDBRANCH  28  29
ENDBRANCH   9  23
ENDBRANCH   3   5
ENDBRANCH   2   3
ENDBRANCH   1   2
BRANCH   1  32
ATOM     32  C   UNL A   1      34.188  33.635  28.958  1.00  0.00     0.023 C 
BRANCH  32  33
ATOM     33  C   UNL A   1      34.842  32.718  27.933  1.00  0.00     0.116 C 
BRANCH  33  34
ATOM     34  N   UNL A   1      34.104  31.478  27.727  1.00  0.00    -0.352 N 
ATOM     35  C   UNL A   1      34.575  30.187  27.730  1.00  0.00     0.251 C 
ATOM     36  H   UNL A   1      33.138  31.579  27.563  1.00  0.00     0.163 HD
ATOM     37  O   UNL A   1      33.853  29.255  27.397  1.00  0.00    -0.269 OA
BRANCH  35  38
ATOM     38  C   UNL A   1      35.979  29.940  28.114  1.00  0.00     0.039 A 
ATOM     39  C   UNL A   1      36.265  29.463  29.396  1.00  0.00     0.014 A 
ATOM     40  C   UNL A   1      37.002  30.131  27.183  1.00  0.00     0.014 A 
ATOM     41  C   UNL A   1      37.575  29.100  29.718  1.00  0.00     0.010 A 
ATOM     42  C   UNL A   1      38.284  29.685  27.475  1.00  0.00     0.010 A 
ATOM     43  C   UNL A   1      38.586  29.170  28.747  1.00  0.00    -0.014 A 
BRANCH  43  44
ATOM     44  C   UNL A   1      39.981  28.745  29.025  1.00  0.00     0.031 A 
ATOM     45  C   UNL A   1      40.941  29.727  29.637  1.00  0.00     0.074 A 
ATOM     46  C   UNL A   1      40.411  27.527  28.640  1.00  0.00     0.049 A 
ATOM     47  N   UNL A   1      42.233  29.624  29.814  1.00  0.00    -0.248 NA
ATOM     48  C   UNL A   1      40.374  31.012  30.079  1.00  0.00     0.031 C 
ATOM     49  C   UNL A   1      39.586  26.492  28.014  1.00  0.00     0.029 A 
ATOM     50  N   UNL A   1      41.662  26.964  28.700  1.00  0.00    -0.354 N 
ATOM     51  C   UNL A   1      42.635  30.840  30.353  1.00  0.00     0.074 A 
ATOM     52  C   UNL A   1      41.461  31.681  30.428  1.00  0.00     0.031 C 
ATOM     53  C   UNL A   1      40.348  25.415  27.765  1.00  0.00     0.029 A 
ATOM     54  C   UNL A   1      41.724  25.700  28.162  1.00  0.00     0.049 A 
ATOM     55  H   UNL A   1      42.441  27.421  29.091  1.00  0.00     0.167 HD
ATOM     56  C   UNL A   1      43.868  31.215  30.766  1.00  0.00     0.037 A 
ATOM     57  C   UNL A   1      42.775  24.875  27.992  1.00  0.00     0.037 A 
ATOM     58  C   UNL A   1      45.026  30.364  30.715  1.00  0.00     0.049 A 
ATOM     59  C   UNL A   1      44.143  25.325  28.433  1.00  0.00     0.074 A 
ATOM     60  C   UNL A   1      46.307  30.627  31.164  1.00  0.00     0.029 A 
ATOM     61  N   UNL A   1      45.042  29.085  30.179  1.00  0.00    -0.354 N 
ATOM     62  N   UNL A   1      44.502  26.457  28.991  1.00  0.00    -0.248 NA
ATOM     63  C   UNL A   1      45.252  24.384  28.222  1.00  0.00     0.031 C 
ATOM     64  C   UNL A   1      47.113  29.530  30.846  1.00  0.00     0.029 A 
ATOM     65  C   UNL A   1      46.319  28.555  30.264  1.00  0.00     0.049 A 
ATOM     66  H   UNL A   1      44.262  28.621  29.797  1.00  0.00     0.167 HD
ATOM     67  C   UNL A   1      45.864  26.343  29.241  1.00  0.00     0.074 A 
ATOM     68  C   UNL A   1      46.268  25.036  28.771  1.00  0.00     0.031 C 
ATOM     69  C   UNL A   1      46.700  27.239  29.819  1.00  0.00     0.037 A 
BRANCH  56  70
ATOM     70  C   UNL A   1      44.028  32.612  31.296  1.00  0.00     0.057 A 
ATOM     71  C   UNL A   1      44.388  33.685  30.470  1.00  0.00     0.134 A 
ATOM     72  C   UNL A   1      43.791  32.890  32.648  1.00  0.00     0.134 A 
ATOM     73  F   UNL A   1      44.640  33.487  29.168  1.00  0.00    -0.206 F 
ATOM     74  C   UNL A   1      44.543  34.977  30.978  1.00  0.00     0.040 A 
ATOM     75  C   UNL A   1      43.910  34.183  33.161  1.00  0.00     0.040 A 
ATOM     76  F   UNL A   1      43.435  31.912  33.495  1.00  0.00    -0.206 F 
ATOM     77  C   UNL A   1      44.296  35.229  32.326  1.00  0.00     0.006 A 
ENDBRANCH  56  70
BRANCH  57  78
ATOM     78  C   UNL A   1      42.579  23.529  27.396  1.00  0.00     0.057 A 
ATOM     79  C   UNL A   1      42.269  22.425  28.200  1.00  0.00     0.134 A 
ATOM     80  C   UNL A   1      42.709  23.304  26.020  1.00  0.00     0.134 A 
ATOM     81  F   UNL A   1      42.149  22.571  29.528  1.00  0.00    -0.206 F 
ATOM     82  C   UNL A   1      42.117  21.145  27.663  1.00  0.00     0.040 A 
ATOM     83  C   UNL A   1      42.533  22.035  25.466  1.00  0.00     0.040 A 
ATOM     84  F   UNL A   1      42.999  24.319  25.192  1.00  0.00    -0.206 F 
ATOM     85  C   UNL A   1      42.244  20.949  26.290  1.00  0.00     0.006 A 
ENDBRANCH  57  78
BRANCH  69  86
ATOM     86  C   UNL A   1      48.123  26.820  30.049  1.00  0.00     0.057 A 
ATOM     87  C   UNL A   1      49.154  27.143  29.158  1.00  0.00     0.134 A 
ATOM     88  C   UNL A   1      48.476  26.147  31.228  1.00  0.00     0.134 A 
ATOM     89  F   UNL A   1      48.884  27.776  28.007  1.00  0.00    -0.206 F 
ATOM     90  C   UNL A   1      50.481  26.801  29.425  1.00  0.00     0.040 A 
ATOM     91  C   UNL A   1      49.801  25.828  31.519  1.00  0.00     0.040 A 
ATOM     92  F   UNL A   1      47.537  25.816  32.129  1.00  0.00    -0.206 F 
ATOM     93  C   UNL A   1      50.808  26.152  30.614  1.00  0.00     0.006 A 
ENDBRANCH  69  86
ENDBRANCH  43  44
ENDBRANCH  35  38
ENDBRANCH  33  34
ENDBRANCH  32  33
ENDBRANCH   1  32
TORSDOF 16
ENDMDL
MODEL 2
REMARK VINA RESULT:      -9.6      0.574      5.958
REMARK SMILES CC(=O)C1=C(NCCCCNC(=O)c2ccc(-c3c4nc(c(-c5c(F)cccc5F)c5ccc([nH]5)c(-c5c(F)cccc5F)c5nc(c(-c6c(F)cccc6F)c6ccc3[nH]6)C=C5)C=C4)cc2)C(=O)N(c2ccc(C(=O)[O-])cc2)[C@H]1c1ccc([N+](=O)[O-])cc1
REMARK SMILES IDX 8 1 7 2 6 3 5 5 4 6 80 7 68 8 70 9 69 10 2 11 1 12 3 13
REMARK SMILES IDX 81 14 82 15 89 16 83 17 88 18 84 19 85 20 86 21 87 22 71 23
REMARK SMILES IDX 72 24 79 25 73 26 78 27 74 28 75 29 76 30 77 31 9 32 10 33
REMARK SMILES IDX 11 34 12 35 13 37 14 38 15 39 67 40 16 41 66 42 17 43 18 44
REMARK SMILES IDX 19 45 60 46 20 47 65 48 59 49 61 50 21 51 64 52 58 53 57 54
REMARK SMILES IDX 22 56 48 57 31 58 47 59 32 60 35 61 46 62 62 63 33 64 34 65
REMARK SMILES IDX 45 67 63 68 36 69 23 70 24 71 29 72 25 73 26 74 28 75 30 76
REMARK SMILES IDX 27 77 49 78 50 79 55 80 51 81 52 82 54 83 56 84 53 85 37 86
REMARK SMILES IDX 38 87 43 88 39 89 40 90 42 91 44 92 41 93
REMARK H PARENT 6 4 11 36 61 55 35 66
REMARK Flexibility Score: inf
ROOT
ATOM      1  C   UNL A   1      34.601  32.778  31.542  1.00  0.00     0.023 C 
ENDROOT
BRANCH   1   2
ATOM      2  C   UNL A   1      34.450  34.214  31.044  1.00  0.00     0.113 C 
BRANCH   2   3
ATOM      3  N   UNL A   1      35.597  35.008  31.426  1.00  0.00    -0.380 N 
ATOM      4  H   UNL A   1      35.591  35.944  31.119  1.00  0.00     0.160 HD
BRANCH   3   5
ATOM      5  C   UNL A   1      36.688  34.628  32.161  1.00  0.00     0.110 C 
ATOM      6  C   UNL A   1      37.939  34.257  31.870  1.00  0.00     0.051 C 
ATOM      7  C   UNL A   1      38.757  33.877  33.053  1.00  0.00     0.157 C 
ATOM      8  C   UNL A   1      36.628  34.613  33.673  1.00  0.00     0.275 C 
ATOM      9  N   UNL A   1      37.906  34.323  34.129  1.00  0.00    -0.295 N 
ATOM     10  O   UNL A   1      35.620  34.884  34.305  1.00  0.00    -0.267 OA
BRANCH   6  11
ATOM     11  C   UNL A   1      38.565  34.308  30.542  1.00  0.00     0.160 C 
ATOM     12  C   UNL A   1      38.044  33.390  29.473  1.00  0.00     0.093 C 
ATOM     13  O   UNL A   1      39.526  35.050  30.346  1.00  0.00    -0.295 OA
ENDBRANCH   6  11
BRANCH   7  14
ATOM     14  C   UNL A   1      38.986  32.363  33.134  1.00  0.00    -0.020 A 
ATOM     15  C   UNL A   1      40.239  31.830  33.512  1.00  0.00     0.013 A 
ATOM     16  C   UNL A   1      37.946  31.474  32.823  1.00  0.00     0.013 A 
ATOM     17  C   UNL A   1      40.450  30.452  33.578  1.00  0.00     0.086 A 
ATOM     18  C   UNL A   1      38.150  30.090  32.887  1.00  0.00     0.086 A 
ATOM     19  C   UNL A   1      39.401  29.584  33.262  1.00  0.00     0.269 A 
BRANCH  19  20
ATOM     20  N   UNL A   1      39.618  28.133  33.321  1.00  0.00     0.062 N 
ATOM     21  O   UNL A   1      38.756  27.401  32.814  1.00  0.00    -0.258 OA
ATOM     22  O   UNL A   1      40.653  27.728  33.867  1.00  0.00    -0.258 OA
ENDBRANCH  19  20
ENDBRANCH   7  14
BRANCH   9  23
ATOM     23  C   UNL A   1      38.338  34.331  35.469  1.00  0.00     0.045 A 
ATOM     24  C   UNL A   1      39.339  35.206  35.900  1.00  0.00     0.027 A 
ATOM     25  C   UNL A   1      37.730  33.475  36.396  1.00  0.00     0.027 A 
ATOM     26  C   UNL A   1      39.687  35.261  37.255  1.00  0.00     0.012 A 
ATOM     27  C   UNL A   1      38.114  33.490  37.738  1.00  0.00     0.012 A 
ATOM     28  C   UNL A   1      39.082  34.397  38.178  1.00  0.00    -0.003 A 
BRANCH  28  29
ATOM     29  C   UNL A   1      39.485  34.476  39.602  1.00  0.00     0.071 C 
ATOM     30  O   UNL A   1      40.202  35.329  40.096  1.00  0.00    -0.545 OA
ATOM     31  O   UNL A   1      38.973  33.478  40.343  1.00  0.00    -0.545 OA
ENDBRANCH  28  29
ENDBRANCH   9  23
ENDBRANCH   3   5
ENDBRANCH   2   3
ENDBRANCH   1   2
BRANCH   1  32
ATOM     32  C   UNL A   1      35.151  31.798  30.510  1.00  0.00     0.023 C 
BRANCH  32  33
ATOM     33  C   UNL A   1      34.675  32.040  29.085  1.00  0.00     0.116 C 
BRANCH  33  34
ATOM     34  N   UNL A   1      34.164  30.836  28.443  1.00  0.00    -0.352 N 
ATOM     35  C   UNL A   1      34.863  29.745  27.982  1.00  0.00     0.251 C 
ATOM     36  H   UNL A   1      33.188  30.799  28.322  1.00  0.00     0.163 HD
ATOM     37  O   UNL A   1      34.304  28.870  27.332  1.00  0.00    -0.269 OA
BRANCH  35  38
ATOM     38  C   UNL A   1      36.311  29.656  28.258  1.00  0.00     0.039 A 
ATOM     39  C   UNL A   1      36.745  29.111  29.468  1.00  0.00     0.014 A 
ATOM     40  C   UNL A   1      37.233  30.064  27.292  1.00  0.00     0.014 A 
ATOM     41  C   UNL A   1      38.111  28.900  29.677  1.00  0.00     0.010 A 
ATOM     42  C   UNL A   1      38.579  29.770  27.464  1.00  0.00     0.010 A 
ATOM     43  C   UNL A   1      39.034  29.190  28.660  1.00  0.00    -0.014 A 
BRANCH  43  44
ATOM     44  C   UNL A   1      40.487  28.934  28.814  1.00  0.00     0.031 A 
ATOM     45  C   UNL A   1      41.051  27.609  28.379  1.00  0.00     0.074 A 
ATOM     46  C   UNL A   1      41.276  29.836  29.431  1.00  0.00     0.049 A 
ATOM     47  N   UNL A   1      42.247  27.113  28.568  1.00  0.00    -0.248 NA
ATOM     48  C   UNL A   1      40.132  26.707  27.664  1.00  0.00     0.031 C 
ATOM     49  C   UNL A   1      40.847  31.146  29.921  1.00  0.00     0.029 A 
ATOM     50  N   UNL A   1      42.605  29.772  29.770  1.00  0.00    -0.354 N 
ATOM     51  C   UNL A   1      42.211  25.834  28.028  1.00  0.00     0.074 A 
ATOM     52  C   UNL A   1      40.865  25.611  27.550  1.00  0.00     0.031 C 
ATOM     53  C   UNL A   1      41.896  31.770  30.482  1.00  0.00     0.029 A 
ATOM     54  C   UNL A   1      43.056  30.885  30.440  1.00  0.00     0.049 A 
ATOM     55  H   UNL A   1      43.180  29.003  29.556  1.00  0.00     0.167 HD
ATOM     56  C   UNL A   1      43.215  24.933  27.923  1.00  0.00     0.037 A 
ATOM     57  C   UNL A   1      44.264  31.152  30.975  1.00  0.00     0.037 A 
ATOM     58  C   UNL A   1      44.559  25.171  28.376  1.00  0.00     0.049 A 
ATOM     59  C   UNL A   1      45.358  30.122  30.871  1.00  0.00     0.074 A 
ATOM     60  C   UNL A   1      45.664  24.347  28.262  1.00  0.00     0.029 A 
ATOM     61  N   UNL A   1      44.980  26.318  29.032  1.00  0.00    -0.354 N 
ATOM     62  N   UNL A   1      45.328  28.936  30.310  1.00  0.00    -0.248 NA
ATOM     63  C   UNL A   1      46.653  30.467  31.474  1.00  0.00     0.031 C 
ATOM     64  C   UNL A   1      46.739  24.970  28.901  1.00  0.00     0.029 A 
ATOM     65  C   UNL A   1      46.322  26.213  29.351  1.00  0.00     0.049 A 
ATOM     66  H   UNL A   1      44.408  27.093  29.238  1.00  0.00     0.167 HD
ATOM     67  C   UNL A   1      46.609  28.417  30.449  1.00  0.00     0.074 A 
ATOM     68  C   UNL A   1      47.391  29.413  31.151  1.00  0.00     0.031 C 
ATOM     69  C   UNL A   1      47.096  27.226  30.023  1.00  0.00     0.037 A 
BRANCH  56  70
ATOM     70  C   UNL A   1      42.892  23.601  27.306  1.00  0.00     0.057 A 
ATOM     71  C   UNL A   1      43.023  23.367  25.931  1.00  0.00     0.134 A 
ATOM     72  C   UNL A   1      42.468  22.532  28.105  1.00  0.00     0.134 A 
ATOM     73  F   UNL A   1      43.414  24.350  25.107  1.00  0.00    -0.206 F 
ATOM     74  C   UNL A   1      42.710  22.127  25.368  1.00  0.00     0.040 A 
ATOM     75  C   UNL A   1      42.185  21.279  27.559  1.00  0.00     0.040 A 
ATOM     76  F   UNL A   1      42.327  22.683  29.431  1.00  0.00    -0.206 F 
ATOM     77  C   UNL A   1      42.297  21.077  26.185  1.00  0.00     0.006 A 
ENDBRANCH  56  70
BRANCH  57  78
ATOM     78  C   UNL A   1      44.515  32.456  31.639  1.00  0.00     0.057 A 
ATOM     79  C   UNL A   1      44.216  32.642  32.995  1.00  0.00     0.134 A 
ATOM     80  C   UNL A   1      45.044  33.549  30.943  1.00  0.00     0.134 A 
ATOM     81  F   UNL A   1      43.690  31.638  33.713  1.00  0.00    -0.206 F 
ATOM     82  C   UNL A   1      44.412  33.872  33.627  1.00  0.00     0.040 A 
ATOM     83  C   UNL A   1      45.270  34.777  31.569  1.00  0.00     0.040 A 
ATOM     84  F   UNL A   1      45.358  33.437  29.643  1.00  0.00    -0.206 F 
ATOM     85  C   UNL A   1      44.945  34.942  32.914  1.00  0.00     0.006 A 
ENDBRANCH  57  78
BRANCH  69  86
ATOM     86  C   UNL A   1      48.557  26.952  30.231  1.00  0.00     0.057 A 
ATOM     87  C   UNL A   1      49.036  26.231  31.332  1.00  0.00     0.134 A 
ATOM     88  C   UNL A   1      49.491  27.353  29.265  1.00  0.00     0.134 A 
ATOM     89  F   UNL A   1      48.198  25.828  32.297  1.00  0.00    -0.206 F 
ATOM     90  C   UNL A   1      50.393  25.930  31.470  1.00  0.00     0.040 A 
ATOM     91  C   UNL A   1      50.843  27.032  29.377  1.00  0.00     0.040 A 
ATOM     92  F   UNL A   1      49.097  28.039  28.180  1.00  0.00    -0.206 F 
ATOM     93  C   UNL A   1      51.298  26.321  30.485  1.00  0.00     0.006 A 
ENDBRANCH  69  86
ENDBRANCH  43  44
ENDBRANCH  35  38
ENDBRANCH  33  34
ENDBRANCH  32  33
ENDBRANCH   1  32
TORSDOF 16
ENDMDL
MODEL 3
REMARK VINA RESULT:      -9.3      2.159      4.500
REMARK SMILES CC(=O)C1=C(NCCCCNC(=O)c2ccc(-c3c4nc(c(-c5c(F)cccc5F)c5ccc([nH]5)c(-c5c(F)cccc5F)c5nc(c(-c6c(F)cccc6F)c6ccc3[nH]6)C=C5)C=C4)cc2)C(=O)N(c2ccc(C(=O)[O-])cc2)[C@H]1c1ccc([N+](=O)[O-])cc1
REMARK SMILES IDX 8 1 7 2 6 3 5 5 4 6 80 7 68 8 70 9 69 10 2 11 1 12 3 13
REMARK SMILES IDX 81 14 82 15 89 16 83 17 88 18 84 19 85 20 86 21 87 22 71 23
REMARK SMILES IDX 72 24 79 25 73 26 78 27 74 28 75 29 76 30 77 31 9 32 10 33
REMARK SMILES IDX 11 34 12 35 13 37 14 38 15 39 67 40 16 41 66 42 17 43 18 44
REMARK SMILES IDX 19 45 60 46 20 47 65 48 59 49 61 50 21 51 64 52 58 53 57 54
REMARK SMILES IDX 22 56 48 57 31 58 47 59 32 60 35 61 46 62 62 63 33 64 34 65
REMARK SMILES IDX 45 67 63 68 36 69 23 70 24 71 29 72 25 73 26 74 28 75 30 76
REMARK SMILES IDX 27 77 49 78 50 79 55 80 51 81 52 82 54 83 56 84 53 85 37 86
REMARK SMILES IDX 38 87 43 88 39 89 40 90 42 91 44 92 41 93
REMARK H PARENT 6 4 11 36 61 55 35 66
REMARK Flexibility Score: inf
ROOT
ATOM      1  C   UNL A   1      35.686  31.953  32.252  1.00  0.00     0.023 C 
ENDROOT
BRANCH   1   2
ATOM      2  C   UNL A   1      35.941  32.755  33.526  1.00  0.00     0.113 C 
BRANCH   2   3
ATOM      3  N   UNL A   1      37.059  32.202  34.258  1.00  0.00    -0.380 N 
ATOM      4  H   UNL A   1      36.833  31.736  35.096  1.00  0.00     0.160 HD
BRANCH   3   5
ATOM      5  C   UNL A   1      38.390  32.242  33.938  1.00  0.00     0.110 C 
ATOM      6  C   UNL A   1      39.374  33.132  34.104  1.00  0.00     0.051 C 
ATOM      7  C   UNL A   1      40.677  32.722  33.515  1.00  0.00     0.157 C 
ATOM      8  C   UNL A   1      39.054  31.058  33.271  1.00  0.00     0.275 C 
ATOM      9  N   UNL A   1      40.412  31.340  33.199  1.00  0.00    -0.295 N 
ATOM     10  O   UNL A   1      38.451  30.048  32.946  1.00  0.00    -0.267 OA
BRANCH   6  11
ATOM     11  C   UNL A   1      39.292  34.371  34.888  1.00  0.00     0.160 C 
ATOM     12  C   UNL A   1      40.527  34.852  35.595  1.00  0.00     0.093 C 
ATOM     13  O   UNL A   1      38.216  34.956  34.997  1.00  0.00    -0.295 OA
ENDBRANCH   6  11
BRANCH   7  14
ATOM     14  C   UNL A   1      41.012  33.514  32.246  1.00  0.00    -0.020 A 
ATOM     15  C   UNL A   1      40.074  33.648  31.196  1.00  0.00     0.013 A 
ATOM     16  C   UNL A   1      42.271  34.115  32.100  1.00  0.00     0.013 A 
ATOM     17  C   UNL A   1      40.383  34.361  30.037  1.00  0.00     0.086 A 
ATOM     18  C   UNL A   1      42.587  34.833  30.940  1.00  0.00     0.086 A 
ATOM     19  C   UNL A   1      41.642  34.951  29.912  1.00  0.00     0.269 A 
BRANCH  19  20
ATOM     20  N   UNL A   1      41.976  35.696  28.692  1.00  0.00     0.062 N 
ATOM     21  O   UNL A   1      41.528  35.271  27.617  1.00  0.00    -0.258 OA
ATOM     22  O   UNL A   1      42.680  36.708  28.809  1.00  0.00    -0.258 OA
ENDBRANCH  19  20
ENDBRANCH   7  14
BRANCH   9  23
ATOM     23  C   UNL A   1      41.426  30.464  32.766  1.00  0.00     0.045 A 
ATOM     24  C   UNL A   1      42.764  30.866  32.737  1.00  0.00     0.027 A 
ATOM     25  C   UNL A   1      41.095  29.155  32.394  1.00  0.00     0.027 A 
ATOM     26  C   UNL A   1      43.764  29.950  32.392  1.00  0.00     0.012 A 
ATOM     27  C   UNL A   1      42.086  28.255  31.997  1.00  0.00     0.012 A 
ATOM     28  C   UNL A   1      43.429  28.643  32.012  1.00  0.00    -0.003 A 
BRANCH  28  29
ATOM     29  C   UNL A   1      44.514  27.705  31.641  1.00  0.00     0.071 C 
ATOM     30  O   UNL A   1      45.623  28.016  31.241  1.00  0.00    -0.545 OA
ATOM     31  O   UNL A   1      44.160  26.416  31.786  1.00  0.00    -0.545 OA
ENDBRANCH  28  29
ENDBRANCH   9  23
ENDBRANCH   3   5
ENDBRANCH   2   3
ENDBRANCH   1   2
BRANCH   1  32
ATOM     32  C   UNL A   1      35.036  32.743  31.119  1.00  0.00     0.023 C 
BRANCH  32  33
ATOM     33  C   UNL A   1      35.527  32.376  29.725  1.00  0.00     0.116 C 
BRANCH  33  34
ATOM     34  N   UNL A   1      34.765  31.289  29.122  1.00  0.00    -0.352 N 
ATOM     35  C   UNL A   1      35.231  30.142  28.524  1.00  0.00     0.251 C 
ATOM     36  H   UNL A   1      33.786  31.391  29.145  1.00  0.00     0.163 HD
ATOM     37  O   UNL A   1      34.467  29.388  27.932  1.00  0.00    -0.269 OA
BRANCH  35  38
ATOM     38  C   UNL A   1      36.676  29.844  28.581  1.00  0.00     0.039 A 
ATOM     39  C   UNL A   1      37.213  29.276  29.738  1.00  0.00     0.014 A 
ATOM     40  C   UNL A   1      37.482  30.078  27.465  1.00  0.00     0.014 A 
ATOM     41  C   UNL A   1      38.550  28.867  29.748  1.00  0.00     0.010 A 
ATOM     42  C   UNL A   1      38.782  29.589  27.445  1.00  0.00     0.010 A 
ATOM     43  C   UNL A   1      39.331  28.984  28.587  1.00  0.00    -0.014 A 
BRANCH  43  44
ATOM     44  C   UNL A   1      40.739  28.515  28.532  1.00  0.00     0.031 A 
ATOM     45  C   UNL A   1      41.853  29.507  28.717  1.00  0.00     0.074 A 
ATOM     46  C   UNL A   1      41.017  27.234  28.216  1.00  0.00     0.049 A 
ATOM     47  N   UNL A   1      43.141  29.351  28.548  1.00  0.00    -0.248 NA
ATOM     48  C   UNL A   1      41.459  30.870  29.114  1.00  0.00     0.031 C 
ATOM     49  C   UNL A   1      40.028  26.180  27.988  1.00  0.00     0.029 A 
ATOM     50  N   UNL A   1      42.223  26.610  28.011  1.00  0.00    -0.354 N 
ATOM     51  C   UNL A   1      43.703  30.599  28.784  1.00  0.00     0.074 A 
ATOM     52  C   UNL A   1      42.615  31.511  29.058  1.00  0.00     0.031 C 
ATOM     53  C   UNL A   1      40.666  25.036  27.692  1.00  0.00     0.029 A 
ATOM     54  C   UNL A   1      42.104  25.287  27.656  1.00  0.00     0.049 A 
ATOM     55  H   UNL A   1      43.090  27.066  28.108  1.00  0.00     0.167 HD
ATOM     56  C   UNL A   1      45.011  30.949  28.789  1.00  0.00     0.037 A 
ATOM     57  C   UNL A   1      43.048  24.385  27.322  1.00  0.00     0.037 A 
ATOM     58  C   UNL A   1      46.089  30.030  28.544  1.00  0.00     0.049 A 
ATOM     59  C   UNL A   1      44.494  24.805  27.308  1.00  0.00     0.074 A 
ATOM     60  C   UNL A   1      47.451  30.271  28.586  1.00  0.00     0.029 A 
ATOM     61  N   UNL A   1      45.928  28.695  28.206  1.00  0.00    -0.354 N 
ATOM     62  N   UNL A   1      45.019  25.975  27.585  1.00  0.00    -0.248 NA
ATOM     63  C   UNL A   1      45.479  23.780  26.935  1.00  0.00     0.031 C 
ATOM     64  C   UNL A   1      48.112  29.097  28.216  1.00  0.00     0.029 A 
ATOM     65  C   UNL A   1      47.165  28.105  28.013  1.00  0.00     0.049 A 
ATOM     66  H   UNL A   1      45.062  28.234  28.119  1.00  0.00     0.167 HD
ATOM     67  C   UNL A   1      46.394  25.813  27.468  1.00  0.00     0.074 A 
ATOM     68  C   UNL A   1      46.623  24.434  27.091  1.00  0.00     0.031 C 
ATOM     69  C   UNL A   1      47.378  26.723  27.667  1.00  0.00     0.037 A 
BRANCH  56  70
ATOM     70  C   UNL A   1      45.343  32.389  29.058  1.00  0.00     0.057 A 
ATOM     71  C   UNL A   1      45.800  32.827  30.308  1.00  0.00     0.134 A 
ATOM     72  C   UNL A   1      45.228  33.346  28.042  1.00  0.00     0.134 A 
ATOM     73  F   UNL A   1      45.922  31.965  31.329  1.00  0.00    -0.206 F 
ATOM     74  C   UNL A   1      46.096  34.171  30.548  1.00  0.00     0.040 A 
ATOM     75  C   UNL A   1      45.553  34.687  28.260  1.00  0.00     0.040 A 
ATOM     76  F   UNL A   1      44.803  32.996  26.818  1.00  0.00    -0.206 F 
ATOM     77  C   UNL A   1      45.980  35.103  29.519  1.00  0.00     0.006 A 
ENDBRANCH  56  70
BRANCH  57  78
ATOM     78  C   UNL A   1      42.664  22.988  26.994  1.00  0.00     0.057 A 
ATOM     79  C   UNL A   1      42.284  22.092  28.001  1.00  0.00     0.134 A 
ATOM     80  C   UNL A   1      42.679  22.508  25.680  1.00  0.00     0.134 A 
ATOM     81  F   UNL A   1      42.267  22.486  29.283  1.00  0.00    -0.206 F 
ATOM     82  C   UNL A   1      41.955  20.765  27.717  1.00  0.00     0.040 A 
ATOM     83  C   UNL A   1      42.327  21.191  25.377  1.00  0.00     0.040 A 
ATOM     84  F   UNL A   1      43.028  23.316  24.667  1.00  0.00    -0.206 F 
ATOM     85  C   UNL A   1      41.971  20.313  26.400  1.00  0.00     0.006 A 
ENDBRANCH  57  78
BRANCH  69  86
ATOM     86  C   UNL A   1      48.799  26.252  27.556  1.00  0.00     0.057 A 
ATOM     87  C   UNL A   1      49.493  25.699  28.639  1.00  0.00     0.134 A 
ATOM     88  C   UNL A   1      49.456  26.284  26.317  1.00  0.00     0.134 A 
ATOM     89  F   UNL A   1      48.928  25.648  29.854  1.00  0.00    -0.206 F 
ATOM     90  C   UNL A   1      50.792  25.206  28.496  1.00  0.00     0.040 A 
ATOM     91  C   UNL A   1      50.740  25.768  26.156  1.00  0.00     0.040 A 
ATOM     92  F   UNL A   1      48.844  26.793  25.235  1.00  0.00    -0.206 F 
ATOM     93  C   UNL A   1      51.414  25.229  27.249  1.00  0.00     0.006 A 
ENDBRANCH  69  86
ENDBRANCH  43  44
ENDBRANCH  35  38
ENDBRANCH  33  34
ENDBRANCH  32  33
ENDBRANCH   1  32
TORSDOF 16
ENDMDL
