MODEL 1
REMARK VINA RESULT:     -12.3      0.000      0.000
REMARK SMILES Cc1nn(C)cc1-c1cc(C(F)(F)F)c2c(C)nn(CC(=O)NCCCCNC(=O)c3ccc(-c4c5nc(c(-c6c(F)cccc6F)c6ccc([nH]6)c(-c6c(F)cccc6F)c6nc(c(-c7c(F)cccc7F)c7ccc4[nH]7)C=C6)C=C5)cc3)c2n1
REMARK SMILES IDX 25 1 24 2 23 3 21 4 22 5 20 7 19 8 8 9 9 10 86 11 10 12
REMARK SMILES IDX 85 13 15 14 16 15 18 16 17 17 7 18 1 19 2 20 3 21 4 22 6 23
REMARK SMILES IDX 5 24 11 25 12 26 13 27 14 28 26 29 27 30 28 31 29 32 30 34
REMARK SMILES IDX 31 35 32 36 84 37 33 38 83 39 34 40 35 41 36 42 77 43 37 44
REMARK SMILES IDX 82 45 76 46 78 47 38 48 81 49 75 50 74 51 39 53 65 54 48 55
REMARK SMILES IDX 64 56 49 57 52 58 63 59 79 60 50 61 51 62 62 64 80 65 53 66
REMARK SMILES IDX 40 67 41 68 46 69 42 70 43 71 45 72 47 73 44 74 66 75 67 76
REMARK SMILES IDX 72 77 68 78 69 79 71 80 73 81 70 82 54 83 55 84 60 85 56 86
REMARK SMILES IDX 57 87 59 88 61 89 58 90
REMARK H PARENT 23 6 28 33 78 52 52 63
REMARK Flexibility Score: inf
ROOT
ATOM      1  C   UNL A   1      40.448  21.743  27.198  1.00  0.00     0.023 C 
ENDROOT
BRANCH   1   2
ATOM      2  C   UNL A   1      39.457  22.663  26.506  1.00  0.00     0.116 C 
BRANCH   2   3
ATOM      3  N   UNL A   1      38.557  21.913  25.653  1.00  0.00    -0.354 N 
ATOM      4  C   UNL A   1      37.258  22.187  25.324  1.00  0.00     0.241 C 
ATOM      5  O   UNL A   1      36.685  21.392  24.576  1.00  0.00    -0.273 OA
ATOM      6  H   UNL A   1      38.932  21.095  25.256  1.00  0.00     0.163 HD
BRANCH   4   7
ATOM      7  C   UNL A   1      36.598  23.470  25.774  1.00  0.00     0.246 C 
BRANCH   7   8
ATOM      8  N   UNL A   1      35.343  23.718  25.079  1.00  0.00    -0.237 N 
ATOM      9  C   UNL A   1      31.882  23.969  26.013  1.00  0.00     0.077 A 
ATOM     10  C   UNL A   1      31.113  25.043  25.589  1.00  0.00     0.043 A 
ATOM     11  N   UNL A   1      33.017  24.248  26.754  1.00  0.00    -0.228 NA
ATOM     12  C   UNL A   1      31.810  26.121  24.987  1.00  0.00     0.071 A 
ATOM     13  C   UNL A   1      33.937  24.767  25.878  1.00  0.00     0.159 A 
ATOM     14  C   UNL A   1      33.084  25.735  24.515  1.00  0.00     0.054 A 
ATOM     15  C   UNL A   1      33.788  24.966  22.784  1.00  0.00     0.070 A 
ATOM     16  N   UNL A   1      35.261  23.958  23.142  1.00  0.00    -0.175 NA
ATOM     17  C   UNL A   1      32.912  24.615  21.621  1.00  0.00     0.069 C 
BRANCH   9  18
ATOM     18  C   UNL A   1      32.336  23.129  24.883  1.00  0.00     0.041 A 
ATOM     19  C   UNL A   1      34.141  21.182  26.981  1.00  0.00     0.069 C 
ATOM     20  C   UNL A   1      33.120  21.812  25.150  1.00  0.00     0.069 A 
ATOM     21  N   UNL A   1      32.765  21.037  24.039  1.00  0.00    -0.178 NA
ATOM     22  N   UNL A   1      32.169  21.830  23.148  1.00  0.00    -0.275 N 
ATOM     23  C   UNL A   1      31.845  23.075  23.600  1.00  0.00     0.119 A 
ATOM     24  C   UNL A   1      31.753  21.199  21.916  1.00  0.00     0.173 C 
ENDBRANCH   9  18
BRANCH  12  25
ATOM     25  C   UNL A   1      31.745  27.430  25.773  1.00  0.00     0.417 C 
ATOM     26  F   UNL A   1      31.034  27.297  26.932  1.00  0.00    -0.166 F 
ATOM     27  F   UNL A   1      32.972  27.878  26.150  1.00  0.00    -0.166 F 
ATOM     28  F   UNL A   1      31.154  28.447  25.091  1.00  0.00    -0.166 F 
ENDBRANCH  12  25
ENDBRANCH   7   8
ENDBRANCH   4   7
ENDBRANCH   2   3
ENDBRANCH   1   2
BRANCH   1  29
ATOM     29  C   UNL A   1      41.024  20.552  26.448  1.00  0.00     0.023 C 
BRANCH  29  30
ATOM     30  C   UNL A   1      42.309  20.069  27.075  1.00  0.00     0.116 C 
BRANCH  30  31
ATOM     31  N   UNL A   1      43.373  19.880  26.080  1.00  0.00    -0.352 N 
ATOM     32  C   UNL A   1      43.900  20.821  25.219  1.00  0.00     0.251 C 
ATOM     33  H   UNL A   1      43.755  18.975  26.020  1.00  0.00     0.163 HD
ATOM     34  O   UNL A   1      44.512  20.511  24.207  1.00  0.00    -0.269 OA
BRANCH  32  35
ATOM     35  C   UNL A   1      43.774  22.227  25.614  1.00  0.00     0.039 A 
ATOM     36  C   UNL A   1      42.985  23.158  24.935  1.00  0.00     0.014 A 
ATOM     37  C   UNL A   1      44.420  22.556  26.795  1.00  0.00     0.014 A 
ATOM     38  C   UNL A   1      42.916  24.453  25.446  1.00  0.00     0.010 A 
ATOM     39  C   UNL A   1      43.993  23.663  27.448  1.00  0.00     0.010 A 
ATOM     40  C   UNL A   1      43.486  24.701  26.699  1.00  0.00    -0.014 A 
BRANCH  40  41
ATOM     41  C   UNL A   1      43.393  25.960  27.413  1.00  0.00     0.031 A 
ATOM     42  C   UNL A   1      44.474  26.882  26.989  1.00  0.00     0.074 A 
ATOM     43  C   UNL A   1      42.307  26.270  28.168  1.00  0.00     0.049 A 
ATOM     44  N   UNL A   1      45.554  27.136  27.648  1.00  0.00    -0.248 NA
ATOM     45  C   UNL A   1      44.530  27.340  25.585  1.00  0.00     0.031 C 
ATOM     46  C   UNL A   1      41.085  25.487  28.413  1.00  0.00     0.029 A 
ATOM     47  N   UNL A   1      42.035  27.432  28.840  1.00  0.00    -0.354 N 
ATOM     48  C   UNL A   1      46.256  28.044  26.865  1.00  0.00     0.074 A 
ATOM     49  C   UNL A   1      45.747  27.889  25.534  1.00  0.00     0.031 C 
ATOM     50  C   UNL A   1      40.124  26.279  28.948  1.00  0.00     0.029 A 
ATOM     51  C   UNL A   1      40.686  27.587  29.210  1.00  0.00     0.049 A 
ATOM     52  H   UNL A   1      42.726  28.102  29.048  1.00  0.00     0.167 HD
ATOM     53  C   UNL A   1      46.903  29.085  27.458  1.00  0.00     0.037 A 
ATOM     54  C   UNL A   1      40.121  28.748  29.658  1.00  0.00     0.037 A 
ATOM     55  C   UNL A   1      47.018  28.846  28.880  1.00  0.00     0.049 A 
ATOM     56  C   UNL A   1      41.247  29.602  30.143  1.00  0.00     0.074 A 
ATOM     57  C   UNL A   1      47.587  27.851  29.652  1.00  0.00     0.029 A 
ATOM     58  N   UNL A   1      46.087  29.465  29.679  1.00  0.00    -0.354 N 
ATOM     59  N   UNL A   1      41.986  29.271  31.171  1.00  0.00    -0.248 NA
ATOM     60  C   UNL A   1      41.902  30.430  29.136  1.00  0.00     0.031 C 
ATOM     61  C   UNL A   1      46.637  27.607  30.689  1.00  0.00     0.029 A 
ATOM     62  C   UNL A   1      45.616  28.552  30.586  1.00  0.00     0.049 A 
ATOM     63  H   UNL A   1      45.806  30.407  29.612  1.00  0.00     0.167 HD
ATOM     64  C   UNL A   1      43.292  29.427  30.722  1.00  0.00     0.074 A 
ATOM     65  C   UNL A   1      43.173  30.157  29.455  1.00  0.00     0.031 C 
ATOM     66  C   UNL A   1      44.320  28.672  31.215  1.00  0.00     0.037 A 
BRANCH  53  67
ATOM     67  C   UNL A   1      46.973  30.488  26.895  1.00  0.00     0.057 A 
ATOM     68  C   UNL A   1      45.863  31.314  26.621  1.00  0.00     0.134 A 
ATOM     69  C   UNL A   1      48.210  31.158  26.953  1.00  0.00     0.134 A 
ATOM     70  F   UNL A   1      44.610  30.856  26.548  1.00  0.00    -0.206 F 
ATOM     71  C   UNL A   1      45.964  32.703  26.499  1.00  0.00     0.040 A 
ATOM     72  C   UNL A   1      48.314  32.551  26.878  1.00  0.00     0.040 A 
ATOM     73  F   UNL A   1      49.347  30.483  27.183  1.00  0.00    -0.206 F 
ATOM     74  C   UNL A   1      47.185  33.330  26.670  1.00  0.00     0.006 A 
ENDBRANCH  53  67
BRANCH  54  75
ATOM     75  C   UNL A   1      38.776  29.300  29.331  1.00  0.00     0.057 A 
ATOM     76  C   UNL A   1      37.752  29.306  30.294  1.00  0.00     0.134 A 
ATOM     77  C   UNL A   1      38.364  29.591  28.017  1.00  0.00     0.134 A 
ATOM     78  F   UNL A   1      37.998  28.944  31.561  1.00  0.00    -0.206 F 
ATOM     79  C   UNL A   1      36.414  29.590  29.987  1.00  0.00     0.040 A 
ATOM     80  C   UNL A   1      37.023  29.878  27.693  1.00  0.00     0.040 A 
ATOM     81  F   UNL A   1      39.239  29.548  27.001  1.00  0.00    -0.206 F 
ATOM     82  C   UNL A   1      36.043  29.874  28.681  1.00  0.00     0.006 A 
ENDBRANCH  54  75
BRANCH  66  83
ATOM     83  C   UNL A   1      44.060  27.784  32.403  1.00  0.00     0.057 A 
ATOM     84  C   UNL A   1      44.192  28.343  33.678  1.00  0.00     0.134 A 
ATOM     85  C   UNL A   1      43.841  26.398  32.345  1.00  0.00     0.134 A 
ATOM     86  F   UNL A   1      44.480  29.646  33.815  1.00  0.00    -0.206 F 
ATOM     87  C   UNL A   1      44.085  27.575  34.838  1.00  0.00     0.040 A 
ATOM     88  C   UNL A   1      43.699  25.620  33.501  1.00  0.00     0.040 A 
ATOM     89  F   UNL A   1      43.823  25.747  31.175  1.00  0.00    -0.206 F 
ATOM     90  C   UNL A   1      43.819  26.212  34.754  1.00  0.00     0.006 A 
ENDBRANCH  66  83
ENDBRANCH  40  41
ENDBRANCH  32  35
ENDBRANCH  30  31
ENDBRANCH  29  30
ENDBRANCH   1  29
TORSDOF 14
ENDMDL
MODEL 2
REMARK VINA RESULT:     -12.0      3.932      8.477
REMARK SMILES Cc1nn(C)cc1-c1cc(C(F)(F)F)c2c(C)nn(CC(=O)NCCCCNC(=O)c3ccc(-c4c5nc(c(-c6c(F)cccc6F)c6ccc([nH]6)c(-c6c(F)cccc6F)c6nc(c(-c7c(F)cccc7F)c7ccc4[nH]7)C=C6)C=C5)cc3)c2n1
REMARK SMILES IDX 25 1 24 2 23 3 21 4 22 5 20 7 19 8 8 9 9 10 86 11 10 12
REMARK SMILES IDX 85 13 15 14 16 15 18 16 17 17 7 18 1 19 2 20 3 21 4 22 6 23
REMARK SMILES IDX 5 24 11 25 12 26 13 27 14 28 26 29 27 30 28 31 29 32 30 34
REMARK SMILES IDX 31 35 32 36 84 37 33 38 83 39 34 40 35 41 36 42 77 43 37 44
REMARK SMILES IDX 82 45 76 46 78 47 38 48 81 49 75 50 74 51 39 53 65 54 48 55
REMARK SMILES IDX 64 56 49 57 52 58 63 59 79 60 50 61 51 62 62 64 80 65 53 66
REMARK SMILES IDX 40 67 41 68 46 69 42 70 43 71 45 72 47 73 44 74 66 75 67 76
REMARK SMILES IDX 72 77 68 78 69 79 71 80 73 81 70 82 54 83 55 84 60 85 56 86
REMARK SMILES IDX 57 87 59 88 61 89 58 90
REMARK H PARENT 23 6 28 33 78 52 52 63
REMARK Flexibility Score: inf
ROOT
ATOM      1  C   UNL A   1      33.926  31.409  27.779  1.00  0.00     0.023 C 
ENDROOT
BRANCH   1   2
ATOM      2  C   UNL A   1      33.801  30.087  27.042  1.00  0.00     0.116 C 
BRANCH   2   3
ATOM      3  N   UNL A   1      32.892  29.191  27.728  1.00  0.00    -0.354 N 
ATOM      4  C   UNL A   1      31.817  28.509  27.227  1.00  0.00     0.241 C 
ATOM      5  O   UNL A   1      31.182  27.802  28.012  1.00  0.00    -0.273 OA
ATOM      6  H   UNL A   1      33.072  29.056  28.686  1.00  0.00     0.163 HD
BRANCH   4   7
ATOM      7  C   UNL A   1      31.500  28.539  25.750  1.00  0.00     0.246 C 
BRANCH   7   8
ATOM      8  N   UNL A   1      31.735  27.253  25.109  1.00  0.00    -0.237 N 
ATOM      9  C   UNL A   1      34.558  25.077  24.650  1.00  0.00     0.077 A 
ATOM     10  C   UNL A   1      34.461  23.725  24.946  1.00  0.00     0.043 A 
ATOM     11  N   UNL A   1      34.294  25.975  25.669  1.00  0.00    -0.228 NA
ATOM     12  C   UNL A   1      33.298  23.312  25.643  1.00  0.00     0.071 A 
ATOM     13  C   UNL A   1      32.936  25.952  25.868  1.00  0.00     0.159 A 
ATOM     14  C   UNL A   1      32.244  24.243  25.520  1.00  0.00     0.054 A 
ATOM     15  C   UNL A   1      30.744  24.528  24.196  1.00  0.00     0.070 A 
ATOM     16  N   UNL A   1      30.324  26.300  24.151  1.00  0.00    -0.175 NA
ATOM     17  C   UNL A   1      30.555  23.690  22.970  1.00  0.00     0.069 C 
BRANCH   9  18
ATOM     18  C   UNL A   1      33.671  25.466  23.531  1.00  0.00     0.041 A 
ATOM     19  C   UNL A   1      34.447  28.730  23.978  1.00  0.00     0.069 C 
ATOM     20  C   UNL A   1      33.671  26.929  23.003  1.00  0.00     0.069 A 
ATOM     21  N   UNL A   1      33.317  26.749  21.660  1.00  0.00    -0.178 NA
ATOM     22  N   UNL A   1      32.883  25.498  21.506  1.00  0.00    -0.275 N 
ATOM     23  C   UNL A   1      33.104  24.669  22.566  1.00  0.00     0.119 A 
ATOM     24  C   UNL A   1      32.448  25.138  20.176  1.00  0.00     0.173 C 
ENDBRANCH   9  18
BRANCH  12  25
ATOM     25  C   UNL A   1      33.565  22.769  27.047  1.00  0.00     0.417 C 
ATOM     26  F   UNL A   1      33.685  21.408  27.056  1.00  0.00    -0.166 F 
ATOM     27  F   UNL A   1      34.725  23.239  27.580  1.00  0.00    -0.166 F 
ATOM     28  F   UNL A   1      32.582  23.060  27.939  1.00  0.00    -0.166 F 
ENDBRANCH  12  25
ENDBRANCH   7   8
ENDBRANCH   4   7
ENDBRANCH   2   3
ENDBRANCH   1   2
BRANCH   1  29
ATOM     29  C   UNL A   1      32.759  32.384  27.785  1.00  0.00     0.023 C 
BRANCH  29  30
ATOM     30  C   UNL A   1      33.204  33.786  27.444  1.00  0.00     0.116 C 
BRANCH  30  31
ATOM     31  N   UNL A   1      32.864  34.746  28.503  1.00  0.00    -0.352 N 
ATOM     32  C   UNL A   1      33.311  34.757  29.809  1.00  0.00     0.251 C 
ATOM     33  H   UNL A   1      32.242  35.467  28.251  1.00  0.00     0.163 HD
ATOM     34  O   UNL A   1      32.722  35.358  30.696  1.00  0.00    -0.269 OA
BRANCH  32  35
ATOM     35  C   UNL A   1      34.585  34.084  30.080  1.00  0.00     0.039 A 
ATOM     36  C   UNL A   1      34.737  33.049  31.005  1.00  0.00     0.014 A 
ATOM     37  C   UNL A   1      35.633  34.479  29.262  1.00  0.00     0.014 A 
ATOM     38  C   UNL A   1      35.995  32.464  31.130  1.00  0.00     0.010 A 
ATOM     39  C   UNL A   1      36.674  33.623  29.134  1.00  0.00     0.010 A 
ATOM     40  C   UNL A   1      36.983  32.814  30.204  1.00  0.00    -0.014 A 
BRANCH  40  41
ATOM     41  C   UNL A   1      38.298  32.206  30.130  1.00  0.00     0.031 A 
ATOM     42  C   UNL A   1      38.227  30.892  29.446  1.00  0.00     0.074 A 
ATOM     43  C   UNL A   1      39.422  32.902  30.445  1.00  0.00     0.049 A 
ATOM     44  N   UNL A   1      38.251  29.737  30.021  1.00  0.00    -0.248 NA
ATOM     45  C   UNL A   1      37.791  30.830  28.036  1.00  0.00     0.031 C 
ATOM     46  C   UNL A   1      39.562  34.299  30.887  1.00  0.00     0.029 A 
ATOM     47  N   UNL A   1      40.728  32.501  30.362  1.00  0.00    -0.354 N 
ATOM     48  C   UNL A   1      38.160  28.813  28.988  1.00  0.00     0.074 A 
ATOM     49  C   UNL A   1      37.588  29.519  27.879  1.00  0.00     0.031 C 
ATOM     50  C   UNL A   1      40.855  34.693  30.783  1.00  0.00     0.029 A 
ATOM     51  C   UNL A   1      41.662  33.554  30.398  1.00  0.00     0.049 A 
ATOM     52  H   UNL A   1      40.993  31.556  30.284  1.00  0.00     0.167 HD
ATOM     53  C   UNL A   1      38.910  27.677  29.032  1.00  0.00     0.037 A 
ATOM     54  C   UNL A   1      42.987  33.441  30.084  1.00  0.00     0.037 A 
ATOM     55  C   UNL A   1      39.432  27.486  30.368  1.00  0.00     0.049 A 
ATOM     56  C   UNL A   1      43.325  31.990  30.204  1.00  0.00     0.074 A 
ATOM     57  C   UNL A   1      38.863  27.344  31.619  1.00  0.00     0.029 A 
ATOM     58  N   UNL A   1      40.727  27.896  30.580  1.00  0.00    -0.354 N 
ATOM     59  N   UNL A   1      43.284  31.354  31.347  1.00  0.00    -0.248 NA
ATOM     60  C   UNL A   1      43.081  31.176  29.019  1.00  0.00     0.031 C 
ATOM     61  C   UNL A   1      39.676  28.139  32.482  1.00  0.00     0.029 A 
ATOM     62  C   UNL A   1      40.772  28.604  31.754  1.00  0.00     0.049 A 
ATOM     63  H   UNL A   1      41.493  27.711  29.990  1.00  0.00     0.167 HD
ATOM     64  C   UNL A   1      42.550  30.205  31.075  1.00  0.00     0.074 A 
ATOM     65  C   UNL A   1      42.461  30.149  29.612  1.00  0.00     0.031 C 
ATOM     66  C   UNL A   1      41.792  29.589  32.033  1.00  0.00     0.037 A 
BRANCH  53  67
ATOM     67  C   UNL A   1      39.582  27.042  27.834  1.00  0.00     0.057 A 
ATOM     68  C   UNL A   1      40.497  27.684  26.976  1.00  0.00     0.134 A 
ATOM     69  C   UNL A   1      39.570  25.637  27.744  1.00  0.00     0.134 A 
ATOM     70  F   UNL A   1      40.659  29.010  26.939  1.00  0.00    -0.206 F 
ATOM     71  C   UNL A   1      41.387  26.984  26.157  1.00  0.00     0.040 A 
ATOM     72  C   UNL A   1      40.487  24.927  26.962  1.00  0.00     0.040 A 
ATOM     73  F   UNL A   1      38.728  24.907  28.492  1.00  0.00    -0.206 F 
ATOM     74  C   UNL A   1      41.414  25.601  26.180  1.00  0.00     0.006 A 
ENDBRANCH  53  67
BRANCH  54  75
ATOM     75  C   UNL A   1      43.836  34.404  29.326  1.00  0.00     0.057 A 
ATOM     76  C   UNL A   1      43.368  34.989  28.137  1.00  0.00     0.134 A 
ATOM     77  C   UNL A   1      45.209  34.583  29.582  1.00  0.00     0.134 A 
ATOM     78  F   UNL A   1      42.104  34.802  27.730  1.00  0.00    -0.206 F 
ATOM     79  C   UNL A   1      44.192  35.711  27.263  1.00  0.00     0.040 A 
ATOM     80  C   UNL A   1      46.050  35.307  28.713  1.00  0.00     0.040 A 
ATOM     81  F   UNL A   1      45.784  34.013  30.651  1.00  0.00    -0.206 F 
ATOM     82  C   UNL A   1      45.541  35.869  27.546  1.00  0.00     0.006 A 
ENDBRANCH  54  75
BRANCH  66  83
ATOM     83  C   UNL A   1      41.903  30.062  33.458  1.00  0.00     0.057 A 
ATOM     84  C   UNL A   1      42.777  29.375  34.307  1.00  0.00     0.134 A 
ATOM     85  C   UNL A   1      41.092  31.043  34.052  1.00  0.00     0.134 A 
ATOM     86  F   UNL A   1      43.528  28.371  33.831  1.00  0.00    -0.206 F 
ATOM     87  C   UNL A   1      42.864  29.662  35.670  1.00  0.00     0.040 A 
ATOM     88  C   UNL A   1      41.192  31.364  35.411  1.00  0.00     0.040 A 
ATOM     89  F   UNL A   1      40.138  31.670  33.353  1.00  0.00    -0.206 F 
ATOM     90  C   UNL A   1      42.084  30.673  36.224  1.00  0.00     0.006 A 
ENDBRANCH  66  83
ENDBRANCH  40  41
ENDBRANCH  32  35
ENDBRANCH  30  31
ENDBRANCH  29  30
ENDBRANCH   1  29
TORSDOF 14
ENDMDL
MODEL 3
REMARK VINA RESULT:     -11.9      2.566      3.728
REMARK SMILES Cc1nn(C)cc1-c1cc(C(F)(F)F)c2c(C)nn(CC(=O)NCCCCNC(=O)c3ccc(-c4c5nc(c(-c6c(F)cccc6F)c6ccc([nH]6)c(-c6c(F)cccc6F)c6nc(c(-c7c(F)cccc7F)c7ccc4[nH]7)C=C6)C=C5)cc3)c2n1
REMARK SMILES IDX 25 1 24 2 23 3 21 4 22 5 20 7 19 8 8 9 9 10 86 11 10 12
REMARK SMILES IDX 85 13 15 14 16 15 18 16 17 17 7 18 1 19 2 20 3 21 4 22 6 23
REMARK SMILES IDX 5 24 11 25 12 26 13 27 14 28 26 29 27 30 28 31 29 32 30 34
REMARK SMILES IDX 31 35 32 36 84 37 33 38 83 39 34 40 35 41 36 42 77 43 37 44
REMARK SMILES IDX 82 45 76 46 78 47 38 48 81 49 75 50 74 51 39 53 65 54 48 55
REMARK SMILES IDX 64 56 49 57 52 58 63 59 79 60 50 61 51 62 62 64 80 65 53 66
REMARK SMILES IDX 40 67 41 68 46 69 42 70 43 71 45 72 47 73 44 74 66 75 67 76
REMARK SMILES IDX 72 77 68 78 69 79 71 80 73 81 70 82 54 83 55 84 60 85 56 86
REMARK SMILES IDX 57 87 59 88 61 89 58 90
REMARK H PARENT 23 6 28 33 78 52 52 63
REMARK Flexibility Score: inf
ROOT
ATOM      1  C   UNL A   1      37.935  23.791  26.011  1.00  0.00     0.023 C 
ENDROOT
BRANCH   1   2
ATOM      2  C   UNL A   1      36.428  23.700  25.842  1.00  0.00     0.116 C 
BRANCH   2   3
ATOM      3  N   UNL A   1      36.066  23.590  24.444  1.00  0.00    -0.354 N 
ATOM      4  C   UNL A   1      34.828  23.680  23.868  1.00  0.00     0.241 C 
ATOM      5  O   UNL A   1      34.765  23.549  22.644  1.00  0.00    -0.273 OA
ATOM      6  H   UNL A   1      36.813  23.429  23.823  1.00  0.00     0.163 HD
BRANCH   4   7
ATOM      7  C   UNL A   1      33.614  24.038  24.692  1.00  0.00     0.246 C 
BRANCH   7   8
ATOM      8  N   UNL A   1      33.268  25.448  24.582  1.00  0.00    -0.237 N 
ATOM      9  C   UNL A   1      31.888  27.944  26.768  1.00  0.00     0.077 A 
ATOM     10  C   UNL A   1      32.496  29.185  26.895  1.00  0.00     0.043 A 
ATOM     11  N   UNL A   1      32.645  26.827  27.073  1.00  0.00    -0.228 NA
ATOM     12  C   UNL A   1      33.783  29.321  26.315  1.00  0.00     0.071 A 
ATOM     13  C   UNL A   1      33.542  26.671  26.046  1.00  0.00     0.159 A 
ATOM     14  C   UNL A   1      34.033  28.336  25.334  1.00  0.00     0.054 A 
ATOM     15  C   UNL A   1      33.700  28.192  23.346  1.00  0.00     0.070 A 
ATOM     16  N   UNL A   1      33.475  26.438  22.911  1.00  0.00    -0.175 NA
ATOM     17  C   UNL A   1      33.004  29.250  22.547  1.00  0.00     0.069 C 
BRANCH   9  18
ATOM     18  C   UNL A   1      31.368  27.717  25.402  1.00  0.00     0.041 A 
ATOM     19  C   UNL A   1      30.506  24.542  26.199  1.00  0.00     0.069 C 
ATOM     20  C   UNL A   1      30.581  26.417  25.069  1.00  0.00     0.069 A 
ATOM     21  N   UNL A   1      29.735  26.849  24.041  1.00  0.00    -0.178 NA
ATOM     22  N   UNL A   1      30.151  28.047  23.631  1.00  0.00    -0.275 N 
ATOM     23  C   UNL A   1      31.092  28.640  24.422  1.00  0.00     0.119 A 
ATOM     24  C   UNL A   1      29.403  28.643  22.548  1.00  0.00     0.173 C 
ENDBRANCH   9  18
BRANCH  12  25
ATOM     25  C   UNL A   1      34.904  29.574  27.324  1.00  0.00     0.417 C 
ATOM     26  F   UNL A   1      34.423  30.014  28.524  1.00  0.00    -0.166 F 
ATOM     27  F   UNL A   1      35.617  28.452  27.609  1.00  0.00    -0.166 F 
ATOM     28  F   UNL A   1      35.800  30.511  26.918  1.00  0.00    -0.166 F 
ENDBRANCH  12  25
ENDBRANCH   7   8
ENDBRANCH   4   7
ENDBRANCH   2   3
ENDBRANCH   1   2
BRANCH   1  29
ATOM     29  C   UNL A   1      38.771  22.520  26.034  1.00  0.00     0.023 C 
BRANCH  29  30
ATOM     30  C   UNL A   1      39.920  22.628  27.006  1.00  0.00     0.116 C 
BRANCH  30  31
ATOM     31  N   UNL A   1      41.220  22.441  26.348  1.00  0.00    -0.352 N 
ATOM     32  C   UNL A   1      42.054  23.414  25.835  1.00  0.00     0.251 C 
ATOM     33  H   UNL A   1      41.533  21.511  26.263  1.00  0.00     0.163 HD
ATOM     34  O   UNL A   1      42.920  23.162  25.009  1.00  0.00    -0.269 OA
BRANCH  32  35
ATOM     35  C   UNL A   1      41.919  24.764  26.389  1.00  0.00     0.039 A 
ATOM     36  C   UNL A   1      41.071  25.740  25.861  1.00  0.00     0.014 A 
ATOM     37  C   UNL A   1      42.626  24.981  27.561  1.00  0.00     0.014 A 
ATOM     38  C   UNL A   1      41.003  26.969  26.515  1.00  0.00     0.010 A 
ATOM     39  C   UNL A   1      42.212  25.997  28.355  1.00  0.00     0.010 A 
ATOM     40  C   UNL A   1      41.639  27.096  27.754  1.00  0.00    -0.014 A 
BRANCH  40  41
ATOM     41  C   UNL A   1      41.559  28.266  28.607  1.00  0.00     0.031 A 
ATOM     42  C   UNL A   1      42.675  29.199  28.318  1.00  0.00     0.074 A 
ATOM     43  C   UNL A   1      40.461  28.519  29.366  1.00  0.00     0.049 A 
ATOM     44  N   UNL A   1      43.743  29.345  29.028  1.00  0.00    -0.248 NA
ATOM     45  C   UNL A   1      42.780  29.814  26.979  1.00  0.00     0.031 C 
ATOM     46  C   UNL A   1      39.214  27.748  29.490  1.00  0.00     0.029 A 
ATOM     47  N   UNL A   1      40.202  29.602  30.162  1.00  0.00    -0.354 N 
ATOM     48  C   UNL A   1      44.488  30.317  28.372  1.00  0.00     0.074 A 
ATOM     49  C   UNL A   1      44.012  30.330  27.020  1.00  0.00     0.031 C 
ATOM     50  C   UNL A   1      38.259  28.500  30.090  1.00  0.00     0.029 A 
ATOM     51  C   UNL A   1      38.848  29.752  30.515  1.00  0.00     0.049 A 
ATOM     52  H   UNL A   1      40.904  30.224  30.463  1.00  0.00     0.167 HD
ATOM     53  C   UNL A   1      45.146  31.263  29.096  1.00  0.00     0.037 A 
ATOM     54  C   UNL A   1      38.301  30.870  31.081  1.00  0.00     0.037 A 
ATOM     55  C   UNL A   1      45.216  30.858  30.484  1.00  0.00     0.049 A 
ATOM     56  C   UNL A   1      39.436  31.630  31.688  1.00  0.00     0.074 A 
ATOM     57  C   UNL A   1      45.739  29.766  31.148  1.00  0.00     0.029 A 
ATOM     58  N   UNL A   1      44.281  31.408  31.327  1.00  0.00    -0.354 N 
ATOM     59  N   UNL A   1      40.137  31.161  32.689  1.00  0.00    -0.248 NA
ATOM     60  C   UNL A   1      40.138  32.549  30.800  1.00  0.00     0.031 C 
ATOM     61  C   UNL A   1      44.756  29.431  32.128  1.00  0.00     0.029 A 
ATOM     62  C   UNL A   1      43.762  30.411  32.111  1.00  0.00     0.049 A 
ATOM     63  H   UNL A   1      44.026  32.359  31.362  1.00  0.00     0.167 HD
ATOM     64  C   UNL A   1      41.459  31.331  32.292  1.00  0.00     0.074 A 
ATOM     65  C   UNL A   1      41.392  32.205  31.115  1.00  0.00     0.031 C 
ATOM     66  C   UNL A   1      42.454  30.495  32.718  1.00  0.00     0.037 A 
BRANCH  53  67
ATOM     67  C   UNL A   1      45.267  32.719  28.702  1.00  0.00     0.057 A 
ATOM     68  C   UNL A   1      44.195  33.629  28.599  1.00  0.00     0.134 A 
ATOM     69  C   UNL A   1      46.543  33.311  28.761  1.00  0.00     0.134 A 
ATOM     70  F   UNL A   1      42.915  33.249  28.551  1.00  0.00    -0.206 F 
ATOM     71  C   UNL A   1      44.371  35.015  28.638  1.00  0.00     0.040 A 
ATOM     72  C   UNL A   1      46.726  34.696  28.846  1.00  0.00     0.040 A 
ATOM     73  F   UNL A   1      47.649  32.555  28.837  1.00  0.00    -0.206 F 
ATOM     74  C   UNL A   1      45.635  35.552  28.805  1.00  0.00     0.006 A 
ENDBRANCH  53  67
BRANCH  54  75
ATOM     75  C   UNL A   1      36.980  31.495  30.788  1.00  0.00     0.057 A 
ATOM     76  C   UNL A   1      36.759  32.163  29.571  1.00  0.00     0.134 A 
ATOM     77  C   UNL A   1      35.990  31.693  31.769  1.00  0.00     0.134 A 
ATOM     78  F   UNL A   1      37.679  32.137  28.596  1.00  0.00    -0.206 F 
ATOM     79  C   UNL A   1      35.635  32.964  29.332  1.00  0.00     0.040 A 
ATOM     80  C   UNL A   1      34.854  32.495  31.542  1.00  0.00     0.040 A 
ATOM     81  F   UNL A   1      36.126  31.162  32.993  1.00  0.00    -0.206 F 
ATOM     82  C   UNL A   1      34.677  33.137  30.321  1.00  0.00     0.006 A 
ENDBRANCH  54  75
BRANCH  66  83
ATOM     83  C   UNL A   1      42.139  29.484  33.789  1.00  0.00     0.057 A 
ATOM     84  C   UNL A   1      42.384  29.841  35.118  1.00  0.00     0.134 A 
ATOM     85  C   UNL A   1      41.758  28.151  33.557  1.00  0.00     0.134 A 
ATOM     86  F   UNL A   1      42.827  31.073  35.413  1.00  0.00    -0.206 F 
ATOM     87  C   UNL A   1      42.235  28.936  36.169  1.00  0.00     0.040 A 
ATOM     88  C   UNL A   1      41.572  27.240  34.605  1.00  0.00     0.040 A 
ATOM     89  F   UNL A   1      41.619  27.676  32.314  1.00  0.00    -0.206 F 
ATOM     90  C   UNL A   1      41.809  27.635  35.918  1.00  0.00     0.006 A 
ENDBRANCH  66  83
ENDBRANCH  40  41
ENDBRANCH  32  35
ENDBRANCH  30  31
ENDBRANCH  29  30
ENDBRANCH   1  29
TORSDOF 14
ENDMDL
