MODEL 1
REMARK VINA RESULT:     -13.5      0.000      0.000
REMARK SMILES Cn1cc(C[C@@H](NC(=O)OCC2c3ccccc3-c3ccccc32)C(=O)NCCCCNC(=O)c2ccc(-c3c4nc(c(-c5c(F)cccc5F)c5ccc([nH]5)c(-c5c(F)cccc5F)c5nc(c(-c6c(F)cccc6F)c6ccc3[nH]6)C=C5)C=C4)cc2)c2ccccc21
REMARK SMILES IDX 28 1 27 2 25 3 26 4 6 6 5 7 4 8 1 9 2 10 3 11 94 12 89 13
REMARK SMILES IDX 93 14 90 15 92 16 91 17 7 18 8 19 9 21 10 22 11 23 12 24
REMARK SMILES IDX 13 25 24 26 14 27 18 28 19 29 23 30 15 31 17 32 20 33 22 34
REMARK SMILES IDX 16 35 21 36 29 37 30 38 31 39 32 40 33 41 34 43 35 44 36 45
REMARK SMILES IDX 88 46 37 47 87 48 38 49 39 50 40 51 81 52 41 53 86 54 80 55
REMARK SMILES IDX 82 56 42 57 85 58 79 59 78 60 43 62 69 63 52 64 68 65 53 66
REMARK SMILES IDX 56 67 67 68 83 69 54 70 55 71 66 73 84 74 57 75 44 76 45 77
REMARK SMILES IDX 50 78 46 79 47 80 49 81 51 82 48 83 70 84 71 85 76 86 72 87
REMARK SMILES IDX 73 88 75 89 77 90 74 91 58 92 59 93 64 94 60 95 61 96 63 97
REMARK SMILES IDX 65 98 62 99
REMARK H PARENT 27 5 7 20 32 42 82 61 56 72
REMARK Flexibility Score: inf
ROOT
ATOM      1  C   UNL A   1      32.153  29.213  27.043  1.00  0.00     0.116 C 
ENDROOT
BRANCH   1   2
ATOM      2  N   UNL A   1      33.035  28.219  26.457  1.00  0.00    -0.354 N 
ATOM      3  C   UNL A   1      32.740  27.002  25.902  1.00  0.00     0.243 C 
ATOM      4  O   UNL A   1      33.683  26.325  25.481  1.00  0.00    -0.273 OA
ATOM      5  H   UNL A   1      33.990  28.456  26.459  1.00  0.00     0.163 HD
BRANCH   3   6
ATOM      6  C   UNL A   1      31.305  26.433  25.935  1.00  0.00     0.179 C 
BRANCH   6   7
ATOM      7  C   UNL A   1      30.876  26.153  24.466  1.00  0.00     0.073 C 
BRANCH   7   8
ATOM      8  C   UNL A   1      29.709  26.934  23.921  1.00  0.00    -0.020 A 
ATOM      9  C   UNL A   1      26.181  27.761  23.782  1.00  0.00     0.149 C 
ATOM     10  N   UNL A   1      27.609  27.626  23.602  1.00  0.00    -0.350 N 
ATOM     11  C   UNL A   1      28.379  26.643  24.163  1.00  0.00     0.090 A 
ATOM     12  C   UNL A   1      28.399  28.516  22.911  1.00  0.00     0.048 A 
ATOM     13  C   UNL A   1      29.726  28.163  23.171  1.00  0.00     0.003 A 
ATOM     14  C   UNL A   1      28.058  29.623  22.114  1.00  0.00     0.027 A 
ATOM     15  C   UNL A   1      30.742  29.013  22.682  1.00  0.00     0.010 A 
ATOM     16  C   UNL A   1      29.091  30.391  21.573  1.00  0.00     0.002 A 
ATOM     17  C   UNL A   1      30.418  30.100  21.862  1.00  0.00     0.001 A 
ENDBRANCH   7   8
ENDBRANCH   6   7
BRANCH   6  18
ATOM     18  N   UNL A   1      31.060  25.299  26.829  1.00  0.00    -0.309 N 
ATOM     19  C   UNL A   1      30.917  23.976  26.576  1.00  0.00     0.407 C 
ATOM     20  H   UNL A   1      30.987  25.542  27.781  1.00  0.00     0.167 HD
ATOM     21  O   UNL A   1      30.133  23.307  27.248  1.00  0.00    -0.225 OA
BRANCH  19  22
ATOM     22  O   UNL A   1      31.689  23.489  25.575  1.00  0.00    -0.449 OA
BRANCH  22  23
ATOM     23  C   UNL A   1      32.955  22.925  25.992  1.00  0.00     0.248 C 
BRANCH  23  24
ATOM     24  C   UNL A   1      33.830  22.419  24.824  1.00  0.00     0.088 C 
ATOM     25  C   UNL A   1      35.323  22.489  25.133  1.00  0.00    -0.029 A 
ATOM     26  C   UNL A   1      33.655  20.942  24.498  1.00  0.00    -0.029 A 
ATOM     27  C   UNL A   1      36.107  23.614  25.344  1.00  0.00     0.005 A 
ATOM     28  C   UNL A   1      35.885  21.195  25.105  1.00  0.00    -0.014 A 
ATOM     29  C   UNL A   1      34.851  20.241  24.764  1.00  0.00    -0.014 A 
ATOM     30  C   UNL A   1      32.521  20.282  24.051  1.00  0.00     0.005 A 
ATOM     31  C   UNL A   1      37.477  23.432  25.543  1.00  0.00     0.000 A 
ATOM     32  C   UNL A   1      37.243  21.016  25.312  1.00  0.00     0.009 A 
ATOM     33  C   UNL A   1      34.889  18.861  24.671  1.00  0.00     0.009 A 
ATOM     34  C   UNL A   1      32.555  18.890  23.971  1.00  0.00     0.000 A 
ATOM     35  C   UNL A   1      38.039  22.146  25.530  1.00  0.00     0.001 A 
ATOM     36  C   UNL A   1      33.725  18.185  24.291  1.00  0.00     0.001 A 
ENDBRANCH  23  24
ENDBRANCH  22  23
ENDBRANCH  19  22
ENDBRANCH   6  18
ENDBRANCH   3   6
ENDBRANCH   1   2
BRANCH   1  37
ATOM     37  C   UNL A   1      31.978  30.421  26.130  1.00  0.00     0.023 C 
BRANCH  37  38
ATOM     38  C   UNL A   1      31.613  31.708  26.868  1.00  0.00     0.023 C 
BRANCH  38  39
ATOM     39  C   UNL A   1      32.796  32.600  27.229  1.00  0.00     0.116 C 
BRANCH  39  40
ATOM     40  N   UNL A   1      32.411  33.965  27.561  1.00  0.00    -0.352 N 
ATOM     41  C   UNL A   1      32.990  34.804  28.484  1.00  0.00     0.251 C 
ATOM     42  H   UNL A   1      31.644  34.331  27.065  1.00  0.00     0.163 HD
ATOM     43  O   UNL A   1      32.502  35.898  28.742  1.00  0.00    -0.269 OA
BRANCH  41  44
ATOM     44  C   UNL A   1      34.198  34.340  29.190  1.00  0.00     0.039 A 
ATOM     45  C   UNL A   1      34.054  33.670  30.406  1.00  0.00     0.014 A 
ATOM     46  C   UNL A   1      35.455  34.495  28.599  1.00  0.00     0.014 A 
ATOM     47  C   UNL A   1      35.171  33.082  30.998  1.00  0.00     0.010 A 
ATOM     48  C   UNL A   1      36.556  33.857  29.159  1.00  0.00     0.010 A 
ATOM     49  C   UNL A   1      36.421  33.137  30.358  1.00  0.00    -0.014 A 
BRANCH  49  50
ATOM     50  C   UNL A   1      37.600  32.432  30.914  1.00  0.00     0.031 A 
ATOM     51  C   UNL A   1      38.264  32.946  32.158  1.00  0.00     0.074 A 
ATOM     52  C   UNL A   1      38.120  31.381  30.252  1.00  0.00     0.049 A 
ATOM     53  N   UNL A   1      39.352  32.524  32.748  1.00  0.00    -0.248 NA
ATOM     54  C   UNL A   1      37.639  34.110  32.806  1.00  0.00     0.031 C 
ATOM     55  C   UNL A   1      37.600  30.823  29.002  1.00  0.00     0.029 A 
ATOM     56  N   UNL A   1      39.214  30.601  30.534  1.00  0.00    -0.354 N 
ATOM     57  C   UNL A   1      39.554  33.380  33.822  1.00  0.00     0.074 A 
ATOM     58  C   UNL A   1      38.501  34.371  33.778  1.00  0.00     0.031 C 
ATOM     59  C   UNL A   1      38.362  29.780  28.635  1.00  0.00     0.029 A 
ATOM     60  C   UNL A   1      39.439  29.614  29.605  1.00  0.00     0.049 A 
ATOM     61  H   UNL A   1      39.783  30.737  31.325  1.00  0.00     0.167 HD
ATOM     62  C   UNL A   1      40.518  33.330  34.771  1.00  0.00     0.037 A 
ATOM     63  C   UNL A   1      40.410  28.683  29.544  1.00  0.00     0.037 A 
ATOM     64  C   UNL A   1      41.538  32.320  34.837  1.00  0.00     0.049 A 
ATOM     65  C   UNL A   1      41.453  28.635  30.623  1.00  0.00     0.074 A 
ATOM     66  C   UNL A   1      42.511  32.139  35.804  1.00  0.00     0.029 A 
ATOM     67  N   UNL A   1      41.714  31.316  33.897  1.00  0.00    -0.354 N 
ATOM     68  N   UNL A   1      41.592  29.409  31.672  1.00  0.00    -0.248 NA
ATOM     69  C   UNL A   1      42.473  27.581  30.514  1.00  0.00     0.031 C 
ATOM     70  C   UNL A   1      43.295  31.040  35.435  1.00  0.00     0.029 A 
ATOM     71  C   UNL A   1      42.789  30.520  34.254  1.00  0.00     0.049 A 
ATOM     72  H   UNL A   1      41.157  31.188  33.096  1.00  0.00     0.167 HD
ATOM     73  C   UNL A   1      42.697  28.924  32.358  1.00  0.00     0.074 A 
ATOM     74  C   UNL A   1      43.187  27.783  31.613  1.00  0.00     0.031 C 
ATOM     75  C   UNL A   1      43.256  29.384  33.503  1.00  0.00     0.037 A 
BRANCH  62  76
ATOM     76  C   UNL A   1      40.501  34.399  35.822  1.00  0.00     0.057 A 
ATOM     77  C   UNL A   1      39.764  34.256  37.005  1.00  0.00     0.134 A 
ATOM     78  C   UNL A   1      41.248  35.572  35.661  1.00  0.00     0.134 A 
ATOM     79  F   UNL A   1      39.016  33.161  37.210  1.00  0.00    -0.206 F 
ATOM     80  C   UNL A   1      39.751  35.253  37.980  1.00  0.00     0.040 A 
ATOM     81  C   UNL A   1      41.262  36.566  36.641  1.00  0.00     0.040 A 
ATOM     82  F   UNL A   1      41.979  35.769  34.553  1.00  0.00    -0.206 F 
ATOM     83  C   UNL A   1      40.507  36.410  37.802  1.00  0.00     0.006 A 
ENDBRANCH  62  76
BRANCH  63  84
ATOM     84  C   UNL A   1      40.422  27.700  28.435  1.00  0.00     0.057 A 
ATOM     85  C   UNL A   1      39.721  26.493  28.539  1.00  0.00     0.134 A 
ATOM     86  C   UNL A   1      41.130  27.938  27.252  1.00  0.00     0.134 A 
ATOM     87  F   UNL A   1      39.040  26.203  29.657  1.00  0.00    -0.206 F 
ATOM     88  C   UNL A   1      39.734  25.550  27.510  1.00  0.00     0.040 A 
ATOM     89  C   UNL A   1      41.136  27.012  26.207  1.00  0.00     0.040 A 
ATOM     90  F   UNL A   1      41.815  29.079  27.091  1.00  0.00    -0.206 F 
ATOM     91  C   UNL A   1      40.440  25.810  26.338  1.00  0.00     0.006 A 
ENDBRANCH  63  84
BRANCH  75  92
ATOM     92  C   UNL A   1      44.442  28.638  34.034  1.00  0.00     0.057 A 
ATOM     93  C   UNL A   1      45.750  29.010  33.703  1.00  0.00     0.134 A 
ATOM     94  C   UNL A   1      44.273  27.569  34.922  1.00  0.00     0.134 A 
ATOM     95  F   UNL A   1      45.975  30.018  32.847  1.00  0.00    -0.206 F 
ATOM     96  C   UNL A   1      46.852  28.335  34.229  1.00  0.00     0.040 A 
ATOM     97  C   UNL A   1      45.366  26.899  35.469  1.00  0.00     0.040 A 
ATOM     98  F   UNL A   1      43.044  27.170  35.281  1.00  0.00    -0.206 F 
ATOM     99  C   UNL A   1      46.661  27.281  35.121  1.00  0.00     0.006 A 
ENDBRANCH  75  92
ENDBRANCH  49  50
ENDBRANCH  41  44
ENDBRANCH  39  40
ENDBRANCH  38  39
ENDBRANCH  37  38
ENDBRANCH   1  37
TORSDOF 17
ENDMDL
MODEL 2
REMARK VINA RESULT:     -13.3      0.693      5.758
REMARK SMILES Cn1cc(C[C@@H](NC(=O)OCC2c3ccccc3-c3ccccc32)C(=O)NCCCCNC(=O)c2ccc(-c3c4nc(c(-c5c(F)cccc5F)c5ccc([nH]5)c(-c5c(F)cccc5F)c5nc(c(-c6c(F)cccc6F)c6ccc3[nH]6)C=C5)C=C4)cc2)c2ccccc21
REMARK SMILES IDX 28 1 27 2 25 3 26 4 6 6 5 7 4 8 1 9 2 10 3 11 94 12 89 13
REMARK SMILES IDX 93 14 90 15 92 16 91 17 7 18 8 19 9 21 10 22 11 23 12 24
REMARK SMILES IDX 13 25 24 26 14 27 18 28 19 29 23 30 15 31 17 32 20 33 22 34
REMARK SMILES IDX 16 35 21 36 29 37 30 38 31 39 32 40 33 41 34 43 35 44 36 45
REMARK SMILES IDX 88 46 37 47 87 48 38 49 39 50 40 51 81 52 41 53 86 54 80 55
REMARK SMILES IDX 82 56 42 57 85 58 79 59 78 60 43 62 69 63 52 64 68 65 53 66
REMARK SMILES IDX 56 67 67 68 83 69 54 70 55 71 66 73 84 74 57 75 44 76 45 77
REMARK SMILES IDX 50 78 46 79 47 80 49 81 51 82 48 83 70 84 71 85 76 86 72 87
REMARK SMILES IDX 73 88 75 89 77 90 74 91 58 92 59 93 64 94 60 95 61 96 63 97
REMARK SMILES IDX 65 98 62 99
REMARK H PARENT 27 5 7 20 32 42 82 61 56 72
REMARK Flexibility Score: inf
ROOT
ATOM      1  C   UNL A   1      32.213  29.169  26.784  1.00  0.00     0.116 C 
ENDROOT
BRANCH   1   2
ATOM      2  N   UNL A   1      33.091  28.190  26.168  1.00  0.00    -0.354 N 
ATOM      3  C   UNL A   1      32.811  26.936  25.694  1.00  0.00     0.243 C 
ATOM      4  O   UNL A   1      33.748  26.284  25.222  1.00  0.00    -0.273 OA
ATOM      5  H   UNL A   1      34.030  28.471  26.076  1.00  0.00     0.163 HD
BRANCH   3   6
ATOM      6  C   UNL A   1      31.415  26.303  25.877  1.00  0.00     0.179 C 
BRANCH   6   7
ATOM      7  C   UNL A   1      30.868  25.951  24.464  1.00  0.00     0.073 C 
BRANCH   7   8
ATOM      8  C   UNL A   1      29.721  26.772  23.937  1.00  0.00    -0.020 A 
ATOM      9  C   UNL A   1      26.214  27.690  23.821  1.00  0.00     0.149 C 
ATOM     10  N   UNL A   1      27.639  27.523  23.635  1.00  0.00    -0.350 N 
ATOM     11  C   UNL A   1      28.384  26.510  24.176  1.00  0.00     0.090 A 
ATOM     12  C   UNL A   1      28.450  28.407  22.961  1.00  0.00     0.048 A 
ATOM     13  C   UNL A   1      29.768  28.014  23.211  1.00  0.00     0.003 A 
ATOM     14  C   UNL A   1      28.137  29.537  22.187  1.00  0.00     0.027 A 
ATOM     15  C   UNL A   1      30.805  28.849  22.738  1.00  0.00     0.010 A 
ATOM     16  C   UNL A   1      29.188  30.290  21.659  1.00  0.00     0.002 A 
ATOM     17  C   UNL A   1      30.507  29.959  21.941  1.00  0.00     0.001 A 
ENDBRANCH   7   8
ENDBRANCH   6   7
BRANCH   6  18
ATOM     18  N   UNL A   1      31.307  25.192  26.826  1.00  0.00    -0.309 N 
ATOM     19  C   UNL A   1      31.360  23.851  26.642  1.00  0.00     0.407 C 
ATOM     20  H   UNL A   1      31.174  25.469  27.762  1.00  0.00     0.167 HD
ATOM     21  O   UNL A   1      30.659  23.112  27.332  1.00  0.00    -0.225 OA
BRANCH  19  22
ATOM     22  O   UNL A   1      32.220  23.429  25.684  1.00  0.00    -0.449 OA
BRANCH  22  23
ATOM     23  C   UNL A   1      32.645  22.050  25.802  1.00  0.00     0.248 C 
BRANCH  23  24
ATOM     24  C   UNL A   1      33.502  21.555  24.616  1.00  0.00     0.088 C 
ATOM     25  C   UNL A   1      34.992  21.805  24.822  1.00  0.00    -0.029 A 
ATOM     26  C   UNL A   1      33.471  20.048  24.402  1.00  0.00    -0.029 A 
ATOM     27  C   UNL A   1      35.659  23.018  24.906  1.00  0.00     0.005 A 
ATOM     28  C   UNL A   1      35.691  20.578  24.843  1.00  0.00    -0.014 A 
ATOM     29  C   UNL A   1      34.749  19.499  24.634  1.00  0.00    -0.014 A 
ATOM     30  C   UNL A   1      32.393  19.241  24.074  1.00  0.00     0.005 A 
ATOM     31  C   UNL A   1      37.050  22.997  25.027  1.00  0.00     0.000 A 
ATOM     32  C   UNL A   1      37.070  20.559  24.972  1.00  0.00     0.009 A 
ATOM     33  C   UNL A   1      34.934  18.127  24.631  1.00  0.00     0.009 A 
ATOM     34  C   UNL A   1      32.574  17.859  24.084  1.00  0.00     0.000 A 
ATOM     35  C   UNL A   1      37.749  21.779  25.063  1.00  0.00     0.001 A 
ATOM     36  C   UNL A   1      33.831  17.306  24.373  1.00  0.00     0.001 A 
ENDBRANCH  23  24
ENDBRANCH  22  23
ENDBRANCH  19  22
ENDBRANCH   6  18
ENDBRANCH   3   6
ENDBRANCH   1   2
BRANCH   1  37
ATOM     37  C   UNL A   1      32.227  30.493  26.032  1.00  0.00     0.023 C 
BRANCH  37  38
ATOM     38  C   UNL A   1      31.762  31.686  26.865  1.00  0.00     0.023 C 
BRANCH  38  39
ATOM     39  C   UNL A   1      32.877  32.606  27.350  1.00  0.00     0.116 C 
BRANCH  39  40
ATOM     40  N   UNL A   1      32.439  33.977  27.578  1.00  0.00    -0.352 N 
ATOM     41  C   UNL A   1      32.954  34.890  28.467  1.00  0.00     0.251 C 
ATOM     42  H   UNL A   1      31.683  34.286  27.029  1.00  0.00     0.163 HD
ATOM     43  O   UNL A   1      32.424  35.982  28.634  1.00  0.00    -0.269 OA
BRANCH  41  44
ATOM     44  C   UNL A   1      34.144  34.510  29.250  1.00  0.00     0.039 A 
ATOM     45  C   UNL A   1      33.969  33.936  30.510  1.00  0.00     0.014 A 
ATOM     46  C   UNL A   1      35.419  34.645  28.692  1.00  0.00     0.014 A 
ATOM     47  C   UNL A   1      35.076  33.422  31.185  1.00  0.00     0.010 A 
ATOM     48  C   UNL A   1      36.510  34.078  29.339  1.00  0.00     0.010 A 
ATOM     49  C   UNL A   1      36.346  33.453  30.586  1.00  0.00    -0.014 A 
BRANCH  49  50
ATOM     50  C   UNL A   1      37.518  32.821  31.237  1.00  0.00     0.031 A 
ATOM     51  C   UNL A   1      38.174  31.628  30.605  1.00  0.00     0.074 A 
ATOM     52  C   UNL A   1      37.936  33.269  32.435  1.00  0.00     0.049 A 
ATOM     53  N   UNL A   1      39.150  30.885  31.060  1.00  0.00    -0.248 NA
ATOM     54  C   UNL A   1      37.641  31.194  29.304  1.00  0.00     0.031 C 
ATOM     55  C   UNL A   1      37.344  34.384  33.178  1.00  0.00     0.029 A 
ATOM     56  N   UNL A   1      38.952  32.832  33.247  1.00  0.00    -0.354 N 
ATOM     57  C   UNL A   1      39.334  29.886  30.113  1.00  0.00     0.074 A 
ATOM     58  C   UNL A   1      38.342  30.092  29.080  1.00  0.00     0.031 C 
ATOM     59  C   UNL A   1      38.018  34.554  34.327  1.00  0.00     0.029 A 
ATOM     60  C   UNL A   1      39.069  33.545  34.415  1.00  0.00     0.049 A 
ATOM     61  H   UNL A   1      39.541  32.078  33.015  1.00  0.00     0.167 HD
ATOM     62  C   UNL A   1      40.261  28.899  30.097  1.00  0.00     0.037 A 
ATOM     63  C   UNL A   1      39.927  33.399  35.442  1.00  0.00     0.037 A 
ATOM     64  C   UNL A   1      41.272  28.722  31.103  1.00  0.00     0.049 A 
ATOM     65  C   UNL A   1      40.961  32.311  35.388  1.00  0.00     0.074 A 
ATOM     66  C   UNL A   1      42.304  27.800  31.134  1.00  0.00     0.029 A 
ATOM     67  N   UNL A   1      41.380  29.485  32.254  1.00  0.00    -0.354 N 
ATOM     68  N   UNL A   1      41.169  31.415  34.453  1.00  0.00    -0.248 NA
ATOM     69  C   UNL A   1      41.884  32.215  36.529  1.00  0.00     0.031 C 
ATOM     70  C   UNL A   1      43.021  27.989  32.322  1.00  0.00     0.029 A 
ATOM     71  C   UNL A   1      42.453  29.048  33.012  1.00  0.00     0.049 A 
ATOM     72  H   UNL A   1      40.783  30.229  32.498  1.00  0.00     0.167 HD
ATOM     73  C   UNL A   1      42.256  30.665  34.881  1.00  0.00     0.074 A 
ATOM     74  C   UNL A   1      42.672  31.217  36.154  1.00  0.00     0.031 C 
ATOM     75  C   UNL A   1      42.856  29.615  34.272  1.00  0.00     0.037 A 
BRANCH  62  76
ATOM     76  C   UNL A   1      40.225  27.944  28.943  1.00  0.00     0.057 A 
ATOM     77  C   UNL A   1      40.924  28.197  27.756  1.00  0.00     0.134 A 
ATOM     78  C   UNL A   1      39.505  26.746  29.028  1.00  0.00     0.134 A 
ATOM     79  F   UNL A   1      41.619  29.335  27.608  1.00  0.00    -0.206 F 
ATOM     80  C   UNL A   1      40.887  27.306  26.684  1.00  0.00     0.040 A 
ATOM     81  C   UNL A   1      39.480  25.835  27.971  1.00  0.00     0.040 A 
ATOM     82  F   UNL A   1      38.817  26.441  30.139  1.00  0.00    -0.206 F 
ATOM     83  C   UNL A   1      40.169  26.117  26.793  1.00  0.00     0.006 A 
ENDBRANCH  62  76
BRANCH  63  84
ATOM     84  C   UNL A   1      39.863  34.326  36.597  1.00  0.00     0.057 A 
ATOM     85  C   UNL A   1      39.052  34.040  37.702  1.00  0.00     0.134 A 
ATOM     86  C   UNL A   1      40.603  35.512  36.628  1.00  0.00     0.134 A 
ATOM     87  F   UNL A   1      38.306  32.925  37.720  1.00  0.00    -0.206 F 
ATOM     88  C   UNL A   1      38.969  34.907  38.791  1.00  0.00     0.040 A 
ATOM     89  C   UNL A   1      40.544  36.381  37.719  1.00  0.00     0.040 A 
ATOM     90  F   UNL A   1      41.404  35.837  35.602  1.00  0.00    -0.206 F 
ATOM     91  C   UNL A   1      39.720  36.081  38.803  1.00  0.00     0.006 A 
ENDBRANCH  63  84
BRANCH  75  92
ATOM     92  C   UNL A   1      44.041  29.010  34.961  1.00  0.00     0.057 A 
ATOM     93  C   UNL A   1      45.339  29.488  34.742  1.00  0.00     0.134 A 
ATOM     94  C   UNL A   1      43.875  27.973  35.887  1.00  0.00     0.134 A 
ATOM     95  F   UNL A   1      45.561  30.471  33.858  1.00  0.00    -0.206 F 
ATOM     96  C   UNL A   1      46.435  28.945  35.414  1.00  0.00     0.040 A 
ATOM     97  C   UNL A   1      44.960  27.435  36.578  1.00  0.00     0.040 A 
ATOM     98  F   UNL A   1      42.656  27.476  36.142  1.00  0.00    -0.206 F 
ATOM     99  C   UNL A   1      46.245  27.921  36.341  1.00  0.00     0.006 A 
ENDBRANCH  75  92
ENDBRANCH  49  50
ENDBRANCH  41  44
ENDBRANCH  39  40
ENDBRANCH  38  39
ENDBRANCH  37  38
ENDBRANCH   1  37
TORSDOF 17
ENDMDL
MODEL 3
REMARK VINA RESULT:     -13.1      3.758      8.972
REMARK SMILES Cn1cc(C[C@@H](NC(=O)OCC2c3ccccc3-c3ccccc32)C(=O)NCCCCNC(=O)c2ccc(-c3c4nc(c(-c5c(F)cccc5F)c5ccc([nH]5)c(-c5c(F)cccc5F)c5nc(c(-c6c(F)cccc6F)c6ccc3[nH]6)C=C5)C=C4)cc2)c2ccccc21
REMARK SMILES IDX 28 1 27 2 25 3 26 4 6 6 5 7 4 8 1 9 2 10 3 11 94 12 89 13
REMARK SMILES IDX 93 14 90 15 92 16 91 17 7 18 8 19 9 21 10 22 11 23 12 24
REMARK SMILES IDX 13 25 24 26 14 27 18 28 19 29 23 30 15 31 17 32 20 33 22 34
REMARK SMILES IDX 16 35 21 36 29 37 30 38 31 39 32 40 33 41 34 43 35 44 36 45
REMARK SMILES IDX 88 46 37 47 87 48 38 49 39 50 40 51 81 52 41 53 86 54 80 55
REMARK SMILES IDX 82 56 42 57 85 58 79 59 78 60 43 62 69 63 52 64 68 65 53 66
REMARK SMILES IDX 56 67 67 68 83 69 54 70 55 71 66 73 84 74 57 75 44 76 45 77
REMARK SMILES IDX 50 78 46 79 47 80 49 81 51 82 48 83 70 84 71 85 76 86 72 87
REMARK SMILES IDX 73 88 75 89 77 90 74 91 58 92 59 93 64 94 60 95 61 96 63 97
REMARK SMILES IDX 65 98 62 99
REMARK H PARENT 27 5 7 20 32 42 82 61 56 72
REMARK Flexibility Score: inf
ROOT
ATOM      1  C   UNL A   1      36.331  22.609  25.638  1.00  0.00     0.116 C 
ENDROOT
BRANCH   1   2
ATOM      2  N   UNL A   1      35.339  21.675  26.142  1.00  0.00    -0.354 N 
ATOM      3  C   UNL A   1      33.984  21.646  25.947  1.00  0.00     0.243 C 
ATOM      4  O   UNL A   1      33.348  20.745  26.504  1.00  0.00    -0.273 OA
ATOM      5  H   UNL A   1      35.695  20.955  26.710  1.00  0.00     0.163 HD
BRANCH   3   6
ATOM      6  C   UNL A   1      33.258  22.776  25.185  1.00  0.00     0.179 C 
BRANCH   6   7
ATOM      7  C   UNL A   1      33.639  22.650  23.681  1.00  0.00     0.073 C 
BRANCH   7   8
ATOM      8  C   UNL A   1      33.464  23.869  22.815  1.00  0.00    -0.020 A 
ATOM      9  C   UNL A   1      32.220  25.553  19.853  1.00  0.00     0.149 C 
ATOM     10  N   UNL A   1      32.852  25.150  21.091  1.00  0.00    -0.350 N 
ATOM     11  C   UNL A   1      32.974  23.857  21.521  1.00  0.00     0.090 A 
ATOM     12  C   UNL A   1      33.340  26.019  22.040  1.00  0.00     0.048 A 
ATOM     13  C   UNL A   1      33.643  25.252  23.169  1.00  0.00     0.003 A 
ATOM     14  C   UNL A   1      33.502  27.415  22.014  1.00  0.00     0.027 A 
ATOM     15  C   UNL A   1      34.037  25.934  24.342  1.00  0.00     0.010 A 
ATOM     16  C   UNL A   1      33.978  28.047  23.164  1.00  0.00     0.002 A 
ATOM     17  C   UNL A   1      34.231  27.319  24.319  1.00  0.00     0.001 A 
ENDBRANCH   7   8
ENDBRANCH   6   7
BRANCH   6  18
ATOM     18  N   UNL A   1      31.816  22.905  25.402  1.00  0.00    -0.309 N 
ATOM     19  C   UNL A   1      31.107  23.290  26.490  1.00  0.00     0.407 C 
ATOM     20  H   UNL A   1      31.265  22.671  24.619  1.00  0.00     0.167 HD
ATOM     21  O   UNL A   1      30.020  22.764  26.729  1.00  0.00    -0.225 OA
BRANCH  19  22
ATOM     22  O   UNL A   1      31.676  24.265  27.240  1.00  0.00    -0.449 OA
BRANCH  22  23
ATOM     23  C   UNL A   1      32.107  25.434  26.504  1.00  0.00     0.248 C 
BRANCH  23  24
ATOM     24  C   UNL A   1      31.138  26.632  26.607  1.00  0.00     0.088 C 
ATOM     25  C   UNL A   1      31.864  27.969  26.722  1.00  0.00    -0.029 A 
ATOM     26  C   UNL A   1      30.278  26.856  25.371  1.00  0.00    -0.029 A 
ATOM     27  C   UNL A   1      32.672  28.425  27.754  1.00  0.00     0.005 A 
ATOM     28  C   UNL A   1      31.544  28.791  25.619  1.00  0.00    -0.014 A 
ATOM     29  C   UNL A   1      30.609  28.088  24.767  1.00  0.00    -0.014 A 
ATOM     30  C   UNL A   1      29.324  26.019  24.816  1.00  0.00     0.005 A 
ATOM     31  C   UNL A   1      33.176  29.724  27.669  1.00  0.00     0.000 A 
ATOM     32  C   UNL A   1      32.053  30.076  25.533  1.00  0.00     0.009 A 
ATOM     33  C   UNL A   1      30.052  28.444  23.551  1.00  0.00     0.009 A 
ATOM     34  C   UNL A   1      28.772  26.370  23.584  1.00  0.00     0.000 A 
ATOM     35  C   UNL A   1      32.872  30.541  26.567  1.00  0.00     0.001 A 
ATOM     36  C   UNL A   1      29.143  27.566  22.951  1.00  0.00     0.001 A 
ENDBRANCH  23  24
ENDBRANCH  22  23
ENDBRANCH  19  22
ENDBRANCH   6  18
ENDBRANCH   3   6
ENDBRANCH   1   2
BRANCH   1  37
ATOM     37  C   UNL A   1      37.175  21.992  24.530  1.00  0.00     0.023 C 
BRANCH  37  38
ATOM     38  C   UNL A   1      37.810  20.654  24.905  1.00  0.00     0.023 C 
BRANCH  38  39
ATOM     39  C   UNL A   1      38.939  20.740  25.926  1.00  0.00     0.116 C 
BRANCH  39  40
ATOM     40  N   UNL A   1      39.921  19.672  25.796  1.00  0.00    -0.352 N 
ATOM     41  C   UNL A   1      41.275  19.739  26.024  1.00  0.00     0.251 C 
ATOM     42  H   UNL A   1      39.572  18.797  25.510  1.00  0.00     0.163 HD
ATOM     43  O   UNL A   1      42.008  18.789  25.775  1.00  0.00    -0.269 OA
BRANCH  41  44
ATOM     44  C   UNL A   1      41.836  21.000  26.540  1.00  0.00     0.039 A 
ATOM     45  C   UNL A   1      42.180  22.007  25.637  1.00  0.00     0.014 A 
ATOM     46  C   UNL A   1      41.935  21.207  27.919  1.00  0.00     0.014 A 
ATOM     47  C   UNL A   1      42.554  23.260  26.121  1.00  0.00     0.010 A 
ATOM     48  C   UNL A   1      42.248  22.474  28.398  1.00  0.00     0.010 A 
ATOM     49  C   UNL A   1      42.550  23.513  27.503  1.00  0.00    -0.014 A 
BRANCH  49  50
ATOM     50  C   UNL A   1      42.841  24.865  28.037  1.00  0.00     0.031 A 
ATOM     51  C   UNL A   1      44.243  25.229  28.432  1.00  0.00     0.074 A 
ATOM     52  C   UNL A   1      41.831  25.731  28.243  1.00  0.00     0.049 A 
ATOM     53  N   UNL A   1      44.683  26.324  28.996  1.00  0.00    -0.248 NA
ATOM     54  C   UNL A   1      45.281  24.216  28.188  1.00  0.00     0.031 C 
ATOM     55  C   UNL A   1      40.419  25.472  27.954  1.00  0.00     0.029 A 
ATOM     56  N   UNL A   1      41.837  27.003  28.758  1.00  0.00    -0.354 N 
ATOM     57  C   UNL A   1      46.043  26.124  29.194  1.00  0.00     0.074 A 
ATOM     58  C   UNL A   1      46.347  24.788  28.729  1.00  0.00     0.031 C 
ATOM     59  C   UNL A   1      39.698  26.558  28.278  1.00  0.00     0.029 A 
ATOM     60  C   UNL A   1      40.590  27.576  28.823  1.00  0.00     0.049 A 
ATOM     61  H   UNL A   1      42.657  27.461  29.053  1.00  0.00     0.167 HD
ATOM     62  C   UNL A   1      46.957  26.985  29.698  1.00  0.00     0.037 A 
ATOM     63  C   UNL A   1      40.211  28.786  29.276  1.00  0.00     0.037 A 
ATOM     64  C   UNL A   1      46.660  28.326  30.121  1.00  0.00     0.049 A 
ATOM     65  C   UNL A   1      41.250  29.731  29.808  1.00  0.00     0.074 A 
ATOM     66  C   UNL A   1      47.533  29.301  30.572  1.00  0.00     0.029 A 
ATOM     67  N   UNL A   1      45.391  28.883  30.140  1.00  0.00    -0.354 N 
ATOM     68  N   UNL A   1      42.544  29.555  29.925  1.00  0.00    -0.248 NA
ATOM     69  C   UNL A   1      40.777  31.046  30.266  1.00  0.00     0.031 C 
ATOM     70  C   UNL A   1      46.786  30.441  30.892  1.00  0.00     0.029 A 
ATOM     71  C   UNL A   1      45.454  30.185  30.609  1.00  0.00     0.049 A 
ATOM     72  H   UNL A   1      44.567  28.422  29.862  1.00  0.00     0.167 HD
ATOM     73  C   UNL A   1      43.043  30.740  30.449  1.00  0.00     0.074 A 
ATOM     74  C   UNL A   1      41.914  31.632  30.617  1.00  0.00     0.031 C 
ATOM     75  C   UNL A   1      44.321  31.059  30.762  1.00  0.00     0.037 A 
BRANCH  62  76
ATOM     76  C   UNL A   1      48.370  26.498  29.807  1.00  0.00     0.057 A 
ATOM     77  C   UNL A   1      49.302  26.707  28.782  1.00  0.00     0.134 A 
ATOM     78  C   UNL A   1      48.812  25.835  30.959  1.00  0.00     0.134 A 
ATOM     79  F   UNL A   1      48.935  27.322  27.647  1.00  0.00    -0.206 F 
ATOM     80  C   UNL A   1      50.616  26.251  28.887  1.00  0.00     0.040 A 
ATOM     81  C   UNL A   1      50.131  25.396  31.085  1.00  0.00     0.040 A 
ATOM     82  F   UNL A   1      47.971  25.607  31.979  1.00  0.00    -0.206 F 
ATOM     83  C   UNL A   1      51.035  25.599  30.045  1.00  0.00     0.006 A 
ENDBRANCH  62  76
BRANCH  63  84
ATOM     84  C   UNL A   1      38.785  29.183  29.217  1.00  0.00     0.057 A 
ATOM     85  C   UNL A   1      38.217  29.644  28.024  1.00  0.00     0.134 A 
ATOM     86  C   UNL A   1      37.958  29.116  30.344  1.00  0.00     0.134 A 
ATOM     87  F   UNL A   1      38.966  29.746  26.916  1.00  0.00    -0.206 F 
ATOM     88  C   UNL A   1      36.880  30.035  27.954  1.00  0.00     0.040 A 
ATOM     89  C   UNL A   1      36.613  29.488  30.285  1.00  0.00     0.040 A 
ATOM     90  F   UNL A   1      38.443  28.677  31.514  1.00  0.00    -0.206 F 
ATOM     91  C   UNL A   1      36.072  29.954  29.087  1.00  0.00     0.006 A 
ENDBRANCH  63  84
BRANCH  75  92
ATOM     92  C   UNL A   1      44.572  32.438  31.292  1.00  0.00     0.057 A 
ATOM     93  C   UNL A   1      44.830  33.516  30.436  1.00  0.00     0.134 A 
ATOM     94  C   UNL A   1      44.507  32.697  32.666  1.00  0.00     0.134 A 
ATOM     95  F   UNL A   1      44.917  33.328  29.112  1.00  0.00    -0.206 F 
ATOM     96  C   UNL A   1      45.027  34.805  30.933  1.00  0.00     0.040 A 
ATOM     97  C   UNL A   1      44.683  33.984  33.173  1.00  0.00     0.040 A 
ATOM     98  F   UNL A   1      44.259  31.705  33.534  1.00  0.00    -0.206 F 
ATOM     99  C   UNL A   1      44.946  35.042  32.304  1.00  0.00     0.006 A 
ENDBRANCH  75  92
ENDBRANCH  49  50
ENDBRANCH  41  44
ENDBRANCH  39  40
ENDBRANCH  38  39
ENDBRANCH  37  38
ENDBRANCH   1  37
TORSDOF 17
ENDMDL
