MODEL 1
REMARK VINA RESULT:     -11.4      0.000      0.000
REMARK SMILES CC(C)(C)OC(=O)N1CC[C@@H]2CO[C@@H](CC(=O)NCCCCNC(=O)c3ccc(-c4c5nc(c(-c6c(F)cccc6F)c6ccc([nH]6)c(-c6c(F)cccc6F)c6nc(c(-c7c(F)cccc7F)c7ccc4[nH]7)C=C6)C=C5)cc3)[C@@H]2C1
REMARK SMILES IDX 19 1 18 2 16 3 17 4 15 6 14 7 8 8 9 9 81 10 10 11 80 12
REMARK SMILES IDX 11 13 12 14 13 15 6 16 7 17 5 18 2 19 1 20 3 21 4 22 20 23
REMARK SMILES IDX 21 24 22 25 23 26 24 27 25 29 26 30 27 31 79 32 28 33 78 34
REMARK SMILES IDX 29 35 30 36 31 37 72 38 32 39 77 40 71 41 73 42 33 43 76 44
REMARK SMILES IDX 70 45 69 46 34 48 60 49 43 50 59 51 44 52 47 53 58 54 74 55
REMARK SMILES IDX 45 56 46 57 57 59 75 60 48 61 35 62 36 63 41 64 37 65 38 66
REMARK SMILES IDX 40 67 42 68 39 69 61 70 62 71 67 72 63 73 64 74 66 75 68 76
REMARK SMILES IDX 65 77 49 78 50 79 55 80 51 81 52 82 54 83 56 84 53 85
REMARK H PARENT 18 5 23 28 73 47 47 58
REMARK Flexibility Score: inf
ROOT
ATOM      1  C   UNL A   1      34.054  32.240  28.050  1.00  0.00     0.116 C 
ENDROOT
BRANCH   1   2
ATOM      2  N   UNL A   1      35.330  31.668  27.653  1.00  0.00    -0.356 N 
ATOM      3  C   UNL A   1      35.673  30.356  27.489  1.00  0.00     0.222 C 
ATOM      4  O   UNL A   1      36.848  30.078  27.241  1.00  0.00    -0.275 OA
ATOM      5  H   UNL A   1      36.049  32.319  27.477  1.00  0.00     0.163 HD
BRANCH   3   6
ATOM      6  C   UNL A   1      34.615  29.276  27.566  1.00  0.00     0.132 C 
BRANCH   6   7
ATOM      7  C   UNL A   1      33.287  29.553  26.852  1.00  0.00     0.132 C 
ATOM      8  N   UNL A   1      31.007  28.462  24.061  1.00  0.00    -0.308 N 
ATOM      9  C   UNL A   1      30.369  27.395  24.811  1.00  0.00     0.123 C 
ATOM     10  C   UNL A   1      31.924  29.333  24.782  1.00  0.00     0.129 C 
ATOM     11  C   UNL A   1      31.388  26.576  25.593  1.00  0.00     0.028 C 
ATOM     12  C   UNL A   1      32.922  28.608  25.707  1.00  0.00     0.044 C 
ATOM     13  C   UNL A   1      32.293  27.445  26.457  1.00  0.00     0.024 C 
ATOM     14  C   UNL A   1      31.594  28.131  27.620  1.00  0.00     0.164 C 
ATOM     15  O   UNL A   1      32.165  29.447  27.735  1.00  0.00    -0.377 OA
BRANCH   8  16
ATOM     16  C   UNL A   1      30.405  28.883  22.884  1.00  0.00     0.410 C 
ATOM     17  O   UNL A   1      30.512  28.283  21.819  1.00  0.00    -0.224 OA
BRANCH  16  18
ATOM     18  O   UNL A   1      29.700  30.029  23.052  1.00  0.00    -0.444 OA
BRANCH  18  19
ATOM     19  C   UNL A   1      28.293  30.121  22.708  1.00  0.00     0.106 C 
ATOM     20  C   UNL A   1      27.766  31.287  23.558  1.00  0.00     0.056 C 
ATOM     21  C   UNL A   1      27.585  28.830  23.125  1.00  0.00     0.056 C 
ATOM     22  C   UNL A   1      28.047  30.455  21.231  1.00  0.00     0.056 C 
ENDBRANCH  18  19
ENDBRANCH  16  18
ENDBRANCH   8  16
ENDBRANCH   6   7
ENDBRANCH   3   6
ENDBRANCH   1   2
BRANCH   1  23
ATOM     23  C   UNL A   1      34.214  33.501  28.905  1.00  0.00     0.023 C 
BRANCH  23  24
ATOM     24  C   UNL A   1      33.132  34.559  28.715  1.00  0.00     0.023 C 
BRANCH  24  25
ATOM     25  C   UNL A   1      33.443  35.904  29.352  1.00  0.00     0.116 C 
BRANCH  25  26
ATOM     26  N   UNL A   1      32.528  36.236  30.436  1.00  0.00    -0.352 N 
ATOM     27  C   UNL A   1      32.572  35.862  31.756  1.00  0.00     0.251 C 
ATOM     28  H   UNL A   1      31.770  36.811  30.186  1.00  0.00     0.163 HD
ATOM     29  O   UNL A   1      31.633  36.117  32.503  1.00  0.00    -0.269 OA
BRANCH  27  30
ATOM     30  C   UNL A   1      33.744  35.124  32.268  1.00  0.00     0.039 A 
ATOM     31  C   UNL A   1      33.568  33.821  32.742  1.00  0.00     0.014 A 
ATOM     32  C   UNL A   1      35.015  35.707  32.260  1.00  0.00     0.014 A 
ATOM     33  C   UNL A   1      34.679  33.079  33.146  1.00  0.00     0.010 A 
ATOM     34  C   UNL A   1      36.126  34.942  32.590  1.00  0.00     0.010 A 
ATOM     35  C   UNL A   1      35.969  33.623  33.039  1.00  0.00    -0.014 A 
BRANCH  35  36
ATOM     36  C   UNL A   1      37.171  32.835  33.399  1.00  0.00     0.031 A 
ATOM     37  C   UNL A   1      37.887  33.111  34.692  1.00  0.00     0.074 A 
ATOM     38  C   UNL A   1      37.665  31.934  32.531  1.00  0.00     0.049 A 
ATOM     39  N   UNL A   1      39.007  32.607  35.141  1.00  0.00    -0.248 NA
ATOM     40  C   UNL A   1      37.277  34.111  35.583  1.00  0.00     0.031 C 
ATOM     41  C   UNL A   1      37.094  31.617  31.220  1.00  0.00     0.029 A 
ATOM     42  N   UNL A   1      38.772  31.128  32.614  1.00  0.00    -0.354 N 
ATOM     43  C   UNL A   1      39.248  33.245  36.349  1.00  0.00     0.074 A 
ATOM     44  C   UNL A   1      38.183  34.205  36.544  1.00  0.00     0.031 C 
ATOM     45  C   UNL A   1      37.845  30.673  30.631  1.00  0.00     0.029 A 
ATOM     46  C   UNL A   1      38.965  30.340  31.505  1.00  0.00     0.049 A 
ATOM     47  H   UNL A   1      39.372  31.115  33.394  1.00  0.00     0.167 HD
ATOM     48  C   UNL A   1      40.254  33.034  37.231  1.00  0.00     0.037 A 
ATOM     49  C   UNL A   1      39.937  29.454  31.226  1.00  0.00     0.037 A 
ATOM     50  C   UNL A   1      41.291  32.053  37.056  1.00  0.00     0.049 A 
ATOM     51  C   UNL A   1      41.025  29.213  32.233  1.00  0.00     0.074 A 
ATOM     52  C   UNL A   1      42.318  31.718  37.920  1.00  0.00     0.029 A 
ATOM     53  N   UNL A   1      41.426  31.242  35.939  1.00  0.00    -0.354 N 
ATOM     54  N   UNL A   1      41.210  29.784  33.400  1.00  0.00    -0.248 NA
ATOM     55  C   UNL A   1      42.033  28.200  31.891  1.00  0.00     0.031 C 
ATOM     56  C   UNL A   1      43.090  30.721  37.314  1.00  0.00     0.029 A 
ATOM     57  C   UNL A   1      42.524  30.413  36.088  1.00  0.00     0.049 A 
ATOM     58  H   UNL A   1      40.828  31.254  35.157  1.00  0.00     0.167 HD
ATOM     59  C   UNL A   1      42.342  29.188  33.938  1.00  0.00     0.074 A 
ATOM     60  C   UNL A   1      42.794  28.202  32.978  1.00  0.00     0.031 C 
ATOM     61  C   UNL A   1      42.953  29.436  35.122  1.00  0.00     0.037 A 
BRANCH  48  62
ATOM     62  C   UNL A   1      40.269  33.881  38.468  1.00  0.00     0.057 A 
ATOM     63  C   UNL A   1      41.007  35.070  38.537  1.00  0.00     0.134 A 
ATOM     64  C   UNL A   1      39.530  33.512  39.598  1.00  0.00     0.134 A 
ATOM     65  F   UNL A   1      41.749  35.470  37.492  1.00  0.00    -0.206 F 
ATOM     66  C   UNL A   1      41.033  35.848  39.696  1.00  0.00     0.040 A 
ATOM     67  C   UNL A   1      39.529  34.294  40.756  1.00  0.00     0.040 A 
ATOM     68  F   UNL A   1      38.800  32.387  39.598  1.00  0.00    -0.206 F 
ATOM     69  C   UNL A   1      40.288  35.462  40.807  1.00  0.00     0.006 A 
ENDBRANCH  48  62
BRANCH  49  70
ATOM     70  C   UNL A   1      39.908  28.706  29.946  1.00  0.00     0.057 A 
ATOM     71  C   UNL A   1      39.199  27.506  29.832  1.00  0.00     0.134 A 
ATOM     72  C   UNL A   1      40.573  29.177  28.809  1.00  0.00     0.134 A 
ATOM     73  F   UNL A   1      38.556  26.999  30.894  1.00  0.00    -0.206 F 
ATOM     74  C   UNL A   1      39.163  26.790  28.635  1.00  0.00     0.040 A 
ATOM     75  C   UNL A   1      40.530  28.481  27.599  1.00  0.00     0.040 A 
ATOM     76  F   UNL A   1      41.263  30.326  28.854  1.00  0.00    -0.206 F 
ATOM     77  C   UNL A   1      39.827  27.281  27.512  1.00  0.00     0.006 A 
ENDBRANCH  49  70
BRANCH  61  78
ATOM     78  C   UNL A   1      44.160  28.610  35.452  1.00  0.00     0.057 A 
ATOM     79  C   UNL A   1      44.045  27.336  36.019  1.00  0.00     0.134 A 
ATOM     80  C   UNL A   1      45.446  29.081  35.162  1.00  0.00     0.134 A 
ATOM     81  F   UNL A   1      42.840  26.837  36.332  1.00  0.00    -0.206 F 
ATOM     82  C   UNL A   1      45.171  26.563  36.303  1.00  0.00     0.040 A 
ATOM     83  C   UNL A   1      46.579  28.309  35.422  1.00  0.00     0.040 A 
ATOM     84  F   UNL A   1      45.621  30.292  34.612  1.00  0.00    -0.206 F 
ATOM     85  C   UNL A   1      46.443  27.047  35.998  1.00  0.00     0.006 A 
ENDBRANCH  61  78
ENDBRANCH  35  36
ENDBRANCH  27  30
ENDBRANCH  25  26
ENDBRANCH  24  25
ENDBRANCH  23  24
ENDBRANCH   1  23
TORSDOF 15
ENDMDL
MODEL 2
REMARK VINA RESULT:     -11.3      5.292     10.313
REMARK SMILES CC(C)(C)OC(=O)N1CC[C@@H]2CO[C@@H](CC(=O)NCCCCNC(=O)c3ccc(-c4c5nc(c(-c6c(F)cccc6F)c6ccc([nH]6)c(-c6c(F)cccc6F)c6nc(c(-c7c(F)cccc7F)c7ccc4[nH]7)C=C6)C=C5)cc3)[C@@H]2C1
REMARK SMILES IDX 19 1 18 2 16 3 17 4 15 6 14 7 8 8 9 9 81 10 10 11 80 12
REMARK SMILES IDX 11 13 12 14 13 15 6 16 7 17 5 18 2 19 1 20 3 21 4 22 20 23
REMARK SMILES IDX 21 24 22 25 23 26 24 27 25 29 26 30 27 31 79 32 28 33 78 34
REMARK SMILES IDX 29 35 30 36 31 37 72 38 32 39 77 40 71 41 73 42 33 43 76 44
REMARK SMILES IDX 70 45 69 46 34 48 60 49 43 50 59 51 44 52 47 53 58 54 74 55
REMARK SMILES IDX 45 56 46 57 57 59 75 60 48 61 35 62 36 63 41 64 37 65 38 66
REMARK SMILES IDX 40 67 42 68 39 69 61 70 62 71 67 72 63 73 64 74 66 75 68 76
REMARK SMILES IDX 65 77 49 78 50 79 55 80 51 81 52 82 54 83 56 84 53 85
REMARK H PARENT 18 5 23 28 73 47 47 58
REMARK Flexibility Score: inf
ROOT
ATOM      1  C   UNL A   1      37.756  23.277  26.095  1.00  0.00     0.116 C 
ENDROOT
BRANCH   1   2
ATOM      2  N   UNL A   1      37.404  23.536  24.708  1.00  0.00    -0.356 N 
ATOM      3  C   UNL A   1      36.607  22.809  23.871  1.00  0.00     0.222 C 
ATOM      4  O   UNL A   1      36.517  23.153  22.692  1.00  0.00    -0.275 OA
ATOM      5  H   UNL A   1      37.796  24.352  24.318  1.00  0.00     0.163 HD
BRANCH   3   6
ATOM      6  C   UNL A   1      35.818  21.630  24.402  1.00  0.00     0.132 C 
BRANCH   6   7
ATOM      7  C   UNL A   1      34.526  21.947  25.162  1.00  0.00     0.132 C 
ATOM      8  N   UNL A   1      31.590  24.294  25.399  1.00  0.00    -0.308 N 
ATOM      9  C   UNL A   1      30.809  23.646  24.361  1.00  0.00     0.123 C 
ATOM     10  C   UNL A   1      32.827  23.647  25.811  1.00  0.00     0.129 C 
ATOM     11  C   UNL A   1      31.665  23.299  23.151  1.00  0.00     0.028 C 
ATOM     12  C   UNL A   1      33.716  23.141  24.657  1.00  0.00     0.044 C 
ATOM     13  C   UNL A   1      32.914  22.514  23.527  1.00  0.00     0.024 C 
ATOM     14  C   UNL A   1      32.650  21.107  24.041  1.00  0.00     0.164 C 
ATOM     15  O   UNL A   1      33.587  20.868  25.108  1.00  0.00    -0.377 OA
BRANCH   8  16
ATOM     16  C   UNL A   1      30.945  25.191  26.238  1.00  0.00     0.410 C 
ATOM     17  O   UNL A   1      29.723  25.254  26.347  1.00  0.00    -0.224 OA
BRANCH  16  18
ATOM     18  O   UNL A   1      31.817  25.985  26.905  1.00  0.00    -0.444 OA
BRANCH  18  19
ATOM     19  C   UNL A   1      32.146  27.321  26.444  1.00  0.00     0.106 C 
ATOM     20  C   UNL A   1      31.684  28.244  27.581  1.00  0.00     0.056 C 
ATOM     21  C   UNL A   1      31.340  27.631  25.181  1.00  0.00     0.056 C 
ATOM     22  C   UNL A   1      33.649  27.540  26.229  1.00  0.00     0.056 C 
ENDBRANCH  18  19
ENDBRANCH  16  18
ENDBRANCH   8  16
ENDBRANCH   6   7
ENDBRANCH   3   6
ENDBRANCH   1   2
BRANCH   1  23
ATOM     23  C   UNL A   1      39.078  22.514  26.234  1.00  0.00     0.023 C 
BRANCH  23  24
ATOM     24  C   UNL A   1      39.126  21.161  25.532  1.00  0.00     0.023 C 
BRANCH  24  25
ATOM     25  C   UNL A   1      39.544  20.001  26.421  1.00  0.00     0.116 C 
BRANCH  25  26
ATOM     26  N   UNL A   1      40.720  19.304  25.919  1.00  0.00    -0.352 N 
ATOM     27  C   UNL A   1      42.015  19.748  25.815  1.00  0.00     0.251 C 
ATOM     28  H   UNL A   1      40.564  18.384  25.610  1.00  0.00     0.163 HD
ATOM     29  O   UNL A   1      42.856  19.073  25.230  1.00  0.00    -0.269 OA
BRANCH  27  30
ATOM     30  C   UNL A   1      42.386  21.059  26.386  1.00  0.00     0.039 A 
ATOM     31  C   UNL A   1      42.747  22.095  25.521  1.00  0.00     0.014 A 
ATOM     32  C   UNL A   1      42.360  21.269  27.768  1.00  0.00     0.014 A 
ATOM     33  C   UNL A   1      43.014  23.363  26.038  1.00  0.00     0.010 A 
ATOM     34  C   UNL A   1      42.551  22.548  28.274  1.00  0.00     0.010 A 
ATOM     35  C   UNL A   1      42.883  23.606  27.415  1.00  0.00    -0.014 A 
BRANCH  35  36
ATOM     36  C   UNL A   1      43.098  24.957  27.985  1.00  0.00     0.031 A 
ATOM     37  C   UNL A   1      44.468  25.365  28.449  1.00  0.00     0.074 A 
ATOM     38  C   UNL A   1      42.050  25.784  28.159  1.00  0.00     0.049 A 
ATOM     39  N   UNL A   1      44.842  26.456  29.066  1.00  0.00    -0.248 NA
ATOM     40  C   UNL A   1      45.556  24.401  28.219  1.00  0.00     0.031 C 
ATOM     41  C   UNL A   1      40.663  25.481  27.800  1.00  0.00     0.029 A 
ATOM     42  N   UNL A   1      41.987  27.043  28.697  1.00  0.00    -0.354 N 
ATOM     43  C   UNL A   1      46.198  26.299  29.318  1.00  0.00     0.074 A 
ATOM     44  C   UNL A   1      46.573  24.990  28.830  1.00  0.00     0.031 C 
ATOM     45  C   UNL A   1      39.890  26.534  28.113  1.00  0.00     0.029 A 
ATOM     46  C   UNL A   1      40.719  27.570  28.721  1.00  0.00     0.049 A 
ATOM     47  H   UNL A   1      42.777  27.525  29.035  1.00  0.00     0.167 HD
ATOM     48  C   UNL A   1      47.059  27.176  29.885  1.00  0.00     0.037 A 
ATOM     49  C   UNL A   1      40.276  28.753  29.184  1.00  0.00     0.037 A 
ATOM     50  C   UNL A   1      46.694  28.493  30.335  1.00  0.00     0.049 A 
ATOM     51  C   UNL A   1      41.256  29.723  29.779  1.00  0.00     0.074 A 
ATOM     52  C   UNL A   1      47.505  29.480  30.865  1.00  0.00     0.029 A 
ATOM     53  N   UNL A   1      45.406  29.007  30.300  1.00  0.00    -0.354 N 
ATOM     54  N   UNL A   1      42.547  29.585  29.960  1.00  0.00    -0.248 NA
ATOM     55  C   UNL A   1      40.720  31.017  30.225  1.00  0.00     0.031 C 
ATOM     56  C   UNL A   1      46.703  30.585  31.174  1.00  0.00     0.029 A 
ATOM     57  C   UNL A   1      45.398  30.295  30.806  1.00  0.00     0.049 A 
ATOM     58  H   UNL A   1      44.615  28.527  29.964  1.00  0.00     0.167 HD
ATOM     59  C   UNL A   1      42.981  30.777  30.524  1.00  0.00     0.074 A 
ATOM     60  C   UNL A   1      41.818  31.633  30.642  1.00  0.00     0.031 C 
ATOM     61  C   UNL A   1      44.231  31.131  30.910  1.00  0.00     0.037 A 
BRANCH  48  62
ATOM     62  C   UNL A   1      48.483  26.735  30.039  1.00  0.00     0.057 A 
ATOM     63  C   UNL A   1      48.912  26.011  31.160  1.00  0.00     0.134 A 
ATOM     64  C   UNL A   1      49.435  27.026  29.054  1.00  0.00     0.134 A 
ATOM     65  F   UNL A   1      48.052  25.715  32.146  1.00  0.00    -0.206 F 
ATOM     66  C   UNL A   1      50.242  25.616  31.309  1.00  0.00     0.040 A 
ATOM     67  C   UNL A   1      50.764  26.615  29.180  1.00  0.00     0.040 A 
ATOM     68  F   UNL A   1      49.090  27.713  27.955  1.00  0.00    -0.206 F 
ATOM     69  C   UNL A   1      51.171  25.914  30.314  1.00  0.00     0.006 A 
ENDBRANCH  48  62
BRANCH  49  70
ATOM     70  C   UNL A   1      38.838  29.096  29.075  1.00  0.00     0.057 A 
ATOM     71  C   UNL A   1      38.290  29.507  27.856  1.00  0.00     0.134 A 
ATOM     72  C   UNL A   1      37.980  29.009  30.176  1.00  0.00     0.134 A 
ATOM     73  F   UNL A   1      39.068  29.624  26.770  1.00  0.00    -0.206 F 
ATOM     74  C   UNL A   1      36.938  29.835  27.736  1.00  0.00     0.040 A 
ATOM     75  C   UNL A   1      36.622  29.315  30.067  1.00  0.00     0.040 A 
ATOM     76  F   UNL A   1      38.446  28.613  31.369  1.00  0.00    -0.206 F 
ATOM     77  C   UNL A   1      36.099  29.734  28.845  1.00  0.00     0.006 A 
ENDBRANCH  49  70
BRANCH  61  78
ATOM     78  C   UNL A   1      44.406  32.509  31.472  1.00  0.00     0.057 A 
ATOM     79  C   UNL A   1      44.677  33.608  30.648  1.00  0.00     0.134 A 
ATOM     80  C   UNL A   1      44.263  32.744  32.844  1.00  0.00     0.134 A 
ATOM     81  F   UNL A   1      44.838  33.445  29.326  1.00  0.00    -0.206 F 
ATOM     82  C   UNL A   1      44.816  34.893  31.174  1.00  0.00     0.040 A 
ATOM     83  C   UNL A   1      44.380  34.027  33.379  1.00  0.00     0.040 A 
ATOM     84  F   UNL A   1      43.998  31.731  33.685  1.00  0.00    -0.206 F 
ATOM     85  C   UNL A   1      44.661  35.105  32.544  1.00  0.00     0.006 A 
ENDBRANCH  61  78
ENDBRANCH  35  36
ENDBRANCH  27  30
ENDBRANCH  25  26
ENDBRANCH  24  25
ENDBRANCH  23  24
ENDBRANCH   1  23
TORSDOF 15
ENDMDL
MODEL 3
REMARK VINA RESULT:     -11.2      7.004     12.082
REMARK SMILES CC(C)(C)OC(=O)N1CC[C@@H]2CO[C@@H](CC(=O)NCCCCNC(=O)c3ccc(-c4c5nc(c(-c6c(F)cccc6F)c6ccc([nH]6)c(-c6c(F)cccc6F)c6nc(c(-c7c(F)cccc7F)c7ccc4[nH]7)C=C6)C=C5)cc3)[C@@H]2C1
REMARK SMILES IDX 19 1 18 2 16 3 17 4 15 6 14 7 8 8 9 9 81 10 10 11 80 12
REMARK SMILES IDX 11 13 12 14 13 15 6 16 7 17 5 18 2 19 1 20 3 21 4 22 20 23
REMARK SMILES IDX 21 24 22 25 23 26 24 27 25 29 26 30 27 31 79 32 28 33 78 34
REMARK SMILES IDX 29 35 30 36 31 37 72 38 32 39 77 40 71 41 73 42 33 43 76 44
REMARK SMILES IDX 70 45 69 46 34 48 60 49 43 50 59 51 44 52 47 53 58 54 74 55
REMARK SMILES IDX 45 56 46 57 57 59 75 60 48 61 35 62 36 63 41 64 37 65 38 66
REMARK SMILES IDX 40 67 42 68 39 69 61 70 62 71 67 72 63 73 64 74 66 75 68 76
REMARK SMILES IDX 65 77 49 78 50 79 55 80 51 81 52 82 54 83 56 84 53 85
REMARK H PARENT 18 5 23 28 73 47 47 58
REMARK Flexibility Score: inf
ROOT
ATOM      1  C   UNL A   1      39.657  21.505  26.144  1.00  0.00     0.116 C 
ENDROOT
BRANCH   1   2
ATOM      2  N   UNL A   1      39.458  22.778  26.819  1.00  0.00    -0.356 N 
ATOM      3  C   UNL A   1      38.559  23.768  26.543  1.00  0.00     0.222 C 
ATOM      4  O   UNL A   1      38.623  24.820  27.181  1.00  0.00    -0.275 OA
ATOM      5  H   UNL A   1      40.056  22.949  27.583  1.00  0.00     0.163 HD
BRANCH   3   6
ATOM      6  C   UNL A   1      37.480  23.551  25.503  1.00  0.00     0.132 C 
BRANCH   6   7
ATOM      7  C   UNL A   1      36.075  23.222  26.019  1.00  0.00     0.132 C 
ATOM      8  N   UNL A   1      32.387  23.641  25.388  1.00  0.00    -0.308 N 
ATOM      9  C   UNL A   1      32.283  22.548  24.437  1.00  0.00     0.123 C 
ATOM     10  C   UNL A   1      33.659  23.815  26.073  1.00  0.00     0.129 C 
ATOM     11  C   UNL A   1      33.434  22.562  23.441  1.00  0.00     0.028 C 
ATOM     12  C   UNL A   1      34.906  23.720  25.171  1.00  0.00     0.044 C 
ATOM     13  C   UNL A   1      34.794  22.623  24.124  1.00  0.00     0.024 C 
ATOM     14  C   UNL A   1      35.170  21.373  24.904  1.00  0.00     0.164 C 
ATOM     15  O   UNL A   1      35.845  21.811  26.098  1.00  0.00    -0.377 OA
BRANCH   8  16
ATOM     16  C   UNL A   1      31.215  24.152  25.926  1.00  0.00     0.410 C 
ATOM     17  O   UNL A   1      30.963  24.141  27.128  1.00  0.00    -0.224 OA
BRANCH  16  18
ATOM     18  O   UNL A   1      30.389  24.649  24.973  1.00  0.00    -0.444 OA
BRANCH  18  19
ATOM     19  C   UNL A   1      30.540  25.995  24.454  1.00  0.00     0.106 C 
ATOM     20  C   UNL A   1      29.109  26.438  24.114  1.00  0.00     0.056 C 
ATOM     21  C   UNL A   1      31.373  25.951  23.171  1.00  0.00     0.056 C 
ATOM     22  C   UNL A   1      31.118  26.983  25.475  1.00  0.00     0.056 C 
ENDBRANCH  18  19
ENDBRANCH  16  18
ENDBRANCH   8  16
ENDBRANCH   6   7
ENDBRANCH   3   6
ENDBRANCH   1   2
BRANCH   1  23
ATOM     23  C   UNL A   1      41.127  21.071  26.129  1.00  0.00     0.023 C 
BRANCH  23  24
ATOM     24  C   UNL A   1      41.360  19.565  26.062  1.00  0.00     0.023 C 
BRANCH  24  25
ATOM     25  C   UNL A   1      42.767  19.125  26.432  1.00  0.00     0.116 C 
BRANCH  25  26
ATOM     26  N   UNL A   1      43.546  18.704  25.277  1.00  0.00    -0.352 N 
ATOM     27  C   UNL A   1      44.368  19.446  24.465  1.00  0.00     0.251 C 
ATOM     28  H   UNL A   1      43.473  17.751  25.044  1.00  0.00     0.163 HD
ATOM     29  O   UNL A   1      44.836  18.955  23.443  1.00  0.00    -0.269 OA
BRANCH  27  30
ATOM     30  C   UNL A   1      44.664  20.851  24.813  1.00  0.00     0.039 A 
ATOM     31  C   UNL A   1      44.314  21.858  23.910  1.00  0.00     0.014 A 
ATOM     32  C   UNL A   1      45.265  21.172  26.033  1.00  0.00     0.014 A 
ATOM     33  C   UNL A   1      44.506  23.195  24.262  1.00  0.00     0.010 A 
ATOM     34  C   UNL A   1      45.384  22.503  26.413  1.00  0.00     0.010 A 
ATOM     35  C   UNL A   1      45.009  23.527  25.530  1.00  0.00    -0.014 A 
BRANCH  35  36
ATOM     36  C   UNL A   1      45.163  24.938  25.955  1.00  0.00     0.031 A 
ATOM     37  C   UNL A   1      46.510  25.601  25.878  1.00  0.00     0.074 A 
ATOM     38  C   UNL A   1      44.114  25.595  26.484  1.00  0.00     0.049 A 
ATOM     39  N   UNL A   1      46.873  26.786  26.294  1.00  0.00    -0.248 NA
ATOM     40  C   UNL A   1      47.600  24.811  25.285  1.00  0.00     0.031 C 
ATOM     41  C   UNL A   1      42.770  25.042  26.664  1.00  0.00     0.029 A 
ATOM     42  N   UNL A   1      44.019  26.868  26.984  1.00  0.00    -0.354 N 
ATOM     43  C   UNL A   1      48.234  26.874  26.036  1.00  0.00     0.074 A 
ATOM     44  C   UNL A   1      48.642  25.606  25.470  1.00  0.00     0.031 C 
ATOM     45  C   UNL A   1      41.981  25.977  27.218  1.00  0.00     0.029 A 
ATOM     46  C   UNL A   1      42.769  27.182  27.459  1.00  0.00     0.049 A 
ATOM     47  H   UNL A   1      44.775  27.499  27.000  1.00  0.00     0.167 HD
ATOM     48  C   UNL A   1      49.065  27.924  26.231  1.00  0.00     0.037 A 
ATOM     49  C   UNL A   1      42.313  28.312  28.029  1.00  0.00     0.037 A 
ATOM     50  C   UNL A   1      48.652  29.197  26.758  1.00  0.00     0.049 A 
ATOM     51  C   UNL A   1      43.246  29.475  28.206  1.00  0.00     0.074 A 
ATOM     52  C   UNL A   1      49.403  30.344  26.935  1.00  0.00     0.029 A 
ATOM     53  N   UNL A   1      47.365  29.490  27.186  1.00  0.00    -0.354 N 
ATOM     54  N   UNL A   1      44.519  29.564  27.905  1.00  0.00    -0.248 NA
ATOM     55  C   UNL A   1      42.678  30.697  28.792  1.00  0.00     0.031 C 
ATOM     56  C   UNL A   1      48.577  31.326  27.494  1.00  0.00     0.029 A 
ATOM     57  C   UNL A   1      47.304  30.798  27.635  1.00  0.00     0.049 A 
ATOM     58  H   UNL A   1      46.608  28.861  27.173  1.00  0.00     0.167 HD
ATOM     59  C   UNL A   1      44.901  30.854  28.248  1.00  0.00     0.074 A 
ATOM     60  C   UNL A   1      43.721  31.517  28.766  1.00  0.00     0.031 C 
ATOM     61  C   UNL A   1      46.119  31.438  28.143  1.00  0.00     0.037 A 
BRANCH  48  62
ATOM     62  C   UNL A   1      50.506  27.735  25.862  1.00  0.00     0.057 A 
ATOM     63  C   UNL A   1      51.476  27.416  26.822  1.00  0.00     0.134 A 
ATOM     64  C   UNL A   1      50.929  27.862  24.534  1.00  0.00     0.134 A 
ATOM     65  F   UNL A   1      51.137  27.295  28.115  1.00  0.00    -0.206 F 
ATOM     66  C   UNL A   1      52.819  27.257  26.478  1.00  0.00     0.040 A 
ATOM     67  C   UNL A   1      52.266  27.682  24.173  1.00  0.00     0.040 A 
ATOM     68  F   UNL A   1      50.050  28.164  23.565  1.00  0.00    -0.206 F 
ATOM     69  C   UNL A   1      53.215  27.385  25.149  1.00  0.00     0.006 A 
ENDBRANCH  48  62
BRANCH  49  70
ATOM     70  C   UNL A   1      40.893  28.406  28.447  1.00  0.00     0.057 A 
ATOM     71  C   UNL A   1      40.493  27.997  29.723  1.00  0.00     0.134 A 
ATOM     72  C   UNL A   1      39.911  28.916  27.591  1.00  0.00     0.134 A 
ATOM     73  F   UNL A   1      41.388  27.485  30.581  1.00  0.00    -0.206 F 
ATOM     74  C   UNL A   1      39.160  28.078  30.132  1.00  0.00     0.040 A 
ATOM     75  C   UNL A   1      38.578  29.021  27.993  1.00  0.00     0.040 A 
ATOM     76  F   UNL A   1      40.236  29.331  26.358  1.00  0.00    -0.206 F 
ATOM     77  C   UNL A   1      38.199  28.597  29.265  1.00  0.00     0.006 A 
ENDBRANCH  49  70
BRANCH  61  78
ATOM     78  C   UNL A   1      46.229  32.870  28.574  1.00  0.00     0.057 A 
ATOM     79  C   UNL A   1      46.530  33.216  29.896  1.00  0.00     0.134 A 
ATOM     80  C   UNL A   1      46.071  33.907  27.648  1.00  0.00     0.134 A 
ATOM     81  F   UNL A   1      46.679  32.267  30.832  1.00  0.00    -0.206 F 
ATOM     82  C   UNL A   1      46.654  34.550  30.287  1.00  0.00     0.040 A 
ATOM     83  C   UNL A   1      46.213  35.244  28.022  1.00  0.00     0.040 A 
ATOM     84  F   UNL A   1      45.787  33.638  26.364  1.00  0.00    -0.206 F 
ATOM     85  C   UNL A   1      46.501  35.568  29.346  1.00  0.00     0.006 A 
ENDBRANCH  61  78
ENDBRANCH  35  36
ENDBRANCH  27  30
ENDBRANCH  25  26
ENDBRANCH  24  25
ENDBRANCH  23  24
ENDBRANCH   1  23
TORSDOF 15
ENDMDL
