MODEL 1
REMARK VINA RESULT:     -12.7      0.000      0.000
REMARK SMILES Cc1c(CC(=O)N[C@H](CO)C(=O)NCCCCNC(=O)c2ccc(-c3c4nc(c(-c5c(F)cccc5F)c5ccc([nH]5)c(-c5c(F)cccc5F)c5nc(c(-c6c(F)cccc6F)c6ccc3[nH]6)C=C5)C=C4)cc2)cc(-c2ccc(S(C)(=O)=O)cc2)n1-c1cccc(F)c1
REMARK SMILES IDX 14 1 13 2 11 3 12 4 8 6 7 7 5 8 6 9 4 11 3 12 1 13 2 14
REMARK SMILES IDX 87 15 75 16 76 17 88 18 89 19 94 20 90 21 92 22 91 23 93 24
REMARK SMILES IDX 77 25 78 26 86 27 79 28 85 29 80 30 81 31 82 32 83 33 84 34
REMARK SMILES IDX 9 35 10 36 15 38 16 39 17 40 18 41 19 42 20 44 21 45 22 46
REMARK SMILES IDX 74 47 23 48 73 49 24 50 25 51 26 52 67 53 27 54 72 55 66 56
REMARK SMILES IDX 68 57 28 58 71 59 65 60 64 61 29 63 55 64 38 65 54 66 39 67
REMARK SMILES IDX 42 68 53 69 69 70 40 71 41 72 52 74 70 75 43 76 30 77 31 78
REMARK SMILES IDX 36 79 32 80 33 81 35 82 37 83 34 84 56 85 57 86 62 87 58 88
REMARK SMILES IDX 59 89 61 90 63 91 60 92 44 93 45 94 50 95 46 96 47 97 49 98
REMARK SMILES IDX 51 99 48 100
REMARK H PARENT 13 5 7 10 10 37 18 43 68 62 42 73
REMARK Flexibility Score: inf
ROOT
ATOM      1  C   UNL A   1      35.195  22.945  24.515  1.00  0.00     0.116 C 
ENDROOT
BRANCH   1   2
ATOM      2  N   UNL A   1      34.089  22.524  23.655  1.00  0.00    -0.354 N 
ATOM      3  C   UNL A   1      32.918  21.835  23.776  1.00  0.00     0.244 C 
ATOM      4  O   UNL A   1      32.203  21.941  22.765  1.00  0.00    -0.273 OA
ATOM      5  H   UNL A   1      34.228  22.824  22.728  1.00  0.00     0.163 HD
BRANCH   3   6
ATOM      6  C   UNL A   1      32.376  20.997  24.999  1.00  0.00     0.197 C 
BRANCH   6   7
ATOM      7  N   UNL A   1      32.533  21.366  26.415  1.00  0.00    -0.342 N 
ATOM      8  C   UNL A   1      32.231  22.558  27.015  1.00  0.00     0.225 C 
ATOM      9  O   UNL A   1      32.835  22.877  28.039  1.00  0.00    -0.275 OA
ATOM     10  H   UNL A   1      32.903  20.668  27.004  1.00  0.00     0.164 HD
BRANCH   8  11
ATOM     11  C   UNL A   1      31.105  23.381  26.444  1.00  0.00     0.137 C 
BRANCH  11  12
ATOM     12  C   UNL A   1      31.445  24.738  25.974  1.00  0.00    -0.017 A 
ATOM     13  C   UNL A   1      30.282  24.726  23.679  1.00  0.00     0.065 C 
ATOM     14  C   UNL A   1      31.047  25.344  24.804  1.00  0.00     0.024 A 
ATOM     15  N   UNL A   1      31.520  26.651  24.820  1.00  0.00    -0.313 N 
ATOM     16  C   UNL A   1      32.325  25.633  26.636  1.00  0.00     0.033 A 
ATOM     17  C   UNL A   1      32.316  26.832  25.954  1.00  0.00     0.053 A 
BRANCH  15  18
ATOM     18  C   UNL A   1      31.177  27.646  23.874  1.00  0.00     0.049 A 
ATOM     19  C   UNL A   1      32.145  28.157  23.003  1.00  0.00     0.027 A 
ATOM     20  C   UNL A   1      29.869  28.139  23.862  1.00  0.00     0.065 A 
ATOM     21  C   UNL A   1      31.789  29.162  22.102  1.00  0.00     0.005 A 
ATOM     22  C   UNL A   1      29.540  29.145  22.972  1.00  0.00     0.125 A 
ATOM     23  C   UNL A   1      30.484  29.658  22.090  1.00  0.00     0.039 A 
ATOM     24  F   UNL A   1      28.296  29.641  22.975  1.00  0.00    -0.207 F 
ENDBRANCH  15  18
BRANCH  17  25
ATOM     25  C   UNL A   1      32.847  28.111  26.437  1.00  0.00    -0.001 A 
ATOM     26  C   UNL A   1      34.232  28.270  26.596  1.00  0.00     0.011 A 
ATOM     27  C   UNL A   1      32.000  29.195  26.704  1.00  0.00     0.011 A 
ATOM     28  C   UNL A   1      34.759  29.455  27.101  1.00  0.00     0.021 A 
ATOM     29  C   UNL A   1      32.521  30.392  27.209  1.00  0.00     0.021 A 
ATOM     30  C   UNL A   1      33.896  30.498  27.436  1.00  0.00     0.067 A 
BRANCH  30  31
ATOM     31  S   UNL A   1      34.564  31.960  28.191  1.00  0.00     0.175 S 
ATOM     32  C   UNL A   1      36.309  31.809  27.883  1.00  0.00     0.163 C 
ATOM     33  O   UNL A   1      34.067  33.098  27.402  1.00  0.00    -0.224 OA
ATOM     34  O   UNL A   1      34.351  31.884  29.598  1.00  0.00    -0.224 OA
ENDBRANCH  30  31
ENDBRANCH  17  25
ENDBRANCH  11  12
ENDBRANCH   8  11
ENDBRANCH   6   7
BRANCH   6  35
ATOM     35  C   UNL A   1      32.516  19.441  24.850  1.00  0.00     0.191 C 
BRANCH  35  36
ATOM     36  O   UNL A   1      32.671  18.717  26.055  1.00  0.00    -0.394 OA
ATOM     37  H   UNL A   1      33.526  18.260  26.051  1.00  0.00     0.210 HD
ENDBRANCH  35  36
ENDBRANCH   6  35
ENDBRANCH   3   6
ENDBRANCH   1   2
BRANCH   1  38
ATOM     38  C   UNL A   1      36.590  22.497  23.998  1.00  0.00     0.023 C 
BRANCH  38  39
ATOM     39  C   UNL A   1      37.272  21.234  24.591  1.00  0.00     0.023 C 
BRANCH  39  40
ATOM     40  C   UNL A   1      38.377  21.404  25.667  1.00  0.00     0.116 C 
BRANCH  40  41
ATOM     41  N   UNL A   1      39.229  20.223  25.848  1.00  0.00    -0.352 N 
ATOM     42  C   UNL A   1      40.599  20.015  25.986  1.00  0.00     0.251 C 
ATOM     43  H   UNL A   1      38.714  19.385  25.878  1.00  0.00     0.163 HD
ATOM     44  O   UNL A   1      40.951  18.839  26.132  1.00  0.00    -0.269 OA
BRANCH  42  45
ATOM     45  C   UNL A   1      41.696  21.072  25.987  1.00  0.00     0.039 A 
ATOM     46  C   UNL A   1      43.016  20.757  25.614  1.00  0.00     0.014 A 
ATOM     47  C   UNL A   1      41.568  22.338  26.513  1.00  0.00     0.014 A 
ATOM     48  C   UNL A   1      44.161  21.665  25.781  1.00  0.00     0.010 A 
ATOM     49  C   UNL A   1      42.721  23.235  26.666  1.00  0.00     0.010 A 
ATOM     50  C   UNL A   1      44.116  22.943  26.405  1.00  0.00    -0.014 A 
BRANCH  50  51
ATOM     51  C   UNL A   1      45.581  23.560  27.152  1.00  0.00     0.031 A 
ATOM     52  C   UNL A   1      45.184  23.900  28.579  1.00  0.00     0.074 A 
ATOM     53  C   UNL A   1      46.823  24.278  27.033  1.00  0.00     0.049 A 
ATOM     54  N   UNL A   1      45.045  25.171  28.813  1.00  0.00    -0.248 NA
ATOM     55  C   UNL A   1      44.326  23.082  29.428  1.00  0.00     0.031 C 
ATOM     56  C   UNL A   1      47.722  24.644  28.225  1.00  0.00     0.029 A 
ATOM     57  N   UNL A   1      47.576  24.956  26.035  1.00  0.00    -0.354 N 
ATOM     58  C   UNL A   1      43.707  25.248  29.021  1.00  0.00     0.074 A 
ATOM     59  C   UNL A   1      43.337  23.967  29.623  1.00  0.00     0.031 C 
ATOM     60  C   UNL A   1      48.825  25.358  27.889  1.00  0.00     0.029 A 
ATOM     61  C   UNL A   1      48.806  25.631  26.470  1.00  0.00     0.049 A 
ATOM     62  H   UNL A   1      47.287  24.971  25.095  1.00  0.00     0.167 HD
ATOM     63  C   UNL A   1      42.984  26.159  28.323  1.00  0.00     0.037 A 
ATOM     64  C   UNL A   1      49.644  26.516  25.805  1.00  0.00     0.037 A 
ATOM     65  C   UNL A   1      43.658  26.745  27.145  1.00  0.00     0.049 A 
ATOM     66  C   UNL A   1      48.657  27.514  25.315  1.00  0.00     0.074 A 
ATOM     67  C   UNL A   1      44.288  26.274  26.010  1.00  0.00     0.029 A 
ATOM     68  N   UNL A   1      43.973  28.090  27.074  1.00  0.00    -0.354 N 
ATOM     69  N   UNL A   1      48.264  28.580  25.956  1.00  0.00    -0.248 NA
ATOM     70  C   UNL A   1      48.047  27.275  24.016  1.00  0.00     0.031 C 
ATOM     71  C   UNL A   1      44.514  27.306  25.094  1.00  0.00     0.029 A 
ATOM     72  C   UNL A   1      44.822  28.311  25.978  1.00  0.00     0.049 A 
ATOM     73  H   UNL A   1      43.653  28.785  27.694  1.00  0.00     0.167 HD
ATOM     74  C   UNL A   1      47.071  28.893  25.329  1.00  0.00     0.074 A 
ATOM     75  C   UNL A   1      47.115  28.218  24.041  1.00  0.00     0.031 C 
ATOM     76  C   UNL A   1      45.979  29.162  26.099  1.00  0.00     0.037 A 
BRANCH  63  77
ATOM     77  C   UNL A   1      41.600  26.538  28.739  1.00  0.00     0.057 A 
ATOM     78  C   UNL A   1      41.307  27.334  29.863  1.00  0.00     0.134 A 
ATOM     79  C   UNL A   1      40.536  26.322  27.852  1.00  0.00     0.134 A 
ATOM     80  F   UNL A   1      42.222  27.659  30.782  1.00  0.00    -0.206 F 
ATOM     81  C   UNL A   1      40.062  27.926  30.054  1.00  0.00     0.040 A 
ATOM     82  C   UNL A   1      39.311  26.971  27.996  1.00  0.00     0.040 A 
ATOM     83  F   UNL A   1      40.661  25.532  26.775  1.00  0.00    -0.206 F 
ATOM     84  C   UNL A   1      39.076  27.787  29.093  1.00  0.00     0.006 A 
ENDBRANCH  63  77
BRANCH  64  85
ATOM     85  C   UNL A   1      51.059  27.139  25.716  1.00  0.00     0.057 A 
ATOM     86  C   UNL A   1      52.018  27.212  24.695  1.00  0.00     0.134 A 
ATOM     87  C   UNL A   1      51.492  27.791  26.916  1.00  0.00     0.134 A 
ATOM     88  F   UNL A   1      51.816  26.622  23.509  1.00  0.00    -0.206 F 
ATOM     89  C   UNL A   1      53.265  27.907  24.858  1.00  0.00     0.040 A 
ATOM     90  C   UNL A   1      52.716  28.460  27.096  1.00  0.00     0.040 A 
ATOM     91  F   UNL A   1      50.693  27.831  27.991  1.00  0.00    -0.206 F 
ATOM     92  C   UNL A   1      53.611  28.541  26.052  1.00  0.00     0.006 A 
ENDBRANCH  64  85
BRANCH  76  93
ATOM     93  C   UNL A   1      46.203  29.994  27.301  1.00  0.00     0.057 A 
ATOM     94  C   UNL A   1      45.917  31.354  27.208  1.00  0.00     0.134 A 
ATOM     95  C   UNL A   1      46.519  29.469  28.559  1.00  0.00     0.134 A 
ATOM     96  F   UNL A   1      45.622  31.907  26.020  1.00  0.00    -0.206 F 
ATOM     97  C   UNL A   1      45.858  32.152  28.344  1.00  0.00     0.040 A 
ATOM     98  C   UNL A   1      46.420  30.245  29.708  1.00  0.00     0.040 A 
ATOM     99  F   UNL A   1      46.824  28.173  28.713  1.00  0.00    -0.206 F 
ATOM    100  C   UNL A   1      46.076  31.589  29.602  1.00  0.00     0.006 A 
ENDBRANCH  76  93
ENDBRANCH  50  51
ENDBRANCH  42  45
ENDBRANCH  40  41
ENDBRANCH  39  40
ENDBRANCH  38  39
ENDBRANCH   1  38
TORSDOF 19
ENDMDL
MODEL 2
REMARK VINA RESULT:     -12.4      3.081      7.626
REMARK SMILES Cc1c(CC(=O)N[C@H](CO)C(=O)NCCCCNC(=O)c2ccc(-c3c4nc(c(-c5c(F)cccc5F)c5ccc([nH]5)c(-c5c(F)cccc5F)c5nc(c(-c6c(F)cccc6F)c6ccc3[nH]6)C=C5)C=C4)cc2)cc(-c2ccc(S(C)(=O)=O)cc2)n1-c1cccc(F)c1
REMARK SMILES IDX 14 1 13 2 11 3 12 4 8 6 7 7 5 8 6 9 4 11 3 12 1 13 2 14
REMARK SMILES IDX 87 15 75 16 76 17 88 18 89 19 94 20 90 21 92 22 91 23 93 24
REMARK SMILES IDX 77 25 78 26 86 27 79 28 85 29 80 30 81 31 82 32 83 33 84 34
REMARK SMILES IDX 9 35 10 36 15 38 16 39 17 40 18 41 19 42 20 44 21 45 22 46
REMARK SMILES IDX 74 47 23 48 73 49 24 50 25 51 26 52 67 53 27 54 72 55 66 56
REMARK SMILES IDX 68 57 28 58 71 59 65 60 64 61 29 63 55 64 38 65 54 66 39 67
REMARK SMILES IDX 42 68 53 69 69 70 40 71 41 72 52 74 70 75 43 76 30 77 31 78
REMARK SMILES IDX 36 79 32 80 33 81 35 82 37 83 34 84 56 85 57 86 62 87 58 88
REMARK SMILES IDX 59 89 61 90 63 91 60 92 44 93 45 94 50 95 46 96 47 97 49 98
REMARK SMILES IDX 51 99 48 100
REMARK H PARENT 13 5 7 10 10 37 18 43 68 62 42 73
REMARK Flexibility Score: inf
ROOT
ATOM      1  C   UNL A   1      35.394  23.545  24.111  1.00  0.00     0.116 C 
ENDROOT
BRANCH   1   2
ATOM      2  N   UNL A   1      34.401  23.094  23.135  1.00  0.00    -0.354 N 
ATOM      3  C   UNL A   1      33.255  22.356  23.124  1.00  0.00     0.244 C 
ATOM      4  O   UNL A   1      32.645  22.451  22.046  1.00  0.00    -0.273 OA
ATOM      5  H   UNL A   1      34.624  23.415  22.231  1.00  0.00     0.163 HD
BRANCH   3   6
ATOM      6  C   UNL A   1      32.624  21.477  24.272  1.00  0.00     0.197 C 
BRANCH   6   7
ATOM      7  N   UNL A   1      32.981  21.561  25.698  1.00  0.00    -0.342 N 
ATOM      8  C   UNL A   1      32.723  22.580  26.573  1.00  0.00     0.225 C 
ATOM      9  O   UNL A   1      33.463  22.729  27.546  1.00  0.00    -0.275 OA
ATOM     10  H   UNL A   1      33.467  20.788  26.067  1.00  0.00     0.164 HD
BRANCH   8  11
ATOM     11  C   UNL A   1      31.488  23.416  26.355  1.00  0.00     0.137 C 
BRANCH  11  12
ATOM     12  C   UNL A   1      31.697  24.809  25.915  1.00  0.00    -0.017 A 
ATOM     13  C   UNL A   1      30.535  24.735  23.620  1.00  0.00     0.065 C 
ATOM     14  C   UNL A   1      31.241  25.399  24.758  1.00  0.00     0.024 A 
ATOM     15  N   UNL A   1      31.587  26.744  24.802  1.00  0.00    -0.313 N 
ATOM     16  C   UNL A   1      32.489  25.769  26.596  1.00  0.00     0.033 A 
ATOM     17  C   UNL A   1      32.364  26.976  25.939  1.00  0.00     0.053 A 
BRANCH  15  18
ATOM     18  C   UNL A   1      31.149  27.722  23.878  1.00  0.00     0.049 A 
ATOM     19  C   UNL A   1      32.048  28.285  22.965  1.00  0.00     0.027 A 
ATOM     20  C   UNL A   1      29.818  28.146  23.928  1.00  0.00     0.065 A 
ATOM     21  C   UNL A   1      31.599  29.272  22.086  1.00  0.00     0.005 A 
ATOM     22  C   UNL A   1      29.395  29.136  23.059  1.00  0.00     0.125 A 
ATOM     23  C   UNL A   1      30.270  29.699  22.137  1.00  0.00     0.039 A 
ATOM     24  F   UNL A   1      28.129  29.566  23.122  1.00  0.00    -0.207 F 
ENDBRANCH  15  18
BRANCH  17  25
ATOM     25  C   UNL A   1      32.772  28.289  26.450  1.00  0.00    -0.001 A 
ATOM     26  C   UNL A   1      34.133  28.562  26.651  1.00  0.00     0.011 A 
ATOM     27  C   UNL A   1      31.829  29.295  26.702  1.00  0.00     0.011 A 
ATOM     28  C   UNL A   1      34.544  29.780  27.182  1.00  0.00     0.021 A 
ATOM     29  C   UNL A   1      32.233  30.525  27.235  1.00  0.00     0.021 A 
ATOM     30  C   UNL A   1      33.588  30.743  27.502  1.00  0.00     0.067 A 
BRANCH  30  31
ATOM     31  S   UNL A   1      34.109  32.247  28.291  1.00  0.00     0.175 S 
ATOM     32  C   UNL A   1      35.739  32.504  27.626  1.00  0.00     0.163 C 
ATOM     33  O   UNL A   1      33.239  33.312  27.766  1.00  0.00    -0.224 OA
ATOM     34  O   UNL A   1      34.229  32.010  29.691  1.00  0.00    -0.224 OA
ENDBRANCH  30  31
ENDBRANCH  17  25
ENDBRANCH  11  12
ENDBRANCH   8  11
ENDBRANCH   6   7
BRANCH   6  35
ATOM     35  C   UNL A   1      32.364  19.976  23.891  1.00  0.00     0.191 C 
BRANCH  35  36
ATOM     36  O   UNL A   1      32.147  19.717  22.518  1.00  0.00    -0.394 OA
ATOM     37  H   UNL A   1      31.603  18.920  22.421  1.00  0.00     0.210 HD
ENDBRANCH  35  36
ENDBRANCH   6  35
ENDBRANCH   3   6
ENDBRANCH   1   2
BRANCH   1  38
ATOM     38  C   UNL A   1      36.843  23.094  23.777  1.00  0.00     0.023 C 
BRANCH  38  39
ATOM     39  C   UNL A   1      37.401  21.768  24.363  1.00  0.00     0.023 C 
BRANCH  39  40
ATOM     40  C   UNL A   1      38.096  21.786  25.751  1.00  0.00     0.116 C 
BRANCH  40  41
ATOM     41  N   UNL A   1      39.556  21.646  25.695  1.00  0.00    -0.352 N 
ATOM     42  C   UNL A   1      40.630  22.378  26.194  1.00  0.00     0.251 C 
ATOM     43  H   UNL A   1      39.841  20.852  25.187  1.00  0.00     0.163 HD
ATOM     44  O   UNL A   1      41.752  21.925  25.939  1.00  0.00    -0.269 OA
BRANCH  42  45
ATOM     45  C   UNL A   1      40.570  23.656  27.020  1.00  0.00     0.039 A 
ATOM     46  C   UNL A   1      39.377  24.072  27.640  1.00  0.00     0.014 A 
ATOM     47  C   UNL A   1      41.574  24.598  27.085  1.00  0.00     0.014 A 
ATOM     48  C   UNL A   1      39.191  25.384  28.279  1.00  0.00     0.010 A 
ATOM     49  C   UNL A   1      41.372  25.901  27.735  1.00  0.00     0.010 A 
ATOM     50  C   UNL A   1      40.150  26.436  28.296  1.00  0.00    -0.014 A 
BRANCH  50  51
ATOM     51  C   UNL A   1      39.571  28.089  28.431  1.00  0.00     0.031 A 
ATOM     52  C   UNL A   1      40.412  28.885  27.446  1.00  0.00     0.074 A 
ATOM     53  C   UNL A   1      39.022  29.146  29.241  1.00  0.00     0.049 A 
ATOM     54  N   UNL A   1      41.335  29.619  27.992  1.00  0.00    -0.248 NA
ATOM     55  C   UNL A   1      40.778  28.441  26.106  1.00  0.00     0.031 C 
ATOM     56  C   UNL A   1      38.831  30.591  28.753  1.00  0.00     0.029 A 
ATOM     57  N   UNL A   1      38.618  29.363  30.586  1.00  0.00    -0.354 N 
ATOM     58  C   UNL A   1      42.454  28.983  27.568  1.00  0.00     0.074 A 
ATOM     59  C   UNL A   1      42.111  28.436  26.255  1.00  0.00     0.031 C 
ATOM     60  C   UNL A   1      38.336  31.433  29.694  1.00  0.00     0.029 A 
ATOM     61  C   UNL A   1      38.182  30.720  30.942  1.00  0.00     0.049 A 
ATOM     62  H   UNL A   1      38.629  28.637  31.250  1.00  0.00     0.167 HD
ATOM     63  C   UNL A   1      43.391  28.618  28.480  1.00  0.00     0.037 A 
ATOM     64  C   UNL A   1      37.915  31.298  32.176  1.00  0.00     0.037 A 
ATOM     65  C   UNL A   1      42.950  28.632  29.891  1.00  0.00     0.049 A 
ATOM     66  C   UNL A   1      39.154  30.947  32.918  1.00  0.00     0.074 A 
ATOM     67  C   UNL A   1      41.921  28.081  30.628  1.00  0.00     0.029 A 
ATOM     68  N   UNL A   1      43.498  29.497  30.822  1.00  0.00    -0.354 N 
ATOM     69  N   UNL A   1      40.244  31.663  32.971  1.00  0.00    -0.248 NA
ATOM     70  C   UNL A   1      39.175  29.679  33.631  1.00  0.00     0.031 C 
ATOM     71  C   UNL A   1      42.151  28.221  32.000  1.00  0.00     0.029 A 
ATOM     72  C   UNL A   1      42.724  29.469  31.993  1.00  0.00     0.049 A 
ATOM     73  H   UNL A   1      44.304  30.046  30.685  1.00  0.00     0.167 HD
ATOM     74  C   UNL A   1      41.198  30.740  33.362  1.00  0.00     0.074 A 
ATOM     75  C   UNL A   1      40.460  29.638  33.958  1.00  0.00     0.031 C 
ATOM     76  C   UNL A   1      42.376  30.689  32.677  1.00  0.00     0.037 A 
BRANCH  63  77
ATOM     77  C   UNL A   1      44.775  28.240  28.065  1.00  0.00     0.057 A 
ATOM     78  C   UNL A   1      45.221  26.911  27.936  1.00  0.00     0.134 A 
ATOM     79  C   UNL A   1      45.621  29.220  27.527  1.00  0.00     0.134 A 
ATOM     80  F   UNL A   1      44.513  25.861  28.367  1.00  0.00    -0.206 F 
ATOM     81  C   UNL A   1      46.392  26.578  27.261  1.00  0.00     0.040 A 
ATOM     82  C   UNL A   1      46.754  28.892  26.786  1.00  0.00     0.040 A 
ATOM     83  F   UNL A   1      45.347  30.528  27.637  1.00  0.00    -0.206 F 
ATOM     84  C   UNL A   1      47.136  27.566  26.640  1.00  0.00     0.006 A 
ENDBRANCH  63  77
BRANCH  64  85
ATOM     85  C   UNL A   1      37.184  32.426  32.946  1.00  0.00     0.057 A 
ATOM     86  C   UNL A   1      36.973  32.683  34.309  1.00  0.00     0.134 A 
ATOM     87  C   UNL A   1      36.603  33.432  32.107  1.00  0.00     0.134 A 
ATOM     88  F   UNL A   1      37.402  31.832  35.250  1.00  0.00    -0.206 F 
ATOM     89  C   UNL A   1      36.284  33.855  34.773  1.00  0.00     0.040 A 
ATOM     90  C   UNL A   1      35.912  34.574  32.547  1.00  0.00     0.040 A 
ATOM     91  F   UNL A   1      36.721  33.352  30.774  1.00  0.00    -0.206 F 
ATOM     92  C   UNL A   1      35.764  34.807  33.895  1.00  0.00     0.006 A 
ENDBRANCH  64  85
BRANCH  76  93
ATOM     93  C   UNL A   1      42.983  31.984  32.303  1.00  0.00     0.057 A 
ATOM     94  C   UNL A   1      43.971  32.500  33.139  1.00  0.00     0.134 A 
ATOM     95  C   UNL A   1      42.746  32.628  31.083  1.00  0.00     0.134 A 
ATOM     96  F   UNL A   1      44.226  31.925  34.325  1.00  0.00    -0.206 F 
ATOM     97  C   UNL A   1      44.762  33.569  32.736  1.00  0.00     0.040 A 
ATOM     98  C   UNL A   1      43.559  33.669  30.649  1.00  0.00     0.040 A 
ATOM     99  F   UNL A   1      41.797  32.194  30.243  1.00  0.00    -0.206 F 
ATOM    100  C   UNL A   1      44.579  34.134  31.474  1.00  0.00     0.006 A 
ENDBRANCH  76  93
ENDBRANCH  50  51
ENDBRANCH  42  45
ENDBRANCH  40  41
ENDBRANCH  39  40
ENDBRANCH  38  39
ENDBRANCH   1  38
TORSDOF 19
ENDMDL
MODEL 3
REMARK VINA RESULT:     -12.4      3.809      8.572
REMARK SMILES Cc1c(CC(=O)N[C@H](CO)C(=O)NCCCCNC(=O)c2ccc(-c3c4nc(c(-c5c(F)cccc5F)c5ccc([nH]5)c(-c5c(F)cccc5F)c5nc(c(-c6c(F)cccc6F)c6ccc3[nH]6)C=C5)C=C4)cc2)cc(-c2ccc(S(C)(=O)=O)cc2)n1-c1cccc(F)c1
REMARK SMILES IDX 14 1 13 2 11 3 12 4 8 6 7 7 5 8 6 9 4 11 3 12 1 13 2 14
REMARK SMILES IDX 87 15 75 16 76 17 88 18 89 19 94 20 90 21 92 22 91 23 93 24
REMARK SMILES IDX 77 25 78 26 86 27 79 28 85 29 80 30 81 31 82 32 83 33 84 34
REMARK SMILES IDX 9 35 10 36 15 38 16 39 17 40 18 41 19 42 20 44 21 45 22 46
REMARK SMILES IDX 74 47 23 48 73 49 24 50 25 51 26 52 67 53 27 54 72 55 66 56
REMARK SMILES IDX 68 57 28 58 71 59 65 60 64 61 29 63 55 64 38 65 54 66 39 67
REMARK SMILES IDX 42 68 53 69 69 70 40 71 41 72 52 74 70 75 43 76 30 77 31 78
REMARK SMILES IDX 36 79 32 80 33 81 35 82 37 83 34 84 56 85 57 86 62 87 58 88
REMARK SMILES IDX 59 89 61 90 63 91 60 92 44 93 45 94 50 95 46 96 47 97 49 98
REMARK SMILES IDX 51 99 48 100
REMARK H PARENT 13 5 7 10 10 37 18 43 68 62 42 73
REMARK Flexibility Score: inf
ROOT
ATOM      1  C   UNL A   1      32.014  31.083  26.194  1.00  0.00     0.116 C 
ENDROOT
BRANCH   1   2
ATOM      2  N   UNL A   1      31.023  31.094  25.116  1.00  0.00    -0.354 N 
ATOM      3  C   UNL A   1      30.334  30.188  24.365  1.00  0.00     0.244 C 
ATOM      4  O   UNL A   1      29.420  30.718  23.711  1.00  0.00    -0.273 OA
ATOM      5  H   UNL A   1      30.788  32.015  24.863  1.00  0.00     0.163 HD
BRANCH   3   6
ATOM      6  C   UNL A   1      30.524  28.624  24.265  1.00  0.00     0.197 C 
BRANCH   6   7
ATOM      7  N   UNL A   1      30.718  27.720  25.409  1.00  0.00    -0.342 N 
ATOM      8  C   UNL A   1      30.400  26.392  25.498  1.00  0.00     0.225 C 
ATOM      9  O   UNL A   1      30.174  25.909  26.608  1.00  0.00    -0.275 OA
ATOM     10  H   UNL A   1      31.129  28.119  26.211  1.00  0.00     0.164 HD
BRANCH   8  11
ATOM     11  C   UNL A   1      30.431  25.562  24.241  1.00  0.00     0.137 C 
BRANCH  11  12
ATOM     12  C   UNL A   1      31.494  24.544  24.142  1.00  0.00    -0.017 A 
ATOM     13  C   UNL A   1      33.571  26.063  24.097  1.00  0.00     0.065 C 
ATOM     14  C   UNL A   1      32.855  24.752  24.134  1.00  0.00     0.024 A 
ATOM     15  N   UNL A   1      33.475  23.508  24.125  1.00  0.00    -0.313 N 
ATOM     16  C   UNL A   1      31.277  23.154  23.957  1.00  0.00     0.033 A 
ATOM     17  C   UNL A   1      32.499  22.515  24.012  1.00  0.00     0.053 A 
BRANCH  15  18
ATOM     18  C   UNL A   1      34.865  23.296  24.285  1.00  0.00     0.049 A 
ATOM     19  C   UNL A   1      35.603  22.661  23.281  1.00  0.00     0.027 A 
ATOM     20  C   UNL A   1      35.471  23.690  25.481  1.00  0.00     0.065 A 
ATOM     21  C   UNL A   1      36.966  22.435  23.477  1.00  0.00     0.005 A 
ATOM     22  C   UNL A   1      36.821  23.444  25.663  1.00  0.00     0.125 A 
ATOM     23  C   UNL A   1      37.574  22.825  24.672  1.00  0.00     0.039 A 
ATOM     24  F   UNL A   1      37.401  23.793  26.818  1.00  0.00    -0.207 F 
ENDBRANCH  15  18
BRANCH  17  25
ATOM     25  C   UNL A   1      32.719  21.072  24.154  1.00  0.00    -0.001 A 
ATOM     26  C   UNL A   1      33.207  20.562  25.367  1.00  0.00     0.011 A 
ATOM     27  C   UNL A   1      32.411  20.184  23.115  1.00  0.00     0.011 A 
ATOM     28  C   UNL A   1      33.473  19.204  25.512  1.00  0.00     0.021 A 
ATOM     29  C   UNL A   1      32.672  18.815  23.253  1.00  0.00     0.021 A 
ATOM     30  C   UNL A   1      33.235  18.343  24.442  1.00  0.00     0.067 A 
BRANCH  30  31
ATOM     31  S   UNL A   1      33.689  16.633  24.594  1.00  0.00     0.175 S 
ATOM     32  C   UNL A   1      32.421  15.975  25.654  1.00  0.00     0.163 C 
ATOM     33  O   UNL A   1      33.510  16.037  23.260  1.00  0.00    -0.224 OA
ATOM     34  O   UNL A   1      34.934  16.551  25.282  1.00  0.00    -0.224 OA
ENDBRANCH  30  31
ENDBRANCH  17  25
ENDBRANCH  11  12
ENDBRANCH   8  11
ENDBRANCH   6   7
BRANCH   6  35
ATOM     35  C   UNL A   1      31.413  28.141  23.066  1.00  0.00     0.191 C 
BRANCH  35  36
ATOM     36  O   UNL A   1      30.778  28.102  21.803  1.00  0.00    -0.394 OA
ATOM     37  H   UNL A   1      30.349  28.955  21.630  1.00  0.00     0.210 HD
ENDBRANCH  35  36
ENDBRANCH   6  35
ENDBRANCH   3   6
ENDBRANCH   1   2
BRANCH   1  38
ATOM     38  C   UNL A   1      31.721  32.115  27.317  1.00  0.00     0.023 C 
BRANCH  38  39
ATOM     39  C   UNL A   1      32.474  33.473  27.343  1.00  0.00     0.023 C 
BRANCH  39  40
ATOM     40  C   UNL A   1      34.007  33.485  27.587  1.00  0.00     0.116 C 
BRANCH  40  41
ATOM     41  N   UNL A   1      34.393  33.357  28.997  1.00  0.00    -0.352 N 
ATOM     42  C   UNL A   1      35.315  32.580  29.694  1.00  0.00     0.251 C 
ATOM     43  H   UNL A   1      33.883  33.959  29.586  1.00  0.00     0.163 HD
ATOM     44  O   UNL A   1      35.359  32.767  30.915  1.00  0.00    -0.269 OA
BRANCH  42  45
ATOM     45  C   UNL A   1      36.271  31.544  29.116  1.00  0.00     0.039 A 
ATOM     46  C   UNL A   1      35.800  30.325  28.594  1.00  0.00     0.014 A 
ATOM     47  C   UNL A   1      37.644  31.600  29.214  1.00  0.00     0.014 A 
ATOM     48  C   UNL A   1      36.669  29.202  28.207  1.00  0.00     0.010 A 
ATOM     49  C   UNL A   1      38.496  30.471  28.816  1.00  0.00     0.010 A 
ATOM     50  C   UNL A   1      38.081  29.156  28.374  1.00  0.00    -0.014 A 
BRANCH  50  51
ATOM     51  C   UNL A   1      38.850  27.586  28.548  1.00  0.00     0.031 A 
ATOM     52  C   UNL A   1      39.025  27.396  30.046  1.00  0.00     0.074 A 
ATOM     53  C   UNL A   1      39.750  26.586  28.037  1.00  0.00     0.049 A 
ATOM     54  N   UNL A   1      40.241  27.559  30.474  1.00  0.00    -0.248 NA
ATOM     55  C   UNL A   1      38.031  27.739  31.056  1.00  0.00     0.031 C 
ATOM     56  C   UNL A   1      40.156  25.320  28.809  1.00  0.00     0.029 A 
ATOM     57  N   UNL A   1      40.600  26.383  26.915  1.00  0.00    -0.354 N 
ATOM     58  C   UNL A   1      40.107  28.694  31.203  1.00  0.00     0.074 A 
ATOM     59  C   UNL A   1      38.746  28.649  31.737  1.00  0.00     0.031 C 
ATOM     60  C   UNL A   1      41.047  24.533  28.155  1.00  0.00     0.029 A 
ATOM     61  C   UNL A   1      41.415  25.161  26.907  1.00  0.00     0.049 A 
ATOM     62  H   UNL A   1      40.641  27.033  26.177  1.00  0.00     0.167 HD
ATOM     63  C   UNL A   1      40.950  29.731  30.970  1.00  0.00     0.037 A 
ATOM     64  C   UNL A   1      42.459  24.767  26.080  1.00  0.00     0.037 A 
ATOM     65  C   UNL A   1      41.712  29.665  29.705  1.00  0.00     0.049 A 
ATOM     66  C   UNL A   1      43.334  25.967  26.152  1.00  0.00     0.074 A 
ATOM     67  C   UNL A   1      41.421  29.511  28.364  1.00  0.00     0.029 A 
ATOM     68  N   UNL A   1      43.090  29.549  29.683  1.00  0.00    -0.354 N 
ATOM     69  N   UNL A   1      44.283  26.172  27.024  1.00  0.00    -0.248 NA
ATOM     70  C   UNL A   1      43.103  27.028  25.183  1.00  0.00     0.031 C 
ATOM     71  C   UNL A   1      42.538  29.789  27.570  1.00  0.00     0.029 A 
ATOM     72  C   UNL A   1      43.511  29.253  28.377  1.00  0.00     0.049 A 
ATOM     73  H   UNL A   1      43.684  29.657  30.462  1.00  0.00     0.167 HD
ATOM     74  C   UNL A   1      44.462  27.543  26.967  1.00  0.00     0.074 A 
ATOM     75  C   UNL A   1      43.895  27.961  25.694  1.00  0.00     0.031 C 
ATOM     76  C   UNL A   1      44.512  28.244  28.135  1.00  0.00     0.037 A 
BRANCH  63  77
ATOM     77  C   UNL A   1      41.091  30.853  31.945  1.00  0.00     0.057 A 
ATOM     78  C   UNL A   1      41.531  30.692  33.273  1.00  0.00     0.134 A 
ATOM     79  C   UNL A   1      41.035  32.175  31.480  1.00  0.00     0.134 A 
ATOM     80  F   UNL A   1      41.671  29.494  33.851  1.00  0.00    -0.206 F 
ATOM     81  C   UNL A   1      41.948  31.763  34.058  1.00  0.00     0.040 A 
ATOM     82  C   UNL A   1      41.520  33.244  32.231  1.00  0.00     0.040 A 
ATOM     83  F   UNL A   1      40.574  32.476  30.257  1.00  0.00    -0.206 F 
ATOM     84  C   UNL A   1      41.992  33.037  33.520  1.00  0.00     0.006 A 
ENDBRANCH  63  77
BRANCH  64  85
ATOM     85  C   UNL A   1      43.288  23.587  25.515  1.00  0.00     0.057 A 
ATOM     86  C   UNL A   1      44.473  23.512  24.768  1.00  0.00     0.134 A 
ATOM     87  C   UNL A   1      42.753  22.293  25.818  1.00  0.00     0.134 A 
ATOM     88  F   UNL A   1      45.101  24.619  24.349  1.00  0.00    -0.206 F 
ATOM     89  C   UNL A   1      45.074  22.259  24.403  1.00  0.00     0.040 A 
ATOM     90  C   UNL A   1      43.320  21.060  25.452  1.00  0.00     0.040 A 
ATOM     91  F   UNL A   1      41.629  22.177  26.538  1.00  0.00    -0.206 F 
ATOM     92  C   UNL A   1      44.506  21.034  24.753  1.00  0.00     0.006 A 
ENDBRANCH  64  85
BRANCH  76  93
ATOM     93  C   UNL A   1      45.278  27.635  29.243  1.00  0.00     0.057 A 
ATOM     94  C   UNL A   1      46.598  28.047  29.418  1.00  0.00     0.134 A 
ATOM     95  C   UNL A   1      44.708  26.807  30.217  1.00  0.00     0.134 A 
ATOM     96  F   UNL A   1      47.193  28.830  28.504  1.00  0.00    -0.206 F 
ATOM     97  C   UNL A   1      47.302  27.720  30.571  1.00  0.00     0.040 A 
ATOM     98  C   UNL A   1      45.385  26.510  31.394  1.00  0.00     0.040 A 
ATOM     99  F   UNL A   1      43.451  26.360  30.097  1.00  0.00    -0.206 F 
ATOM    100  C   UNL A   1      46.683  26.979  31.577  1.00  0.00     0.006 A 
ENDBRANCH  76  93
ENDBRANCH  50  51
ENDBRANCH  42  45
ENDBRANCH  40  41
ENDBRANCH  39  40
ENDBRANCH  38  39
ENDBRANCH   1  38
TORSDOF 19
ENDMDL
