MODEL 1
REMARK VINA RESULT:     -12.0      0.000      0.000
REMARK SMILES C[C@@H]1C[N@H+]2CCCC[C@@H]2CN1C(=O)NC(=O)CCC(=O)NCCCCNC(=O)c1ccc(-c2c3nc(c(-c4c(F)cccc4F)c4ccc([nH]4)c(-c4c(F)cccc4F)c4nc(c(-c5c(F)cccc5F)c5ccc2[nH]5)C=C4)C=C3)cc1
REMARK SMILES IDX 23 1 22 2 21 3 19 4 20 5 18 7 17 8 15 9 12 10 13 11 14 12
REMARK SMILES IDX 16 14 11 15 1 16 2 17 3 18 4 19 10 20 5 21 9 22 6 24 8 25
REMARK SMILES IDX 7 26 24 27 25 28 26 29 27 30 28 32 29 33 30 34 82 35 31 36
REMARK SMILES IDX 81 37 32 38 33 39 34 40 75 41 35 42 80 43 74 44 76 45 36 46
REMARK SMILES IDX 79 47 73 48 72 49 37 51 63 52 46 53 62 54 47 55 50 56 61 57
REMARK SMILES IDX 77 58 48 59 49 60 60 62 78 63 51 64 38 65 39 66 44 67 40 68
REMARK SMILES IDX 41 69 43 70 45 71 42 72 64 73 65 74 70 75 66 76 67 77 69 78
REMARK SMILES IDX 71 79 68 80 52 81 53 82 58 83 54 84 55 85 57 86 59 87 56 88
REMARK H PARENT 21 6 14 13 4 23 26 31 76 50 50 61
REMARK Flexibility Score: inf
ROOT
ATOM      1  C   UNL A   1      37.199  21.047  24.460  1.00  0.00     0.023 C 
ENDROOT
BRANCH   1   2
ATOM      2  C   UNL A   1      37.153  22.224  25.433  1.00  0.00     0.116 C 
BRANCH   2   3
ATOM      3  N   UNL A   1      36.035  22.158  26.350  1.00  0.00    -0.356 N 
ATOM      4  C   UNL A   1      34.966  22.990  26.437  1.00  0.00     0.220 C 
ATOM      5  O   UNL A   1      33.975  22.634  27.073  1.00  0.00    -0.275 OA
ATOM      6  H   UNL A   1      36.052  21.413  26.993  1.00  0.00     0.163 HD
BRANCH   4   7
ATOM      7  C   UNL A   1      34.977  24.305  25.707  1.00  0.00     0.110 C 
BRANCH   7   8
ATOM      8  C   UNL A   1      33.777  24.731  24.872  1.00  0.00     0.110 C 
BRANCH   8   9
ATOM      9  C   UNL A   1      33.848  25.193  23.428  1.00  0.00     0.228 C 
ATOM     10  C   UNL A   1      33.098  27.627  23.213  1.00  0.00     0.324 C 
ATOM     11  O   UNL A   1      33.672  28.438  22.488  1.00  0.00    -0.248 OA
ATOM     12  N   UNL A   1      33.190  26.281  22.895  1.00  0.00    -0.278 N 
ATOM     13  H   UNL A   1      32.658  26.045  22.100  1.00  0.00     0.174 HD
ATOM     14  O   UNL A   1      34.485  24.491  22.627  1.00  0.00    -0.275 OA
BRANCH  10  15
ATOM     15  N   UNL A   1      32.211  27.999  24.191  1.00  0.00    -0.310 N 
ATOM     16  C   UNL A   1      32.788  28.620  26.518  1.00  0.00     0.037 C 
ATOM     17  C   UNL A   1      32.530  29.121  25.094  1.00  0.00     0.139 C 
ATOM     18  C   UNL A   1      31.398  30.229  25.084  1.00  0.00     0.287 C 
ATOM     19  N   UNL A   1      30.259  30.068  24.174  1.00  0.00    -0.329 N 
ATOM     20  C   UNL A   1      30.797  27.743  24.101  1.00  0.00     0.186 C 
ATOM     21  C   UNL A   1      29.472  31.224  23.817  1.00  0.00     0.262 C 
ATOM     22  C   UNL A   1      30.189  28.896  23.319  1.00  0.00     0.203 C 
ATOM     23  H   UNL A   1      29.634  29.718  24.902  1.00  0.00     0.348 HD
ATOM     24  C   UNL A   1      28.037  30.793  23.495  1.00  0.00     0.062 C 
ATOM     25  C   UNL A   1      28.772  28.504  22.905  1.00  0.00     0.067 C 
ATOM     26  C   UNL A   1      27.999  29.714  22.418  1.00  0.00     0.012 C 
ENDBRANCH  10  15
ENDBRANCH   8   9
ENDBRANCH   7   8
ENDBRANCH   4   7
ENDBRANCH   2   3
ENDBRANCH   1   2
BRANCH   1  27
ATOM     27  C   UNL A   1      38.030  19.861  24.926  1.00  0.00     0.023 C 
BRANCH  27  28
ATOM     28  C   UNL A   1      39.082  20.238  25.945  1.00  0.00     0.116 C 
BRANCH  28  29
ATOM     29  N   UNL A   1      40.233  19.341  25.892  1.00  0.00    -0.352 N 
ATOM     30  C   UNL A   1      41.564  19.629  26.011  1.00  0.00     0.251 C 
ATOM     31  H   UNL A   1      40.020  18.391  25.749  1.00  0.00     0.163 HD
ATOM     32  O   UNL A   1      42.415  18.804  25.683  1.00  0.00    -0.269 OA
BRANCH  30  33
ATOM     33  C   UNL A   1      41.956  20.944  26.535  1.00  0.00     0.039 A 
ATOM     34  C   UNL A   1      42.270  21.971  25.646  1.00  0.00     0.014 A 
ATOM     35  C   UNL A   1      41.968  21.160  27.915  1.00  0.00     0.014 A 
ATOM     36  C   UNL A   1      42.548  23.238  26.152  1.00  0.00     0.010 A 
ATOM     37  C   UNL A   1      42.106  22.446  28.402  1.00  0.00     0.010 A 
ATOM     38  C   UNL A   1      42.434  23.491  27.530  1.00  0.00    -0.014 A 
BRANCH  38  39
ATOM     39  C   UNL A   1      42.697  24.833  28.092  1.00  0.00     0.031 A 
ATOM     40  C   UNL A   1      44.089  25.186  28.540  1.00  0.00     0.074 A 
ATOM     41  C   UNL A   1      41.678  25.696  28.254  1.00  0.00     0.049 A 
ATOM     42  N   UNL A   1      44.519  26.283  29.110  1.00  0.00    -0.248 NA
ATOM     43  C   UNL A   1      45.131  24.159  28.365  1.00  0.00     0.031 C 
ATOM     44  C   UNL A   1      40.277  25.428  27.922  1.00  0.00     0.029 A 
ATOM     45  N   UNL A   1      41.664  26.977  28.742  1.00  0.00    -0.354 N 
ATOM     46  C   UNL A   1      45.864  26.064  29.376  1.00  0.00     0.074 A 
ATOM     47  C   UNL A   1      46.167  24.709  28.979  1.00  0.00     0.031 C 
ATOM     48  C   UNL A   1      39.546  26.525  28.179  1.00  0.00     0.029 A 
ATOM     49  C   UNL A   1      40.418  27.555  28.731  1.00  0.00     0.049 A 
ATOM     50  H   UNL A   1      42.469  27.438  29.068  1.00  0.00     0.167 HD
ATOM     51  C   UNL A   1      46.777  26.929  29.875  1.00  0.00     0.037 A 
ATOM     52  C   UNL A   1      40.029  28.780  29.128  1.00  0.00     0.037 A 
ATOM     53  C   UNL A   1      46.473  28.289  30.228  1.00  0.00     0.049 A 
ATOM     54  C   UNL A   1      41.067  29.729  29.660  1.00  0.00     0.074 A 
ATOM     55  C   UNL A   1      47.332  29.276  30.672  1.00  0.00     0.029 A 
ATOM     56  N   UNL A   1      45.206  28.850  30.175  1.00  0.00    -0.354 N 
ATOM     57  N   UNL A   1      42.355  29.540  29.827  1.00  0.00    -0.248 NA
ATOM     58  C   UNL A   1      40.602  31.066  30.050  1.00  0.00     0.031 C 
ATOM     59  C   UNL A   1      46.576  30.421  30.939  1.00  0.00     0.029 A 
ATOM     60  C   UNL A   1      45.256  30.165  30.602  1.00  0.00     0.049 A 
ATOM     61  H   UNL A   1      44.392  28.383  29.877  1.00  0.00     0.167 HD
ATOM     62  C   UNL A   1      42.857  30.740  30.312  1.00  0.00     0.074 A 
ATOM     63  C   UNL A   1      41.737  31.656  30.393  1.00  0.00     0.031 C 
ATOM     64  C   UNL A   1      44.127  31.059  30.664  1.00  0.00     0.037 A 
BRANCH  51  65
ATOM     65  C   UNL A   1      48.182  26.434  30.057  1.00  0.00     0.057 A 
ATOM     66  C   UNL A   1      48.600  25.801  31.237  1.00  0.00     0.134 A 
ATOM     67  C   UNL A   1      49.122  26.559  29.026  1.00  0.00     0.134 A 
ATOM     68  F   UNL A   1      47.756  25.663  32.270  1.00  0.00    -0.206 F 
ATOM     69  C   UNL A   1      49.906  25.332  31.393  1.00  0.00     0.040 A 
ATOM     70  C   UNL A   1      50.421  26.066  29.160  1.00  0.00     0.040 A 
ATOM     71  F   UNL A   1      48.791  27.151  27.870  1.00  0.00    -0.206 F 
ATOM     72  C   UNL A   1      50.818  25.456  30.348  1.00  0.00     0.006 A 
ENDBRANCH  51  65
BRANCH  52  73
ATOM     73  C   UNL A   1      38.606  29.187  29.016  1.00  0.00     0.057 A 
ATOM     74  C   UNL A   1      37.749  29.144  30.122  1.00  0.00     0.134 A 
ATOM     75  C   UNL A   1      38.061  29.613  27.798  1.00  0.00     0.134 A 
ATOM     76  F   UNL A   1      38.206  28.733  31.314  1.00  0.00    -0.206 F 
ATOM     77  C   UNL A   1      36.397  29.479  30.017  1.00  0.00     0.040 A 
ATOM     78  C   UNL A   1      36.718  29.980  27.684  1.00  0.00     0.040 A 
ATOM     79  F   UNL A   1      38.829  29.690  26.701  1.00  0.00    -0.206 F 
ATOM     80  C   UNL A   1      35.880  29.902  28.794  1.00  0.00     0.006 A 
ENDBRANCH  52  73
BRANCH  64  81
ATOM     81  C   UNL A   1      44.376  32.463  31.130  1.00  0.00     0.057 A 
ATOM     82  C   UNL A   1      44.681  33.497  30.236  1.00  0.00     0.134 A 
ATOM     83  C   UNL A   1      44.274  32.789  32.488  1.00  0.00     0.134 A 
ATOM     84  F   UNL A   1      44.803  33.248  28.922  1.00  0.00    -0.206 F 
ATOM     85  C   UNL A   1      44.907  34.800  30.680  1.00  0.00     0.040 A 
ATOM     86  C   UNL A   1      44.465  34.095  32.941  1.00  0.00     0.040 A 
ATOM     87  F   UNL A   1      43.971  31.848  33.395  1.00  0.00    -0.206 F 
ATOM     88  C   UNL A   1      44.791  35.102  32.035  1.00  0.00     0.006 A 
ENDBRANCH  64  81
ENDBRANCH  38  39
ENDBRANCH  30  33
ENDBRANCH  28  29
ENDBRANCH  27  28
ENDBRANCH   1  27
TORSDOF 14
ENDMDL
MODEL 2
REMARK VINA RESULT:     -11.9      3.843      9.620
REMARK SMILES C[C@@H]1C[N@H+]2CCCC[C@@H]2CN1C(=O)NC(=O)CCC(=O)NCCCCNC(=O)c1ccc(-c2c3nc(c(-c4c(F)cccc4F)c4ccc([nH]4)c(-c4c(F)cccc4F)c4nc(c(-c5c(F)cccc5F)c5ccc2[nH]5)C=C4)C=C3)cc1
REMARK SMILES IDX 23 1 22 2 21 3 19 4 20 5 18 7 17 8 15 9 12 10 13 11 14 12
REMARK SMILES IDX 16 14 11 15 1 16 2 17 3 18 4 19 10 20 5 21 9 22 6 24 8 25
REMARK SMILES IDX 7 26 24 27 25 28 26 29 27 30 28 32 29 33 30 34 82 35 31 36
REMARK SMILES IDX 81 37 32 38 33 39 34 40 75 41 35 42 80 43 74 44 76 45 36 46
REMARK SMILES IDX 79 47 73 48 72 49 37 51 63 52 46 53 62 54 47 55 50 56 61 57
REMARK SMILES IDX 77 58 48 59 49 60 60 62 78 63 51 64 38 65 39 66 44 67 40 68
REMARK SMILES IDX 41 69 43 70 45 71 42 72 64 73 65 74 70 75 66 76 67 77 69 78
REMARK SMILES IDX 71 79 68 80 52 81 53 82 58 83 54 84 55 85 57 86 59 87 56 88
REMARK H PARENT 21 6 14 13 4 23 26 31 76 50 50 61
REMARK Flexibility Score: inf
ROOT
ATOM      1  C   UNL A   1      31.437  30.819  26.149  1.00  0.00     0.023 C 
ENDROOT
BRANCH   1   2
ATOM      2  C   UNL A   1      32.854  30.246  26.163  1.00  0.00     0.116 C 
BRANCH   2   3
ATOM      3  N   UNL A   1      33.257  29.702  24.884  1.00  0.00    -0.356 N 
ATOM      4  C   UNL A   1      33.551  28.414  24.570  1.00  0.00     0.220 C 
ATOM      5  O   UNL A   1      33.598  28.078  23.388  1.00  0.00    -0.275 OA
ATOM      6  H   UNL A   1      33.327  30.349  24.146  1.00  0.00     0.163 HD
BRANCH   4   7
ATOM      7  C   UNL A   1      33.752  27.402  25.665  1.00  0.00     0.110 C 
BRANCH   7   8
ATOM      8  C   UNL A   1      33.412  25.937  25.429  1.00  0.00     0.110 C 
BRANCH   8   9
ATOM      9  C   UNL A   1      32.385  25.149  26.223  1.00  0.00     0.228 C 
ATOM     10  C   UNL A   1      33.077  22.698  26.427  1.00  0.00     0.324 C 
ATOM     11  O   UNL A   1      32.949  22.055  27.468  1.00  0.00    -0.248 OA
ATOM     12  N   UNL A   1      32.236  23.779  26.214  1.00  0.00    -0.278 N 
ATOM     13  H   UNL A   1      31.313  23.503  26.007  1.00  0.00     0.174 HD
ATOM     14  O   UNL A   1      31.545  25.788  26.876  1.00  0.00    -0.275 OA
BRANCH  10  15
ATOM     15  N   UNL A   1      33.862  22.277  25.383  1.00  0.00    -0.310 N 
ATOM     16  C   UNL A   1      36.173  23.032  24.906  1.00  0.00     0.037 C 
ATOM     17  C   UNL A   1      35.292  21.989  25.601  1.00  0.00     0.139 C 
ATOM     18  C   UNL A   1      35.679  20.526  25.132  1.00  0.00     0.287 C 
ATOM     19  N   UNL A   1      34.621  19.640  24.634  1.00  0.00    -0.329 N 
ATOM     20  C   UNL A   1      33.331  21.607  24.226  1.00  0.00     0.186 C 
ATOM     21  C   UNL A   1      34.840  18.214  24.628  1.00  0.00     0.262 C 
ATOM     22  C   UNL A   1      33.255  20.127  24.570  1.00  0.00     0.203 C 
ATOM     23  H   UNL A   1      34.849  19.802  23.652  1.00  0.00     0.348 HD
ATOM     24  C   UNL A   1      34.021  17.570  23.504  1.00  0.00     0.062 C 
ATOM     25  C   UNL A   1      32.389  19.433  23.521  1.00  0.00     0.067 C 
ATOM     26  C   UNL A   1      32.540  17.927  23.609  1.00  0.00     0.012 C 
ENDBRANCH  10  15
ENDBRANCH   8   9
ENDBRANCH   7   8
ENDBRANCH   4   7
ENDBRANCH   2   3
ENDBRANCH   1   2
BRANCH   1  27
ATOM     27  C   UNL A   1      31.339  32.295  26.501  1.00  0.00     0.023 C 
BRANCH  27  28
ATOM     28  C   UNL A   1      32.577  32.825  27.190  1.00  0.00     0.116 C 
BRANCH  28  29
ATOM     29  N   UNL A   1      32.404  34.208  27.626  1.00  0.00    -0.352 N 
ATOM     30  C   UNL A   1      33.003  34.873  28.659  1.00  0.00     0.251 C 
ATOM     31  H   UNL A   1      31.762  34.738  27.101  1.00  0.00     0.163 HD
ATOM     32  O   UNL A   1      32.556  35.948  29.054  1.00  0.00    -0.269 OA
BRANCH  30  33
ATOM     33  C   UNL A   1      34.187  34.276  29.290  1.00  0.00     0.039 A 
ATOM     34  C   UNL A   1      34.027  33.421  30.379  1.00  0.00     0.014 A 
ATOM     35  C   UNL A   1      35.454  34.539  28.763  1.00  0.00     0.014 A 
ATOM     36  C   UNL A   1      35.148  32.788  30.909  1.00  0.00     0.010 A 
ATOM     37  C   UNL A   1      36.539  33.803  29.199  1.00  0.00     0.010 A 
ATOM     38  C   UNL A   1      36.405  32.948  30.299  1.00  0.00    -0.014 A 
BRANCH  38  39
ATOM     39  C   UNL A   1      37.608  32.266  30.824  1.00  0.00     0.031 A 
ATOM     40  C   UNL A   1      38.276  32.795  32.064  1.00  0.00     0.074 A 
ATOM     41  C   UNL A   1      38.126  31.223  30.150  1.00  0.00     0.049 A 
ATOM     42  N   UNL A   1      39.368  32.380  32.653  1.00  0.00    -0.248 NA
ATOM     43  C   UNL A   1      37.661  33.970  32.707  1.00  0.00     0.031 C 
ATOM     44  C   UNL A   1      37.601  30.676  28.896  1.00  0.00     0.029 A 
ATOM     45  N   UNL A   1      39.213  30.436  30.425  1.00  0.00    -0.354 N 
ATOM     46  C   UNL A   1      39.576  33.254  33.713  1.00  0.00     0.074 A 
ATOM     47  C   UNL A   1      38.547  34.264  33.646  1.00  0.00     0.031 C 
ATOM     48  C   UNL A   1      38.344  29.618  28.533  1.00  0.00     0.029 A 
ATOM     49  C   UNL A   1      39.418  29.439  29.502  1.00  0.00     0.049 A 
ATOM     50  H   UNL A   1      39.792  30.571  31.209  1.00  0.00     0.167 HD
ATOM     51  C   UNL A   1      40.522  33.198  34.678  1.00  0.00     0.037 A 
ATOM     52  C   UNL A   1      40.372  28.492  29.448  1.00  0.00     0.037 A 
ATOM     53  C   UNL A   1      41.515  32.162  34.759  1.00  0.00     0.049 A 
ATOM     54  C   UNL A   1      41.399  28.439  30.546  1.00  0.00     0.074 A 
ATOM     55  C   UNL A   1      42.475  31.962  35.733  1.00  0.00     0.029 A 
ATOM     56  N   UNL A   1      41.674  31.150  33.823  1.00  0.00    -0.354 N 
ATOM     57  N   UNL A   1      41.534  29.220  31.591  1.00  0.00    -0.248 NA
ATOM     58  C   UNL A   1      42.400  27.369  30.462  1.00  0.00     0.031 C 
ATOM     59  C   UNL A   1      43.249  30.860  35.360  1.00  0.00     0.029 A 
ATOM     60  C   UNL A   1      42.733  30.337  34.185  1.00  0.00     0.049 A 
ATOM     61  H   UNL A   1      41.116  31.029  33.021  1.00  0.00     0.167 HD
ATOM     62  C   UNL A   1      42.615  28.718  32.304  1.00  0.00     0.074 A 
ATOM     63  C   UNL A   1      43.085  27.554  31.581  1.00  0.00     0.031 C 
ATOM     64  C   UNL A   1      43.174  29.178  33.451  1.00  0.00     0.037 A 
BRANCH  51  65
ATOM     65  C   UNL A   1      40.517  34.275  35.724  1.00  0.00     0.057 A 
ATOM     66  C   UNL A   1      39.821  34.134  36.933  1.00  0.00     0.134 A 
ATOM     67  C   UNL A   1      41.247  35.456  35.535  1.00  0.00     0.134 A 
ATOM     68  F   UNL A   1      39.089  33.036  37.172  1.00  0.00    -0.206 F 
ATOM     69  C   UNL A   1      39.832  35.136  37.904  1.00  0.00     0.040 A 
ATOM     70  C   UNL A   1      41.290  36.451  36.513  1.00  0.00     0.040 A 
ATOM     71  F   UNL A   1      41.937  35.657  34.403  1.00  0.00    -0.206 F 
ATOM     72  C   UNL A   1      40.577  36.295  37.699  1.00  0.00     0.006 A 
ENDBRANCH  51  65
BRANCH  52  73
ATOM     73  C   UNL A   1      40.387  27.507  28.337  1.00  0.00     0.057 A 
ATOM     74  C   UNL A   1      39.681  26.301  28.426  1.00  0.00     0.134 A 
ATOM     75  C   UNL A   1      41.122  27.737  27.167  1.00  0.00     0.134 A 
ATOM     76  F   UNL A   1      38.969  26.016  29.526  1.00  0.00    -0.206 F 
ATOM     77  C   UNL A   1      39.727  25.347  27.408  1.00  0.00     0.040 A 
ATOM     78  C   UNL A   1      41.152  26.805  26.127  1.00  0.00     0.040 A 
ATOM     79  F   UNL A   1      41.810  28.877  27.012  1.00  0.00    -0.206 F 
ATOM     80  C   UNL A   1      40.463  25.601  26.251  1.00  0.00     0.006 A 
ENDBRANCH  52  73
BRANCH  64  81
ATOM     81  C   UNL A   1      44.327  28.398  34.010  1.00  0.00     0.057 A 
ATOM     82  C   UNL A   1      45.656  28.718  33.705  1.00  0.00     0.134 A 
ATOM     83  C   UNL A   1      44.103  27.334  34.892  1.00  0.00     0.134 A 
ATOM     84  F   UNL A   1      45.939  29.720  32.858  1.00  0.00    -0.206 F 
ATOM     85  C   UNL A   1      46.721  27.987  34.234  1.00  0.00     0.040 A 
ATOM     86  C   UNL A   1      45.159  26.617  35.454  1.00  0.00     0.040 A 
ATOM     87  F   UNL A   1      42.853  26.984  35.236  1.00  0.00    -0.206 F 
ATOM     88  C   UNL A   1      46.472  26.938  35.117  1.00  0.00     0.006 A 
ENDBRANCH  64  81
ENDBRANCH  38  39
ENDBRANCH  30  33
ENDBRANCH  28  29
ENDBRANCH  27  28
ENDBRANCH   1  27
TORSDOF 14
ENDMDL
MODEL 3
REMARK VINA RESULT:     -11.8      3.841      9.379
REMARK SMILES C[C@@H]1C[N@H+]2CCCC[C@@H]2CN1C(=O)NC(=O)CCC(=O)NCCCCNC(=O)c1ccc(-c2c3nc(c(-c4c(F)cccc4F)c4ccc([nH]4)c(-c4c(F)cccc4F)c4nc(c(-c5c(F)cccc5F)c5ccc2[nH]5)C=C4)C=C3)cc1
REMARK SMILES IDX 23 1 22 2 21 3 19 4 20 5 18 7 17 8 15 9 12 10 13 11 14 12
REMARK SMILES IDX 16 14 11 15 1 16 2 17 3 18 4 19 10 20 5 21 9 22 6 24 8 25
REMARK SMILES IDX 7 26 24 27 25 28 26 29 27 30 28 32 29 33 30 34 82 35 31 36
REMARK SMILES IDX 81 37 32 38 33 39 34 40 75 41 35 42 80 43 74 44 76 45 36 46
REMARK SMILES IDX 79 47 73 48 72 49 37 51 63 52 46 53 62 54 47 55 50 56 61 57
REMARK SMILES IDX 77 58 48 59 49 60 60 62 78 63 51 64 38 65 39 66 44 67 40 68
REMARK SMILES IDX 41 69 43 70 45 71 42 72 64 73 65 74 70 75 66 76 67 77 69 78
REMARK SMILES IDX 71 79 68 80 52 81 53 82 58 83 54 84 55 85 57 86 59 87 56 88
REMARK H PARENT 21 6 14 13 4 23 26 31 76 50 50 61
REMARK Flexibility Score: inf
ROOT
ATOM      1  C   UNL A   1      31.412  30.682  26.241  1.00  0.00     0.023 C 
ENDROOT
BRANCH   1   2
ATOM      2  C   UNL A   1      32.814  30.092  26.092  1.00  0.00     0.116 C 
BRANCH   2   3
ATOM      3  N   UNL A   1      33.111  29.675  24.738  1.00  0.00    -0.356 N 
ATOM      4  C   UNL A   1      32.284  29.083  23.838  1.00  0.00     0.220 C 
ATOM      5  O   UNL A   1      32.608  29.053  22.652  1.00  0.00    -0.275 OA
ATOM      6  H   UNL A   1      34.031  29.841  24.430  1.00  0.00     0.163 HD
BRANCH   4   7
ATOM      7  C   UNL A   1      30.959  28.530  24.287  1.00  0.00     0.110 C 
BRANCH   7   8
ATOM      8  C   UNL A   1      30.287  27.414  23.500  1.00  0.00     0.110 C 
BRANCH   8   9
ATOM      9  C   UNL A   1      29.356  26.374  24.098  1.00  0.00     0.228 C 
ATOM     10  C   UNL A   1      30.650  24.730  25.565  1.00  0.00     0.324 C 
ATOM     11  O   UNL A   1      30.224  24.325  26.646  1.00  0.00    -0.248 OA
ATOM     12  N   UNL A   1      29.735  25.153  24.614  1.00  0.00    -0.278 N 
ATOM     13  H   UNL A   1      29.237  24.405  24.211  1.00  0.00     0.174 HD
ATOM     14  O   UNL A   1      28.136  26.593  24.047  1.00  0.00    -0.275 OA
BRANCH  10  15
ATOM     15  N   UNL A   1      31.960  24.590  25.181  1.00  0.00    -0.310 N 
ATOM     16  C   UNL A   1      33.798  26.174  25.680  1.00  0.00     0.037 C 
ATOM     17  C   UNL A   1      33.047  24.915  26.124  1.00  0.00     0.139 C 
ATOM     18  C   UNL A   1      34.048  23.702  26.313  1.00  0.00     0.287 C 
ATOM     19  N   UNL A   1      33.761  22.435  25.631  1.00  0.00    -0.329 N 
ATOM     20  C   UNL A   1      32.377  23.687  24.141  1.00  0.00     0.186 C 
ATOM     21  C   UNL A   1      34.368  21.219  26.117  1.00  0.00     0.262 C 
ATOM     22  C   UNL A   1      32.579  22.328  24.793  1.00  0.00     0.203 C 
ATOM     23  H   UNL A   1      34.424  22.608  24.875  1.00  0.00     0.348 HD
ATOM     24  C   UNL A   1      34.534  20.227  24.960  1.00  0.00     0.062 C 
ATOM     25  C   UNL A   1      32.684  21.276  23.691  1.00  0.00     0.067 C 
ATOM     26  C   UNL A   1      33.211  19.966  24.245  1.00  0.00     0.012 C 
ENDBRANCH  10  15
ENDBRANCH   8   9
ENDBRANCH   7   8
ENDBRANCH   4   7
ENDBRANCH   2   3
ENDBRANCH   1   2
BRANCH   1  27
ATOM     27  C   UNL A   1      31.370  32.178  26.508  1.00  0.00     0.023 C 
BRANCH  27  28
ATOM     28  C   UNL A   1      32.598  32.688  27.230  1.00  0.00     0.116 C 
BRANCH  28  29
ATOM     29  N   UNL A   1      32.469  34.096  27.591  1.00  0.00    -0.352 N 
ATOM     30  C   UNL A   1      33.111  34.804  28.568  1.00  0.00     0.251 C 
ATOM     31  H   UNL A   1      31.825  34.611  27.054  1.00  0.00     0.163 HD
ATOM     32  O   UNL A   1      32.700  35.911  28.913  1.00  0.00    -0.269 OA
BRANCH  30  33
ATOM     33  C   UNL A   1      34.299  34.214  29.200  1.00  0.00     0.039 A 
ATOM     34  C   UNL A   1      34.142  33.325  30.261  1.00  0.00     0.014 A 
ATOM     35  C   UNL A   1      35.568  34.522  28.702  1.00  0.00     0.014 A 
ATOM     36  C   UNL A   1      35.269  32.701  30.790  1.00  0.00     0.010 A 
ATOM     37  C   UNL A   1      36.663  33.797  29.133  1.00  0.00     0.010 A 
ATOM     38  C   UNL A   1      36.531  32.907  30.206  1.00  0.00    -0.014 A 
BRANCH  38  39
ATOM     39  C   UNL A   1      37.741  32.237  30.729  1.00  0.00     0.031 A 
ATOM     40  C   UNL A   1      38.396  32.763  31.977  1.00  0.00     0.074 A 
ATOM     41  C   UNL A   1      38.276  31.206  30.048  1.00  0.00     0.049 A 
ATOM     42  N   UNL A   1      39.491  32.358  32.567  1.00  0.00    -0.248 NA
ATOM     43  C   UNL A   1      37.764  33.924  32.628  1.00  0.00     0.031 C 
ATOM     44  C   UNL A   1      37.763  30.664  28.788  1.00  0.00     0.029 A 
ATOM     45  N   UNL A   1      39.372  30.431  30.321  1.00  0.00    -0.354 N 
ATOM     46  C   UNL A   1      39.684  33.225  33.635  1.00  0.00     0.074 A 
ATOM     47  C   UNL A   1      38.642  34.222  33.573  1.00  0.00     0.031 C 
ATOM     48  C   UNL A   1      38.521  29.619  28.418  1.00  0.00     0.029 A 
ATOM     49  C   UNL A   1      39.594  29.446  29.390  1.00  0.00     0.049 A 
ATOM     50  H   UNL A   1      39.946  30.568  31.109  1.00  0.00     0.167 HD
ATOM     51  C   UNL A   1      40.626  33.173  34.604  1.00  0.00     0.037 A 
ATOM     52  C   UNL A   1      40.561  28.512  29.332  1.00  0.00     0.037 A 
ATOM     53  C   UNL A   1      41.633  32.150  34.679  1.00  0.00     0.049 A 
ATOM     54  C   UNL A   1      41.584  28.464  30.433  1.00  0.00     0.074 A 
ATOM     55  C   UNL A   1      42.591  31.955  35.656  1.00  0.00     0.029 A 
ATOM     56  N   UNL A   1      41.809  31.149  33.735  1.00  0.00    -0.354 N 
ATOM     57  N   UNL A   1      41.705  29.237  31.486  1.00  0.00    -0.248 NA
ATOM     58  C   UNL A   1      42.599  27.407  30.345  1.00  0.00     0.031 C 
ATOM     59  C   UNL A   1      43.382  30.866  35.277  1.00  0.00     0.029 A 
ATOM     60  C   UNL A   1      42.877  30.347  34.095  1.00  0.00     0.049 A 
ATOM     61  H   UNL A   1      41.256  31.028  32.930  1.00  0.00     0.167 HD
ATOM     62  C   UNL A   1      42.789  28.743  32.200  1.00  0.00     0.074 A 
ATOM     63  C   UNL A   1      43.277  27.592  31.468  1.00  0.00     0.031 C 
ATOM     64  C   UNL A   1      43.337  29.201  33.352  1.00  0.00     0.037 A 
BRANCH  51  65
ATOM     65  C   UNL A   1      40.603  34.241  35.659  1.00  0.00     0.057 A 
ATOM     66  C   UNL A   1      41.311  35.443  35.514  1.00  0.00     0.134 A 
ATOM     67  C   UNL A   1      39.834  34.082  36.818  1.00  0.00     0.134 A 
ATOM     68  F   UNL A   1      42.080  35.654  34.436  1.00  0.00    -0.206 F 
ATOM     69  C   UNL A   1      41.274  36.436  36.495  1.00  0.00     0.040 A 
ATOM     70  C   UNL A   1      39.764  35.082  37.790  1.00  0.00     0.040 A 
ATOM     71  F   UNL A   1      39.130  32.959  37.021  1.00  0.00    -0.206 F 
ATOM     72  C   UNL A   1      40.491  36.260  37.633  1.00  0.00     0.006 A 
ENDBRANCH  51  65
BRANCH  52  73
ATOM     73  C   UNL A   1      40.594  27.537  28.213  1.00  0.00     0.057 A 
ATOM     74  C   UNL A   1      41.291  27.813  27.030  1.00  0.00     0.134 A 
ATOM     75  C   UNL A   1      39.917  26.313  28.289  1.00  0.00     0.134 A 
ATOM     76  F   UNL A   1      41.950  28.973  26.890  1.00  0.00    -0.206 F 
ATOM     77  C   UNL A   1      41.290  26.925  25.954  1.00  0.00     0.040 A 
ATOM     78  C   UNL A   1      39.932  25.401  27.231  1.00  0.00     0.040 A 
ATOM     79  F   UNL A   1      39.240  25.981  29.398  1.00  0.00    -0.206 F 
ATOM     80  C   UNL A   1      40.611  25.712  26.055  1.00  0.00     0.006 A 
ENDBRANCH  52  73
BRANCH  64  81
ATOM     81  C   UNL A   1      44.498  28.431  33.910  1.00  0.00     0.057 A 
ATOM     82  C   UNL A   1      45.824  28.771  33.613  1.00  0.00     0.134 A 
ATOM     83  C   UNL A   1      44.285  27.356  34.781  1.00  0.00     0.134 A 
ATOM     84  F   UNL A   1      46.096  29.785  32.776  1.00  0.00    -0.206 F 
ATOM     85  C   UNL A   1      46.896  28.050  34.141  1.00  0.00     0.040 A 
ATOM     86  C   UNL A   1      45.348  26.648  35.341  1.00  0.00     0.040 A 
ATOM     87  F   UNL A   1      43.038  26.986  35.117  1.00  0.00    -0.206 F 
ATOM     88  C   UNL A   1      46.658  26.990  35.013  1.00  0.00     0.006 A 
ENDBRANCH  64  81
ENDBRANCH  38  39
ENDBRANCH  30  33
ENDBRANCH  28  29
ENDBRANCH  27  28
ENDBRANCH   1  27
TORSDOF 14
ENDMDL
