MODEL 1
REMARK VINA RESULT:     -12.0      0.000      0.000
REMARK SMILES Cc1ccc(C[C@H](C(=O)NCCCCNC(=O)c2ccc(-c3c4nc(c(-c5c(F)cccc5F)c5ccc([nH]5)c(-c5c(F)cccc5F)c5nc(c(-c6c(F)cccc6F)c6ccc3[nH]6)C=C5)C=C4)cc2)[C@@H]2CCCC[C@@H]2O)cc1
REMARK SMILES IDX 12 1 11 2 10 3 8 4 9 5 7 7 6 8 5 9 1 10 2 11 3 12 80 13 4 14
REMARK SMILES IDX 79 15 72 16 73 17 77 18 74 19 76 20 75 21 78 22 13 24 14 25
REMARK SMILES IDX 15 26 16 27 17 29 18 30 19 31 71 32 20 33 70 34 21 35 22 36
REMARK SMILES IDX 23 37 64 38 24 39 69 40 63 41 65 42 25 43 68 44 62 45 61 46
REMARK SMILES IDX 26 48 52 49 35 50 51 51 36 52 39 53 50 54 66 55 37 56 38 57
REMARK SMILES IDX 49 59 67 60 40 61 27 62 28 63 33 64 29 65 30 66 32 67 34 68
REMARK SMILES IDX 31 69 53 70 54 71 59 72 55 73 56 74 58 75 60 76 57 77 41 78
REMARK SMILES IDX 42 79 47 80 43 81 44 82 46 83 48 84 45 85
REMARK H PARENT 10 6 78 23 15 28 65 47 39 58
REMARK Flexibility Score: inf
ROOT
ATOM      1  C   UNL A   1      34.235  29.389  26.892  1.00  0.00     0.023 C 
ENDROOT
BRANCH   1   2
ATOM      2  C   UNL A   1      33.189  29.239  25.794  1.00  0.00     0.116 C 
BRANCH   2   3
ATOM      3  N   UNL A   1      33.656  29.256  24.433  1.00  0.00    -0.356 N 
ATOM      4  C   UNL A   1      33.677  28.233  23.529  1.00  0.00     0.223 C 
ATOM      5  O   UNL A   1      34.065  28.538  22.393  1.00  0.00    -0.275 OA
ATOM      6  H   UNL A   1      34.006  30.119  24.111  1.00  0.00     0.163 HD
BRANCH   4   7
ATOM      7  C   UNL A   1      33.314  26.755  23.897  1.00  0.00     0.088 C 
BRANCH   7   8
ATOM      8  C   UNL A   1      34.150  26.224  25.103  1.00  0.00     0.049 C 
BRANCH   8   9
ATOM      9  C   UNL A   1      34.727  24.825  24.981  1.00  0.00    -0.047 A 
ATOM     10  C   UNL A   1      35.540  20.595  24.883  1.00  0.00     0.044 C 
ATOM     11  C   UNL A   1      35.393  22.089  24.864  1.00  0.00    -0.051 A 
ATOM     12  C   UNL A   1      35.647  22.831  26.022  1.00  0.00     0.004 A 
ATOM     13  C   UNL A   1      34.907  22.748  23.729  1.00  0.00     0.004 A 
ATOM     14  C   UNL A   1      35.344  24.195  26.072  1.00  0.00     0.004 A 
ATOM     15  C   UNL A   1      34.598  24.113  23.780  1.00  0.00     0.004 A 
ENDBRANCH   8   9
ENDBRANCH   7   8
BRANCH   7  16
ATOM     16  C   UNL A   1      31.746  26.705  24.182  1.00  0.00     0.030 C 
ATOM     17  C   UNL A   1      31.270  26.124  25.530  1.00  0.00     0.007 C 
ATOM     18  C   UNL A   1      30.960  25.985  23.050  1.00  0.00     0.118 C 
ATOM     19  C   UNL A   1      31.434  24.611  25.618  1.00  0.00     0.001 C 
ATOM     20  C   UNL A   1      31.064  24.457  23.131  1.00  0.00     0.032 C 
ATOM     21  C   UNL A   1      30.663  23.921  24.501  1.00  0.00     0.003 C 
BRANCH  18  22
ATOM     22  O   UNL A   1      31.394  26.391  21.759  1.00  0.00    -0.393 OA
ATOM     23  H   UNL A   1      32.217  26.897  21.838  1.00  0.00     0.210 HD
ENDBRANCH  18  22
ENDBRANCH   7  16
ENDBRANCH   4   7
ENDBRANCH   2   3
ENDBRANCH   1   2
BRANCH   1  24
ATOM     24  C   UNL A   1      34.067  30.610  27.797  1.00  0.00     0.023 C 
BRANCH  24  25
ATOM     25  C   UNL A   1      35.156  31.681  27.681  1.00  0.00     0.116 C 
BRANCH  25  26
ATOM     26  N   UNL A   1      35.794  31.985  28.968  1.00  0.00    -0.352 N 
ATOM     27  C   UNL A   1      36.721  31.290  29.736  1.00  0.00     0.251 C 
ATOM     28  H   UNL A   1      35.513  32.843  29.361  1.00  0.00     0.163 HD
ATOM     29  O   UNL A   1      37.255  31.825  30.693  1.00  0.00    -0.269 OA
BRANCH  27  30
ATOM     30  C   UNL A   1      37.169  29.949  29.294  1.00  0.00     0.039 A 
ATOM     31  C   UNL A   1      37.317  28.966  30.278  1.00  0.00     0.014 A 
ATOM     32  C   UNL A   1      37.790  29.822  28.064  1.00  0.00     0.014 A 
ATOM     33  C   UNL A   1      38.376  28.073  30.169  1.00  0.00     0.010 A 
ATOM     34  C   UNL A   1      38.932  29.048  28.026  1.00  0.00     0.010 A 
ATOM     35  C   UNL A   1      39.276  28.243  29.122  1.00  0.00    -0.014 A 
BRANCH  35  36
ATOM     36  C   UNL A   1      40.649  27.734  29.148  1.00  0.00     0.031 A 
ATOM     37  C   UNL A   1      40.913  26.337  28.736  1.00  0.00     0.074 A 
ATOM     38  C   UNL A   1      41.678  28.563  29.443  1.00  0.00     0.049 A 
ATOM     39  N   UNL A   1      42.034  25.719  28.880  1.00  0.00    -0.248 NA
ATOM     40  C   UNL A   1      39.869  25.499  28.163  1.00  0.00     0.031 C 
ATOM     41  C   UNL A   1      43.103  28.323  29.221  1.00  0.00     0.029 A 
ATOM     42  N   UNL A   1      41.645  29.722  30.236  1.00  0.00    -0.354 N 
ATOM     43  C   UNL A   1      41.936  24.499  28.247  1.00  0.00     0.074 A 
ATOM     44  C   UNL A   1      40.560  24.409  27.830  1.00  0.00     0.031 C 
ATOM     45  C   UNL A   1      43.807  29.075  30.079  1.00  0.00     0.029 A 
ATOM     46  C   UNL A   1      42.858  29.717  30.970  1.00  0.00     0.049 A 
ATOM     47  H   UNL A   1      40.930  30.396  30.275  1.00  0.00     0.167 HD
ATOM     48  C   UNL A   1      43.060  23.741  28.093  1.00  0.00     0.037 A 
ATOM     49  C   UNL A   1      42.851  29.582  32.327  1.00  0.00     0.037 A 
ATOM     50  C   UNL A   1      44.153  24.258  28.919  1.00  0.00     0.049 A 
ATOM     51  C   UNL A   1      43.504  28.316  32.848  1.00  0.00     0.074 A 
ATOM     52  C   UNL A   1      45.249  25.077  28.706  1.00  0.00     0.029 A 
ATOM     53  N   UNL A   1      44.012  24.165  30.292  1.00  0.00    -0.354 N 
ATOM     54  N   UNL A   1      44.027  27.383  32.101  1.00  0.00    -0.248 NA
ATOM     55  C   UNL A   1      43.517  27.964  34.271  1.00  0.00     0.031 C 
ATOM     56  C   UNL A   1      45.713  25.533  29.978  1.00  0.00     0.029 A 
ATOM     57  C   UNL A   1      44.907  24.979  30.956  1.00  0.00     0.049 A 
ATOM     58  H   UNL A   1      43.353  23.587  30.742  1.00  0.00     0.167 HD
ATOM     59  C   UNL A   1      44.347  26.309  32.888  1.00  0.00     0.074 A 
ATOM     60  C   UNL A   1      44.033  26.725  34.241  1.00  0.00     0.031 C 
ATOM     61  C   UNL A   1      44.787  25.117  32.396  1.00  0.00     0.037 A 
BRANCH  48  62
ATOM     62  C   UNL A   1      43.221  22.634  27.072  1.00  0.00     0.057 A 
ATOM     63  C   UNL A   1      42.449  21.460  27.174  1.00  0.00     0.134 A 
ATOM     64  C   UNL A   1      44.155  22.609  26.020  1.00  0.00     0.134 A 
ATOM     65  F   UNL A   1      41.458  21.346  28.068  1.00  0.00    -0.206 F 
ATOM     66  C   UNL A   1      42.657  20.332  26.366  1.00  0.00     0.040 A 
ATOM     67  C   UNL A   1      44.414  21.471  25.242  1.00  0.00     0.040 A 
ATOM     68  F   UNL A   1      44.821  23.697  25.631  1.00  0.00    -0.206 F 
ATOM     69  C   UNL A   1      43.669  20.320  25.420  1.00  0.00     0.006 A 
ENDBRANCH  48  62
BRANCH  49  70
ATOM     70  C   UNL A   1      41.699  30.265  32.972  1.00  0.00     0.057 A 
ATOM     71  C   UNL A   1      41.760  31.655  33.166  1.00  0.00     0.134 A 
ATOM     72  C   UNL A   1      40.446  29.658  33.079  1.00  0.00     0.134 A 
ATOM     73  F   UNL A   1      42.934  32.300  33.076  1.00  0.00    -0.206 F 
ATOM     74  C   UNL A   1      40.609  32.423  33.352  1.00  0.00     0.040 A 
ATOM     75  C   UNL A   1      39.287  30.416  33.274  1.00  0.00     0.040 A 
ATOM     76  F   UNL A   1      40.306  28.341  32.878  1.00  0.00    -0.206 F 
ATOM     77  C   UNL A   1      39.362  31.804  33.374  1.00  0.00     0.006 A 
ENDBRANCH  49  70
BRANCH  61  78
ATOM     78  C   UNL A   1      45.113  23.971  33.296  1.00  0.00     0.057 A 
ATOM     79  C   UNL A   1      44.177  22.964  33.569  1.00  0.00     0.134 A 
ATOM     80  C   UNL A   1      46.328  23.902  33.996  1.00  0.00     0.134 A 
ATOM     81  F   UNL A   1      42.984  22.955  32.955  1.00  0.00    -0.206 F 
ATOM     82  C   UNL A   1      44.437  21.943  34.487  1.00  0.00     0.040 A 
ATOM     83  C   UNL A   1      46.587  22.910  34.944  1.00  0.00     0.040 A 
ATOM     84  F   UNL A   1      47.310  24.789  33.771  1.00  0.00    -0.206 F 
ATOM     85  C   UNL A   1      45.639  21.923  35.190  1.00  0.00     0.006 A 
ENDBRANCH  61  78
ENDBRANCH  35  36
ENDBRANCH  27  30
ENDBRANCH  25  26
ENDBRANCH  24  25
ENDBRANCH   1  24
TORSDOF 15
ENDMDL
MODEL 2
REMARK VINA RESULT:     -12.0      3.215      8.125
REMARK SMILES Cc1ccc(C[C@H](C(=O)NCCCCNC(=O)c2ccc(-c3c4nc(c(-c5c(F)cccc5F)c5ccc([nH]5)c(-c5c(F)cccc5F)c5nc(c(-c6c(F)cccc6F)c6ccc3[nH]6)C=C5)C=C4)cc2)[C@@H]2CCCC[C@@H]2O)cc1
REMARK SMILES IDX 12 1 11 2 10 3 8 4 9 5 7 7 6 8 5 9 1 10 2 11 3 12 80 13 4 14
REMARK SMILES IDX 79 15 72 16 73 17 77 18 74 19 76 20 75 21 78 22 13 24 14 25
REMARK SMILES IDX 15 26 16 27 17 29 18 30 19 31 71 32 20 33 70 34 21 35 22 36
REMARK SMILES IDX 23 37 64 38 24 39 69 40 63 41 65 42 25 43 68 44 62 45 61 46
REMARK SMILES IDX 26 48 52 49 35 50 51 51 36 52 39 53 50 54 66 55 37 56 38 57
REMARK SMILES IDX 49 59 67 60 40 61 27 62 28 63 33 64 29 65 30 66 32 67 34 68
REMARK SMILES IDX 31 69 53 70 54 71 59 72 55 73 56 74 58 75 60 76 57 77 41 78
REMARK SMILES IDX 42 79 47 80 43 81 44 82 46 83 48 84 45 85
REMARK H PARENT 10 6 78 23 15 28 65 47 39 58
REMARK Flexibility Score: inf
ROOT
ATOM      1  C   UNL A   1      37.912  23.850  26.057  1.00  0.00     0.023 C 
ENDROOT
BRANCH   1   2
ATOM      2  C   UNL A   1      36.423  23.735  25.751  1.00  0.00     0.116 C 
BRANCH   2   3
ATOM      3  N   UNL A   1      36.054  23.289  24.433  1.00  0.00    -0.356 N 
ATOM      4  C   UNL A   1      34.953  23.627  23.700  1.00  0.00     0.223 C 
ATOM      5  O   UNL A   1      34.915  23.155  22.555  1.00  0.00    -0.275 OA
ATOM      6  H   UNL A   1      36.678  22.659  24.004  1.00  0.00     0.163 HD
BRANCH   4   7
ATOM      7  C   UNL A   1      33.773  24.485  24.268  1.00  0.00     0.088 C 
BRANCH   7   8
ATOM      8  C   UNL A   1      33.685  25.889  23.592  1.00  0.00     0.049 C 
BRANCH   8   9
ATOM      9  C   UNL A   1      33.634  27.096  24.511  1.00  0.00    -0.047 A 
ATOM     10  C   UNL A   1      32.611  30.338  27.159  1.00  0.00     0.044 C 
ATOM     11  C   UNL A   1      33.109  29.248  26.254  1.00  0.00    -0.051 A 
ATOM     12  C   UNL A   1      33.137  29.448  24.870  1.00  0.00     0.004 A 
ATOM     13  C   UNL A   1      33.455  27.992  26.765  1.00  0.00     0.004 A 
ATOM     14  C   UNL A   1      33.426  28.388  24.005  1.00  0.00     0.004 A 
ATOM     15  C   UNL A   1      33.738  26.928  25.899  1.00  0.00     0.004 A 
ENDBRANCH   8   9
ENDBRANCH   7   8
BRANCH   7  16
ATOM     16  C   UNL A   1      32.434  23.640  24.078  1.00  0.00     0.030 C 
ATOM     17  C   UNL A   1      31.089  24.397  24.090  1.00  0.00     0.007 C 
ATOM     18  C   UNL A   1      32.326  22.465  25.090  1.00  0.00     0.118 C 
ATOM     19  C   UNL A   1      30.696  24.894  25.476  1.00  0.00     0.001 C 
ATOM     20  C   UNL A   1      31.889  22.920  26.488  1.00  0.00     0.032 C 
ATOM     21  C   UNL A   1      30.600  23.732  26.456  1.00  0.00     0.003 C 
BRANCH  18  22
ATOM     22  O   UNL A   1      33.553  21.758  25.217  1.00  0.00    -0.393 OA
ATOM     23  H   UNL A   1      33.447  21.038  25.858  1.00  0.00     0.210 HD
ENDBRANCH  18  22
ENDBRANCH   7  16
ENDBRANCH   4   7
ENDBRANCH   2   3
ENDBRANCH   1   2
BRANCH   1  24
ATOM     24  C   UNL A   1      38.671  22.525  26.132  1.00  0.00     0.023 C 
BRANCH  24  25
ATOM     25  C   UNL A   1      40.170  22.631  26.427  1.00  0.00     0.116 C 
BRANCH  25  26
ATOM     26  N   UNL A   1      40.963  21.623  25.712  1.00  0.00    -0.352 N 
ATOM     27  C   UNL A   1      42.271  21.181  25.872  1.00  0.00     0.251 C 
ATOM     28  H   UNL A   1      40.477  21.177  24.981  1.00  0.00     0.163 HD
ATOM     29  O   UNL A   1      42.667  20.194  25.276  1.00  0.00    -0.269 OA
BRANCH  27  30
ATOM     30  C   UNL A   1      43.135  21.826  26.888  1.00  0.00     0.039 A 
ATOM     31  C   UNL A   1      42.769  21.674  28.230  1.00  0.00     0.014 A 
ATOM     32  C   UNL A   1      43.987  22.843  26.495  1.00  0.00     0.014 A 
ATOM     33  C   UNL A   1      42.943  22.751  29.090  1.00  0.00     0.010 A 
ATOM     34  C   UNL A   1      44.020  23.965  27.296  1.00  0.00     0.010 A 
ATOM     35  C   UNL A   1      43.411  23.949  28.561  1.00  0.00    -0.014 A 
BRANCH  35  36
ATOM     36  C   UNL A   1      43.187  25.252  29.190  1.00  0.00     0.031 A 
ATOM     37  C   UNL A   1      42.026  26.069  28.772  1.00  0.00     0.074 A 
ATOM     38  C   UNL A   1      43.971  25.659  30.216  1.00  0.00     0.049 A 
ATOM     39  N   UNL A   1      41.817  27.294  29.112  1.00  0.00    -0.248 NA
ATOM     40  C   UNL A   1      41.015  25.551  27.861  1.00  0.00     0.031 C 
ATOM     41  C   UNL A   1      43.715  26.755  31.149  1.00  0.00     0.029 A 
ATOM     42  N   UNL A   1      45.302  25.290  30.476  1.00  0.00    -0.354 N 
ATOM     43  C   UNL A   1      40.572  27.662  28.654  1.00  0.00     0.074 A 
ATOM     44  C   UNL A   1      40.122  26.540  27.869  1.00  0.00     0.031 C 
ATOM     45  C   UNL A   1      44.885  27.180  31.647  1.00  0.00     0.029 A 
ATOM     46  C   UNL A   1      45.938  26.466  30.949  1.00  0.00     0.049 A 
ATOM     47  H   UNL A   1      45.708  24.402  30.356  1.00  0.00     0.167 HD
ATOM     48  C   UNL A   1      40.042  28.853  29.057  1.00  0.00     0.037 A 
ATOM     49  C   UNL A   1      46.934  27.057  30.228  1.00  0.00     0.037 A 
ATOM     50  C   UNL A   1      41.062  29.683  29.701  1.00  0.00     0.049 A 
ATOM     51  C   UNL A   1      46.611  28.445  29.707  1.00  0.00     0.074 A 
ATOM     52  C   UNL A   1      41.440  29.950  31.006  1.00  0.00     0.029 A 
ATOM     53  N   UNL A   1      42.090  30.159  28.905  1.00  0.00    -0.354 N 
ATOM     54  N   UNL A   1      45.476  29.064  29.885  1.00  0.00    -0.248 NA
ATOM     55  C   UNL A   1      47.529  29.197  28.847  1.00  0.00     0.031 C 
ATOM     56  C   UNL A   1      42.748  30.523  30.979  1.00  0.00     0.029 A 
ATOM     57  C   UNL A   1      43.152  30.616  29.659  1.00  0.00     0.049 A 
ATOM     58  H   UNL A   1      42.066  30.170  27.920  1.00  0.00     0.167 HD
ATOM     59  C   UNL A   1      45.465  30.202  29.123  1.00  0.00     0.074 A 
ATOM     60  C   UNL A   1      46.778  30.258  28.509  1.00  0.00     0.031 C 
ATOM     61  C   UNL A   1      44.373  31.003  28.977  1.00  0.00     0.037 A 
BRANCH  48  62
ATOM     62  C   UNL A   1      38.568  29.198  29.021  1.00  0.00     0.057 A 
ATOM     63  C   UNL A   1      37.988  29.698  27.838  1.00  0.00     0.134 A 
ATOM     64  C   UNL A   1      37.679  29.145  30.110  1.00  0.00     0.134 A 
ATOM     65  F   UNL A   1      38.668  29.741  26.685  1.00  0.00    -0.206 F 
ATOM     66  C   UNL A   1      36.675  30.190  27.777  1.00  0.00     0.040 A 
ATOM     67  C   UNL A   1      36.385  29.684  30.080  1.00  0.00     0.040 A 
ATOM     68  F   UNL A   1      37.977  28.508  31.244  1.00  0.00    -0.206 F 
ATOM     69  C   UNL A   1      35.879  30.220  28.910  1.00  0.00     0.006 A 
ENDBRANCH  48  62
BRANCH  49  70
ATOM     70  C   UNL A   1      47.806  26.076  29.531  1.00  0.00     0.057 A 
ATOM     71  C   UNL A   1      47.560  25.795  28.177  1.00  0.00     0.134 A 
ATOM     72  C   UNL A   1      49.042  25.687  30.051  1.00  0.00     0.134 A 
ATOM     73  F   UNL A   1      46.391  26.144  27.615  1.00  0.00    -0.206 F 
ATOM     74  C   UNL A   1      48.542  25.247  27.349  1.00  0.00     0.040 A 
ATOM     75  C   UNL A   1      50.031  25.129  29.233  1.00  0.00     0.040 A 
ATOM     76  F   UNL A   1      49.359  25.947  31.327  1.00  0.00    -0.206 F 
ATOM     77  C   UNL A   1      49.795  24.943  27.872  1.00  0.00     0.006 A 
ENDBRANCH  49  70
BRANCH  61  78
ATOM     78  C   UNL A   1      44.409  32.229  28.125  1.00  0.00     0.057 A 
ATOM     79  C   UNL A   1      44.120  32.177  26.755  1.00  0.00     0.134 A 
ATOM     80  C   UNL A   1      44.838  33.468  28.629  1.00  0.00     0.134 A 
ATOM     81  F   UNL A   1      43.713  31.033  26.184  1.00  0.00    -0.206 F 
ATOM     82  C   UNL A   1      44.248  33.298  25.931  1.00  0.00     0.040 A 
ATOM     83  C   UNL A   1      45.007  34.586  27.809  1.00  0.00     0.040 A 
ATOM     84  F   UNL A   1      45.092  33.636  29.935  1.00  0.00    -0.206 F 
ATOM     85  C   UNL A   1      44.708  34.503  26.454  1.00  0.00     0.006 A 
ENDBRANCH  61  78
ENDBRANCH  35  36
ENDBRANCH  27  30
ENDBRANCH  25  26
ENDBRANCH  24  25
ENDBRANCH   1  24
TORSDOF 15
ENDMDL
MODEL 3
REMARK VINA RESULT:     -12.0      3.998      9.174
REMARK SMILES Cc1ccc(C[C@H](C(=O)NCCCCNC(=O)c2ccc(-c3c4nc(c(-c5c(F)cccc5F)c5ccc([nH]5)c(-c5c(F)cccc5F)c5nc(c(-c6c(F)cccc6F)c6ccc3[nH]6)C=C5)C=C4)cc2)[C@@H]2CCCC[C@@H]2O)cc1
REMARK SMILES IDX 12 1 11 2 10 3 8 4 9 5 7 7 6 8 5 9 1 10 2 11 3 12 80 13 4 14
REMARK SMILES IDX 79 15 72 16 73 17 77 18 74 19 76 20 75 21 78 22 13 24 14 25
REMARK SMILES IDX 15 26 16 27 17 29 18 30 19 31 71 32 20 33 70 34 21 35 22 36
REMARK SMILES IDX 23 37 64 38 24 39 69 40 63 41 65 42 25 43 68 44 62 45 61 46
REMARK SMILES IDX 26 48 52 49 35 50 51 51 36 52 39 53 50 54 66 55 37 56 38 57
REMARK SMILES IDX 49 59 67 60 40 61 27 62 28 63 33 64 29 65 30 66 32 67 34 68
REMARK SMILES IDX 31 69 53 70 54 71 59 72 55 73 56 74 58 75 60 76 57 77 41 78
REMARK SMILES IDX 42 79 47 80 43 81 44 82 46 83 48 84 45 85
REMARK H PARENT 10 6 78 23 15 28 65 47 39 58
REMARK Flexibility Score: inf
ROOT
ATOM      1  C   UNL A   1      37.805  23.009  25.737  1.00  0.00     0.023 C 
ENDROOT
BRANCH   1   2
ATOM      2  C   UNL A   1      36.480  22.271  25.588  1.00  0.00     0.116 C 
BRANCH   2   3
ATOM      3  N   UNL A   1      35.553  22.354  26.685  1.00  0.00    -0.356 N 
ATOM      4  C   UNL A   1      34.190  22.444  26.642  1.00  0.00     0.223 C 
ATOM      5  O   UNL A   1      33.624  22.425  27.743  1.00  0.00    -0.275 OA
ATOM      6  H   UNL A   1      35.953  22.343  27.585  1.00  0.00     0.163 HD
BRANCH   4   7
ATOM      7  C   UNL A   1      33.385  22.634  25.313  1.00  0.00     0.088 C 
BRANCH   7   8
ATOM      8  C   UNL A   1      32.384  21.465  25.057  1.00  0.00     0.049 C 
BRANCH   8   9
ATOM      9  C   UNL A   1      32.947  20.194  24.447  1.00  0.00    -0.047 A 
ATOM     10  C   UNL A   1      34.084  16.180  23.369  1.00  0.00     0.044 C 
ATOM     11  C   UNL A   1      33.760  17.624  23.623  1.00  0.00    -0.051 A 
ATOM     12  C   UNL A   1      34.565  18.381  24.481  1.00  0.00     0.004 A 
ATOM     13  C   UNL A   1      32.601  18.204  23.093  1.00  0.00     0.004 A 
ATOM     14  C   UNL A   1      34.177  19.668  24.867  1.00  0.00     0.004 A 
ATOM     15  C   UNL A   1      32.209  19.490  23.484  1.00  0.00     0.004 A 
ENDBRANCH   8   9
ENDBRANCH   7   8
BRANCH   7  16
ATOM     16  C   UNL A   1      32.651  24.048  25.398  1.00  0.00     0.030 C 
ATOM     17  C   UNL A   1      31.165  24.121  24.991  1.00  0.00     0.007 C 
ATOM     18  C   UNL A   1      33.412  25.158  24.620  1.00  0.00     0.118 C 
ATOM     19  C   UNL A   1      30.950  23.989  23.487  1.00  0.00     0.001 C 
ATOM     20  C   UNL A   1      33.186  25.086  23.104  1.00  0.00     0.032 C 
ATOM     21  C   UNL A   1      31.706  25.080  22.740  1.00  0.00     0.003 C 
BRANCH  18  22
ATOM     22  O   UNL A   1      34.812  25.114  24.862  1.00  0.00    -0.393 OA
ATOM     23  H   UNL A   1      35.092  25.935  25.295  1.00  0.00     0.210 HD
ENDBRANCH  18  22
ENDBRANCH   7  16
ENDBRANCH   4   7
ENDBRANCH   2   3
ENDBRANCH   1   2
BRANCH   1  24
ATOM     24  C   UNL A   1      39.008  22.134  26.092  1.00  0.00     0.023 C 
BRANCH  24  25
ATOM     25  C   UNL A   1      39.834  22.592  27.297  1.00  0.00     0.116 C 
BRANCH  25  26
ATOM     26  N   UNL A   1      41.146  23.132  26.915  1.00  0.00    -0.352 N 
ATOM     27  C   UNL A   1      41.597  24.432  26.720  1.00  0.00     0.251 C 
ATOM     28  H   UNL A   1      41.834  22.444  26.771  1.00  0.00     0.163 HD
ATOM     29  O   UNL A   1      42.788  24.658  26.583  1.00  0.00    -0.269 OA
BRANCH  27  30
ATOM     30  C   UNL A   1      40.639  25.557  26.833  1.00  0.00     0.039 A 
ATOM     31  C   UNL A   1      40.930  26.720  26.113  1.00  0.00     0.014 A 
ATOM     32  C   UNL A   1      39.759  25.583  27.900  1.00  0.00     0.014 A 
ATOM     33  C   UNL A   1      40.646  27.949  26.697  1.00  0.00     0.010 A 
ATOM     34  C   UNL A   1      39.618  26.790  28.554  1.00  0.00     0.010 A 
ATOM     35  C   UNL A   1      40.148  27.963  27.995  1.00  0.00    -0.014 A 
BRANCH  35  36
ATOM     36  C   UNL A   1      40.263  29.114  28.892  1.00  0.00     0.031 A 
ATOM     37  C   UNL A   1      39.196  30.140  28.897  1.00  0.00     0.074 A 
ATOM     38  C   UNL A   1      41.281  29.187  29.782  1.00  0.00     0.049 A 
ATOM     39  N   UNL A   1      39.259  31.277  29.500  1.00  0.00    -0.248 NA
ATOM     40  C   UNL A   1      37.961  29.961  28.146  1.00  0.00     0.031 C 
ATOM     41  C   UNL A   1      41.388  30.076  30.938  1.00  0.00     0.029 A 
ATOM     42  N   UNL A   1      42.557  28.610  29.673  1.00  0.00    -0.354 N 
ATOM     43  C   UNL A   1      38.028  31.886  29.400  1.00  0.00     0.074 A 
ATOM     44  C   UNL A   1      37.261  31.028  28.534  1.00  0.00     0.031 C 
ATOM     45  C   UNL A   1      42.684  30.235  31.242  1.00  0.00     0.029 A 
ATOM     46  C   UNL A   1      43.455  29.566  30.210  1.00  0.00     0.049 A 
ATOM     47  H   UNL A   1      42.781  27.727  29.302  1.00  0.00     0.167 HD
ATOM     48  C   UNL A   1      37.787  33.016  30.126  1.00  0.00     0.037 A 
ATOM     49  C   UNL A   1      44.383  30.173  29.415  1.00  0.00     0.037 A 
ATOM     50  C   UNL A   1      39.032  33.554  30.679  1.00  0.00     0.049 A 
ATOM     51  C   UNL A   1      44.203  31.670  29.249  1.00  0.00     0.074 A 
ATOM     52  C   UNL A   1      39.685  33.480  31.897  1.00  0.00     0.029 A 
ATOM     53  N   UNL A   1      39.958  34.061  29.784  1.00  0.00    -0.354 N 
ATOM     54  N   UNL A   1      43.239  32.371  29.782  1.00  0.00    -0.248 NA
ATOM     55  C   UNL A   1      45.055  32.474  28.368  1.00  0.00     0.031 C 
ATOM     56  C   UNL A   1      41.042  33.880  31.696  1.00  0.00     0.029 A 
ATOM     57  C   UNL A   1      41.202  34.209  30.362  1.00  0.00     0.049 A 
ATOM     58  H   UNL A   1      39.753  34.290  28.848  1.00  0.00     0.167 HD
ATOM     59  C   UNL A   1      43.275  33.640  29.269  1.00  0.00     0.074 A 
ATOM     60  C   UNL A   1      44.441  33.667  28.407  1.00  0.00     0.031 C 
ATOM     61  C   UNL A   1      42.322  34.581  29.518  1.00  0.00     0.037 A 
BRANCH  48  62
ATOM     62  C   UNL A   1      36.410  33.539  30.476  1.00  0.00     0.057 A 
ATOM     63  C   UNL A   1      35.557  34.019  29.462  1.00  0.00     0.134 A 
ATOM     64  C   UNL A   1      35.883  33.679  31.773  1.00  0.00     0.134 A 
ATOM     65  F   UNL A   1      35.867  33.891  28.165  1.00  0.00    -0.206 F 
ATOM     66  C   UNL A   1      34.341  34.665  29.726  1.00  0.00     0.040 A 
ATOM     67  C   UNL A   1      34.697  34.372  32.056  1.00  0.00     0.040 A 
ATOM     68  F   UNL A   1      36.439  33.095  32.836  1.00  0.00    -0.206 F 
ATOM     69  C   UNL A   1      33.923  34.879  31.029  1.00  0.00     0.006 A 
ENDBRANCH  48  62
BRANCH  49  70
ATOM     70  C   UNL A   1      44.936  29.269  28.374  1.00  0.00     0.057 A 
ATOM     71  C   UNL A   1      45.923  28.338  28.742  1.00  0.00     0.134 A 
ATOM     72  C   UNL A   1      44.292  29.069  27.151  1.00  0.00     0.134 A 
ATOM     73  F   UNL A   1      46.578  28.473  29.906  1.00  0.00    -0.206 F 
ATOM     74  C   UNL A   1      46.182  27.199  27.976  1.00  0.00     0.040 A 
ATOM     75  C   UNL A   1      44.549  27.937  26.372  1.00  0.00     0.040 A 
ATOM     76  F   UNL A   1      43.321  29.899  26.748  1.00  0.00    -0.206 F 
ATOM     77  C   UNL A   1      45.469  26.981  26.801  1.00  0.00     0.006 A 
ENDBRANCH  49  70
BRANCH  61  78
ATOM     78  C   UNL A   1      42.400  35.950  28.926  1.00  0.00     0.057 A 
ATOM     79  C   UNL A   1      41.882  36.229  27.654  1.00  0.00     0.134 A 
ATOM     80  C   UNL A   1      43.091  36.994  29.563  1.00  0.00     0.134 A 
ATOM     81  F   UNL A   1      41.216  35.289  26.966  1.00  0.00    -0.206 F 
ATOM     82  C   UNL A   1      42.039  37.479  27.050  1.00  0.00     0.040 A 
ATOM     83  C   UNL A   1      43.288  38.236  28.955  1.00  0.00     0.040 A 
ATOM     84  F   UNL A   1      43.583  36.846  30.803  1.00  0.00    -0.206 F 
ATOM     85  C   UNL A   1      42.758  38.482  27.694  1.00  0.00     0.006 A 
ENDBRANCH  61  78
ENDBRANCH  35  36
ENDBRANCH  27  30
ENDBRANCH  25  26
ENDBRANCH  24  25
ENDBRANCH   1  24
TORSDOF 15
ENDMDL
