MODEL 1
REMARK VINA RESULT:     -11.5      0.000      0.000
REMARK SMILES O=C(Cn1c(SCCOc2ccccc2Cl)nc2ccccc21)NCCCCNC(=O)c1ccc(-c2c3nc(c(-c4c(F)cccc4F)c4ccc([nH]4)c(-c4c(F)cccc4F)c4nc(c(-c5c(F)cccc5F)c5ccc2[nH]5)C=C4)C=C3)cc1
REMARK SMILES IDX 1 1 2 2 24 3 3 5 4 6 5 7 23 8 17 9 18 10 22 11 19 12 21 13
REMARK SMILES IDX 20 14 6 15 7 16 8 17 9 18 10 19 11 20 15 21 12 22 14 23
REMARK SMILES IDX 16 24 13 25 25 26 26 27 27 28 28 29 29 30 30 31 31 33 32 34
REMARK SMILES IDX 33 35 85 36 34 37 84 38 35 39 36 40 37 41 78 42 38 43 83 44
REMARK SMILES IDX 77 45 79 46 39 47 82 48 76 49 75 50 40 52 66 53 49 54 65 55
REMARK SMILES IDX 50 56 53 57 64 58 80 59 51 60 52 61 63 63 81 64 54 65 41 66
REMARK SMILES IDX 42 67 47 68 43 69 44 70 46 71 48 72 45 73 67 74 68 75 73 76
REMARK SMILES IDX 69 77 70 78 72 79 74 80 71 81 55 82 56 83 61 84 57 85 58 86
REMARK SMILES IDX 60 87 62 88 59 89
REMARK H PARENT 24 4 29 32 79 51 53 62
REMARK Flexibility Score: inf
ROOT
ATOM      1  O   UNL A   1      31.750  28.717  26.029  1.00  0.00    -0.273 OA
ATOM      2  C   UNL A   1      32.657  29.040  25.279  1.00  0.00     0.240 C 
ATOM      3  N   UNL A   1      33.961  29.229  25.687  1.00  0.00    -0.355 N 
ATOM      4  H   UNL A   1      34.667  29.345  25.009  1.00  0.00     0.163 HD
ENDROOT
BRANCH   2   5
ATOM      5  C   UNL A   1      32.463  29.282  23.805  1.00  0.00     0.224 C 
BRANCH   5   6
ATOM      6  N   UNL A   1      31.160  28.855  23.355  1.00  0.00    -0.309 N 
ATOM      7  C   UNL A   1      30.800  27.683  22.737  1.00  0.00     0.169 A 
ATOM      8  C   UNL A   1      30.022  29.649  23.431  1.00  0.00     0.069 A 
ATOM      9  N   UNL A   1      29.490  27.611  22.594  1.00  0.00    -0.222 NA
ATOM     10  C   UNL A   1      28.995  28.823  22.994  1.00  0.00     0.090 A 
ATOM     11  C   UNL A   1      29.795  30.982  23.807  1.00  0.00     0.028 A 
ATOM     12  C   UNL A   1      27.677  29.312  22.972  1.00  0.00     0.030 A 
ATOM     13  C   UNL A   1      28.480  31.460  23.762  1.00  0.00     0.002 A 
ATOM     14  C   UNL A   1      27.433  30.636  23.360  1.00  0.00     0.002 A 
BRANCH   7  15
ATOM     15  S   UNL A   1      31.811  26.386  22.185  1.00  0.00    -0.084 SA
BRANCH  15  16
ATOM     16  C   UNL A   1      32.533  25.455  23.566  1.00  0.00     0.119 C 
BRANCH  16  17
ATOM     17  C   UNL A   1      32.434  23.926  23.727  1.00  0.00     0.241 C 
BRANCH  17  18
ATOM     18  O   UNL A   1      33.139  23.347  24.821  1.00  0.00    -0.491 OA
BRANCH  18  19
ATOM     19  C   UNL A   1      34.421  22.896  24.609  1.00  0.00     0.137 A 
ATOM     20  C   UNL A   1      35.101  23.024  23.395  1.00  0.00     0.048 A 
ATOM     21  C   UNL A   1      35.125  22.409  25.725  1.00  0.00     0.083 A 
ATOM     22  C   UNL A   1      36.477  22.798  23.325  1.00  0.00     0.004 A 
ATOM     23  C   UNL A   1      36.499  22.165  25.648  1.00  0.00     0.024 A 
ATOM     24  Cl  UNL A   1      34.346  22.158  27.251  1.00  0.00    -0.080 Cl
ATOM     25  C   UNL A   1      37.180  22.391  24.453  1.00  0.00     0.002 A 
ENDBRANCH  18  19
ENDBRANCH  17  18
ENDBRANCH  16  17
ENDBRANCH  15  16
ENDBRANCH   7  15
ENDBRANCH   5   6
ENDBRANCH   2   5
BRANCH   3  26
ATOM     26  C   UNL A   1      34.313  29.259  27.083  1.00  0.00     0.116 C 
BRANCH  26  27
ATOM     27  C   UNL A   1      34.897  30.609  27.474  1.00  0.00     0.023 C 
BRANCH  27  28
ATOM     28  C   UNL A   1      33.876  31.640  27.972  1.00  0.00     0.023 C 
BRANCH  28  29
ATOM     29  C   UNL A   1      34.468  32.838  28.717  1.00  0.00     0.116 C 
BRANCH  29  30
ATOM     30  N   UNL A   1      34.505  32.688  30.152  1.00  0.00    -0.352 N 
ATOM     31  C   UNL A   1      35.367  32.110  31.038  1.00  0.00     0.251 C 
ATOM     32  H   UNL A   1      33.728  33.099  30.595  1.00  0.00     0.163 HD
ATOM     33  O   UNL A   1      35.137  32.319  32.231  1.00  0.00    -0.269 OA
BRANCH  31  34
ATOM     34  C   UNL A   1      36.481  31.195  30.677  1.00  0.00     0.039 A 
ATOM     35  C   UNL A   1      36.422  29.802  30.654  1.00  0.00     0.014 A 
ATOM     36  C   UNL A   1      37.717  31.820  30.425  1.00  0.00     0.014 A 
ATOM     37  C   UNL A   1      37.590  29.058  30.542  1.00  0.00     0.010 A 
ATOM     38  C   UNL A   1      38.884  31.082  30.283  1.00  0.00     0.010 A 
ATOM     39  C   UNL A   1      38.826  29.702  30.413  1.00  0.00    -0.014 A 
BRANCH  39  40
ATOM     40  C   UNL A   1      40.024  28.876  30.325  1.00  0.00     0.031 A 
ATOM     41  C   UNL A   1      40.744  28.722  31.616  1.00  0.00     0.074 A 
ATOM     42  C   UNL A   1      40.436  28.265  29.196  1.00  0.00     0.049 A 
ATOM     43  N   UNL A   1      41.886  29.230  31.943  1.00  0.00    -0.248 NA
ATOM     44  C   UNL A   1      40.043  28.060  32.724  1.00  0.00     0.031 C 
ATOM     45  C   UNL A   1      39.729  28.137  27.918  1.00  0.00     0.029 A 
ATOM     46  N   UNL A   1      41.591  27.572  28.976  1.00  0.00    -0.354 N 
ATOM     47  C   UNL A   1      42.145  28.794  33.239  1.00  0.00     0.074 A 
ATOM     48  C   UNL A   1      40.920  28.211  33.719  1.00  0.00     0.031 C 
ATOM     49  C   UNL A   1      40.376  27.245  27.131  1.00  0.00     0.029 A 
ATOM     50  C   UNL A   1      41.617  26.861  27.782  1.00  0.00     0.049 A 
ATOM     51  H   UNL A   1      42.343  27.575  29.610  1.00  0.00     0.167 HD
ATOM     52  C   UNL A   1      43.418  28.749  33.720  1.00  0.00     0.037 A 
ATOM     53  C   UNL A   1      42.588  26.012  27.360  1.00  0.00     0.037 A 
ATOM     54  C   UNL A   1      44.299  29.565  32.922  1.00  0.00     0.049 A 
ATOM     55  C   UNL A   1      43.825  26.360  28.091  1.00  0.00     0.074 A 
ATOM     56  C   UNL A   1      44.448  30.912  32.667  1.00  0.00     0.029 A 
ATOM     57  N   UNL A   1      45.013  28.911  31.953  1.00  0.00    -0.354 N 
ATOM     58  N   UNL A   1      44.483  27.468  27.905  1.00  0.00    -0.248 NA
ATOM     59  C   UNL A   1      44.115  25.661  29.331  1.00  0.00     0.031 C 
ATOM     60  C   UNL A   1      44.901  30.991  31.316  1.00  0.00     0.029 A 
ATOM     61  C   UNL A   1      45.048  29.692  30.830  1.00  0.00     0.049 A 
ATOM     62  H   UNL A   1      45.432  28.025  32.048  1.00  0.00     0.167 HD
ATOM     63  C   UNL A   1      44.919  27.832  29.169  1.00  0.00     0.074 A 
ATOM     64  C   UNL A   1      44.780  26.623  29.977  1.00  0.00     0.031 C 
ATOM     65  C   UNL A   1      45.082  29.149  29.492  1.00  0.00     0.037 A 
BRANCH  52  66
ATOM     66  C   UNL A   1      43.957  27.634  34.596  1.00  0.00     0.057 A 
ATOM     67  C   UNL A   1      44.220  27.760  35.975  1.00  0.00     0.134 A 
ATOM     68  C   UNL A   1      43.878  26.307  34.127  1.00  0.00     0.134 A 
ATOM     69  F   UNL A   1      44.296  28.943  36.592  1.00  0.00    -0.206 F 
ATOM     70  C   UNL A   1      44.321  26.659  36.831  1.00  0.00     0.040 A 
ATOM     71  C   UNL A   1      43.933  25.201  34.983  1.00  0.00     0.040 A 
ATOM     72  F   UNL A   1      43.648  26.046  32.831  1.00  0.00    -0.206 F 
ATOM     73  C   UNL A   1      44.136  25.375  36.345  1.00  0.00     0.006 A 
ENDBRANCH  52  66
BRANCH  53  74
ATOM     74  C   UNL A   1      42.466  24.768  26.570  1.00  0.00     0.057 A 
ATOM     75  C   UNL A   1      41.814  23.644  27.102  1.00  0.00     0.134 A 
ATOM     76  C   UNL A   1      43.228  24.548  25.413  1.00  0.00     0.134 A 
ATOM     77  F   UNL A   1      41.124  23.728  28.249  1.00  0.00    -0.206 F 
ATOM     78  C   UNL A   1      41.925  22.371  26.531  1.00  0.00     0.040 A 
ATOM     79  C   UNL A   1      43.350  23.278  24.831  1.00  0.00     0.040 A 
ATOM     80  F   UNL A   1      43.928  25.549  24.858  1.00  0.00    -0.206 F 
ATOM     81  C   UNL A   1      42.706  22.182  25.397  1.00  0.00     0.006 A 
ENDBRANCH  53  74
BRANCH  65  82
ATOM     82  C   UNL A   1      45.077  30.130  28.352  1.00  0.00     0.057 A 
ATOM     83  C   UNL A   1      46.298  30.520  27.796  1.00  0.00     0.134 A 
ATOM     84  C   UNL A   1      43.925  30.763  27.863  1.00  0.00     0.134 A 
ATOM     85  F   UNL A   1      47.446  29.998  28.255  1.00  0.00    -0.206 F 
ATOM     86  C   UNL A   1      46.374  31.482  26.786  1.00  0.00     0.040 A 
ATOM     87  C   UNL A   1      43.982  31.703  26.829  1.00  0.00     0.040 A 
ATOM     88  F   UNL A   1      42.721  30.523  28.397  1.00  0.00    -0.206 F 
ATOM     89  C   UNL A   1      45.211  32.068  26.289  1.00  0.00     0.006 A 
ENDBRANCH  65  82
ENDBRANCH  39  40
ENDBRANCH  31  34
ENDBRANCH  29  30
ENDBRANCH  28  29
ENDBRANCH  27  28
ENDBRANCH  26  27
ENDBRANCH   3  26
TORSDOF 17
ENDMDL
MODEL 2
REMARK VINA RESULT:     -11.4      2.395      4.192
REMARK SMILES O=C(Cn1c(SCCOc2ccccc2Cl)nc2ccccc21)NCCCCNC(=O)c1ccc(-c2c3nc(c(-c4c(F)cccc4F)c4ccc([nH]4)c(-c4c(F)cccc4F)c4nc(c(-c5c(F)cccc5F)c5ccc2[nH]5)C=C4)C=C3)cc1
REMARK SMILES IDX 1 1 2 2 24 3 3 5 4 6 5 7 23 8 17 9 18 10 22 11 19 12 21 13
REMARK SMILES IDX 20 14 6 15 7 16 8 17 9 18 10 19 11 20 15 21 12 22 14 23
REMARK SMILES IDX 16 24 13 25 25 26 26 27 27 28 28 29 29 30 30 31 31 33 32 34
REMARK SMILES IDX 33 35 85 36 34 37 84 38 35 39 36 40 37 41 78 42 38 43 83 44
REMARK SMILES IDX 77 45 79 46 39 47 82 48 76 49 75 50 40 52 66 53 49 54 65 55
REMARK SMILES IDX 50 56 53 57 64 58 80 59 51 60 52 61 63 63 81 64 54 65 41 66
REMARK SMILES IDX 42 67 47 68 43 69 44 70 46 71 48 72 45 73 67 74 68 75 73 76
REMARK SMILES IDX 69 77 70 78 72 79 74 80 71 81 55 82 56 83 61 84 57 85 58 86
REMARK SMILES IDX 60 87 62 88 59 89
REMARK H PARENT 24 4 29 32 79 51 53 62
REMARK Flexibility Score: inf
ROOT
ATOM      1  O   UNL A   1      33.328  24.628  26.487  1.00  0.00    -0.273 OA
ATOM      2  C   UNL A   1      33.680  25.571  25.798  1.00  0.00     0.240 C 
ATOM      3  N   UNL A   1      33.105  26.823  25.855  1.00  0.00    -0.355 N 
ATOM      4  H   UNL A   1      33.532  27.573  25.379  1.00  0.00     0.163 HD
ENDROOT
BRANCH   2   5
ATOM      5  C   UNL A   1      34.792  25.483  24.784  1.00  0.00     0.224 C 
BRANCH   5   6
ATOM      6  N   UNL A   1      35.237  24.124  24.589  1.00  0.00    -0.309 N 
ATOM      7  C   UNL A   1      34.620  23.101  23.914  1.00  0.00     0.169 A 
ATOM      8  C   UNL A   1      36.400  23.608  25.149  1.00  0.00     0.069 A 
ATOM      9  N   UNL A   1      35.401  22.040  23.851  1.00  0.00    -0.222 NA
ATOM     10  C   UNL A   1      36.494  22.325  24.627  1.00  0.00     0.090 A 
ATOM     11  C   UNL A   1      37.345  24.113  26.055  1.00  0.00     0.028 A 
ATOM     12  C   UNL A   1      37.592  21.517  24.972  1.00  0.00     0.030 A 
ATOM     13  C   UNL A   1      38.423  23.291  26.402  1.00  0.00     0.002 A 
ATOM     14  C   UNL A   1      38.553  22.014  25.863  1.00  0.00     0.002 A 
BRANCH   7  15
ATOM     15  S   UNL A   1      33.049  23.071  23.178  1.00  0.00    -0.084 SA
BRANCH  15  16
ATOM     16  C   UNL A   1      32.228  21.467  23.398  1.00  0.00     0.119 C 
BRANCH  16  17
ATOM     17  C   UNL A   1      32.299  20.625  24.685  1.00  0.00     0.241 C 
BRANCH  17  18
ATOM     18  O   UNL A   1      31.837  19.280  24.601  1.00  0.00    -0.491 OA
BRANCH  18  19
ATOM     19  C   UNL A   1      32.767  18.268  24.578  1.00  0.00     0.137 A 
ATOM     20  C   UNL A   1      33.317  17.688  25.724  1.00  0.00     0.048 A 
ATOM     21  C   UNL A   1      33.066  17.698  23.327  1.00  0.00     0.083 A 
ATOM     22  C   UNL A   1      34.038  16.496  25.641  1.00  0.00     0.004 A 
ATOM     23  C   UNL A   1      33.805  16.514  23.244  1.00  0.00     0.024 A 
ATOM     24  Cl  UNL A   1      32.482  18.388  21.851  1.00  0.00    -0.080 Cl
ATOM     25  C   UNL A   1      34.264  15.896  24.407  1.00  0.00     0.002 A 
ENDBRANCH  18  19
ENDBRANCH  17  18
ENDBRANCH  16  17
ENDBRANCH  15  16
ENDBRANCH   7  15
ENDBRANCH   5   6
ENDBRANCH   2   5
BRANCH   3  26
ATOM     26  C   UNL A   1      31.893  27.058  26.597  1.00  0.00     0.116 C 
BRANCH  26  27
ATOM     27  C   UNL A   1      32.063  28.207  27.580  1.00  0.00     0.023 C 
BRANCH  27  28
ATOM     28  C   UNL A   1      32.518  29.534  26.956  1.00  0.00     0.023 C 
BRANCH  28  29
ATOM     29  C   UNL A   1      33.935  29.975  27.324  1.00  0.00     0.116 C 
BRANCH  29  30
ATOM     30  N   UNL A   1      33.994  31.113  28.210  1.00  0.00    -0.352 N 
ATOM     31  C   UNL A   1      34.963  31.680  28.987  1.00  0.00     0.251 C 
ATOM     32  H   UNL A   1      33.136  31.593  28.266  1.00  0.00     0.163 HD
ATOM     33  O   UNL A   1      34.677  32.763  29.502  1.00  0.00    -0.269 OA
BRANCH  31  34
ATOM     34  C   UNL A   1      36.269  31.054  29.320  1.00  0.00     0.039 A 
ATOM     35  C   UNL A   1      37.523  31.519  28.926  1.00  0.00     0.014 A 
ATOM     36  C   UNL A   1      36.192  29.837  30.023  1.00  0.00     0.014 A 
ATOM     37  C   UNL A   1      38.645  30.715  29.088  1.00  0.00     0.010 A 
ATOM     38  C   UNL A   1      37.314  29.043  30.215  1.00  0.00     0.010 A 
ATOM     39  C   UNL A   1      38.527  29.454  29.683  1.00  0.00    -0.014 A 
BRANCH  39  40
ATOM     40  C   UNL A   1      39.730  28.640  29.807  1.00  0.00     0.031 A 
ATOM     41  C   UNL A   1      40.268  28.567  31.190  1.00  0.00     0.074 A 
ATOM     42  C   UNL A   1      40.297  27.973  28.781  1.00  0.00     0.049 A 
ATOM     43  N   UNL A   1      41.351  29.108  31.641  1.00  0.00    -0.248 NA
ATOM     44  C   UNL A   1      39.425  27.958  32.228  1.00  0.00     0.031 C 
ATOM     45  C   UNL A   1      39.774  27.765  27.428  1.00  0.00     0.029 A 
ATOM     46  N   UNL A   1      41.475  27.284  28.760  1.00  0.00    -0.354 N 
ATOM     47  C   UNL A   1      41.432  28.748  32.983  1.00  0.00     0.074 A 
ATOM     48  C   UNL A   1      40.155  28.176  33.323  1.00  0.00     0.031 C 
ATOM     49  C   UNL A   1      40.528  26.840  26.789  1.00  0.00     0.029 A 
ATOM     50  C   UNL A   1      41.669  26.508  27.624  1.00  0.00     0.049 A 
ATOM     51  H   UNL A   1      42.134  27.333  29.490  1.00  0.00     0.167 HD
ATOM     52  C   UNL A   1      42.627  28.747  33.636  1.00  0.00     0.037 A 
ATOM     53  C   UNL A   1      42.694  25.651  27.388  1.00  0.00     0.037 A 
ATOM     54  C   UNL A   1      43.604  29.529  32.921  1.00  0.00     0.049 A 
ATOM     55  C   UNL A   1      43.817  26.055  28.259  1.00  0.00     0.074 A 
ATOM     56  C   UNL A   1      43.779  30.862  32.613  1.00  0.00     0.029 A 
ATOM     57  N   UNL A   1      44.449  28.832  32.097  1.00  0.00    -0.354 N 
ATOM     58  N   UNL A   1      44.488  27.160  28.104  1.00  0.00    -0.248 NA
ATOM     59  C   UNL A   1      43.938  25.430  29.566  1.00  0.00     0.031 C 
ATOM     60  C   UNL A   1      44.413  30.872  31.334  1.00  0.00     0.029 A 
ATOM     61  C   UNL A   1      44.633  29.550  30.947  1.00  0.00     0.049 A 
ATOM     62  H   UNL A   1      44.855  27.958  32.299  1.00  0.00     0.167 HD
ATOM     63  C   UNL A   1      44.745  27.599  29.392  1.00  0.00     0.074 A 
ATOM     64  C   UNL A   1      44.502  26.435  30.241  1.00  0.00     0.031 C 
ATOM     65  C   UNL A   1      44.853  28.933  29.659  1.00  0.00     0.037 A 
BRANCH  52  66
ATOM     66  C   UNL A   1      43.047  27.689  34.639  1.00  0.00     0.057 A 
ATOM     67  C   UNL A   1      42.920  27.821  36.036  1.00  0.00     0.134 A 
ATOM     68  C   UNL A   1      43.255  26.371  34.185  1.00  0.00     0.134 A 
ATOM     69  F   UNL A   1      42.687  28.994  36.635  1.00  0.00    -0.206 F 
ATOM     70  C   UNL A   1      42.924  26.725  36.905  1.00  0.00     0.040 A 
ATOM     71  C   UNL A   1      43.216  25.264  35.042  1.00  0.00     0.040 A 
ATOM     72  F   UNL A   1      43.407  26.107  32.878  1.00  0.00    -0.206 F 
ATOM     73  C   UNL A   1      43.030  25.438  36.406  1.00  0.00     0.006 A 
ENDBRANCH  52  66
BRANCH  53  74
ATOM     74  C   UNL A   1      42.689  24.363  26.660  1.00  0.00     0.057 A 
ATOM     75  C   UNL A   1      42.330  23.173  27.315  1.00  0.00     0.134 A 
ATOM     76  C   UNL A   1      43.309  24.216  25.411  1.00  0.00     0.134 A 
ATOM     77  F   UNL A   1      41.804  23.199  28.548  1.00  0.00    -0.206 F 
ATOM     78  C   UNL A   1      42.588  21.910  26.770  1.00  0.00     0.040 A 
ATOM     79  C   UNL A   1      43.575  22.957  24.853  1.00  0.00     0.040 A 
ATOM     80  F   UNL A   1      43.733  25.291  24.730  1.00  0.00    -0.206 F 
ATOM     81  C   UNL A   1      43.224  21.798  25.540  1.00  0.00     0.006 A 
ENDBRANCH  53  74
BRANCH  65  82
ATOM     82  C   UNL A   1      45.000  29.850  28.476  1.00  0.00     0.057 A 
ATOM     83  C   UNL A   1      46.285  30.196  28.048  1.00  0.00     0.134 A 
ATOM     84  C   UNL A   1      43.925  30.467  27.819  1.00  0.00     0.134 A 
ATOM     85  F   UNL A   1      47.362  29.688  28.668  1.00  0.00    -0.206 F 
ATOM     86  C   UNL A   1      46.496  31.099  27.004  1.00  0.00     0.040 A 
ATOM     87  C   UNL A   1      44.119  31.348  26.751  1.00  0.00     0.040 A 
ATOM     88  F   UNL A   1      42.662  30.269  28.219  1.00  0.00    -0.206 F 
ATOM     89  C   UNL A   1      45.410  31.669  26.342  1.00  0.00     0.006 A 
ENDBRANCH  65  82
ENDBRANCH  39  40
ENDBRANCH  31  34
ENDBRANCH  29  30
ENDBRANCH  28  29
ENDBRANCH  27  28
ENDBRANCH  26  27
ENDBRANCH   3  26
TORSDOF 17
ENDMDL
MODEL 3
REMARK VINA RESULT:     -11.2      1.428      2.185
REMARK SMILES O=C(Cn1c(SCCOc2ccccc2Cl)nc2ccccc21)NCCCCNC(=O)c1ccc(-c2c3nc(c(-c4c(F)cccc4F)c4ccc([nH]4)c(-c4c(F)cccc4F)c4nc(c(-c5c(F)cccc5F)c5ccc2[nH]5)C=C4)C=C3)cc1
REMARK SMILES IDX 1 1 2 2 24 3 3 5 4 6 5 7 23 8 17 9 18 10 22 11 19 12 21 13
REMARK SMILES IDX 20 14 6 15 7 16 8 17 9 18 10 19 11 20 15 21 12 22 14 23
REMARK SMILES IDX 16 24 13 25 25 26 26 27 27 28 28 29 29 30 30 31 31 33 32 34
REMARK SMILES IDX 33 35 85 36 34 37 84 38 35 39 36 40 37 41 78 42 38 43 83 44
REMARK SMILES IDX 77 45 79 46 39 47 82 48 76 49 75 50 40 52 66 53 49 54 65 55
REMARK SMILES IDX 50 56 53 57 64 58 80 59 51 60 52 61 63 63 81 64 54 65 41 66
REMARK SMILES IDX 42 67 47 68 43 69 44 70 46 71 48 72 45 73 67 74 68 75 73 76
REMARK SMILES IDX 69 77 70 78 72 79 74 80 71 81 55 82 56 83 61 84 57 85 58 86
REMARK SMILES IDX 60 87 62 88 59 89
REMARK H PARENT 24 4 29 32 79 51 53 62
REMARK Flexibility Score: inf
ROOT
ATOM      1  O   UNL A   1      34.060  27.867  25.994  1.00  0.00    -0.273 OA
ATOM      2  C   UNL A   1      33.426  28.265  26.958  1.00  0.00     0.240 C 
ATOM      3  N   UNL A   1      33.911  29.173  27.875  1.00  0.00    -0.355 N 
ATOM      4  H   UNL A   1      33.298  29.559  28.543  1.00  0.00     0.163 HD
ENDROOT
BRANCH   2   5
ATOM      5  C   UNL A   1      32.027  27.803  27.273  1.00  0.00     0.224 C 
BRANCH   5   6
ATOM      6  N   UNL A   1      31.399  27.170  26.138  1.00  0.00    -0.309 N 
ATOM      7  C   UNL A   1      31.202  25.834  25.894  1.00  0.00     0.169 A 
ATOM      8  C   UNL A   1      30.933  27.867  25.030  1.00  0.00     0.069 A 
ATOM      9  N   UNL A   1      30.478  25.657  24.805  1.00  0.00    -0.222 NA
ATOM     10  C   UNL A   1      30.322  26.898  24.246  1.00  0.00     0.090 A 
ATOM     11  C   UNL A   1      31.000  29.211  24.633  1.00  0.00     0.028 A 
ATOM     12  C   UNL A   1      29.707  27.273  23.039  1.00  0.00     0.030 A 
ATOM     13  C   UNL A   1      30.399  29.566  23.420  1.00  0.00     0.002 A 
ATOM     14  C   UNL A   1      29.752  28.615  22.636  1.00  0.00     0.002 A 
BRANCH   7  15
ATOM     15  S   UNL A   1      31.749  24.465  26.809  1.00  0.00    -0.084 SA
BRANCH  15  16
ATOM     16  C   UNL A   1      33.136  23.619  25.999  1.00  0.00     0.119 C 
BRANCH  16  17
ATOM     17  C   UNL A   1      34.446  24.309  25.577  1.00  0.00     0.241 C 
BRANCH  17  18
ATOM     18  O   UNL A   1      34.760  24.300  24.187  1.00  0.00    -0.491 OA
BRANCH  18  19
ATOM     19  C   UNL A   1      33.943  24.993  23.326  1.00  0.00     0.137 A 
ATOM     20  C   UNL A   1      33.940  26.385  23.207  1.00  0.00     0.048 A 
ATOM     21  C   UNL A   1      33.173  24.240  22.422  1.00  0.00     0.083 A 
ATOM     22  C   UNL A   1      33.294  27.004  22.135  1.00  0.00     0.004 A 
ATOM     23  C   UNL A   1      32.511  24.863  21.360  1.00  0.00     0.024 A 
ATOM     24  Cl  UNL A   1      33.067  22.515  22.537  1.00  0.00    -0.080 Cl
ATOM     25  C   UNL A   1      32.599  26.245  21.200  1.00  0.00     0.002 A 
ENDBRANCH  18  19
ENDBRANCH  17  18
ENDBRANCH  16  17
ENDBRANCH  15  16
ENDBRANCH   7  15
ENDBRANCH   5   6
ENDBRANCH   2   5
BRANCH   3  26
ATOM     26  C   UNL A   1      35.296  29.570  27.877  1.00  0.00     0.116 C 
BRANCH  26  27
ATOM     27  C   UNL A   1      35.440  31.069  27.662  1.00  0.00     0.023 C 
BRANCH  27  28
ATOM     28  C   UNL A   1      34.314  31.923  28.263  1.00  0.00     0.023 C 
BRANCH  28  29
ATOM     29  C   UNL A   1      34.777  33.101  29.122  1.00  0.00     0.116 C 
BRANCH  29  30
ATOM     30  N   UNL A   1      34.756  32.845  30.543  1.00  0.00    -0.352 N 
ATOM     31  C   UNL A   1      35.560  32.163  31.410  1.00  0.00     0.251 C 
ATOM     32  H   UNL A   1      33.985  33.261  30.991  1.00  0.00     0.163 HD
ATOM     33  O   UNL A   1      35.298  32.296  32.607  1.00  0.00    -0.269 OA
BRANCH  31  34
ATOM     34  C   UNL A   1      36.642  31.223  31.017  1.00  0.00     0.039 A 
ATOM     35  C   UNL A   1      36.582  29.832  31.082  1.00  0.00     0.014 A 
ATOM     36  C   UNL A   1      37.854  31.828  30.631  1.00  0.00     0.014 A 
ATOM     37  C   UNL A   1      37.738  29.077  30.923  1.00  0.00     0.010 A 
ATOM     38  C   UNL A   1      39.006  31.077  30.442  1.00  0.00     0.010 A 
ATOM     39  C   UNL A   1      38.959  29.708  30.659  1.00  0.00    -0.014 A 
BRANCH  39  40
ATOM     40  C   UNL A   1      40.147  28.873  30.526  1.00  0.00     0.031 A 
ATOM     41  C   UNL A   1      40.889  28.676  31.798  1.00  0.00     0.074 A 
ATOM     42  C   UNL A   1      40.532  28.290  29.372  1.00  0.00     0.049 A 
ATOM     43  N   UNL A   1      42.042  29.164  32.117  1.00  0.00    -0.248 NA
ATOM     44  C   UNL A   1      40.202  27.989  32.900  1.00  0.00     0.031 C 
ATOM     45  C   UNL A   1      39.801  28.204  28.104  1.00  0.00     0.029 A 
ATOM     46  N   UNL A   1      41.675  27.592  29.112  1.00  0.00    -0.354 N 
ATOM     47  C   UNL A   1      42.320  28.689  33.396  1.00  0.00     0.074 A 
ATOM     48  C   UNL A   1      41.097  28.104  33.882  1.00  0.00     0.031 C 
ATOM     49  C   UNL A   1      40.424  27.329  27.281  1.00  0.00     0.029 A 
ATOM     50  C   UNL A   1      41.673  26.914  27.898  1.00  0.00     0.049 A 
ATOM     51  H   UNL A   1      42.439  27.570  29.732  1.00  0.00     0.167 HD
ATOM     52  C   UNL A   1      43.600  28.618  33.852  1.00  0.00     0.037 A 
ATOM     53  C   UNL A   1      42.627  26.069  27.435  1.00  0.00     0.037 A 
ATOM     54  C   UNL A   1      44.475  29.447  33.061  1.00  0.00     0.049 A 
ATOM     55  C   UNL A   1      43.881  26.384  28.152  1.00  0.00     0.074 A 
ATOM     56  C   UNL A   1      44.633  30.799  32.841  1.00  0.00     0.029 A 
ATOM     57  N   UNL A   1      45.165  28.814  32.061  1.00  0.00    -0.354 N 
ATOM     58  N   UNL A   1      44.547  27.490  27.986  1.00  0.00    -0.248 NA
ATOM     59  C   UNL A   1      44.186  25.648  29.367  1.00  0.00     0.031 C 
ATOM     60  C   UNL A   1      45.062  30.912  31.485  1.00  0.00     0.029 A 
ATOM     61  C   UNL A   1      45.188  29.625  30.960  1.00  0.00     0.049 A 
ATOM     62  H   UNL A   1      45.576  27.922  32.124  1.00  0.00     0.167 HD
ATOM     63  C   UNL A   1      45.010  27.814  29.250  1.00  0.00     0.074 A 
ATOM     64  C   UNL A   1      44.873  26.584  30.027  1.00  0.00     0.031 C 
ATOM     65  C   UNL A   1      45.191  29.119  29.607  1.00  0.00     0.037 A 
BRANCH  52  66
ATOM     66  C   UNL A   1      44.144  27.473  34.687  1.00  0.00     0.057 A 
ATOM     67  C   UNL A   1      44.449  27.563  36.059  1.00  0.00     0.134 A 
ATOM     68  C   UNL A   1      44.026  26.159  34.190  1.00  0.00     0.134 A 
ATOM     69  F   UNL A   1      44.567  28.730  36.700  1.00  0.00    -0.206 F 
ATOM     70  C   UNL A   1      44.555  26.441  36.888  1.00  0.00     0.040 A 
ATOM     71  C   UNL A   1      44.085  25.033  35.020  1.00  0.00     0.040 A 
ATOM     72  F   UNL A   1      43.752  25.932  32.897  1.00  0.00    -0.206 F 
ATOM     73  C   UNL A   1      44.331  25.173  36.379  1.00  0.00     0.006 A 
ENDBRANCH  52  66
BRANCH  53  74
ATOM     74  C   UNL A   1      42.478  24.848  26.613  1.00  0.00     0.057 A 
ATOM     75  C   UNL A   1      41.829  23.714  27.128  1.00  0.00     0.134 A 
ATOM     76  C   UNL A   1      43.213  24.656  25.434  1.00  0.00     0.134 A 
ATOM     77  F   UNL A   1      41.166  23.770  28.291  1.00  0.00    -0.206 F 
ATOM     78  C   UNL A   1      41.918  22.457  26.518  1.00  0.00     0.040 A 
ATOM     79  C   UNL A   1      43.312  23.402  24.813  1.00  0.00     0.040 A 
ATOM     80  F   UNL A   1      43.908  25.667  24.892  1.00  0.00    -0.206 F 
ATOM     81  C   UNL A   1      42.672  22.295  25.362  1.00  0.00     0.006 A 
ENDBRANCH  53  74
BRANCH  65  82
ATOM     82  C   UNL A   1      45.176  30.133  28.495  1.00  0.00     0.057 A 
ATOM     83  C   UNL A   1      43.966  30.750  28.165  1.00  0.00     0.134 A 
ATOM     84  C   UNL A   1      46.285  30.439  27.693  1.00  0.00     0.134 A 
ATOM     85  F   UNL A   1      42.851  30.461  28.854  1.00  0.00    -0.206 F 
ATOM     86  C   UNL A   1      43.863  31.645  27.098  1.00  0.00     0.040 A 
ATOM     87  C   UNL A   1      46.204  31.358  26.642  1.00  0.00     0.040 A 
ATOM     88  F   UNL A   1      47.462  29.827  27.875  1.00  0.00    -0.206 F 
ATOM     89  C   UNL A   1      44.988  31.962  26.340  1.00  0.00     0.006 A 
ENDBRANCH  65  82
ENDBRANCH  39  40
ENDBRANCH  31  34
ENDBRANCH  29  30
ENDBRANCH  28  29
ENDBRANCH  27  28
ENDBRANCH  26  27
ENDBRANCH   3  26
TORSDOF 17
ENDMDL
