MODEL 1
REMARK VINA RESULT:     -11.5      0.000      0.000
REMARK SMILES CC[C@H](NC(=O)NC[C@@]1(C)CCCO1)C(=O)NCCCCNC(=O)c1ccc(-c2c3nc(c(-c4c(F)cccc4F)c4ccc([nH]4)c(-c4c(F)cccc4F)c4nc(c(-c5c(F)cccc5F)c5ccc2[nH]5)C=C4)C=C3)cc1
REMARK SMILES IDX 19 1 18 2 17 3 15 4 16 5 3 7 2 8 1 9 4 10 5 11 6 13 7 14
REMARK SMILES IDX 8 16 9 17 10 18 11 19 14 20 12 21 13 22 20 23 21 24 22 25
REMARK SMILES IDX 23 26 24 28 25 29 26 30 78 31 27 32 77 33 28 34 29 35 30 36
REMARK SMILES IDX 71 37 31 38 76 39 70 40 72 41 32 42 75 43 69 44 68 45 33 47
REMARK SMILES IDX 59 48 42 49 58 50 43 51 46 52 57 53 73 54 44 55 45 56 56 58
REMARK SMILES IDX 74 59 47 60 34 61 35 62 40 63 36 64 37 65 39 66 41 67 38 68
REMARK SMILES IDX 60 69 61 70 66 71 62 72 63 73 65 74 67 75 64 76 48 77 49 78
REMARK SMILES IDX 54 79 50 80 51 81 53 82 55 83 52 84
REMARK H PARENT 17 6 4 12 7 15 22 27 72 46 46 57
REMARK Flexibility Score: inf
ROOT
ATOM      1  C   UNL A   1      36.801  20.359  25.034  1.00  0.00     0.023 C 
ENDROOT
BRANCH   1   2
ATOM      2  C   UNL A   1      36.888  21.828  25.439  1.00  0.00     0.116 C 
BRANCH   2   3
ATOM      3  N   UNL A   1      36.039  22.113  26.577  1.00  0.00    -0.354 N 
ATOM      4  C   UNL A   1      34.810  22.700  26.660  1.00  0.00     0.242 C 
ATOM      5  O   UNL A   1      34.301  22.763  27.784  1.00  0.00    -0.273 OA
ATOM      6  H   UNL A   1      36.415  21.834  27.443  1.00  0.00     0.163 HD
BRANCH   4   7
ATOM      7  C   UNL A   1      33.995  23.104  25.408  1.00  0.00     0.172 C 
BRANCH   7   8
ATOM      8  C   UNL A   1      34.251  24.587  25.092  1.00  0.00     0.032 C 
ATOM      9  C   UNL A   1      33.226  25.512  25.730  1.00  0.00     0.006 C 
ENDBRANCH   7   8
BRANCH   7  10
ATOM     10  N   UNL A   1      32.568  22.836  25.565  1.00  0.00    -0.326 N 
ATOM     11  C   UNL A   1      31.771  21.779  25.489  1.00  0.00     0.315 C 
ATOM     12  H   UNL A   1      32.066  23.654  25.787  1.00  0.00     0.166 HD
ATOM     13  O   UNL A   1      30.625  21.920  25.924  1.00  0.00    -0.249 OA
ATOM     14  N   UNL A   1      32.080  20.600  24.966  1.00  0.00    -0.335 N 
ATOM     15  H   UNL A   1      31.345  19.955  25.083  1.00  0.00     0.165 HD
BRANCH  14  16
ATOM     16  C   UNL A   1      33.206  19.998  24.268  1.00  0.00     0.152 C 
BRANCH  16  17
ATOM     17  C   UNL A   1      32.996  18.496  23.974  1.00  0.00     0.083 C 
ATOM     18  C   UNL A   1      32.360  18.295  22.596  1.00  0.00     0.044 C 
ATOM     19  C   UNL A   1      34.287  17.684  24.132  1.00  0.00     0.039 C 
ATOM     20  O   UNL A   1      32.084  17.948  24.955  1.00  0.00    -0.373 OA
ATOM     21  C   UNL A   1      33.788  16.334  24.577  1.00  0.00     0.031 C 
ATOM     22  C   UNL A   1      32.613  16.708  25.451  1.00  0.00     0.161 C 
ENDBRANCH  16  17
ENDBRANCH  14  16
ENDBRANCH   7  10
ENDBRANCH   4   7
ENDBRANCH   2   3
ENDBRANCH   1   2
BRANCH   1  23
ATOM     23  C   UNL A   1      38.158  19.704  24.767  1.00  0.00     0.023 C 
BRANCH  23  24
ATOM     24  C   UNL A   1      39.228  19.980  25.818  1.00  0.00     0.116 C 
BRANCH  24  25
ATOM     25  N   UNL A   1      40.291  18.988  25.830  1.00  0.00    -0.352 N 
ATOM     26  C   UNL A   1      41.627  19.151  26.091  1.00  0.00     0.251 C 
ATOM     27  H   UNL A   1      40.012  18.068  25.619  1.00  0.00     0.163 HD
ATOM     28  O   UNL A   1      42.402  18.210  25.932  1.00  0.00    -0.269 OA
BRANCH  26  29
ATOM     29  C   UNL A   1      42.142  20.465  26.528  1.00  0.00     0.039 A 
ATOM     30  C   UNL A   1      42.579  21.365  25.555  1.00  0.00     0.014 A 
ATOM     31  C   UNL A   1      42.190  20.815  27.881  1.00  0.00     0.014 A 
ATOM     32  C   UNL A   1      43.013  22.634  25.934  1.00  0.00     0.010 A 
ATOM     33  C   UNL A   1      42.547  22.109  28.251  1.00  0.00     0.010 A 
ATOM     34  C   UNL A   1      42.967  23.030  27.282  1.00  0.00    -0.014 A 
BRANCH  34  35
ATOM     35  C   UNL A   1      43.348  24.412  27.669  1.00  0.00     0.031 A 
ATOM     36  C   UNL A   1      44.784  24.854  27.636  1.00  0.00     0.074 A 
ATOM     37  C   UNL A   1      42.387  25.270  28.066  1.00  0.00     0.049 A 
ATOM     38  N   UNL A   1      45.290  26.033  27.896  1.00  0.00    -0.248 NA
ATOM     39  C   UNL A   1      45.788  23.835  27.290  1.00  0.00     0.031 C 
ATOM     40  C   UNL A   1      40.967  24.941  28.209  1.00  0.00     0.029 A 
ATOM     41  N   UNL A   1      42.456  26.595  28.414  1.00  0.00    -0.354 N 
ATOM     42  C   UNL A   1      46.664  25.900  27.734  1.00  0.00     0.074 A 
ATOM     43  C   UNL A   1      46.919  24.509  27.429  1.00  0.00     0.031 C 
ATOM     44  C   UNL A   1      40.296  26.043  28.579  1.00  0.00     0.029 A 
ATOM     45  C   UNL A   1      41.238  27.147  28.727  1.00  0.00     0.049 A 
ATOM     46  H   UNL A   1      43.300  27.102  28.438  1.00  0.00     0.167 HD
ATOM     47  C   UNL A   1      47.622  26.854  27.802  1.00  0.00     0.037 A 
ATOM     48  C   UNL A   1      40.915  28.403  29.086  1.00  0.00     0.037 A 
ATOM     49  C   UNL A   1      47.365  28.239  28.103  1.00  0.00     0.049 A 
ATOM     50  C   UNL A   1      41.997  29.445  29.148  1.00  0.00     0.074 A 
ATOM     51  C   UNL A   1      48.262  29.292  28.163  1.00  0.00     0.029 A 
ATOM     52  N   UNL A   1      46.116  28.763  28.401  1.00  0.00    -0.354 N 
ATOM     53  N   UNL A   1      43.282  29.320  28.918  1.00  0.00    -0.248 NA
ATOM     54  C   UNL A   1      41.580  30.808  29.503  1.00  0.00     0.031 C 
ATOM     55  C   UNL A   1      47.563  30.443  28.538  1.00  0.00     0.029 A 
ATOM     56  C   UNL A   1      46.221  30.121  28.660  1.00  0.00     0.049 A 
ATOM     57  H   UNL A   1      45.277  28.247  28.425  1.00  0.00     0.167 HD
ATOM     58  C   UNL A   1      43.822  30.589  29.079  1.00  0.00     0.074 A 
ATOM     59  C   UNL A   1      42.721  31.474  29.396  1.00  0.00     0.031 C 
ATOM     60  C   UNL A   1      45.116  30.987  28.981  1.00  0.00     0.037 A 
BRANCH  47  61
ATOM     61  C   UNL A   1      49.037  26.434  27.524  1.00  0.00     0.057 A 
ATOM     62  C   UNL A   1      49.894  26.014  28.551  1.00  0.00     0.134 A 
ATOM     63  C   UNL A   1      49.540  26.410  26.217  1.00  0.00     0.134 A 
ATOM     64  F   UNL A   1      49.481  26.023  29.828  1.00  0.00    -0.206 F 
ATOM     65  C   UNL A   1      51.205  25.609  28.291  1.00  0.00     0.040 A 
ATOM     66  C   UNL A   1      50.839  25.979  25.942  1.00  0.00     0.040 A 
ATOM     67  F   UNL A   1      48.774  26.794  25.185  1.00  0.00    -0.206 F 
ATOM     68  C   UNL A   1      51.677  25.584  26.982  1.00  0.00     0.006 A 
ENDBRANCH  47  61
BRANCH  48  69
ATOM     69  C   UNL A   1      39.504  28.751  29.392  1.00  0.00     0.057 A 
ATOM     70  C   UNL A   1      38.978  28.597  30.680  1.00  0.00     0.134 A 
ATOM     71  C   UNL A   1      38.642  29.229  28.397  1.00  0.00     0.134 A 
ATOM     72  F   UNL A   1      39.749  28.127  31.672  1.00  0.00    -0.206 F 
ATOM     73  C   UNL A   1      37.639  28.877  30.963  1.00  0.00     0.040 A 
ATOM     74  C   UNL A   1      37.310  29.541  28.673  1.00  0.00     0.040 A 
ATOM     75  F   UNL A   1      39.086  29.409  27.145  1.00  0.00    -0.206 F 
ATOM     76  C   UNL A   1      36.803  29.355  29.957  1.00  0.00     0.006 A 
ENDBRANCH  48  69
BRANCH  60  77
ATOM     77  C   UNL A   1      45.395  32.446  29.199  1.00  0.00     0.057 A 
ATOM     78  C   UNL A   1      45.723  32.958  30.462  1.00  0.00     0.134 A 
ATOM     79  C   UNL A   1      45.337  33.351  28.131  1.00  0.00     0.134 A 
ATOM     80  F   UNL A   1      45.783  32.148  31.529  1.00  0.00    -0.206 F 
ATOM     81  C   UNL A   1      45.943  34.322  30.662  1.00  0.00     0.040 A 
ATOM     82  C   UNL A   1      45.586  34.712  28.313  1.00  0.00     0.040 A 
ATOM     83  F   UNL A   1      45.040  32.928  26.893  1.00  0.00    -0.206 F 
ATOM     84  C   UNL A   1      45.878  35.203  29.584  1.00  0.00     0.006 A 
ENDBRANCH  60  77
ENDBRANCH  34  35
ENDBRANCH  26  29
ENDBRANCH  24  25
ENDBRANCH  23  24
ENDBRANCH   1  23
TORSDOF 15
ENDMDL
MODEL 2
REMARK VINA RESULT:     -11.4      5.694     10.649
REMARK SMILES CC[C@H](NC(=O)NC[C@@]1(C)CCCO1)C(=O)NCCCCNC(=O)c1ccc(-c2c3nc(c(-c4c(F)cccc4F)c4ccc([nH]4)c(-c4c(F)cccc4F)c4nc(c(-c5c(F)cccc5F)c5ccc2[nH]5)C=C4)C=C3)cc1
REMARK SMILES IDX 19 1 18 2 17 3 15 4 16 5 3 7 2 8 1 9 4 10 5 11 6 13 7 14
REMARK SMILES IDX 8 16 9 17 10 18 11 19 14 20 12 21 13 22 20 23 21 24 22 25
REMARK SMILES IDX 23 26 24 28 25 29 26 30 78 31 27 32 77 33 28 34 29 35 30 36
REMARK SMILES IDX 71 37 31 38 76 39 70 40 72 41 32 42 75 43 69 44 68 45 33 47
REMARK SMILES IDX 59 48 42 49 58 50 43 51 46 52 57 53 73 54 44 55 45 56 56 58
REMARK SMILES IDX 74 59 47 60 34 61 35 62 40 63 36 64 37 65 39 66 41 67 38 68
REMARK SMILES IDX 60 69 61 70 66 71 62 72 63 73 65 74 67 75 64 76 48 77 49 78
REMARK SMILES IDX 54 79 50 80 51 81 53 82 55 83 52 84
REMARK H PARENT 17 6 4 12 7 15 22 27 72 46 46 57
REMARK Flexibility Score: inf
ROOT
ATOM      1  C   UNL A   1      31.541  30.519  26.073  1.00  0.00     0.023 C 
ENDROOT
BRANCH   1   2
ATOM      2  C   UNL A   1      32.956  29.992  26.298  1.00  0.00     0.116 C 
BRANCH   2   3
ATOM      3  N   UNL A   1      33.621  29.716  25.042  1.00  0.00    -0.354 N 
ATOM      4  C   UNL A   1      33.597  28.619  24.231  1.00  0.00     0.242 C 
ATOM      5  O   UNL A   1      34.239  28.694  23.178  1.00  0.00    -0.273 OA
ATOM      6  H   UNL A   1      34.192  30.449  24.715  1.00  0.00     0.163 HD
BRANCH   4   7
ATOM      7  C   UNL A   1      32.675  27.406  24.500  1.00  0.00     0.172 C 
BRANCH   7   8
ATOM      8  C   UNL A   1      33.407  26.403  25.407  1.00  0.00     0.032 C 
ATOM      9  C   UNL A   1      34.244  25.402  24.625  1.00  0.00     0.006 C 
ENDBRANCH   7   8
BRANCH   7  10
ATOM     10  N   UNL A   1      32.222  26.769  23.266  1.00  0.00    -0.326 N 
ATOM     11  C   UNL A   1      31.315  27.016  22.331  1.00  0.00     0.315 C 
ATOM     12  H   UNL A   1      32.720  25.941  23.079  1.00  0.00     0.166 HD
ATOM     13  O   UNL A   1      31.393  26.346  21.297  1.00  0.00    -0.249 OA
ATOM     14  N   UNL A   1      30.321  27.890  22.413  1.00  0.00    -0.335 N 
ATOM     15  H   UNL A   1      29.819  27.939  21.567  1.00  0.00     0.165 HD
BRANCH  14  16
ATOM     16  C   UNL A   1      29.769  28.796  23.409  1.00  0.00     0.152 C 
BRANCH  16  17
ATOM     17  C   UNL A   1      28.556  29.597  22.885  1.00  0.00     0.083 C 
ATOM     18  C   UNL A   1      27.256  28.814  23.094  1.00  0.00     0.044 C 
ATOM     19  C   UNL A   1      28.479  31.004  23.488  1.00  0.00     0.039 C 
ATOM     20  O   UNL A   1      28.709  29.806  21.461  1.00  0.00    -0.373 OA
ATOM     21  C   UNL A   1      27.835  31.811  22.391  1.00  0.00     0.031 C 
ATOM     22  C   UNL A   1      28.426  31.180  21.151  1.00  0.00     0.161 C 
ENDBRANCH  16  17
ENDBRANCH  14  16
ENDBRANCH   7  10
ENDBRANCH   4   7
ENDBRANCH   2   3
ENDBRANCH   1   2
BRANCH   1  23
ATOM     23  C   UNL A   1      31.339  31.970  26.517  1.00  0.00     0.023 C 
BRANCH  23  24
ATOM     24  C   UNL A   1      32.549  32.619  27.182  1.00  0.00     0.116 C 
BRANCH  24  25
ATOM     25  N   UNL A   1      32.299  33.982  27.624  1.00  0.00    -0.352 N 
ATOM     26  C   UNL A   1      33.008  34.749  28.511  1.00  0.00     0.251 C 
ATOM     27  H   UNL A   1      31.507  34.414  27.230  1.00  0.00     0.163 HD
ATOM     28  O   UNL A   1      32.573  35.845  28.858  1.00  0.00    -0.269 OA
BRANCH  26  29
ATOM     29  C   UNL A   1      34.275  34.246  29.079  1.00  0.00     0.039 A 
ATOM     30  C   UNL A   1      34.224  33.480  30.245  1.00  0.00     0.014 A 
ATOM     31  C   UNL A   1      35.504  34.518  28.470  1.00  0.00     0.014 A 
ATOM     32  C   UNL A   1      35.398  32.942  30.769  1.00  0.00     0.010 A 
ATOM     33  C   UNL A   1      36.665  33.913  28.948  1.00  0.00     0.010 A 
ATOM     34  C   UNL A   1      36.624  33.123  30.106  1.00  0.00    -0.014 A 
BRANCH  34  35
ATOM     35  C   UNL A   1      37.857  32.475  30.620  1.00  0.00     0.031 A 
ATOM     36  C   UNL A   1      38.551  33.001  31.845  1.00  0.00     0.074 A 
ATOM     37  C   UNL A   1      38.359  31.409  29.966  1.00  0.00     0.049 A 
ATOM     38  N   UNL A   1      39.608  32.533  32.459  1.00  0.00    -0.248 NA
ATOM     39  C   UNL A   1      38.003  34.227  32.448  1.00  0.00     0.031 C 
ATOM     40  C   UNL A   1      37.819  30.847  28.725  1.00  0.00     0.029 A 
ATOM     41  N   UNL A   1      39.431  30.603  30.254  1.00  0.00    -0.354 N 
ATOM     42  C   UNL A   1      39.843  33.397  33.521  1.00  0.00     0.074 A 
ATOM     43  C   UNL A   1      38.866  34.459  33.425  1.00  0.00     0.031 C 
ATOM     44  C   UNL A   1      38.539  29.768  28.382  1.00  0.00     0.029 A 
ATOM     45  C   UNL A   1      39.606  29.578  29.358  1.00  0.00     0.049 A 
ATOM     46  H   UNL A   1      40.018  30.746  31.032  1.00  0.00     0.167 HD
ATOM     47  C   UNL A   1      40.767  33.298  34.507  1.00  0.00     0.037 A 
ATOM     48  C   UNL A   1      40.521  28.590  29.329  1.00  0.00     0.037 A 
ATOM     49  C   UNL A   1      41.737  32.237  34.603  1.00  0.00     0.049 A 
ATOM     50  C   UNL A   1      41.532  28.500  30.437  1.00  0.00     0.074 A 
ATOM     51  C   UNL A   1      42.694  32.028  35.580  1.00  0.00     0.029 A 
ATOM     52  N   UNL A   1      41.875  31.208  33.683  1.00  0.00    -0.354 N 
ATOM     53  N   UNL A   1      41.694  29.281  31.477  1.00  0.00    -0.248 NA
ATOM     54  C   UNL A   1      42.478  27.378  30.377  1.00  0.00     0.031 C 
ATOM     55  C   UNL A   1      43.439  30.897  35.229  1.00  0.00     0.029 A 
ATOM     56  C   UNL A   1      42.911  30.370  34.061  1.00  0.00     0.049 A 
ATOM     57  H   UNL A   1      41.319  31.091  32.878  1.00  0.00     0.167 HD
ATOM     58  C   UNL A   1      42.743  28.736  32.204  1.00  0.00     0.074 A 
ATOM     59  C   UNL A   1      43.158  27.539  31.502  1.00  0.00     0.031 C 
ATOM     60  C   UNL A   1      43.318  29.186  33.347  1.00  0.00     0.037 A 
BRANCH  47  61
ATOM     61  C   UNL A   1      40.758  34.356  35.572  1.00  0.00     0.057 A 
ATOM     62  C   UNL A   1      41.519  35.528  35.451  1.00  0.00     0.134 A 
ATOM     63  C   UNL A   1      39.954  34.227  36.712  1.00  0.00     0.134 A 
ATOM     64  F   UNL A   1      42.320  35.711  34.390  1.00  0.00    -0.206 F 
ATOM     65  C   UNL A   1      41.499  36.519  36.434  1.00  0.00     0.040 A 
ATOM     66  C   UNL A   1      39.903  35.225  37.687  1.00  0.00     0.040 A 
ATOM     67  F   UNL A   1      39.196  33.135  36.890  1.00  0.00    -0.206 F 
ATOM     68  C   UNL A   1      40.683  36.372  37.552  1.00  0.00     0.006 A 
ENDBRANCH  47  61
BRANCH  48  69
ATOM     69  C   UNL A   1      40.509  27.596  28.225  1.00  0.00     0.057 A 
ATOM     70  C   UNL A   1      39.816  26.385  28.342  1.00  0.00     0.134 A 
ATOM     71  C   UNL A   1      41.206  27.826  27.032  1.00  0.00     0.134 A 
ATOM     72  F   UNL A   1      39.143  26.099  29.466  1.00  0.00    -0.206 F 
ATOM     73  C   UNL A   1      39.840  25.427  27.327  1.00  0.00     0.040 A 
ATOM     74  C   UNL A   1      41.213  26.889  25.998  1.00  0.00     0.040 A 
ATOM     75  F   UNL A   1      41.881  28.970  26.853  1.00  0.00    -0.206 F 
ATOM     76  C   UNL A   1      40.538  25.681  26.149  1.00  0.00     0.006 A 
ENDBRANCH  48  69
BRANCH  60  77
ATOM     77  C   UNL A   1      44.440  28.364  33.913  1.00  0.00     0.057 A 
ATOM     78  C   UNL A   1      45.778  28.601  33.570  1.00  0.00     0.134 A 
ATOM     79  C   UNL A   1      44.179  27.323  34.814  1.00  0.00     0.134 A 
ATOM     80  F   UNL A   1      46.096  29.574  32.704  1.00  0.00    -0.206 F 
ATOM     81  C   UNL A   1      46.811  27.806  34.071  1.00  0.00     0.040 A 
ATOM     82  C   UNL A   1      45.206  26.542  35.345  1.00  0.00     0.040 A 
ATOM     83  F   UNL A   1      42.922  27.049  35.193  1.00  0.00    -0.206 F 
ATOM     84  C   UNL A   1      46.526  26.776  34.964  1.00  0.00     0.006 A 
ENDBRANCH  60  77
ENDBRANCH  34  35
ENDBRANCH  26  29
ENDBRANCH  24  25
ENDBRANCH  23  24
ENDBRANCH   1  23
TORSDOF 15
ENDMDL
MODEL 3
REMARK VINA RESULT:     -11.3      0.192      1.337
REMARK SMILES CC[C@H](NC(=O)NC[C@@]1(C)CCCO1)C(=O)NCCCCNC(=O)c1ccc(-c2c3nc(c(-c4c(F)cccc4F)c4ccc([nH]4)c(-c4c(F)cccc4F)c4nc(c(-c5c(F)cccc5F)c5ccc2[nH]5)C=C4)C=C3)cc1
REMARK SMILES IDX 19 1 18 2 17 3 15 4 16 5 3 7 2 8 1 9 4 10 5 11 6 13 7 14
REMARK SMILES IDX 8 16 9 17 10 18 11 19 14 20 12 21 13 22 20 23 21 24 22 25
REMARK SMILES IDX 23 26 24 28 25 29 26 30 78 31 27 32 77 33 28 34 29 35 30 36
REMARK SMILES IDX 71 37 31 38 76 39 70 40 72 41 32 42 75 43 69 44 68 45 33 47
REMARK SMILES IDX 59 48 42 49 58 50 43 51 46 52 57 53 73 54 44 55 45 56 56 58
REMARK SMILES IDX 74 59 47 60 34 61 35 62 40 63 36 64 37 65 39 66 41 67 38 68
REMARK SMILES IDX 60 69 61 70 66 71 62 72 63 73 65 74 67 75 64 76 48 77 49 78
REMARK SMILES IDX 54 79 50 80 51 81 53 82 55 83 52 84
REMARK H PARENT 17 6 4 12 7 15 22 27 72 46 46 57
REMARK Flexibility Score: inf
ROOT
ATOM      1  C   UNL A   1      36.861  20.283  25.033  1.00  0.00     0.023 C 
ENDROOT
BRANCH   1   2
ATOM      2  C   UNL A   1      36.814  21.781  25.320  1.00  0.00     0.116 C 
BRANCH   2   3
ATOM      3  N   UNL A   1      36.009  22.071  26.488  1.00  0.00    -0.354 N 
ATOM      4  C   UNL A   1      34.817  22.721  26.623  1.00  0.00     0.242 C 
ATOM      5  O   UNL A   1      34.337  22.770  27.761  1.00  0.00    -0.273 OA
ATOM      6  H   UNL A   1      36.388  21.739  27.334  1.00  0.00     0.163 HD
BRANCH   4   7
ATOM      7  C   UNL A   1      33.997  23.215  25.407  1.00  0.00     0.172 C 
BRANCH   7   8
ATOM      8  C   UNL A   1      34.250  24.717  25.200  1.00  0.00     0.032 C 
ATOM      9  C   UNL A   1      33.206  25.375  24.312  1.00  0.00     0.006 C 
ENDBRANCH   7   8
BRANCH   7  10
ATOM     10  N   UNL A   1      32.571  22.934  25.549  1.00  0.00    -0.326 N 
ATOM     11  C   UNL A   1      31.798  21.857  25.575  1.00  0.00     0.315 C 
ATOM     12  H   UNL A   1      32.046  23.760  25.653  1.00  0.00     0.166 HD
ATOM     13  O   UNL A   1      30.635  22.023  25.953  1.00  0.00    -0.249 OA
ATOM     14  N   UNL A   1      32.147  20.631  25.210  1.00  0.00    -0.335 N 
ATOM     15  H   UNL A   1      31.422  19.988  25.379  1.00  0.00     0.165 HD
BRANCH  14  16
ATOM     16  C   UNL A   1      33.309  19.976  24.627  1.00  0.00     0.152 C 
BRANCH  16  17
ATOM     17  C   UNL A   1      33.020  18.525  24.182  1.00  0.00     0.083 C 
ATOM     18  C   UNL A   1      32.268  18.505  22.848  1.00  0.00     0.044 C 
ATOM     19  C   UNL A   1      34.287  17.664  24.137  1.00  0.00     0.039 C 
ATOM     20  O   UNL A   1      32.168  17.892  25.166  1.00  0.00    -0.373 OA
ATOM     21  C   UNL A   1      33.774  16.286  24.464  1.00  0.00     0.031 C 
ATOM     22  C   UNL A   1      32.688  16.588  25.471  1.00  0.00     0.161 C 
ENDBRANCH  16  17
ENDBRANCH  14  16
ENDBRANCH   7  10
ENDBRANCH   4   7
ENDBRANCH   2   3
ENDBRANCH   1   2
BRANCH   1  23
ATOM     23  C   UNL A   1      38.263  19.749  24.735  1.00  0.00     0.023 C 
BRANCH  23  24
ATOM     24  C   UNL A   1      39.270  19.904  25.870  1.00  0.00     0.116 C 
BRANCH  24  25
ATOM     25  N   UNL A   1      40.354  18.936  25.812  1.00  0.00    -0.352 N 
ATOM     26  C   UNL A   1      41.696  19.124  26.024  1.00  0.00     0.251 C 
ATOM     27  H   UNL A   1      40.087  18.016  25.587  1.00  0.00     0.163 HD
ATOM     28  O   UNL A   1      42.485  18.205  25.808  1.00  0.00    -0.269 OA
BRANCH  26  29
ATOM     29  C   UNL A   1      42.199  20.437  26.476  1.00  0.00     0.039 A 
ATOM     30  C   UNL A   1      42.696  21.323  25.519  1.00  0.00     0.014 A 
ATOM     31  C   UNL A   1      42.178  20.799  27.826  1.00  0.00     0.014 A 
ATOM     32  C   UNL A   1      43.121  22.592  25.910  1.00  0.00     0.010 A 
ATOM     33  C   UNL A   1      42.527  22.094  28.204  1.00  0.00     0.010 A 
ATOM     34  C   UNL A   1      43.007  23.002  27.250  1.00  0.00    -0.014 A 
BRANCH  34  35
ATOM     35  C   UNL A   1      43.379  24.384  27.644  1.00  0.00     0.031 A 
ATOM     36  C   UNL A   1      44.812  24.836  27.608  1.00  0.00     0.074 A 
ATOM     37  C   UNL A   1      42.414  25.232  28.051  1.00  0.00     0.049 A 
ATOM     38  N   UNL A   1      45.311  26.017  27.873  1.00  0.00    -0.248 NA
ATOM     39  C   UNL A   1      45.821  23.827  27.250  1.00  0.00     0.031 C 
ATOM     40  C   UNL A   1      40.997  24.892  28.199  1.00  0.00     0.029 A 
ATOM     41  N   UNL A   1      42.475  26.555  28.408  1.00  0.00    -0.354 N 
ATOM     42  C   UNL A   1      46.684  25.895  27.704  1.00  0.00     0.074 A 
ATOM     43  C   UNL A   1      46.948  24.508  27.388  1.00  0.00     0.031 C 
ATOM     44  C   UNL A   1      40.319  25.986  28.579  1.00  0.00     0.029 A 
ATOM     45  C   UNL A   1      41.254  27.096  28.730  1.00  0.00     0.049 A 
ATOM     46  H   UNL A   1      43.315  27.068  28.431  1.00  0.00     0.167 HD
ATOM     47  C   UNL A   1      47.636  26.856  27.774  1.00  0.00     0.037 A 
ATOM     48  C   UNL A   1      40.924  28.348  29.099  1.00  0.00     0.037 A 
ATOM     49  C   UNL A   1      47.370  28.237  28.086  1.00  0.00     0.049 A 
ATOM     50  C   UNL A   1      41.998  29.397  29.162  1.00  0.00     0.074 A 
ATOM     51  C   UNL A   1      48.260  29.296  28.148  1.00  0.00     0.029 A 
ATOM     52  N   UNL A   1      46.118  28.750  28.392  1.00  0.00    -0.354 N 
ATOM     53  N   UNL A   1      43.282  29.283  28.926  1.00  0.00    -0.248 NA
ATOM     54  C   UNL A   1      41.573  30.755  29.529  1.00  0.00     0.031 C 
ATOM     55  C   UNL A   1      47.554  30.440  28.534  1.00  0.00     0.029 A 
ATOM     56  C   UNL A   1      46.214  30.107  28.660  1.00  0.00     0.049 A 
ATOM     57  H   UNL A   1      45.284  28.228  28.417  1.00  0.00     0.167 HD
ATOM     58  C   UNL A   1      43.814  30.554  29.093  1.00  0.00     0.074 A 
ATOM     59  C   UNL A   1      42.708  31.429  29.421  1.00  0.00     0.031 C 
ATOM     60  C   UNL A   1      45.104  30.963  28.992  1.00  0.00     0.037 A 
BRANCH  47  61
ATOM     61  C   UNL A   1      49.052  26.448  27.487  1.00  0.00     0.057 A 
ATOM     62  C   UNL A   1      49.917  26.025  28.507  1.00  0.00     0.134 A 
ATOM     63  C   UNL A   1      49.550  26.439  26.178  1.00  0.00     0.134 A 
ATOM     64  F   UNL A   1      49.509  26.021  29.785  1.00  0.00    -0.206 F 
ATOM     65  C   UNL A   1      51.229  25.632  28.239  1.00  0.00     0.040 A 
ATOM     66  C   UNL A   1      50.851  26.020  25.894  1.00  0.00     0.040 A 
ATOM     67  F   UNL A   1      48.777  26.827  25.152  1.00  0.00    -0.206 F 
ATOM     68  C   UNL A   1      51.696  25.621  26.927  1.00  0.00     0.006 A 
ENDBRANCH  47  61
BRANCH  48  69
ATOM     69  C   UNL A   1      39.511  28.683  29.413  1.00  0.00     0.057 A 
ATOM     70  C   UNL A   1      38.644  29.178  28.433  1.00  0.00     0.134 A 
ATOM     71  C   UNL A   1      39.000  28.532  30.709  1.00  0.00     0.134 A 
ATOM     72  F   UNL A   1      39.078  29.360  27.177  1.00  0.00    -0.206 F 
ATOM     73  C   UNL A   1      37.329  29.540  28.734  1.00  0.00     0.040 A 
ATOM     74  C   UNL A   1      37.679  28.861  31.016  1.00  0.00     0.040 A 
ATOM     75  F   UNL A   1      39.776  28.053  31.691  1.00  0.00    -0.206 F 
ATOM     76  C   UNL A   1      36.843  29.377  30.029  1.00  0.00     0.006 A 
ENDBRANCH  48  69
BRANCH  60  77
ATOM     77  C   UNL A   1      45.374  32.422  29.218  1.00  0.00     0.057 A 
ATOM     78  C   UNL A   1      45.319  33.357  28.175  1.00  0.00     0.134 A 
ATOM     79  C   UNL A   1      45.689  32.901  30.497  1.00  0.00     0.134 A 
ATOM     80  F   UNL A   1      45.035  32.963  26.924  1.00  0.00    -0.206 F 
ATOM     81  C   UNL A   1      45.610  34.706  28.387  1.00  0.00     0.040 A 
ATOM     82  C   UNL A   1      45.951  34.252  30.727  1.00  0.00     0.040 A 
ATOM     83  F   UNL A   1      45.748  32.063  31.543  1.00  0.00    -0.206 F 
ATOM     84  C   UNL A   1      45.923  35.157  29.667  1.00  0.00     0.006 A 
ENDBRANCH  60  77
ENDBRANCH  34  35
ENDBRANCH  26  29
ENDBRANCH  24  25
ENDBRANCH  23  24
ENDBRANCH   1  23
TORSDOF 15
ENDMDL
