MODEL 1
REMARK VINA RESULT:      -9.6      0.000      0.000
REMARK SMILES C[C@H]([NH2+][C@@H](C)[C@@H](C)C(=O)NCCCCNC(=O)c1ccc(-c2c3nc(c(-c4c(F)cccc4F)c4ccc([nH]4)c(-c4c(F)cccc4F)c4nc(c(-c5c(F)cccc5F)c5ccc2[nH]5)C=C4)C=C3)cc1)c1cccc(Br)c1
REMARK SMILES IDX 11 1 10 2 8 3 9 4 6 6 7 7 4 8 5 9 3 10 2 13 1 14 72 15 73 16
REMARK SMILES IDX 78 17 74 18 76 19 75 20 77 21 12 22 13 23 14 24 15 25 16 26
REMARK SMILES IDX 17 28 18 29 19 30 71 31 20 32 70 33 21 34 22 35 23 36 64 37
REMARK SMILES IDX 24 38 69 39 63 40 65 41 25 42 68 43 62 44 61 45 26 47 52 48
REMARK SMILES IDX 35 49 51 50 36 51 39 52 50 53 66 54 37 55 38 56 49 58 67 59
REMARK SMILES IDX 40 60 27 61 28 62 33 63 29 64 30 65 32 66 34 67 31 68 53 69
REMARK SMILES IDX 54 70 59 71 55 72 56 73 58 74 60 75 57 76 41 77 42 78 47 79
REMARK SMILES IDX 43 80 44 81 46 82 48 83 45 84
REMARK H PARENT 10 5 3 11 3 12 15 27 65 46 39 57
REMARK Flexibility Score: inf
ROOT
ATOM      1  C   UNL A   1      33.259  35.231  29.865  1.00  0.00     0.116 C 
ENDROOT
BRANCH   1   2
ATOM      2  N   UNL A   1      33.679  35.975  31.035  1.00  0.00    -0.356 N 
ATOM      3  C   UNL A   1      34.366  35.572  32.141  1.00  0.00     0.228 C 
ATOM      4  O   UNL A   1      34.552  36.408  33.030  1.00  0.00    -0.275 OA
ATOM      5  H   UNL A   1      33.428  36.928  31.030  1.00  0.00     0.163 HD
BRANCH   3   6
ATOM      6  C   UNL A   1      34.920  34.152  32.279  1.00  0.00     0.133 C 
ATOM      7  C   UNL A   1      34.430  33.565  33.602  1.00  0.00     0.024 C 
BRANCH   6   8
ATOM      8  C   UNL A   1      36.441  34.093  31.982  1.00  0.00     0.192 C 
ATOM      9  C   UNL A   1      36.852  32.621  31.777  1.00  0.00     0.076 C 
BRANCH   8  10
ATOM     10  N   UNL A   1      37.338  34.593  33.018  1.00  0.00    -0.337 N 
ATOM     11  H   UNL A   1      37.689  35.488  32.679  1.00  0.00     0.347 HD
ATOM     12  H   UNL A   1      36.737  34.562  33.841  1.00  0.00     0.347 HD
BRANCH  10  13
ATOM     13  C   UNL A   1      38.513  33.847  33.482  1.00  0.00     0.210 C 
ATOM     14  C   UNL A   1      39.842  34.499  33.054  1.00  0.00     0.081 C 
BRANCH  13  15
ATOM     15  C   UNL A   1      38.461  33.433  34.956  1.00  0.00     0.010 A 
ATOM     16  C   UNL A   1      38.069  32.142  35.357  1.00  0.00     0.010 A 
ATOM     17  C   UNL A   1      38.728  34.363  35.978  1.00  0.00     0.025 A 
ATOM     18  C   UNL A   1      38.023  31.777  36.707  1.00  0.00     0.002 A 
ATOM     19  C   UNL A   1      38.718  33.986  37.324  1.00  0.00     0.018 A 
ATOM     20  C   UNL A   1      38.370  32.694  37.693  1.00  0.00     0.016 A 
ATOM     21  Br  UNL A   1      39.217  35.240  38.648  1.00  0.00    -0.051 Br
ENDBRANCH  13  15
ENDBRANCH  10  13
ENDBRANCH   8  10
ENDBRANCH   6   8
ENDBRANCH   3   6
ENDBRANCH   1   2
BRANCH   1  22
ATOM     22  C   UNL A   1      34.128  35.560  28.652  1.00  0.00     0.023 C 
BRANCH  22  23
ATOM     23  C   UNL A   1      34.725  34.338  27.956  1.00  0.00     0.023 C 
BRANCH  23  24
ATOM     24  C   UNL A   1      34.608  33.038  28.739  1.00  0.00     0.116 C 
BRANCH  24  25
ATOM     25  N   UNL A   1      34.020  31.950  27.972  1.00  0.00    -0.352 N 
ATOM     26  C   UNL A   1      34.547  30.702  27.732  1.00  0.00     0.251 C 
ATOM     27  H   UNL A   1      33.136  32.129  27.577  1.00  0.00     0.163 HD
ATOM     28  O   UNL A   1      33.990  29.916  26.983  1.00  0.00    -0.269 OA
BRANCH  26  29
ATOM     29  C   UNL A   1      35.832  30.352  28.371  1.00  0.00     0.039 A 
ATOM     30  C   UNL A   1      35.814  29.667  29.588  1.00  0.00     0.014 A 
ATOM     31  C   UNL A   1      37.037  30.626  27.721  1.00  0.00     0.014 A 
ATOM     32  C   UNL A   1      37.012  29.189  30.119  1.00  0.00     0.010 A 
ATOM     33  C   UNL A   1      38.217  30.083  28.212  1.00  0.00     0.010 A 
ATOM     34  C   UNL A   1      38.216  29.358  29.414  1.00  0.00    -0.014 A 
BRANCH  34  35
ATOM     35  C   UNL A   1      39.489  28.785  29.915  1.00  0.00     0.031 A 
ATOM     36  C   UNL A   1      40.158  29.385  31.118  1.00  0.00     0.074 A 
ATOM     37  C   UNL A   1      40.078  27.778  29.242  1.00  0.00     0.049 A 
ATOM     38  N   UNL A   1      41.310  29.085  31.659  1.00  0.00    -0.248 NA
ATOM     39  C   UNL A   1      39.452  30.493  31.783  1.00  0.00     0.031 C 
ATOM     40  C   UNL A   1      39.556  27.149  28.027  1.00  0.00     0.029 A 
ATOM     41  N   UNL A   1      41.256  27.116  29.478  1.00  0.00    -0.354 N 
ATOM     42  C   UNL A   1      41.475  29.976  32.712  1.00  0.00     0.074 A 
ATOM     43  C   UNL A   1      40.332  30.862  32.700  1.00  0.00     0.031 C 
ATOM     44  C   UNL A   1      40.398  26.177  27.639  1.00  0.00     0.029 A 
ATOM     45  C   UNL A   1      41.534  26.137  28.554  1.00  0.00     0.049 A 
ATOM     46  H   UNL A   1      41.848  27.322  30.238  1.00  0.00     0.167 HD
ATOM     47  C   UNL A   1      42.475  30.033  33.621  1.00  0.00     0.037 A 
ATOM     48  C   UNL A   1      42.589  25.306  28.457  1.00  0.00     0.037 A 
ATOM     49  C   UNL A   1      43.594  29.129  33.650  1.00  0.00     0.049 A 
ATOM     50  C   UNL A   1      43.681  25.383  29.486  1.00  0.00     0.074 A 
ATOM     51  C   UNL A   1      44.626  29.063  34.568  1.00  0.00     0.029 A 
ATOM     52  N   UNL A   1      43.822  28.130  32.717  1.00  0.00    -0.354 N 
ATOM     53  N   UNL A   1      43.790  26.184  30.518  1.00  0.00    -0.248 NA
ATOM     54  C   UNL A   1      44.794  24.434  29.343  1.00  0.00     0.031 C 
ATOM     55  C   UNL A   1      45.500  28.046  34.170  1.00  0.00     0.029 A 
ATOM     56  C   UNL A   1      44.988  27.451  33.028  1.00  0.00     0.049 A 
ATOM     57  H   UNL A   1      43.242  27.931  31.947  1.00  0.00     0.167 HD
ATOM     58  C   UNL A   1      44.964  25.818  31.162  1.00  0.00     0.074 A 
ATOM     59  C   UNL A   1      45.527  24.715  30.410  1.00  0.00     0.031 C 
ATOM     60  C   UNL A   1      45.526  26.347  32.276  1.00  0.00     0.037 A 
BRANCH  47  61
ATOM     61  C   UNL A   1      42.397  31.107  34.667  1.00  0.00     0.057 A 
ATOM     62  C   UNL A   1      42.810  32.421  34.406  1.00  0.00     0.134 A 
ATOM     63  C   UNL A   1      41.881  30.832  35.938  1.00  0.00     0.134 A 
ATOM     64  F   UNL A   1      43.327  32.746  33.212  1.00  0.00    -0.206 F 
ATOM     65  C   UNL A   1      42.737  33.415  35.381  1.00  0.00     0.040 A 
ATOM     66  C   UNL A   1      41.779  31.825  36.914  1.00  0.00     0.040 A 
ATOM     67  F   UNL A   1      41.465  29.596  36.253  1.00  0.00    -0.206 F 
ATOM     68  C   UNL A   1      42.213  33.120  36.638  1.00  0.00     0.006 A 
ENDBRANCH  47  61
BRANCH  48  69
ATOM     69  C   UNL A   1      42.650  24.309  27.359  1.00  0.00     0.057 A 
ATOM     70  C   UNL A   1      43.203  24.639  26.116  1.00  0.00     0.134 A 
ATOM     71  C   UNL A   1      42.151  23.011  27.518  1.00  0.00     0.134 A 
ATOM     72  F   UNL A   1      43.681  25.874  25.898  1.00  0.00    -0.206 F 
ATOM     73  C   UNL A   1      43.242  23.722  25.065  1.00  0.00     0.040 A 
ATOM     74  C   UNL A   1      42.204  22.076  26.483  1.00  0.00     0.040 A 
ATOM     75  F   UNL A   1      41.616  22.629  28.688  1.00  0.00    -0.206 F 
ATOM     76  C   UNL A   1      42.744  22.434  25.249  1.00  0.00     0.006 A 
ENDBRANCH  48  69
BRANCH  60  77
ATOM     77  C   UNL A   1      46.791  25.714  32.774  1.00  0.00     0.057 A 
ATOM     78  C   UNL A   1      48.049  26.102  32.296  1.00  0.00     0.134 A 
ATOM     79  C   UNL A   1      46.751  24.738  33.777  1.00  0.00     0.134 A 
ATOM     80  F   UNL A   1      48.154  27.023  31.326  1.00  0.00    -0.206 F 
ATOM     81  C   UNL A   1      49.222  25.526  32.785  1.00  0.00     0.040 A 
ATOM     82  C   UNL A   1      47.917  24.172  34.292  1.00  0.00     0.040 A 
ATOM     83  F   UNL A   1      45.577  24.330  34.283  1.00  0.00    -0.206 F 
ATOM     84  C   UNL A   1      49.158  24.563  33.792  1.00  0.00     0.006 A 
ENDBRANCH  60  77
ENDBRANCH  34  35
ENDBRANCH  26  29
ENDBRANCH  24  25
ENDBRANCH  23  24
ENDBRANCH  22  23
ENDBRANCH   1  22
TORSDOF 15
ENDMDL
MODEL 2
REMARK VINA RESULT:      -9.5      6.299     11.588
REMARK SMILES C[C@H]([NH2+][C@@H](C)[C@@H](C)C(=O)NCCCCNC(=O)c1ccc(-c2c3nc(c(-c4c(F)cccc4F)c4ccc([nH]4)c(-c4c(F)cccc4F)c4nc(c(-c5c(F)cccc5F)c5ccc2[nH]5)C=C4)C=C3)cc1)c1cccc(Br)c1
REMARK SMILES IDX 11 1 10 2 8 3 9 4 6 6 7 7 4 8 5 9 3 10 2 13 1 14 72 15 73 16
REMARK SMILES IDX 78 17 74 18 76 19 75 20 77 21 12 22 13 23 14 24 15 25 16 26
REMARK SMILES IDX 17 28 18 29 19 30 71 31 20 32 70 33 21 34 22 35 23 36 64 37
REMARK SMILES IDX 24 38 69 39 63 40 65 41 25 42 68 43 62 44 61 45 26 47 52 48
REMARK SMILES IDX 35 49 51 50 36 51 39 52 50 53 66 54 37 55 38 56 49 58 67 59
REMARK SMILES IDX 40 60 27 61 28 62 33 63 29 64 30 65 32 66 34 67 31 68 53 69
REMARK SMILES IDX 54 70 59 71 55 72 56 73 58 74 60 75 57 76 41 77 42 78 47 79
REMARK SMILES IDX 43 80 44 81 46 82 48 83 45 84
REMARK H PARENT 10 5 3 11 3 12 15 27 65 46 39 57
REMARK Flexibility Score: inf
ROOT
ATOM      1  C   UNL A   1      35.878  20.430  25.004  1.00  0.00     0.116 C 
ENDROOT
BRANCH   1   2
ATOM      2  N   UNL A   1      35.283  21.072  26.159  1.00  0.00    -0.356 N 
ATOM      3  C   UNL A   1      35.024  22.387  26.406  1.00  0.00     0.228 C 
ATOM      4  O   UNL A   1      34.551  22.676  27.509  1.00  0.00    -0.275 OA
ATOM      5  H   UNL A   1      35.022  20.458  26.884  1.00  0.00     0.163 HD
BRANCH   3   6
ATOM      6  C   UNL A   1      35.273  23.474  25.357  1.00  0.00     0.133 C 
ATOM      7  C   UNL A   1      36.524  24.256  25.755  1.00  0.00     0.024 C 
BRANCH   6   8
ATOM      8  C   UNL A   1      33.986  24.281  25.043  1.00  0.00     0.192 C 
ATOM      9  C   UNL A   1      34.207  25.750  25.455  1.00  0.00     0.076 C 
BRANCH   8  10
ATOM     10  N   UNL A   1      32.766  23.877  25.733  1.00  0.00    -0.337 N 
ATOM     11  H   UNL A   1      33.048  23.169  26.411  1.00  0.00     0.347 HD
ATOM     12  H   UNL A   1      32.408  24.775  26.057  1.00  0.00     0.347 HD
BRANCH  10  13
ATOM     13  C   UNL A   1      31.600  23.327  25.034  1.00  0.00     0.210 C 
ATOM     14  C   UNL A   1      30.849  24.385  24.202  1.00  0.00     0.081 C 
BRANCH  13  15
ATOM     15  C   UNL A   1      31.865  22.015  24.291  1.00  0.00     0.010 A 
ATOM     16  C   UNL A   1      31.841  21.933  22.885  1.00  0.00     0.010 A 
ATOM     17  C   UNL A   1      32.065  20.812  24.995  1.00  0.00     0.025 A 
ATOM     18  C   UNL A   1      32.083  20.727  22.218  1.00  0.00     0.002 A 
ATOM     19  C   UNL A   1      32.343  19.617  24.326  1.00  0.00     0.018 A 
ATOM     20  C   UNL A   1      32.357  19.570  22.939  1.00  0.00     0.016 A 
ATOM     21  Br  UNL A   1      32.738  18.060  25.323  1.00  0.00    -0.051 Br
ENDBRANCH  13  15
ENDBRANCH  10  13
ENDBRANCH   8  10
ENDBRANCH   6   8
ENDBRANCH   3   6
ENDBRANCH   1   2
BRANCH   1  22
ATOM     22  C   UNL A   1      37.353  20.801  24.857  1.00  0.00     0.023 C 
BRANCH  22  23
ATOM     23  C   UNL A   1      38.317  19.630  25.031  1.00  0.00     0.023 C 
BRANCH  23  24
ATOM     24  C   UNL A   1      39.552  19.941  25.866  1.00  0.00     0.116 C 
BRANCH  24  25
ATOM     25  N   UNL A   1      40.522  18.856  25.891  1.00  0.00    -0.352 N 
ATOM     26  C   UNL A   1      41.879  18.938  26.108  1.00  0.00     0.251 C 
ATOM     27  H   UNL A   1      40.164  17.953  25.734  1.00  0.00     0.163 HD
ATOM     28  O   UNL A   1      42.595  17.956  26.001  1.00  0.00    -0.269 OA
BRANCH  26  29
ATOM     29  C   UNL A   1      42.455  20.259  26.433  1.00  0.00     0.039 A 
ATOM     30  C   UNL A   1      43.071  20.993  25.418  1.00  0.00     0.014 A 
ATOM     31  C   UNL A   1      42.305  20.794  27.714  1.00  0.00     0.014 A 
ATOM     32  C   UNL A   1      43.474  22.304  25.672  1.00  0.00     0.010 A 
ATOM     33  C   UNL A   1      42.636  22.123  27.942  1.00  0.00     0.010 A 
ATOM     34  C   UNL A   1      43.221  22.891  26.924  1.00  0.00    -0.014 A 
BRANCH  34  35
ATOM     35  C   UNL A   1      43.561  24.310  27.192  1.00  0.00     0.031 A 
ATOM     36  C   UNL A   1      44.982  24.778  27.058  1.00  0.00     0.074 A 
ATOM     37  C   UNL A   1      42.607  25.154  27.628  1.00  0.00     0.049 A 
ATOM     38  N   UNL A   1      45.495  25.950  27.327  1.00  0.00    -0.248 NA
ATOM     39  C   UNL A   1      45.964  23.784  26.591  1.00  0.00     0.031 C 
ATOM     40  C   UNL A   1      41.202  24.805  27.852  1.00  0.00     0.029 A 
ATOM     41  N   UNL A   1      42.678  26.480  27.975  1.00  0.00    -0.354 N 
ATOM     42  C   UNL A   1      46.857  25.830  27.081  1.00  0.00     0.074 A 
ATOM     43  C   UNL A   1      47.099  24.457  26.694  1.00  0.00     0.031 C 
ATOM     44  C   UNL A   1      40.541  25.895  28.276  1.00  0.00     0.029 A 
ATOM     45  C   UNL A   1      41.479  27.007  28.388  1.00  0.00     0.049 A 
ATOM     46  H   UNL A   1      43.511  27.004  27.933  1.00  0.00     0.167 HD
ATOM     47  C   UNL A   1      47.814  26.784  27.146  1.00  0.00     0.037 A 
ATOM     48  C   UNL A   1      41.173  28.249  28.811  1.00  0.00     0.037 A 
ATOM     49  C   UNL A   1      47.566  28.156  27.499  1.00  0.00     0.049 A 
ATOM     50  C   UNL A   1      42.253  29.293  28.864  1.00  0.00     0.074 A 
ATOM     51  C   UNL A   1      48.457  29.213  27.531  1.00  0.00     0.029 A 
ATOM     52  N   UNL A   1      46.331  28.660  27.877  1.00  0.00    -0.354 N 
ATOM     53  N   UNL A   1      43.523  29.184  28.561  1.00  0.00    -0.248 NA
ATOM     54  C   UNL A   1      41.855  30.636  29.310  1.00  0.00     0.031 C 
ATOM     55  C   UNL A   1      47.768  30.351  27.966  1.00  0.00     0.029 A 
ATOM     56  C   UNL A   1      46.440  30.010  28.161  1.00  0.00     0.049 A 
ATOM     57  H   UNL A   1      45.500  28.135  27.937  1.00  0.00     0.167 HD
ATOM     58  C   UNL A   1      44.070  30.446  28.749  1.00  0.00     0.074 A 
ATOM     59  C   UNL A   1      42.990  31.308  29.184  1.00  0.00     0.031 C 
ATOM     60  C   UNL A   1      45.351  30.855  28.579  1.00  0.00     0.037 A 
BRANCH  47  61
ATOM     61  C   UNL A   1      49.220  26.374  26.818  1.00  0.00     0.057 A 
ATOM     62  C   UNL A   1      49.743  26.501  25.523  1.00  0.00     0.134 A 
ATOM     63  C   UNL A   1      50.070  25.871  27.811  1.00  0.00     0.134 A 
ATOM     64  F   UNL A   1      48.976  26.963  24.524  1.00  0.00    -0.206 F 
ATOM     65  C   UNL A   1      51.049  26.117  25.223  1.00  0.00     0.040 A 
ATOM     66  C   UNL A   1      51.388  25.508  27.527  1.00  0.00     0.040 A 
ATOM     67  F   UNL A   1      49.634  25.726  29.071  1.00  0.00    -0.206 F 
ATOM     68  C   UNL A   1      51.879  25.626  26.229  1.00  0.00     0.006 A 
ENDBRANCH  47  61
BRANCH  48  69
ATOM     69  C   UNL A   1      39.778  28.582  29.192  1.00  0.00     0.057 A 
ATOM     70  C   UNL A   1      39.319  28.374  30.498  1.00  0.00     0.134 A 
ATOM     71  C   UNL A   1      38.869  29.103  28.264  1.00  0.00     0.134 A 
ATOM     72  F   UNL A   1      40.139  27.859  31.427  1.00  0.00    -0.206 F 
ATOM     73  C   UNL A   1      38.002  28.654  30.864  1.00  0.00     0.040 A 
ATOM     74  C   UNL A   1      37.555  29.410  28.622  1.00  0.00     0.040 A 
ATOM     75  F   UNL A   1      39.249  29.334  26.999  1.00  0.00    -0.206 F 
ATOM     76  C   UNL A   1      37.116  29.178  29.925  1.00  0.00     0.006 A 
ENDBRANCH  48  69
BRANCH  60  77
ATOM     77  C   UNL A   1      45.646  32.305  28.821  1.00  0.00     0.057 A 
ATOM     78  C   UNL A   1      45.496  33.269  27.817  1.00  0.00     0.134 A 
ATOM     79  C   UNL A   1      46.042  32.747  30.090  1.00  0.00     0.134 A 
ATOM     80  F   UNL A   1      45.132  32.908  26.577  1.00  0.00    -0.206 F 
ATOM     81  C   UNL A   1      45.748  34.619  28.061  1.00  0.00     0.040 A 
ATOM     82  C   UNL A   1      46.273  34.097  30.353  1.00  0.00     0.040 A 
ATOM     83  F   UNL A   1      46.195  31.874  31.098  1.00  0.00    -0.206 F 
ATOM     84  C   UNL A   1      46.130  35.037  29.334  1.00  0.00     0.006 A 
ENDBRANCH  60  77
ENDBRANCH  34  35
ENDBRANCH  26  29
ENDBRANCH  24  25
ENDBRANCH  23  24
ENDBRANCH  22  23
ENDBRANCH   1  22
TORSDOF 15
ENDMDL
MODEL 3
REMARK VINA RESULT:      -9.5      4.468     10.338
REMARK SMILES C[C@H]([NH2+][C@@H](C)[C@@H](C)C(=O)NCCCCNC(=O)c1ccc(-c2c3nc(c(-c4c(F)cccc4F)c4ccc([nH]4)c(-c4c(F)cccc4F)c4nc(c(-c5c(F)cccc5F)c5ccc2[nH]5)C=C4)C=C3)cc1)c1cccc(Br)c1
REMARK SMILES IDX 11 1 10 2 8 3 9 4 6 6 7 7 4 8 5 9 3 10 2 13 1 14 72 15 73 16
REMARK SMILES IDX 78 17 74 18 76 19 75 20 77 21 12 22 13 23 14 24 15 25 16 26
REMARK SMILES IDX 17 28 18 29 19 30 71 31 20 32 70 33 21 34 22 35 23 36 64 37
REMARK SMILES IDX 24 38 69 39 63 40 65 41 25 42 68 43 62 44 61 45 26 47 52 48
REMARK SMILES IDX 35 49 51 50 36 51 39 52 50 53 66 54 37 55 38 56 49 58 67 59
REMARK SMILES IDX 40 60 27 61 28 62 33 63 29 64 30 65 32 66 34 67 31 68 53 69
REMARK SMILES IDX 54 70 59 71 55 72 56 73 58 74 60 75 57 76 41 77 42 78 47 79
REMARK SMILES IDX 43 80 44 81 46 82 48 83 45 84
REMARK H PARENT 10 5 3 11 3 12 15 27 65 46 39 57
REMARK Flexibility Score: inf
ROOT
ATOM      1  C   UNL A   1      31.806  29.307  25.978  1.00  0.00     0.116 C 
ENDROOT
BRANCH   1   2
ATOM      2  N   UNL A   1      32.665  29.502  24.827  1.00  0.00    -0.356 N 
ATOM      3  C   UNL A   1      33.132  28.610  23.909  1.00  0.00     0.228 C 
ATOM      4  O   UNL A   1      33.903  29.035  23.045  1.00  0.00    -0.275 OA
ATOM      5  H   UNL A   1      32.958  30.431  24.684  1.00  0.00     0.163 HD
BRANCH   3   6
ATOM      6  C   UNL A   1      32.705  27.140  23.917  1.00  0.00     0.133 C 
ATOM      7  C   UNL A   1      33.953  26.271  24.065  1.00  0.00     0.024 C 
BRANCH   6   8
ATOM      8  C   UNL A   1      31.733  26.814  22.753  1.00  0.00     0.192 C 
ATOM      9  C   UNL A   1      32.537  26.201  21.588  1.00  0.00     0.076 C 
BRANCH   8  10
ATOM     10  N   UNL A   1      31.011  27.935  22.160  1.00  0.00    -0.337 N 
ATOM     11  H   UNL A   1      31.518  28.775  22.438  1.00  0.00     0.347 HD
ATOM     12  H   UNL A   1      30.981  27.662  21.178  1.00  0.00     0.347 HD
BRANCH  10  13
ATOM     13  C   UNL A   1      29.595  28.206  22.436  1.00  0.00     0.210 C 
ATOM     14  C   UNL A   1      29.036  27.344  23.584  1.00  0.00     0.081 C 
BRANCH  13  15
ATOM     15  C   UNL A   1      29.241  29.692  22.534  1.00  0.00     0.010 A 
ATOM     16  C   UNL A   1      29.381  30.417  23.733  1.00  0.00     0.010 A 
ATOM     17  C   UNL A   1      28.679  30.376  21.439  1.00  0.00     0.025 A 
ATOM     18  C   UNL A   1      29.052  31.775  23.810  1.00  0.00     0.002 A 
ATOM     19  C   UNL A   1      28.385  31.741  21.508  1.00  0.00     0.018 A 
ATOM     20  C   UNL A   1      28.573  32.445  22.690  1.00  0.00     0.016 A 
ATOM     21  Br  UNL A   1      27.760  32.640  19.967  1.00  0.00    -0.051 Br
ENDBRANCH  13  15
ENDBRANCH  10  13
ENDBRANCH   8  10
ENDBRANCH   6   8
ENDBRANCH   3   6
ENDBRANCH   1   2
BRANCH   1  22
ATOM     22  C   UNL A   1      32.201  30.227  27.132  1.00  0.00     0.023 C 
BRANCH  22  23
ATOM     23  C   UNL A   1      31.883  31.703  26.898  1.00  0.00     0.023 C 
BRANCH  23  24
ATOM     24  C   UNL A   1      32.988  32.665  27.311  1.00  0.00     0.116 C 
BRANCH  24  25
ATOM     25  N   UNL A   1      32.506  34.006  27.610  1.00  0.00    -0.352 N 
ATOM     26  C   UNL A   1      32.985  34.887  28.551  1.00  0.00     0.251 C 
ATOM     27  H   UNL A   1      31.745  34.321  27.071  1.00  0.00     0.163 HD
ATOM     28  O   UNL A   1      32.421  35.948  28.767  1.00  0.00    -0.269 OA
BRANCH  26  29
ATOM     29  C   UNL A   1      34.180  34.499  29.328  1.00  0.00     0.039 A 
ATOM     30  C   UNL A   1      34.006  33.913  30.583  1.00  0.00     0.014 A 
ATOM     31  C   UNL A   1      35.454  34.637  28.773  1.00  0.00     0.014 A 
ATOM     32  C   UNL A   1      35.115  33.395  31.254  1.00  0.00     0.010 A 
ATOM     33  C   UNL A   1      36.543  34.053  29.406  1.00  0.00     0.010 A 
ATOM     34  C   UNL A   1      36.384  33.425  30.651  1.00  0.00    -0.014 A 
BRANCH  34  35
ATOM     35  C   UNL A   1      37.562  32.805  31.305  1.00  0.00     0.031 A 
ATOM     36  C   UNL A   1      38.224  31.612  30.678  1.00  0.00     0.074 A 
ATOM     37  C   UNL A   1      37.985  33.268  32.497  1.00  0.00     0.049 A 
ATOM     38  N   UNL A   1      39.208  30.879  31.131  1.00  0.00    -0.248 NA
ATOM     39  C   UNL A   1      37.687  31.163  29.382  1.00  0.00     0.031 C 
ATOM     40  C   UNL A   1      37.389  34.385  33.235  1.00  0.00     0.029 A 
ATOM     41  N   UNL A   1      39.009  32.846  33.306  1.00  0.00    -0.354 N 
ATOM     42  C   UNL A   1      39.393  29.875  30.190  1.00  0.00     0.074 A 
ATOM     43  C   UNL A   1      38.387  30.060  29.168  1.00  0.00     0.031 C 
ATOM     44  C   UNL A   1      38.073  34.572  34.375  1.00  0.00     0.029 A 
ATOM     45  C   UNL A   1      39.131  33.572  34.467  1.00  0.00     0.049 A 
ATOM     46  H   UNL A   1      39.602  32.094  33.077  1.00  0.00     0.167 HD
ATOM     47  C   UNL A   1      40.335  28.903  30.166  1.00  0.00     0.037 A 
ATOM     48  C   UNL A   1      39.996  33.439  35.490  1.00  0.00     0.037 A 
ATOM     49  C   UNL A   1      41.355  28.741  31.167  1.00  0.00     0.049 A 
ATOM     50  C   UNL A   1      41.040  32.359  35.434  1.00  0.00     0.074 A 
ATOM     51  C   UNL A   1      42.393  27.829  31.201  1.00  0.00     0.029 A 
ATOM     52  N   UNL A   1      41.466  29.517  32.311  1.00  0.00    -0.354 N 
ATOM     53  N   UNL A   1      41.248  31.459  34.503  1.00  0.00    -0.248 NA
ATOM     54  C   UNL A   1      41.972  32.279  36.566  1.00  0.00     0.031 C 
ATOM     55  C   UNL A   1      43.112  28.029  32.385  1.00  0.00     0.029 A 
ATOM     56  C   UNL A   1      42.546  29.094  33.066  1.00  0.00     0.049 A 
ATOM     57  H   UNL A   1      40.865  30.260  32.551  1.00  0.00     0.167 HD
ATOM     58  C   UNL A   1      42.351  30.728  34.922  1.00  0.00     0.074 A 
ATOM     59  C   UNL A   1      42.774  31.295  36.186  1.00  0.00     0.031 C 
ATOM     60  C   UNL A   1      42.960  29.680  34.314  1.00  0.00     0.037 A 
BRANCH  47  61
ATOM     61  C   UNL A   1      40.307  27.944  29.013  1.00  0.00     0.057 A 
ATOM     62  C   UNL A   1      39.554  26.761  29.055  1.00  0.00     0.134 A 
ATOM     63  C   UNL A   1      41.019  28.215  27.839  1.00  0.00     0.134 A 
ATOM     64  F   UNL A   1      38.862  26.436  30.157  1.00  0.00    -0.206 F 
ATOM     65  C   UNL A   1      39.533  25.872  27.982  1.00  0.00     0.040 A 
ATOM     66  C   UNL A   1      40.983  27.344  26.748  1.00  0.00     0.040 A 
ATOM     67  F   UNL A   1      41.757  29.330  27.730  1.00  0.00    -0.206 F 
ATOM     68  C   UNL A   1      40.243  26.166  26.820  1.00  0.00     0.006 A 
ENDBRANCH  47  61
BRANCH  48  69
ATOM     69  C   UNL A   1      39.934  34.373  36.641  1.00  0.00     0.057 A 
ATOM     70  C   UNL A   1      39.205  34.049  37.792  1.00  0.00     0.134 A 
ATOM     71  C   UNL A   1      40.587  35.610  36.620  1.00  0.00     0.134 A 
ATOM     72  F   UNL A   1      38.542  32.885  37.864  1.00  0.00    -0.206 F 
ATOM     73  C   UNL A   1      39.112  34.928  38.872  1.00  0.00     0.040 A 
ATOM     74  C   UNL A   1      40.522  36.490  37.701  1.00  0.00     0.040 A 
ATOM     75  F   UNL A   1      41.309  35.977  35.550  1.00  0.00    -0.206 F 
ATOM     76  C   UNL A   1      39.776  36.153  38.829  1.00  0.00     0.006 A 
ENDBRANCH  48  69
BRANCH  60  77
ATOM     77  C   UNL A   1      44.172  29.106  34.986  1.00  0.00     0.057 A 
ATOM     78  C   UNL A   1      45.460  29.585  34.722  1.00  0.00     0.134 A 
ATOM     79  C   UNL A   1      44.040  28.094  35.944  1.00  0.00     0.134 A 
ATOM     80  F   UNL A   1      45.655  30.546  33.805  1.00  0.00    -0.206 F 
ATOM     81  C   UNL A   1      46.579  29.062  35.373  1.00  0.00     0.040 A 
ATOM     82  C   UNL A   1      45.147  27.580  36.620  1.00  0.00     0.040 A 
ATOM     83  F   UNL A   1      42.831  27.598  36.249  1.00  0.00    -0.206 F 
ATOM     84  C   UNL A   1      46.422  28.062  36.331  1.00  0.00     0.006 A 
ENDBRANCH  60  77
ENDBRANCH  34  35
ENDBRANCH  26  29
ENDBRANCH  24  25
ENDBRANCH  23  24
ENDBRANCH  22  23
ENDBRANCH   1  22
TORSDOF 15
ENDMDL
