MODEL 1
REMARK VINA RESULT:     -15.0      0.000      0.000
REMARK SMILES O=C(CCC(=O)N1CCC(c2nnc3ccccn23)CC1)NCCCCNC(=O)c1ccc(-c2c3nc(c(-c4c(F)cccc4F)c4ccc([nH]4)c(-c4c(F)cccc4F)c4nc(c(-c5c(F)cccc5F)c5ccc2[nH]5)C=C4)C=C3)cc1
REMARK SMILES IDX 24 1 23 2 22 3 1 4 2 5 3 7 4 8 5 9 6 10 7 11 8 12 21 13 9 14
REMARK SMILES IDX 20 15 10 16 11 17 12 18 19 19 13 20 14 21 18 22 15 23 17 24
REMARK SMILES IDX 16 25 25 26 26 27 27 28 28 29 29 31 30 32 31 33 83 34 32 35
REMARK SMILES IDX 82 36 33 37 34 38 35 39 76 40 36 41 81 42 75 43 77 44 37 45
REMARK SMILES IDX 80 46 74 47 73 48 38 50 64 51 47 52 63 53 48 54 51 55 62 56
REMARK SMILES IDX 78 57 49 58 50 59 61 61 79 62 52 63 39 64 40 65 45 66 41 67
REMARK SMILES IDX 42 68 44 69 46 70 43 71 65 72 66 73 71 74 67 75 68 76 70 77
REMARK SMILES IDX 72 78 69 79 53 80 54 81 59 82 55 83 56 84 58 85 60 86 57 87
REMARK H PARENT 22 6 27 30 77 49 51 60
REMARK Flexibility Score: inf
ROOT
ATOM      1  C   UNL A   1      42.738  23.013  29.090  1.00  0.00     0.023 C 
ENDROOT
BRANCH   1   2
ATOM      2  C   UNL A   1      42.077  21.670  28.376  1.00  0.00     0.116 C 
BRANCH   2   3
ATOM      3  N   UNL A   1      40.849  21.977  27.591  1.00  0.00    -0.356 N 
ATOM      4  O   UNL A   1      41.575  21.806  25.403  1.00  0.00    -0.275 OA
ATOM      5  C   UNL A   1      40.668  21.757  26.228  1.00  0.00     0.220 C 
ATOM      6  H   UNL A   1      40.094  22.375  28.082  1.00  0.00     0.163 HD
BRANCH   5   7
ATOM      7  C   UNL A   1      39.230  21.320  25.856  1.00  0.00     0.110 C 
BRANCH   7   8
ATOM      8  C   UNL A   1      38.104  22.384  25.637  1.00  0.00     0.110 C 
BRANCH   8   9
ATOM      9  C   UNL A   1      36.879  22.226  24.666  1.00  0.00     0.223 C 
ATOM     10  O   UNL A   1      36.988  22.542  23.479  1.00  0.00    -0.275 OA
ATOM     11  N   UNL A   1      35.683  21.669  25.179  1.00  0.00    -0.343 N 
ATOM     12  C   UNL A   1      34.456  21.452  24.392  1.00  0.00     0.120 C 
ATOM     13  C   UNL A   1      35.323  22.032  26.495  1.00  0.00     0.120 C 
ATOM     14  C   UNL A   1      33.056  21.837  25.193  1.00  0.00     0.033 C 
ATOM     15  C   UNL A   1      34.580  23.326  26.230  1.00  0.00     0.033 C 
ATOM     16  C   UNL A   1      33.071  23.142  26.367  1.00  0.00     0.062 C 
BRANCH  16  17
ATOM     17  C   UNL A   1      31.932  24.636  26.505  1.00  0.00     0.140 A 
ATOM     18  N   UNL A   1      30.602  24.542  26.492  1.00  0.00    -0.134 NA
ATOM     19  N   UNL A   1      32.319  26.347  26.554  1.00  0.00    -0.286 N 
ATOM     20  N   UNL A   1      29.913  25.739  26.291  1.00  0.00    -0.130 NA
ATOM     21  C   UNL A   1      30.716  26.693  25.867  1.00  0.00     0.160 A 
ATOM     22  C   UNL A   1      33.860  27.271  25.765  1.00  0.00     0.095 A 
ATOM     23  C   UNL A   1      30.631  27.692  24.403  1.00  0.00     0.050 A 
ATOM     24  C   UNL A   1      33.629  28.117  24.364  1.00  0.00     0.019 A 
ATOM     25  C   UNL A   1      31.888  28.286  23.684  1.00  0.00     0.005 A 
ENDBRANCH  16  17
ENDBRANCH   8   9
ENDBRANCH   7   8
ENDBRANCH   5   7
ENDBRANCH   2   3
ENDBRANCH   1   2
BRANCH   1  26
ATOM     26  C   UNL A   1      44.341  23.839  28.973  1.00  0.00     0.023 C 
BRANCH  26  27
ATOM     27  C   UNL A   1      45.734  24.166  27.705  1.00  0.00     0.116 C 
BRANCH  27  28
ATOM     28  N   UNL A   1      45.771  23.675  25.872  1.00  0.00    -0.352 N 
ATOM     29  C   UNL A   1      44.467  23.994  24.694  1.00  0.00     0.251 C 
ATOM     30  H   UNL A   1      46.573  23.208  25.544  1.00  0.00     0.163 HD
ATOM     31  O   UNL A   1      44.718  23.123  23.818  1.00  0.00    -0.269 OA
BRANCH  29  32
ATOM     32  C   UNL A   1      43.117  25.606  25.199  1.00  0.00     0.039 A 
ATOM     33  C   UNL A   1      43.218  27.098  25.203  1.00  0.00     0.014 A 
ATOM     34  C   UNL A   1      41.967  25.478  26.213  1.00  0.00     0.014 A 
ATOM     35  C   UNL A   1      42.875  27.981  26.319  1.00  0.00     0.010 A 
ATOM     36  C   UNL A   1      41.924  26.186  27.436  1.00  0.00     0.010 A 
ATOM     37  C   UNL A   1      42.398  27.473  27.527  1.00  0.00    -0.014 A 
BRANCH  37  38
ATOM     38  C   UNL A   1      42.002  28.181  28.787  1.00  0.00     0.031 A 
ATOM     39  C   UNL A   1      42.560  27.827  30.156  1.00  0.00     0.074 A 
ATOM     40  C   UNL A   1      40.822  28.838  28.739  1.00  0.00     0.049 A 
ATOM     41  N   UNL A   1      42.258  28.329  31.333  1.00  0.00    -0.248 NA
ATOM     42  C   UNL A   1      43.532  26.725  30.222  1.00  0.00     0.031 C 
ATOM     43  C   UNL A   1      40.007  28.979  27.525  1.00  0.00     0.029 A 
ATOM     44  N   UNL A   1      40.048  29.407  29.717  1.00  0.00    -0.354 N 
ATOM     45  C   UNL A   1      43.035  27.644  32.268  1.00  0.00     0.074 A 
ATOM     46  C   UNL A   1      43.760  26.630  31.530  1.00  0.00     0.031 C 
ATOM     47  C   UNL A   1      38.849  29.574  27.832  1.00  0.00     0.029 A 
ATOM     48  C   UNL A   1      38.863  29.920  29.244  1.00  0.00     0.049 A 
ATOM     49  H   UNL A   1      40.314  29.445  30.664  1.00  0.00     0.167 HD
ATOM     50  C   UNL A   1      43.145  27.863  33.608  1.00  0.00     0.037 A 
ATOM     51  C   UNL A   1      37.914  30.642  29.865  1.00  0.00     0.037 A 
ATOM     52  C   UNL A   1      42.343  28.833  34.319  1.00  0.00     0.049 A 
ATOM     53  C   UNL A   1      38.123  30.994  31.306  1.00  0.00     0.074 A 
ATOM     54  C   UNL A   1      42.452  29.270  35.630  1.00  0.00     0.029 A 
ATOM     55  N   UNL A   1      41.247  29.489  33.776  1.00  0.00    -0.354 N 
ATOM     56  N   UNL A   1      39.055  30.575  32.129  1.00  0.00    -0.248 NA
ATOM     57  C   UNL A   1      37.180  31.953  31.894  1.00  0.00     0.031 C 
ATOM     58  C   UNL A   1      41.392  30.150  35.889  1.00  0.00     0.029 A 
ATOM     59  C   UNL A   1      40.658  30.308  34.724  1.00  0.00     0.049 A 
ATOM     60  H   UNL A   1      40.933  29.385  32.848  1.00  0.00     0.167 HD
ATOM     61  C   UNL A   1      38.832  31.244  33.323  1.00  0.00     0.074 A 
ATOM     62  C   UNL A   1      37.690  32.109  33.107  1.00  0.00     0.031 C 
ATOM     63  C   UNL A   1      39.513  31.152  34.492  1.00  0.00     0.037 A 
BRANCH  50  64
ATOM     64  C   UNL A   1      44.198  27.107  34.389  1.00  0.00     0.057 A 
ATOM     65  C   UNL A   1      43.911  25.865  34.974  1.00  0.00     0.134 A 
ATOM     66  C   UNL A   1      45.531  27.542  34.462  1.00  0.00     0.134 A 
ATOM     67  F   UNL A   1      42.667  25.364  34.927  1.00  0.00    -0.206 F 
ATOM     68  C   UNL A   1      44.889  25.105  35.626  1.00  0.00     0.040 A 
ATOM     69  C   UNL A   1      46.525  26.778  35.088  1.00  0.00     0.040 A 
ATOM     70  F   UNL A   1      45.902  28.704  33.903  1.00  0.00    -0.206 F 
ATOM     71  C   UNL A   1      46.204  25.559  35.678  1.00  0.00     0.006 A 
ENDBRANCH  50  64
BRANCH  51  72
ATOM     72  C   UNL A   1      36.797  31.219  29.072  1.00  0.00     0.057 A 
ATOM     73  C   UNL A   1      35.688  30.431  28.737  1.00  0.00     0.134 A 
ATOM     74  C   UNL A   1      36.775  32.561  28.682  1.00  0.00     0.134 A 
ATOM     75  F   UNL A   1      35.646  29.139  29.096  1.00  0.00    -0.206 F 
ATOM     76  C   UNL A   1      34.614  30.945  28.010  1.00  0.00     0.040 A 
ATOM     77  C   UNL A   1      35.694  33.096  27.977  1.00  0.00     0.040 A 
ATOM     78  F   UNL A   1      37.785  33.379  29.008  1.00  0.00    -0.206 F 
ATOM     79  C   UNL A   1      34.614  32.284  27.629  1.00  0.00     0.006 A 
ENDBRANCH  51  72
BRANCH  63  80
ATOM     80  C   UNL A   1      39.043  32.026  35.618  1.00  0.00     0.057 A 
ATOM     81  C   UNL A   1      38.213  31.540  36.636  1.00  0.00     0.134 A 
ATOM     82  C   UNL A   1      39.444  33.365  35.692  1.00  0.00     0.134 A 
ATOM     83  F   UNL A   1      37.780  30.269  36.613  1.00  0.00    -0.206 F 
ATOM     84  C   UNL A   1      37.772  32.364  37.671  1.00  0.00     0.040 A 
ATOM     85  C   UNL A   1      39.038  34.190  36.740  1.00  0.00     0.040 A 
ATOM     86  F   UNL A   1      40.244  33.891  34.752  1.00  0.00    -0.206 F 
ATOM     87  C   UNL A   1      38.193  33.692  37.729  1.00  0.00     0.006 A 
ENDBRANCH  63  80
ENDBRANCH  37  38
ENDBRANCH  29  32
ENDBRANCH  27  28
ENDBRANCH  26  27
ENDBRANCH   1  26
TORSDOF 14
ENDMDL
MODEL 2
REMARK VINA RESULT:     -14.9      1.141      1.936
REMARK SMILES O=C(CCC(=O)N1CCC(c2nnc3ccccn23)CC1)NCCCCNC(=O)c1ccc(-c2c3nc(c(-c4c(F)cccc4F)c4ccc([nH]4)c(-c4c(F)cccc4F)c4nc(c(-c5c(F)cccc5F)c5ccc2[nH]5)C=C4)C=C3)cc1
REMARK SMILES IDX 24 1 23 2 22 3 1 4 2 5 3 7 4 8 5 9 6 10 7 11 8 12 21 13 9 14
REMARK SMILES IDX 20 15 10 16 11 17 12 18 19 19 13 20 14 21 18 22 15 23 17 24
REMARK SMILES IDX 16 25 25 26 26 27 27 28 28 29 29 31 30 32 31 33 83 34 32 35
REMARK SMILES IDX 82 36 33 37 34 38 35 39 76 40 36 41 81 42 75 43 77 44 37 45
REMARK SMILES IDX 80 46 74 47 73 48 38 50 64 51 47 52 63 53 48 54 51 55 62 56
REMARK SMILES IDX 78 57 49 58 50 59 61 61 79 62 52 63 39 64 40 65 45 66 41 67
REMARK SMILES IDX 42 68 44 69 46 70 43 71 65 72 66 73 71 74 67 75 68 76 70 77
REMARK SMILES IDX 72 78 69 79 53 80 54 81 59 82 55 83 56 84 58 85 60 86 57 87
REMARK H PARENT 22 6 27 30 77 49 51 60
REMARK Flexibility Score: inf
ROOT
ATOM      1  C   UNL A   1      39.661  22.332  26.708  1.00  0.00     0.023 C 
ENDROOT
BRANCH   1   2
ATOM      2  C   UNL A   1      38.374  23.359  26.508  1.00  0.00     0.116 C 
BRANCH   2   3
ATOM      3  N   UNL A   1      37.125  22.651  26.112  1.00  0.00    -0.356 N 
ATOM      4  O   UNL A   1      37.022  23.016  23.831  1.00  0.00    -0.275 OA
ATOM      5  C   UNL A   1      36.735  22.337  24.813  1.00  0.00     0.220 C 
ATOM      6  H   UNL A   1      36.518  22.379  26.838  1.00  0.00     0.163 HD
BRANCH   5   7
ATOM      7  C   UNL A   1      36.004  20.977  24.696  1.00  0.00     0.110 C 
BRANCH   7   8
ATOM      8  C   UNL A   1      34.662  20.725  25.461  1.00  0.00     0.110 C 
BRANCH   8   9
ATOM      9  C   UNL A   1      33.251  21.262  25.025  1.00  0.00     0.223 C 
ATOM     10  O   UNL A   1      32.852  21.084  23.872  1.00  0.00    -0.275 OA
ATOM     11  N   UNL A   1      32.445  21.900  25.998  1.00  0.00    -0.343 N 
ATOM     12  C   UNL A   1      31.101  22.447  25.744  1.00  0.00     0.120 C 
ATOM     13  C   UNL A   1      33.106  22.728  26.932  1.00  0.00     0.120 C 
ATOM     14  C   UNL A   1      30.813  23.911  26.469  1.00  0.00     0.033 C 
ATOM     15  C   UNL A   1      33.159  24.028  26.155  1.00  0.00     0.033 C 
ATOM     16  C   UNL A   1      32.142  25.037  26.685  1.00  0.00     0.062 C 
BRANCH  16  17
ATOM     17  C   UNL A   1      32.256  26.855  26.206  1.00  0.00     0.140 A 
ATOM     18  N   UNL A   1      31.960  27.849  27.043  1.00  0.00    -0.134 NA
ATOM     19  N   UNL A   1      32.625  27.589  24.655  1.00  0.00    -0.286 N 
ATOM     20  N   UNL A   1      31.795  29.104  26.456  1.00  0.00    -0.130 NA
ATOM     21  C   UNL A   1      31.683  29.015  25.146  1.00  0.00     0.160 A 
ATOM     22  C   UNL A   1      32.305  26.870  22.859  1.00  0.00     0.095 A 
ATOM     23  C   UNL A   1      30.389  29.575  24.069  1.00  0.00     0.050 A 
ATOM     24  C   UNL A   1      31.021  27.457  21.999  1.00  0.00     0.019 A 
ATOM     25  C   UNL A   1      30.032  28.885  22.711  1.00  0.00     0.005 A 
ENDBRANCH  16  17
ENDBRANCH   8   9
ENDBRANCH   7   8
ENDBRANCH   5   7
ENDBRANCH   2   3
ENDBRANCH   1   2
BRANCH   1  26
ATOM     26  C   UNL A   1      41.116  22.333  27.780  1.00  0.00     0.023 C 
BRANCH  26  27
ATOM     27  C   UNL A   1      43.016  22.524  27.674  1.00  0.00     0.116 C 
BRANCH  27  28
ATOM     28  N   UNL A   1      44.091  22.563  26.110  1.00  0.00    -0.352 N 
ATOM     29  C   UNL A   1      43.892  23.705  24.752  1.00  0.00     0.251 C 
ATOM     30  H   UNL A   1      44.818  21.901  26.043  1.00  0.00     0.163 HD
ATOM     31  O   UNL A   1      44.464  23.072  23.823  1.00  0.00    -0.269 OA
BRANCH  29  32
ATOM     32  C   UNL A   1      42.855  25.544  25.214  1.00  0.00     0.039 A 
ATOM     33  C   UNL A   1      43.257  26.981  25.313  1.00  0.00     0.014 A 
ATOM     34  C   UNL A   1      41.600  25.623  26.102  1.00  0.00     0.014 A 
ATOM     35  C   UNL A   1      42.985  27.876  26.440  1.00  0.00     0.010 A 
ATOM     36  C   UNL A   1      41.572  26.281  27.353  1.00  0.00     0.010 A 
ATOM     37  C   UNL A   1      42.287  27.436  27.564  1.00  0.00    -0.014 A 
BRANCH  37  38
ATOM     38  C   UNL A   1      41.911  28.166  28.818  1.00  0.00     0.031 A 
ATOM     39  C   UNL A   1      42.460  27.809  30.190  1.00  0.00     0.074 A 
ATOM     40  C   UNL A   1      40.749  28.853  28.765  1.00  0.00     0.049 A 
ATOM     41  N   UNL A   1      42.172  28.329  31.363  1.00  0.00    -0.248 NA
ATOM     42  C   UNL A   1      43.403  26.682  30.265  1.00  0.00     0.031 C 
ATOM     43  C   UNL A   1      39.936  29.005  27.550  1.00  0.00     0.029 A 
ATOM     44  N   UNL A   1      39.991  29.451  29.738  1.00  0.00    -0.354 N 
ATOM     45  C   UNL A   1      42.932  27.632  32.303  1.00  0.00     0.074 A 
ATOM     46  C   UNL A   1      43.629  26.593  31.574  1.00  0.00     0.031 C 
ATOM     47  C   UNL A   1      38.795  29.633  27.852  1.00  0.00     0.029 A 
ATOM     48  C   UNL A   1      38.819  29.991  29.261  1.00  0.00     0.049 A 
ATOM     49  H   UNL A   1      40.259  29.490  30.684  1.00  0.00     0.167 HD
ATOM     50  C   UNL A   1      43.049  27.860  33.640  1.00  0.00     0.037 A 
ATOM     51  C   UNL A   1      37.890  30.744  29.876  1.00  0.00     0.037 A 
ATOM     52  C   UNL A   1      42.274  28.858  34.344  1.00  0.00     0.049 A 
ATOM     53  C   UNL A   1      38.110  31.103  31.314  1.00  0.00     0.074 A 
ATOM     54  C   UNL A   1      42.396  29.304  35.651  1.00  0.00     0.029 A 
ATOM     55  N   UNL A   1      41.195  29.537  33.795  1.00  0.00    -0.354 N 
ATOM     56  N   UNL A   1      39.031  30.667  32.140  1.00  0.00    -0.248 NA
ATOM     57  C   UNL A   1      37.194  32.092  31.894  1.00  0.00     0.031 C 
ATOM     58  C   UNL A   1      41.360  30.213  35.902  1.00  0.00     0.029 A 
ATOM     59  C   UNL A   1      40.629  30.381  34.737  1.00  0.00     0.049 A 
ATOM     60  H   UNL A   1      40.878  29.434  32.868  1.00  0.00     0.167 HD
ATOM     61  C   UNL A   1      38.827  31.352  33.328  1.00  0.00     0.074 A 
ATOM     62  C   UNL A   1      37.708  32.246  33.105  1.00  0.00     0.031 C 
ATOM     63  C   UNL A   1      39.506  31.252  34.498  1.00  0.00     0.037 A 
BRANCH  50  64
ATOM     64  C   UNL A   1      44.083  27.083  34.428  1.00  0.00     0.057 A 
ATOM     65  C   UNL A   1      43.764  25.853  35.022  1.00  0.00     0.134 A 
ATOM     66  C   UNL A   1      45.426  27.486  34.499  1.00  0.00     0.134 A 
ATOM     67  F   UNL A   1      42.508  25.383  34.977  1.00  0.00    -0.206 F 
ATOM     68  C   UNL A   1      44.722  25.074  35.679  1.00  0.00     0.040 A 
ATOM     69  C   UNL A   1      46.400  26.702  35.132  1.00  0.00     0.040 A 
ATOM     70  F   UNL A   1      45.826  28.634  33.932  1.00  0.00    -0.206 F 
ATOM     71  C   UNL A   1      46.048  25.494  35.729  1.00  0.00     0.006 A 
ENDBRANCH  50  64
BRANCH  51  72
ATOM     72  C   UNL A   1      36.789  31.343  29.079  1.00  0.00     0.057 A 
ATOM     73  C   UNL A   1      35.652  30.586  28.766  1.00  0.00     0.134 A 
ATOM     74  C   UNL A   1      36.809  32.677  28.662  1.00  0.00     0.134 A 
ATOM     75  F   UNL A   1      35.567  29.305  29.150  1.00  0.00    -0.206 F 
ATOM     76  C   UNL A   1      34.591  31.123  28.035  1.00  0.00     0.040 A 
ATOM     77  C   UNL A   1      35.743  33.235  27.954  1.00  0.00     0.040 A 
ATOM     78  F   UNL A   1      37.849  33.467  28.967  1.00  0.00    -0.206 F 
ATOM     79  C   UNL A   1      34.634  32.454  27.629  1.00  0.00     0.006 A 
ENDBRANCH  51  72
BRANCH  63  80
ATOM     80  C   UNL A   1      39.061  32.149  35.616  1.00  0.00     0.057 A 
ATOM     81  C   UNL A   1      38.228  31.691  36.645  1.00  0.00     0.134 A 
ATOM     82  C   UNL A   1      39.488  33.481  35.671  1.00  0.00     0.134 A 
ATOM     83  F   UNL A   1      37.771  30.429  36.640  1.00  0.00    -0.206 F 
ATOM     84  C   UNL A   1      37.810  32.535  37.673  1.00  0.00     0.040 A 
ATOM     85  C   UNL A   1      39.105  34.326  36.712  1.00  0.00     0.040 A 
ATOM     86  F   UNL A   1      40.291  33.980  34.720  1.00  0.00    -0.206 F 
ATOM     87  C   UNL A   1      38.257  33.856  37.712  1.00  0.00     0.006 A 
ENDBRANCH  63  80
ENDBRANCH  37  38
ENDBRANCH  29  32
ENDBRANCH  27  28
ENDBRANCH  26  27
ENDBRANCH   1  26
TORSDOF 14
ENDMDL
MODEL 3
REMARK VINA RESULT:     -14.7      1.374      1.958
REMARK SMILES O=C(CCC(=O)N1CCC(c2nnc3ccccn23)CC1)NCCCCNC(=O)c1ccc(-c2c3nc(c(-c4c(F)cccc4F)c4ccc([nH]4)c(-c4c(F)cccc4F)c4nc(c(-c5c(F)cccc5F)c5ccc2[nH]5)C=C4)C=C3)cc1
REMARK SMILES IDX 24 1 23 2 22 3 1 4 2 5 3 7 4 8 5 9 6 10 7 11 8 12 21 13 9 14
REMARK SMILES IDX 20 15 10 16 11 17 12 18 19 19 13 20 14 21 18 22 15 23 17 24
REMARK SMILES IDX 16 25 25 26 26 27 27 28 28 29 29 31 30 32 31 33 83 34 32 35
REMARK SMILES IDX 82 36 33 37 34 38 35 39 76 40 36 41 81 42 75 43 77 44 37 45
REMARK SMILES IDX 80 46 74 47 73 48 38 50 64 51 47 52 63 53 48 54 51 55 62 56
REMARK SMILES IDX 78 57 49 58 50 59 61 61 79 62 52 63 39 64 40 65 45 66 41 67
REMARK SMILES IDX 42 68 44 69 46 70 43 71 65 72 66 73 71 74 67 75 68 76 70 77
REMARK SMILES IDX 72 78 69 79 53 80 54 81 59 82 55 83 56 84 58 85 60 86 57 87
REMARK H PARENT 22 6 27 30 77 49 51 60
REMARK Flexibility Score: inf
ROOT
ATOM      1  C   UNL A   1      41.443  22.092  28.122  1.00  0.00     0.023 C 
ENDROOT
BRANCH   1   2
ATOM      2  C   UNL A   1      40.138  22.598  27.232  1.00  0.00     0.116 C 
BRANCH   2   3
ATOM      3  N   UNL A   1      39.780  21.649  26.141  1.00  0.00    -0.356 N 
ATOM      4  O   UNL A   1      41.006  19.762  26.671  1.00  0.00    -0.275 OA
ATOM      5  C   UNL A   1      40.037  20.281  26.124  1.00  0.00     0.220 C 
ATOM      6  H   UNL A   1      39.318  22.025  25.357  1.00  0.00     0.163 HD
BRANCH   5   7
ATOM      7  C   UNL A   1      38.918  19.447  25.454  1.00  0.00     0.110 C 
BRANCH   7   8
ATOM      8  C   UNL A   1      37.787  20.147  24.629  1.00  0.00     0.110 C 
BRANCH   8   9
ATOM      9  C   UNL A   1      36.289  20.292  25.079  1.00  0.00     0.223 C 
ATOM     10  O   UNL A   1      35.513  19.342  24.954  1.00  0.00    -0.275 OA
ATOM     11  N   UNL A   1      35.881  21.510  25.673  1.00  0.00    -0.343 N 
ATOM     12  C   UNL A   1      34.516  21.793  26.151  1.00  0.00     0.120 C 
ATOM     13  C   UNL A   1      36.432  22.696  25.140  1.00  0.00     0.120 C 
ATOM     14  C   UNL A   1      33.972  23.319  25.796  1.00  0.00     0.033 C 
ATOM     15  C   UNL A   1      35.471  22.956  23.997  1.00  0.00     0.033 C 
ATOM     16  C   UNL A   1      34.515  24.101  24.321  1.00  0.00     0.062 C 
BRANCH  16  17
ATOM     17  C   UNL A   1      33.500  24.916  22.960  1.00  0.00     0.140 A 
ATOM     18  N   UNL A   1      34.032  25.707  22.028  1.00  0.00    -0.134 NA
ATOM     19  N   UNL A   1      31.764  24.923  22.700  1.00  0.00    -0.286 N 
ATOM     20  N   UNL A   1      33.125  26.471  21.293  1.00  0.00    -0.130 NA
ATOM     21  C   UNL A   1      31.932  26.477  21.853  1.00  0.00     0.160 A 
ATOM     22  C   UNL A   1      30.332  24.770  24.032  1.00  0.00     0.095 A 
ATOM     23  C   UNL A   1      30.932  27.838  22.395  1.00  0.00     0.050 A 
ATOM     24  C   UNL A   1      29.527  26.144  24.475  1.00  0.00     0.019 A 
ATOM     25  C   UNL A   1      29.909  27.747  23.576  1.00  0.00     0.005 A 
ENDBRANCH  16  17
ENDBRANCH   8   9
ENDBRANCH   7   8
ENDBRANCH   5   7
ENDBRANCH   2   3
ENDBRANCH   1   2
BRANCH   1  26
ATOM     26  C   UNL A   1      42.996  22.865  28.629  1.00  0.00     0.023 C 
BRANCH  26  27
ATOM     27  C   UNL A   1      44.736  23.251  27.937  1.00  0.00     0.116 C 
BRANCH  27  28
ATOM     28  N   UNL A   1      45.310  23.168  26.130  1.00  0.00    -0.352 N 
ATOM     29  C   UNL A   1      44.492  23.958  24.753  1.00  0.00     0.251 C 
ATOM     30  H   UNL A   1      46.124  22.649  25.936  1.00  0.00     0.163 HD
ATOM     31  O   UNL A   1      44.922  23.265  23.791  1.00  0.00    -0.269 OA
BRANCH  29  32
ATOM     32  C   UNL A   1      43.222  25.635  25.250  1.00  0.00     0.039 A 
ATOM     33  C   UNL A   1      43.407  27.118  25.289  1.00  0.00     0.014 A 
ATOM     34  C   UNL A   1      42.033  25.553  26.224  1.00  0.00     0.014 A 
ATOM     35  C   UNL A   1      43.080  27.997  26.414  1.00  0.00     0.010 A 
ATOM     36  C   UNL A   1      41.990  26.238  27.460  1.00  0.00     0.010 A 
ATOM     37  C   UNL A   1      42.534  27.494  27.594  1.00  0.00    -0.014 A 
BRANCH  37  38
ATOM     38  C   UNL A   1      42.139  28.198  28.856  1.00  0.00     0.031 A 
ATOM     39  C   UNL A   1      42.688  27.832  30.226  1.00  0.00     0.074 A 
ATOM     40  C   UNL A   1      40.964  28.863  28.807  1.00  0.00     0.049 A 
ATOM     41  N   UNL A   1      42.384  28.330  31.404  1.00  0.00    -0.248 NA
ATOM     42  C   UNL A   1      43.651  26.723  30.290  1.00  0.00     0.031 C 
ATOM     43  C   UNL A   1      40.155  29.017  27.590  1.00  0.00     0.029 A 
ATOM     44  N   UNL A   1      40.190  29.433  29.785  1.00  0.00    -0.354 N 
ATOM     45  C   UNL A   1      43.152  27.634  32.339  1.00  0.00     0.074 A 
ATOM     46  C   UNL A   1      43.873  26.619  31.599  1.00  0.00     0.031 C 
ATOM     47  C   UNL A   1      39.000  29.619  27.896  1.00  0.00     0.029 A 
ATOM     48  C   UNL A   1      39.010  29.958  29.309  1.00  0.00     0.049 A 
ATOM     49  H   UNL A   1      40.452  29.464  30.733  1.00  0.00     0.167 HD
ATOM     50  C   UNL A   1      43.258  27.845  33.680  1.00  0.00     0.037 A 
ATOM     51  C   UNL A   1      38.064  30.684  29.930  1.00  0.00     0.037 A 
ATOM     52  C   UNL A   1      42.461  28.818  34.394  1.00  0.00     0.049 A 
ATOM     53  C   UNL A   1      38.270  31.026  31.374  1.00  0.00     0.074 A 
ATOM     54  C   UNL A   1      42.568  29.247  35.707  1.00  0.00     0.029 A 
ATOM     55  N   UNL A   1      41.372  29.485  33.849  1.00  0.00    -0.354 N 
ATOM     56  N   UNL A   1      39.195  30.596  32.199  1.00  0.00    -0.248 NA
ATOM     57  C   UNL A   1      37.332  31.989  31.964  1.00  0.00     0.031 C 
ATOM     58  C   UNL A   1      41.514  30.134  35.966  1.00  0.00     0.029 A 
ATOM     59  C   UNL A   1      40.786  30.304  34.799  1.00  0.00     0.049 A 
ATOM     60  H   UNL A   1      41.061  29.389  32.919  1.00  0.00     0.167 HD
ATOM     61  C   UNL A   1      38.972  31.260  33.396  1.00  0.00     0.074 A 
ATOM     62  C   UNL A   1      37.837  32.135  33.179  1.00  0.00     0.031 C 
ATOM     63  C   UNL A   1      39.647  31.157  34.567  1.00  0.00     0.037 A 
BRANCH  50  64
ATOM     64  C   UNL A   1      44.303  27.078  34.462  1.00  0.00     0.057 A 
ATOM     65  C   UNL A   1      44.005  25.834  35.038  1.00  0.00     0.134 A 
ATOM     66  C   UNL A   1      45.638  27.504  34.544  1.00  0.00     0.134 A 
ATOM     67  F   UNL A   1      42.758  25.342  34.981  1.00  0.00    -0.206 F 
ATOM     68  C   UNL A   1      44.974  25.064  35.689  1.00  0.00     0.040 A 
ATOM     69  C   UNL A   1      46.624  26.729  35.171  1.00  0.00     0.040 A 
ATOM     70  F   UNL A   1      46.020  28.667  33.994  1.00  0.00    -0.206 F 
ATOM     71  C   UNL A   1      46.292  25.508  35.751  1.00  0.00     0.006 A 
ENDBRANCH  50  64
BRANCH  51  72
ATOM     72  C   UNL A   1      36.955  31.272  29.136  1.00  0.00     0.057 A 
ATOM     73  C   UNL A   1      35.814  30.513  28.844  1.00  0.00     0.134 A 
ATOM     74  C   UNL A   1      36.973  32.601  28.701  1.00  0.00     0.134 A 
ATOM     75  F   UNL A   1      35.733  29.237  29.247  1.00  0.00    -0.206 F 
ATOM     76  C   UNL A   1      34.747  31.041  28.117  1.00  0.00     0.040 A 
ATOM     77  C   UNL A   1      35.900  33.151  27.996  1.00  0.00     0.040 A 
ATOM     78  F   UNL A   1      38.016  33.394  28.985  1.00  0.00    -0.206 F 
ATOM     79  C   UNL A   1      34.787  32.366  27.692  1.00  0.00     0.006 A 
ENDBRANCH  51  72
BRANCH  63  80
ATOM     80  C   UNL A   1      39.179  32.029  35.695  1.00  0.00     0.057 A 
ATOM     81  C   UNL A   1      39.603  33.357  35.830  1.00  0.00     0.134 A 
ATOM     82  C   UNL A   1      38.278  31.536  36.647  1.00  0.00     0.134 A 
ATOM     83  F   UNL A   1      40.479  33.883  34.959  1.00  0.00    -0.206 F 
ATOM     84  C   UNL A   1      39.172  34.155  36.889  1.00  0.00     0.040 A 
ATOM     85  C   UNL A   1      37.812  32.334  37.691  1.00  0.00     0.040 A 
ATOM     86  F   UNL A   1      37.829  30.274  36.572  1.00  0.00    -0.206 F 
ATOM     87  C   UNL A   1      38.266  33.645  37.818  1.00  0.00     0.006 A 
ENDBRANCH  63  80
ENDBRANCH  37  38
ENDBRANCH  29  32
ENDBRANCH  27  28
ENDBRANCH  26  27
ENDBRANCH   1  26
TORSDOF 14
ENDMDL
