MODEL 1
REMARK VINA RESULT:     -10.6      0.000      0.000
REMARK SMILES CCCc1noc(C2C[NH+](CC(=O)NCCCCNC(=O)c3ccc(-c4c5nc(c(-c6c(F)cccc6F)c6ccc([nH]6)c(-c6c(F)cccc6F)c6nc(c(-c7c(F)cccc7F)c7ccc4[nH]7)C=C6)C=C5)cc3)C2)n1
REMARK SMILES IDX 15 1 14 2 12 3 13 4 11 6 10 7 8 8 9 9 76 10 7 12 4 13 5 14
REMARK SMILES IDX 77 15 6 16 3 17 2 18 1 19 16 20 17 21 18 22 19 23 20 24
REMARK SMILES IDX 21 26 22 27 23 28 75 29 24 30 74 31 25 32 26 33 27 34 68 35
REMARK SMILES IDX 28 36 73 37 67 38 69 39 29 40 72 41 66 42 65 43 30 45 56 46
REMARK SMILES IDX 39 47 55 48 40 49 43 50 54 51 70 52 41 53 42 54 53 56 71 57
REMARK SMILES IDX 44 58 31 59 32 60 37 61 33 62 34 63 36 64 38 65 35 66 57 67
REMARK SMILES IDX 58 68 63 69 59 70 60 71 62 72 64 73 61 74 45 75 46 76 51 77
REMARK SMILES IDX 47 78 48 79 50 80 52 81 49 82
REMARK H PARENT 14 5 10 11 19 25 69 44 43 55
REMARK Flexibility Score: inf
ROOT
ATOM      1  C   UNL A   1      35.218  20.921  24.721  1.00  0.00     0.116 C 
ENDROOT
BRANCH   1   2
ATOM      2  N   UNL A   1      34.364  19.832  25.163  1.00  0.00    -0.351 N 
ATOM      3  C   UNL A   1      33.003  19.737  25.266  1.00  0.00     0.275 C 
ATOM      4  O   UNL A   1      32.550  18.677  25.707  1.00  0.00    -0.269 OA
ATOM      5  H   UNL A   1      34.850  19.020  25.437  1.00  0.00     0.163 HD
BRANCH   3   6
ATOM      6  C   UNL A   1      32.076  20.900  24.889  1.00  0.00     0.363 C 
BRANCH   6   7
ATOM      7  N   UNL A   1      31.588  21.797  25.970  1.00  0.00    -0.325 N 
ATOM      8  C   UNL A   1      32.325  23.751  25.543  1.00  0.00     0.188 C 
ATOM      9  C   UNL A   1      32.609  22.673  26.612  1.00  0.00     0.282 C 
ATOM     10  C   UNL A   1      30.947  23.020  25.454  1.00  0.00     0.282 C 
ATOM     11  H   UNL A   1      31.092  21.100  26.526  1.00  0.00     0.348 HD
BRANCH   8  12
ATOM     12  C   UNL A   1      32.217  25.202  25.933  1.00  0.00     0.241 A 
ATOM     13  C   UNL A   1      32.696  27.145  26.543  1.00  0.00     0.171 A 
ATOM     14  N   UNL A   1      31.514  26.931  27.132  1.00  0.00    -0.062 NA
ATOM     15  N   UNL A   1      33.139  26.118  25.747  1.00  0.00    -0.196 NA
ATOM     16  O   UNL A   1      31.188  25.642  26.724  1.00  0.00    -0.339 OA
BRANCH  13  17
ATOM     17  C   UNL A   1      33.490  28.374  26.781  1.00  0.00     0.081 C 
BRANCH  17  18
ATOM     18  C   UNL A   1      32.916  29.618  26.095  1.00  0.00     0.005 C 
ATOM     19  C   UNL A   1      32.654  30.778  27.047  1.00  0.00     0.004 C 
ENDBRANCH  17  18
ENDBRANCH  13  17
ENDBRANCH   8  12
ENDBRANCH   6   7
ENDBRANCH   3   6
ENDBRANCH   1   2
BRANCH   1  20
ATOM     20  C   UNL A   1      36.481  21.084  25.576  1.00  0.00     0.023 C 
BRANCH  20  21
ATOM     21  C   UNL A   1      37.784  20.614  24.939  1.00  0.00     0.023 C 
BRANCH  21  22
ATOM     22  C   UNL A   1      39.024  20.851  25.787  1.00  0.00     0.116 C 
BRANCH  22  23
ATOM     23  N   UNL A   1      39.948  19.724  25.766  1.00  0.00    -0.352 N 
ATOM     24  C   UNL A   1      41.291  19.684  26.053  1.00  0.00     0.251 C 
ATOM     25  H   UNL A   1      39.550  18.862  25.506  1.00  0.00     0.163 HD
ATOM     26  O   UNL A   1      41.942  18.671  25.839  1.00  0.00    -0.269 OA
BRANCH  24  27
ATOM     27  C   UNL A   1      41.951  20.890  26.593  1.00  0.00     0.039 A 
ATOM     28  C   UNL A   1      42.528  21.803  25.707  1.00  0.00     0.014 A 
ATOM     29  C   UNL A   1      41.951  21.139  27.968  1.00  0.00     0.014 A 
ATOM     30  C   UNL A   1      43.014  23.018  26.193  1.00  0.00     0.010 A 
ATOM     31  C   UNL A   1      42.357  22.380  28.438  1.00  0.00     0.010 A 
ATOM     32  C   UNL A   1      42.879  23.336  27.553  1.00  0.00    -0.014 A 
BRANCH  32  33
ATOM     33  C   UNL A   1      43.238  24.676  28.080  1.00  0.00     0.031 A 
ATOM     34  C   UNL A   1      42.165  25.698  28.324  1.00  0.00     0.074 A 
ATOM     35  C   UNL A   1      44.536  25.002  28.229  1.00  0.00     0.049 A 
ATOM     36  N   UNL A   1      42.284  26.961  28.641  1.00  0.00    -0.248 NA
ATOM     37  C   UNL A   1      40.774  25.249  28.153  1.00  0.00     0.031 C 
ATOM     38  C   UNL A   1      45.671  24.113  27.968  1.00  0.00     0.029 A 
ATOM     39  N   UNL A   1      45.122  26.183  28.614  1.00  0.00    -0.354 N 
ATOM     40  C   UNL A   1      40.990  27.462  28.685  1.00  0.00     0.074 A 
ATOM     41  C   UNL A   1      40.103  26.380  28.318  1.00  0.00     0.031 C 
ATOM     42  C   UNL A   1      46.813  24.774  28.211  1.00  0.00     0.029 A 
ATOM     43  C   UNL A   1      46.496  26.144  28.602  1.00  0.00     0.049 A 
ATOM     44  H   UNL A   1      44.607  26.981  28.872  1.00  0.00     0.167 HD
ATOM     45  C   UNL A   1      40.580  28.708  29.021  1.00  0.00     0.037 A 
ATOM     46  C   UNL A   1      47.397  27.109  28.859  1.00  0.00     0.037 A 
ATOM     47  C   UNL A   1      41.465  29.769  29.420  1.00  0.00     0.049 A 
ATOM     48  C   UNL A   1      46.914  28.482  29.230  1.00  0.00     0.074 A 
ATOM     49  C   UNL A   1      41.141  31.039  29.865  1.00  0.00     0.029 A 
ATOM     50  N   UNL A   1      42.848  29.684  29.421  1.00  0.00    -0.354 N 
ATOM     51  N   UNL A   1      45.684  28.923  29.341  1.00  0.00    -0.248 NA
ATOM     52  C   UNL A   1      47.943  29.495  29.509  1.00  0.00     0.031 C 
ATOM     53  C   UNL A   1      42.330  31.737  30.096  1.00  0.00     0.029 A 
ATOM     54  C   UNL A   1      43.394  30.888  29.832  1.00  0.00     0.049 A 
ATOM     55  H   UNL A   1      43.366  28.885  29.168  1.00  0.00     0.167 HD
ATOM     56  C   UNL A   1      45.790  30.255  29.715  1.00  0.00     0.074 A 
ATOM     57  C   UNL A   1      47.204  30.547  29.833  1.00  0.00     0.031 C 
ATOM     58  C   UNL A   1      44.805  31.158  29.938  1.00  0.00     0.037 A 
BRANCH  45  59
ATOM     59  C   UNL A   1      39.107  28.985  28.978  1.00  0.00     0.057 A 
ATOM     60  C   UNL A   1      38.290  28.812  30.104  1.00  0.00     0.134 A 
ATOM     61  C   UNL A   1      38.504  29.466  27.809  1.00  0.00     0.134 A 
ATOM     62  F   UNL A   1      38.804  28.342  31.250  1.00  0.00    -0.206 F 
ATOM     63  C   UNL A   1      36.922  29.086  30.061  1.00  0.00     0.040 A 
ATOM     64  C   UNL A   1      37.142  29.767  27.762  1.00  0.00     0.040 A 
ATOM     65  F   UNL A   1      39.230  29.656  26.697  1.00  0.00    -0.206 F 
ATOM     66  C   UNL A   1      36.346  29.572  28.889  1.00  0.00     0.006 A 
ENDBRANCH  45  59
BRANCH  46  67
ATOM     67  C   UNL A   1      48.849  26.813  28.778  1.00  0.00     0.057 A 
ATOM     68  C   UNL A   1      49.565  27.036  27.596  1.00  0.00     0.134 A 
ATOM     69  C   UNL A   1      49.554  26.296  29.871  1.00  0.00     0.134 A 
ATOM     70  F   UNL A   1      48.940  27.511  26.510  1.00  0.00    -0.206 F 
ATOM     71  C   UNL A   1      50.925  26.740  27.499  1.00  0.00     0.040 A 
ATOM     72  C   UNL A   1      50.919  26.018  29.796  1.00  0.00     0.040 A 
ATOM     73  F   UNL A   1      48.925  26.065  31.034  1.00  0.00    -0.206 F 
ATOM     74  C   UNL A   1      51.607  26.234  28.603  1.00  0.00     0.006 A 
ENDBRANCH  46  67
BRANCH  58  75
ATOM     75  C   UNL A   1      45.223  32.541  30.340  1.00  0.00     0.057 A 
ATOM     76  C   UNL A   1      45.395  33.559  29.395  1.00  0.00     0.134 A 
ATOM     77  C   UNL A   1      45.415  32.866  31.689  1.00  0.00     0.134 A 
ATOM     78  F   UNL A   1      45.239  33.305  28.087  1.00  0.00    -0.206 F 
ATOM     79  C   UNL A   1      45.759  34.851  29.776  1.00  0.00     0.040 A 
ATOM     80  C   UNL A   1      45.757  34.160  32.084  1.00  0.00     0.040 A 
ATOM     81  F   UNL A   1      45.261  31.936  32.643  1.00  0.00    -0.206 F 
ATOM     82  C   UNL A   1      45.933  35.156  31.125  1.00  0.00     0.006 A 
ENDBRANCH  58  75
ENDBRANCH  32  33
ENDBRANCH  24  27
ENDBRANCH  22  23
ENDBRANCH  21  22
ENDBRANCH  20  21
ENDBRANCH   1  20
TORSDOF 15
ENDMDL
MODEL 2
REMARK VINA RESULT:     -10.6      5.747     10.545
REMARK SMILES CCCc1noc(C2C[NH+](CC(=O)NCCCCNC(=O)c3ccc(-c4c5nc(c(-c6c(F)cccc6F)c6ccc([nH]6)c(-c6c(F)cccc6F)c6nc(c(-c7c(F)cccc7F)c7ccc4[nH]7)C=C6)C=C5)cc3)C2)n1
REMARK SMILES IDX 15 1 14 2 12 3 13 4 11 6 10 7 8 8 9 9 76 10 7 12 4 13 5 14
REMARK SMILES IDX 77 15 6 16 3 17 2 18 1 19 16 20 17 21 18 22 19 23 20 24
REMARK SMILES IDX 21 26 22 27 23 28 75 29 24 30 74 31 25 32 26 33 27 34 68 35
REMARK SMILES IDX 28 36 73 37 67 38 69 39 29 40 72 41 66 42 65 43 30 45 56 46
REMARK SMILES IDX 39 47 55 48 40 49 43 50 54 51 70 52 41 53 42 54 53 56 71 57
REMARK SMILES IDX 44 58 31 59 32 60 37 61 33 62 34 63 36 64 38 65 35 66 57 67
REMARK SMILES IDX 58 68 63 69 59 70 60 71 62 72 64 73 61 74 45 75 46 76 51 77
REMARK SMILES IDX 47 78 48 79 50 80 52 81 49 82
REMARK H PARENT 14 5 10 11 19 25 69 44 43 55
REMARK Flexibility Score: inf
ROOT
ATOM      1  C   UNL A   1      34.799  32.431  28.009  1.00  0.00     0.116 C 
ENDROOT
BRANCH   1   2
ATOM      2  N   UNL A   1      35.749  31.333  28.025  1.00  0.00    -0.351 N 
ATOM      3  C   UNL A   1      35.612  30.016  27.682  1.00  0.00     0.275 C 
ATOM      4  O   UNL A   1      36.603  29.295  27.827  1.00  0.00    -0.269 OA
ATOM      5  H   UNL A   1      36.649  31.579  28.339  1.00  0.00     0.163 HD
BRANCH   3   6
ATOM      6  C   UNL A   1      34.282  29.443  27.173  1.00  0.00     0.363 C 
BRANCH   6   7
ATOM      7  N   UNL A   1      33.875  29.732  25.772  1.00  0.00    -0.325 N 
ATOM      8  C   UNL A   1      32.128  28.577  25.376  1.00  0.00     0.188 C 
ATOM      9  C   UNL A   1      33.599  28.549  24.908  1.00  0.00     0.282 C 
ATOM     10  C   UNL A   1      32.448  30.081  25.650  1.00  0.00     0.282 C 
ATOM     11  H   UNL A   1      34.628  30.376  25.530  1.00  0.00     0.348 HD
BRANCH   8  12
ATOM     12  C   UNL A   1      31.009  28.365  24.390  1.00  0.00     0.241 A 
ATOM     13  C   UNL A   1      29.301  28.657  23.219  1.00  0.00     0.171 A 
ATOM     14  N   UNL A   1      29.228  27.358  23.532  1.00  0.00    -0.062 NA
ATOM     15  N   UNL A   1      30.419  29.302  23.686  1.00  0.00    -0.196 NA
ATOM     16  O   UNL A   1      30.366  27.158  24.307  1.00  0.00    -0.339 OA
BRANCH  13  17
ATOM     17  C   UNL A   1      28.226  29.354  22.473  1.00  0.00     0.081 C 
BRANCH  17  18
ATOM     18  C   UNL A   1      27.522  30.445  23.286  1.00  0.00     0.005 C 
ATOM     19  C   UNL A   1      27.874  31.861  22.846  1.00  0.00     0.004 C 
ENDBRANCH  17  18
ENDBRANCH  13  17
ENDBRANCH   8  12
ENDBRANCH   6   7
ENDBRANCH   3   6
ENDBRANCH   1   2
BRANCH   1  20
ATOM     20  C   UNL A   1      35.436  33.787  28.337  1.00  0.00     0.023 C 
BRANCH  20  21
ATOM     21  C   UNL A   1      34.473  34.899  28.741  1.00  0.00     0.023 C 
BRANCH  21  22
ATOM     22  C   UNL A   1      33.220  34.421  29.456  1.00  0.00     0.116 C 
BRANCH  22  23
ATOM     23  N   UNL A   1      32.650  35.433  30.335  1.00  0.00    -0.352 N 
ATOM     24  C   UNL A   1      32.937  35.718  31.649  1.00  0.00     0.251 C 
ATOM     25  H   UNL A   1      31.955  35.999  29.927  1.00  0.00     0.163 HD
ATOM     26  O   UNL A   1      32.251  36.513  32.276  1.00  0.00    -0.269 OA
BRANCH  24  27
ATOM     27  C   UNL A   1      34.064  35.027  32.309  1.00  0.00     0.039 A 
ATOM     28  C   UNL A   1      33.841  33.787  32.912  1.00  0.00     0.014 A 
ATOM     29  C   UNL A   1      35.344  35.584  32.283  1.00  0.00     0.014 A 
ATOM     30  C   UNL A   1      34.925  33.057  33.399  1.00  0.00     0.010 A 
ATOM     31  C   UNL A   1      36.430  34.820  32.690  1.00  0.00     0.010 A 
ATOM     32  C   UNL A   1      36.232  33.544  33.239  1.00  0.00    -0.014 A 
BRANCH  32  33
ATOM     33  C   UNL A   1      37.418  32.730  33.599  1.00  0.00     0.031 A 
ATOM     34  C   UNL A   1      38.181  33.031  34.857  1.00  0.00     0.074 A 
ATOM     35  C   UNL A   1      37.868  31.798  32.736  1.00  0.00     0.049 A 
ATOM     36  N   UNL A   1      39.318  32.536  35.273  1.00  0.00    -0.248 NA
ATOM     37  C   UNL A   1      37.607  34.052  35.748  1.00  0.00     0.031 C 
ATOM     38  C   UNL A   1      37.246  31.455  31.455  1.00  0.00     0.029 A 
ATOM     39  N   UNL A   1      38.972  30.984  32.796  1.00  0.00    -0.354 N 
ATOM     40  C   UNL A   1      39.606  33.198  36.458  1.00  0.00     0.074 A 
ATOM     41  C   UNL A   1      38.550  34.163  36.673  1.00  0.00     0.031 C 
ATOM     42  C   UNL A   1      37.968  30.495  30.857  1.00  0.00     0.029 A 
ATOM     43  C   UNL A   1      39.127  30.186  31.688  1.00  0.00     0.049 A 
ATOM     44  H   UNL A   1      39.594  30.974  33.559  1.00  0.00     0.167 HD
ATOM     45  C   UNL A   1      40.649  33.004  37.300  1.00  0.00     0.037 A 
ATOM     46  C   UNL A   1      40.103  29.315  31.370  1.00  0.00     0.037 A 
ATOM     47  C   UNL A   1      41.676  32.018  37.098  1.00  0.00     0.049 A 
ATOM     48  C   UNL A   1      41.248  29.119  32.323  1.00  0.00     0.074 A 
ATOM     49  C   UNL A   1      42.724  31.683  37.937  1.00  0.00     0.029 A 
ATOM     50  N   UNL A   1      41.784  31.211  35.977  1.00  0.00    -0.354 N 
ATOM     51  N   UNL A   1      41.469  29.699  33.478  1.00  0.00    -0.248 NA
ATOM     52  C   UNL A   1      42.281  28.150  31.928  1.00  0.00     0.031 C 
ATOM     53  C   UNL A   1      43.492  30.700  37.305  1.00  0.00     0.029 A 
ATOM     54  C   UNL A   1      42.899  30.396  36.089  1.00  0.00     0.049 A 
ATOM     55  H   UNL A   1      41.161  31.214  35.215  1.00  0.00     0.167 HD
ATOM     56  C   UNL A   1      42.655  29.157  33.954  1.00  0.00     0.074 A 
ATOM     57  C   UNL A   1      43.096  28.187  32.973  1.00  0.00     0.031 C 
ATOM     58  C   UNL A   1      43.322  29.440  35.099  1.00  0.00     0.037 A 
BRANCH  45  59
ATOM     59  C   UNL A   1      40.722  33.872  38.520  1.00  0.00     0.057 A 
ATOM     60  C   UNL A   1      40.088  33.517  39.718  1.00  0.00     0.134 A 
ATOM     61  C   UNL A   1      41.466  35.059  38.509  1.00  0.00     0.134 A 
ATOM     62  F   UNL A   1      39.350  32.400  39.790  1.00  0.00    -0.206 F 
ATOM     63  C   UNL A   1      40.173  34.322  40.855  1.00  0.00     0.040 A 
ATOM     64  C   UNL A   1      41.578  35.860  39.647  1.00  0.00     0.040 A 
ATOM     65  F   UNL A   1      42.100  35.456  37.395  1.00  0.00    -0.206 F 
ATOM     66  C   UNL A   1      40.926  35.494  40.823  1.00  0.00     0.006 A 
ENDBRANCH  45  59
BRANCH  46  67
ATOM     67  C   UNL A   1      40.041  28.561  30.094  1.00  0.00     0.057 A 
ATOM     68  C   UNL A   1      40.697  29.028  28.949  1.00  0.00     0.134 A 
ATOM     69  C   UNL A   1      39.325  27.364  29.984  1.00  0.00     0.134 A 
ATOM     70  F   UNL A   1      41.383  30.179  28.987  1.00  0.00    -0.206 F 
ATOM     71  C   UNL A   1      40.628  28.341  27.737  1.00  0.00     0.040 A 
ATOM     72  C   UNL A   1      39.267  26.653  28.785  1.00  0.00     0.040 A 
ATOM     73  F   UNL A   1      38.679  26.861  31.048  1.00  0.00    -0.206 F 
ATOM     74  C   UNL A   1      39.915  27.146  27.653  1.00  0.00     0.006 A 
ENDBRANCH  46  67
BRANCH  58  75
ATOM     75  C   UNL A   1      44.591  28.684  35.355  1.00  0.00     0.057 A 
ATOM     76  C   UNL A   1      45.834  29.175  34.939  1.00  0.00     0.134 A 
ATOM     77  C   UNL A   1      44.573  27.474  36.061  1.00  0.00     0.134 A 
ATOM     78  F   UNL A   1      45.914  30.321  34.246  1.00  0.00    -0.206 F 
ATOM     79  C   UNL A   1      47.016  28.481  35.202  1.00  0.00     0.040 A 
ATOM     80  C   UNL A   1      45.750  26.783  36.351  1.00  0.00     0.040 A 
ATOM     81  F   UNL A   1      43.414  26.954  36.492  1.00  0.00    -0.206 F 
ATOM     82  C   UNL A   1      46.976  27.285  35.918  1.00  0.00     0.006 A 
ENDBRANCH  58  75
ENDBRANCH  32  33
ENDBRANCH  24  27
ENDBRANCH  22  23
ENDBRANCH  21  22
ENDBRANCH  20  21
ENDBRANCH   1  20
TORSDOF 15
ENDMDL
MODEL 3
REMARK VINA RESULT:     -10.5      4.350      8.975
REMARK SMILES CCCc1noc(C2C[NH+](CC(=O)NCCCCNC(=O)c3ccc(-c4c5nc(c(-c6c(F)cccc6F)c6ccc([nH]6)c(-c6c(F)cccc6F)c6nc(c(-c7c(F)cccc7F)c7ccc4[nH]7)C=C6)C=C5)cc3)C2)n1
REMARK SMILES IDX 15 1 14 2 12 3 13 4 11 6 10 7 8 8 9 9 76 10 7 12 4 13 5 14
REMARK SMILES IDX 77 15 6 16 3 17 2 18 1 19 16 20 17 21 18 22 19 23 20 24
REMARK SMILES IDX 21 26 22 27 23 28 75 29 24 30 74 31 25 32 26 33 27 34 68 35
REMARK SMILES IDX 28 36 73 37 67 38 69 39 29 40 72 41 66 42 65 43 30 45 56 46
REMARK SMILES IDX 39 47 55 48 40 49 43 50 54 51 70 52 41 53 42 54 53 56 71 57
REMARK SMILES IDX 44 58 31 59 32 60 37 61 33 62 34 63 36 64 38 65 35 66 57 67
REMARK SMILES IDX 58 68 63 69 59 70 60 71 62 72 64 73 61 74 45 75 46 76 51 77
REMARK SMILES IDX 47 78 48 79 50 80 52 81 49 82
REMARK H PARENT 14 5 10 11 19 25 69 44 43 55
REMARK Flexibility Score: inf
ROOT
ATOM      1  C   UNL A   1      32.086  27.607  26.487  1.00  0.00     0.116 C 
ENDROOT
BRANCH   1   2
ATOM      2  N   UNL A   1      31.335  26.417  26.846  1.00  0.00    -0.351 N 
ATOM      3  C   UNL A   1      31.025  25.295  26.127  1.00  0.00     0.275 C 
ATOM      4  O   UNL A   1      30.335  24.442  26.694  1.00  0.00    -0.269 OA
ATOM      5  H   UNL A   1      30.987  26.418  27.767  1.00  0.00     0.163 HD
BRANCH   3   6
ATOM      6  C   UNL A   1      31.476  25.111  24.672  1.00  0.00     0.363 C 
BRANCH   6   7
ATOM      7  N   UNL A   1      30.554  25.537  23.584  1.00  0.00    -0.325 N 
ATOM      8  C   UNL A   1      30.377  27.658  23.708  1.00  0.00     0.188 C 
ATOM      9  C   UNL A   1      29.448  26.455  23.979  1.00  0.00     0.282 C 
ATOM     10  C   UNL A   1      31.099  26.639  22.770  1.00  0.00     0.282 C 
ATOM     11  H   UNL A   1      30.341  24.616  23.203  1.00  0.00     0.348 HD
BRANCH   8  12
ATOM     12  C   UNL A   1      29.858  28.877  22.993  1.00  0.00     0.241 A 
ATOM     13  C   UNL A   1      28.661  30.492  22.414  1.00  0.00     0.171 A 
ATOM     14  N   UNL A   1      29.161  30.061  21.251  1.00  0.00    -0.062 NA
ATOM     15  N   UNL A   1      29.112  29.819  23.522  1.00  0.00    -0.196 NA
ATOM     16  O   UNL A   1      29.962  28.990  21.631  1.00  0.00    -0.339 OA
BRANCH  13  17
ATOM     17  C   UNL A   1      27.652  31.576  22.490  1.00  0.00     0.081 C 
BRANCH  17  18
ATOM     18  C   UNL A   1      28.200  32.953  22.098  1.00  0.00     0.005 C 
ATOM     19  C   UNL A   1      29.154  33.549  23.126  1.00  0.00     0.004 C 
ENDBRANCH  17  18
ENDBRANCH  13  17
ENDBRANCH   8  12
ENDBRANCH   6   7
ENDBRANCH   3   6
ENDBRANCH   1   2
BRANCH   1  20
ATOM     20  C   UNL A   1      31.775  28.812  27.384  1.00  0.00     0.023 C 
BRANCH  20  21
ATOM     21  C   UNL A   1      31.795  30.176  26.702  1.00  0.00     0.023 C 
BRANCH  21  22
ATOM     22  C   UNL A   1      32.917  31.095  27.158  1.00  0.00     0.116 C 
BRANCH  22  23
ATOM     23  N   UNL A   1      32.493  32.483  27.285  1.00  0.00    -0.352 N 
ATOM     24  C   UNL A   1      33.063  33.514  27.994  1.00  0.00     0.251 C 
ATOM     25  H   UNL A   1      31.677  32.719  26.789  1.00  0.00     0.163 HD
ATOM     26  O   UNL A   1      32.484  34.586  28.104  1.00  0.00    -0.269 OA
BRANCH  24  27
ATOM     27  C   UNL A   1      34.368  33.304  28.653  1.00  0.00     0.039 A 
ATOM     28  C   UNL A   1      34.403  32.702  29.914  1.00  0.00     0.014 A 
ATOM     29  C   UNL A   1      35.552  33.654  28.000  1.00  0.00     0.014 A 
ATOM     30  C   UNL A   1      35.633  32.357  30.475  1.00  0.00     0.010 A 
ATOM     31  C   UNL A   1      36.769  33.234  28.520  1.00  0.00     0.010 A 
ATOM     32  C   UNL A   1      36.820  32.569  29.756  1.00  0.00    -0.014 A 
BRANCH  32  33
ATOM     33  C   UNL A   1      38.129  32.075  30.247  1.00  0.00     0.031 A 
ATOM     34  C   UNL A   1      38.701  30.798  29.702  1.00  0.00     0.074 A 
ATOM     35  C   UNL A   1      38.742  32.719  31.260  1.00  0.00     0.049 A 
ATOM     36  N   UNL A   1      39.751  30.127  30.100  1.00  0.00    -0.248 NA
ATOM     37  C   UNL A   1      37.975  30.172  28.586  1.00  0.00     0.031 C 
ATOM     38  C   UNL A   1      38.254  33.937  31.911  1.00  0.00     0.029 A 
ATOM     39  N   UNL A   1      39.898  32.421  31.937  1.00  0.00    -0.354 N 
ATOM     40  C   UNL A   1      39.799  28.993  29.300  1.00  0.00     0.074 A 
ATOM     41  C   UNL A   1      38.647  29.042  28.426  1.00  0.00     0.031 C 
ATOM     42  C   UNL A   1      39.109  34.289  32.883  1.00  0.00     0.029 A 
ATOM     43  C   UNL A   1      40.180  33.300  32.955  1.00  0.00     0.049 A 
ATOM     44  H   UNL A   1      40.469  31.651  31.716  1.00  0.00     0.167 HD
ATOM     45  C   UNL A   1      40.730  28.011  29.285  1.00  0.00     0.037 A 
ATOM     46  C   UNL A   1      41.180  33.299  33.856  1.00  0.00     0.037 A 
ATOM     47  C   UNL A   1      41.892  27.987  30.133  1.00  0.00     0.049 A 
ATOM     48  C   UNL A   1      42.201  32.198  33.816  1.00  0.00     0.074 A 
ATOM     49  C   UNL A   1      42.940  27.083  30.133  1.00  0.00     0.029 A 
ATOM     50  N   UNL A   1      42.157  28.909  31.133  1.00  0.00    -0.354 N 
ATOM     51  N   UNL A   1      42.275  31.170  33.005  1.00  0.00    -0.248 NA
ATOM     52  C   UNL A   1      43.275  32.252  34.819  1.00  0.00     0.031 C 
ATOM     53  C   UNL A   1      43.819  27.435  31.161  1.00  0.00     0.029 A 
ATOM     54  C   UNL A   1      43.339  28.581  31.776  1.00  0.00     0.049 A 
ATOM     55  H   UNL A   1      41.590  29.683  31.354  1.00  0.00     0.167 HD
ATOM     56  C   UNL A   1      43.408  30.465  33.388  1.00  0.00     0.074 A 
ATOM     57  C   UNL A   1      44.001  31.193  34.491  1.00  0.00     0.031 C 
ATOM     58  C   UNL A   1      43.910  29.316  32.875  1.00  0.00     0.037 A 
BRANCH  45  59
ATOM     59  C   UNL A   1      40.532  26.885  28.315  1.00  0.00     0.057 A 
ATOM     60  C   UNL A   1      39.612  25.856  28.556  1.00  0.00     0.134 A 
ATOM     61  C   UNL A   1      41.241  26.849  27.107  1.00  0.00     0.134 A 
ATOM     62  F   UNL A   1      38.911  25.825  29.699  1.00  0.00    -0.206 F 
ATOM     63  C   UNL A   1      39.422  24.819  27.641  1.00  0.00     0.040 A 
ATOM     64  C   UNL A   1      41.041  25.832  26.174  1.00  0.00     0.040 A 
ATOM     65  F   UNL A   1      42.135  27.807  26.814  1.00  0.00    -0.206 F 
ATOM     66  C   UNL A   1      40.132  24.810  26.443  1.00  0.00     0.006 A 
ENDBRANCH  45  59
BRANCH  46  67
ATOM     67  C   UNL A   1      41.268  34.378  34.871  1.00  0.00     0.057 A 
ATOM     68  C   UNL A   1      40.682  34.229  36.133  1.00  0.00     0.134 A 
ATOM     69  C   UNL A   1      41.932  35.582  34.606  1.00  0.00     0.134 A 
ATOM     70  F   UNL A   1      40.017  33.106  36.438  1.00  0.00    -0.206 F 
ATOM     71  C   UNL A   1      40.738  35.243  37.089  1.00  0.00     0.040 A 
ATOM     72  C   UNL A   1      42.015  36.596  35.561  1.00  0.00     0.040 A 
ATOM     73  F   UNL A   1      42.519  35.784  33.416  1.00  0.00    -0.206 F 
ATOM     74  C   UNL A   1      41.410  36.430  36.806  1.00  0.00     0.006 A 
ENDBRANCH  46  67
BRANCH  58  75
ATOM     75  C   UNL A   1      45.166  28.783  33.495  1.00  0.00     0.057 A 
ATOM     76  C   UNL A   1      46.431  29.185  33.050  1.00  0.00     0.134 A 
ATOM     77  C   UNL A   1      45.109  27.891  34.573  1.00  0.00     0.134 A 
ATOM     78  F   UNL A   1      46.550  30.026  32.012  1.00  0.00    -0.206 F 
ATOM     79  C   UNL A   1      47.598  28.707  33.647  1.00  0.00     0.040 A 
ATOM     80  C   UNL A   1      46.268  27.423  35.193  1.00  0.00     0.040 A 
ATOM     81  F   UNL A   1      43.927  27.472  35.050  1.00  0.00    -0.206 F 
ATOM     82  C   UNL A   1      47.518  27.829  34.727  1.00  0.00     0.006 A 
ENDBRANCH  58  75
ENDBRANCH  32  33
ENDBRANCH  24  27
ENDBRANCH  22  23
ENDBRANCH  21  22
ENDBRANCH  20  21
ENDBRANCH   1  20
TORSDOF 15
ENDMDL
