MODEL 1
REMARK VINA RESULT:     -12.0      0.000      0.000
REMARK SMILES Cc1ccnc(N2CCCC[C@H]2C(=O)NCCCCNC(=O)c2ccc(-c3c4nc(c(-c5c(F)cccc5F)c5ccc([nH]5)c(-c5c(F)cccc5F)c5nc(c(-c6c(F)cccc6F)c6ccc3[nH]6)C=C5)C=C4)cc2)n1
REMARK SMILES IDX 18 1 17 2 16 3 15 4 13 5 14 6 12 8 7 9 8 10 9 11 11 12 10 13
REMARK SMILES IDX 6 14 1 15 2 16 3 17 77 18 4 19 5 20 19 21 20 22 21 23 22 25
REMARK SMILES IDX 23 26 24 27 76 28 25 29 75 30 26 31 27 32 28 33 69 34 29 35
REMARK SMILES IDX 74 36 68 37 70 38 30 39 73 40 67 41 66 42 31 44 57 45 40 46
REMARK SMILES IDX 56 47 41 48 44 49 55 50 71 51 42 52 43 53 54 55 72 56 45 57
REMARK SMILES IDX 32 58 33 59 38 60 34 61 35 62 37 63 39 64 36 65 58 66 59 67
REMARK SMILES IDX 64 68 60 69 61 70 63 71 65 72 62 73 46 74 47 75 52 76 48 77
REMARK SMILES IDX 49 78 51 79 53 80 50 81
REMARK H PARENT 15 7 20 24 70 43 44 54
REMARK Flexibility Score: inf
ROOT
ATOM      1  C   UNL A   1      31.606  31.976  26.658  1.00  0.00     0.023 C 
ENDROOT
BRANCH   1   2
ATOM      2  C   UNL A   1      31.761  30.458  26.598  1.00  0.00     0.023 C 
BRANCH   2   3
ATOM      3  C   UNL A   1      33.200  29.962  26.551  1.00  0.00     0.116 C 
BRANCH   3   4
ATOM      4  N   UNL A   1      33.662  29.714  25.203  1.00  0.00    -0.354 N 
ATOM      5  C   UNL A   1      33.066  28.975  24.221  1.00  0.00     0.242 C 
ATOM      6  O   UNL A   1      33.608  28.997  23.112  1.00  0.00    -0.273 OA
ATOM      7  H   UNL A   1      34.519  30.132  24.961  1.00  0.00     0.163 HD
BRANCH   5   8
ATOM      8  C   UNL A   1      31.784  28.155  24.515  1.00  0.00     0.174 C 
ATOM      9  N   UNL A   1      30.922  28.052  23.340  1.00  0.00    -0.329 N 
ATOM     10  C   UNL A   1      31.336  27.250  22.212  1.00  0.00     0.120 C 
ATOM     11  C   UNL A   1      31.623  25.825  22.672  1.00  0.00     0.022 C 
ATOM     12  C   UNL A   1      32.147  26.726  24.980  1.00  0.00     0.035 C 
ATOM     13  C   UNL A   1      32.597  25.797  23.846  1.00  0.00     0.004 C 
BRANCH   9  14
ATOM     14  C   UNL A   1      29.743  28.735  23.250  1.00  0.00     0.226 A 
ATOM     15  C   UNL A   1      28.664  32.235  23.323  1.00  0.00     0.067 C 
ATOM     16  C   UNL A   1      28.597  30.740  23.279  1.00  0.00     0.043 A 
ATOM     17  C   UNL A   1      27.386  30.094  23.168  1.00  0.00     0.044 A 
ATOM     18  N   UNL A   1      29.771  30.074  23.341  1.00  0.00    -0.218 NA
ATOM     19  C   UNL A   1      27.452  28.728  23.101  1.00  0.00     0.117 A 
ATOM     20  N   UNL A   1      28.606  28.040  23.121  1.00  0.00    -0.221 NA
ENDBRANCH   9  14
ENDBRANCH   5   8
ENDBRANCH   3   4
ENDBRANCH   2   3
ENDBRANCH   1   2
BRANCH   1  21
ATOM     21  C   UNL A   1      32.768  32.726  27.300  1.00  0.00     0.116 C 
BRANCH  21  22
ATOM     22  N   UNL A   1      32.445  34.111  27.615  1.00  0.00    -0.352 N 
ATOM     23  C   UNL A   1      33.015  34.950  28.541  1.00  0.00     0.251 C 
ATOM     24  H   UNL A   1      31.712  34.502  27.087  1.00  0.00     0.163 HD
ATOM     25  O   UNL A   1      32.520  36.051  28.767  1.00  0.00    -0.269 OA
BRANCH  23  26
ATOM     26  C   UNL A   1      34.209  34.510  29.291  1.00  0.00     0.039 A 
ATOM     27  C   UNL A   1      34.045  33.933  30.552  1.00  0.00     0.014 A 
ATOM     28  C   UNL A   1      35.486  34.639  28.738  1.00  0.00     0.014 A 
ATOM     29  C   UNL A   1      35.154  33.414  31.225  1.00  0.00     0.010 A 
ATOM     30  C   UNL A   1      36.574  34.047  29.369  1.00  0.00     0.010 A 
ATOM     31  C   UNL A   1      36.421  33.427  30.618  1.00  0.00    -0.014 A 
BRANCH  31  32
ATOM     32  C   UNL A   1      37.594  32.786  31.268  1.00  0.00     0.031 A 
ATOM     33  C   UNL A   1      38.243  31.583  30.644  1.00  0.00     0.074 A 
ATOM     34  C   UNL A   1      38.021  33.237  32.464  1.00  0.00     0.049 A 
ATOM     35  N   UNL A   1      39.227  30.846  31.096  1.00  0.00    -0.248 NA
ATOM     36  C   UNL A   1      37.695  31.128  29.357  1.00  0.00     0.031 C 
ATOM     37  C   UNL A   1      37.434  34.354  33.207  1.00  0.00     0.029 A 
ATOM     38  N   UNL A   1      39.038  32.796  33.274  1.00  0.00    -0.354 N 
ATOM     39  C   UNL A   1      39.397  29.832  30.164  1.00  0.00     0.074 A 
ATOM     40  C   UNL A   1      38.383  30.017  29.148  1.00  0.00     0.031 C 
ATOM     41  C   UNL A   1      38.108  34.520  34.356  1.00  0.00     0.029 A 
ATOM     42  C   UNL A   1      39.148  33.499  34.450  1.00  0.00     0.049 A 
ATOM     43  H   UNL A   1      39.632  32.049  33.036  1.00  0.00     0.167 HD
ATOM     44  C   UNL A   1      40.327  28.847  30.143  1.00  0.00     0.037 A 
ATOM     45  C   UNL A   1      39.983  33.334  35.493  1.00  0.00     0.037 A 
ATOM     46  C   UNL A   1      41.348  28.680  31.144  1.00  0.00     0.049 A 
ATOM     47  C   UNL A   1      41.017  32.244  35.444  1.00  0.00     0.074 A 
ATOM     48  C   UNL A   1      42.390  27.768  31.168  1.00  0.00     0.029 A 
ATOM     49  N   UNL A   1      41.450  29.434  32.304  1.00  0.00    -0.354 N 
ATOM     50  N   UNL A   1      41.229  31.350  34.509  1.00  0.00    -0.248 NA
ATOM     51  C   UNL A   1      41.932  32.147  36.589  1.00  0.00     0.031 C 
ATOM     52  C   UNL A   1      43.087  27.933  32.369  1.00  0.00     0.029 A 
ATOM     53  C   UNL A   1      42.516  28.986  33.067  1.00  0.00     0.049 A 
ATOM     54  H   UNL A   1      40.853  30.177  32.549  1.00  0.00     0.167 HD
ATOM     55  C   UNL A   1      42.313  30.597  34.941  1.00  0.00     0.074 A 
ATOM     56  C   UNL A   1      42.725  31.152  36.215  1.00  0.00     0.031 C 
ATOM     57  C   UNL A   1      42.914  29.543  34.337  1.00  0.00     0.037 A 
BRANCH  44  58
ATOM     58  C   UNL A   1      40.271  27.868  29.004  1.00  0.00     0.057 A 
ATOM     59  C   UNL A   1      40.970  28.077  27.807  1.00  0.00     0.134 A 
ATOM     60  C   UNL A   1      39.519  26.692  29.113  1.00  0.00     0.134 A 
ATOM     61  F   UNL A   1      41.701  29.188  27.632  1.00  0.00    -0.206 F 
ATOM     62  C   UNL A   1      40.892  27.172  26.747  1.00  0.00     0.040 A 
ATOM     63  C   UNL A   1      39.458  25.763  28.072  1.00  0.00     0.040 A 
ATOM     64  F   UNL A   1      38.832  26.422  30.233  1.00  0.00    -0.206 F 
ATOM     65  C   UNL A   1      40.138  26.008  26.881  1.00  0.00     0.006 A 
ENDBRANCH  44  58
BRANCH  45  66
ATOM     66  C   UNL A   1      39.878  34.237  36.668  1.00  0.00     0.057 A 
ATOM     67  C   UNL A   1      40.556  35.459  36.706  1.00  0.00     0.134 A 
ATOM     68  C   UNL A   1      39.081  33.906  37.771  1.00  0.00     0.134 A 
ATOM     69  F   UNL A   1      41.349  35.823  35.688  1.00  0.00    -0.206 F 
ATOM     70  C   UNL A   1      40.457  36.317  37.803  1.00  0.00     0.040 A 
ATOM     71  C   UNL A   1      38.951  34.766  38.863  1.00  0.00     0.040 A 
ATOM     72  F   UNL A   1      38.397  32.753  37.791  1.00  0.00    -0.206 F 
ATOM     73  C   UNL A   1      39.645  35.973  38.883  1.00  0.00     0.006 A 
ENDBRANCH  45  66
BRANCH  57  74
ATOM     74  C   UNL A   1      44.096  28.932  35.031  1.00  0.00     0.057 A 
ATOM     75  C   UNL A   1      45.394  29.432  34.864  1.00  0.00     0.134 A 
ATOM     76  C   UNL A   1      43.928  27.855  35.912  1.00  0.00     0.134 A 
ATOM     77  F   UNL A   1      45.627  30.453  34.027  1.00  0.00    -0.206 F 
ATOM     78  C   UNL A   1      46.485  28.868  35.531  1.00  0.00     0.040 A 
ATOM     79  C   UNL A   1      45.005  27.301  36.604  1.00  0.00     0.040 A 
ATOM     80  F   UNL A   1      42.710  27.333  36.124  1.00  0.00    -0.206 F 
ATOM     81  C   UNL A   1      46.289  27.804  36.410  1.00  0.00     0.006 A 
ENDBRANCH  57  74
ENDBRANCH  31  32
ENDBRANCH  23  26
ENDBRANCH  21  22
ENDBRANCH   1  21
TORSDOF 12
ENDMDL
MODEL 2
REMARK VINA RESULT:     -12.0      6.391     11.232
REMARK SMILES Cc1ccnc(N2CCCC[C@H]2C(=O)NCCCCNC(=O)c2ccc(-c3c4nc(c(-c5c(F)cccc5F)c5ccc([nH]5)c(-c5c(F)cccc5F)c5nc(c(-c6c(F)cccc6F)c6ccc3[nH]6)C=C5)C=C4)cc2)n1
REMARK SMILES IDX 18 1 17 2 16 3 15 4 13 5 14 6 12 8 7 9 8 10 9 11 11 12 10 13
REMARK SMILES IDX 6 14 1 15 2 16 3 17 77 18 4 19 5 20 19 21 20 22 21 23 22 25
REMARK SMILES IDX 23 26 24 27 76 28 25 29 75 30 26 31 27 32 28 33 69 34 29 35
REMARK SMILES IDX 74 36 68 37 70 38 30 39 73 40 67 41 66 42 31 44 57 45 40 46
REMARK SMILES IDX 56 47 41 48 44 49 55 50 71 51 42 52 43 53 54 55 72 56 45 57
REMARK SMILES IDX 32 58 33 59 38 60 34 61 35 62 37 63 39 64 36 65 58 66 59 67
REMARK SMILES IDX 64 68 60 69 61 70 63 71 65 72 62 73 46 74 47 75 52 76 48 77
REMARK SMILES IDX 49 78 51 79 53 80 50 81
REMARK H PARENT 15 7 20 24 70 43 44 54
REMARK Flexibility Score: inf
ROOT
ATOM      1  C   UNL A   1      37.983  20.001  25.000  1.00  0.00     0.023 C 
ENDROOT
BRANCH   1   2
ATOM      2  C   UNL A   1      37.232  21.237  24.512  1.00  0.00     0.023 C 
BRANCH   2   3
ATOM      3  C   UNL A   1      37.148  22.375  25.521  1.00  0.00     0.116 C 
BRANCH   3   4
ATOM      4  N   UNL A   1      36.095  22.184  26.494  1.00  0.00    -0.354 N 
ATOM      5  C   UNL A   1      34.783  21.873  26.278  1.00  0.00     0.242 C 
ATOM      6  O   UNL A   1      34.097  21.659  27.283  1.00  0.00    -0.273 OA
ATOM      7  H   UNL A   1      36.359  22.292  27.436  1.00  0.00     0.163 HD
BRANCH   5   8
ATOM      8  C   UNL A   1      34.211  21.808  24.839  1.00  0.00     0.174 C 
ATOM      9  N   UNL A   1      33.005  20.987  24.769  1.00  0.00    -0.329 N 
ATOM     10  C   UNL A   1      31.780  21.454  25.378  1.00  0.00     0.120 C 
ATOM     11  C   UNL A   1      31.413  22.821  24.812  1.00  0.00     0.022 C 
ATOM     12  C   UNL A   1      33.866  23.226  24.327  1.00  0.00     0.035 C 
ATOM     13  C   UNL A   1      32.575  23.805  24.918  1.00  0.00     0.004 C 
BRANCH   9  14
ATOM     14  C   UNL A   1      33.006  19.754  24.181  1.00  0.00     0.226 A 
ATOM     15  C   UNL A   1      34.777  16.579  24.624  1.00  0.00     0.067 C 
ATOM     16  C   UNL A   1      33.867  17.616  24.043  1.00  0.00     0.043 A 
ATOM     17  C   UNL A   1      33.080  17.328  22.951  1.00  0.00     0.044 A 
ATOM     18  N   UNL A   1      33.852  18.824  24.649  1.00  0.00    -0.218 NA
ATOM     19  C   UNL A   1      32.262  18.343  22.531  1.00  0.00     0.117 A 
ATOM     20  N   UNL A   1      32.198  19.541  23.136  1.00  0.00    -0.221 NA
ENDBRANCH   9  14
ENDBRANCH   5   8
ENDBRANCH   3   4
ENDBRANCH   2   3
ENDBRANCH   1   2
BRANCH   1  21
ATOM     21  C   UNL A   1      39.200  20.279  25.875  1.00  0.00     0.116 C 
BRANCH  21  22
ATOM     22  N   UNL A   1      40.158  19.182  25.882  1.00  0.00    -0.352 N 
ATOM     23  C   UNL A   1      41.521  19.214  26.052  1.00  0.00     0.251 C 
ATOM     24  H   UNL A   1      39.773  18.287  25.745  1.00  0.00     0.163 HD
ATOM     25  O   UNL A   1      42.190  18.198  25.889  1.00  0.00    -0.269 OA
BRANCH  23  26
ATOM     26  C   UNL A   1      42.185  20.488  26.399  1.00  0.00     0.039 A 
ATOM     27  C   UNL A   1      42.696  21.289  25.376  1.00  0.00     0.014 A 
ATOM     28  C   UNL A   1      42.276  20.904  27.730  1.00  0.00     0.014 A 
ATOM     29  C   UNL A   1      43.228  22.544  25.681  1.00  0.00     0.010 A 
ATOM     30  C   UNL A   1      42.727  22.186  28.023  1.00  0.00     0.010 A 
ATOM     31  C   UNL A   1      43.207  23.021  27.002  1.00  0.00    -0.014 A 
BRANCH  31  32
ATOM     32  C   UNL A   1      43.670  24.393  27.333  1.00  0.00     0.031 A 
ATOM     33  C   UNL A   1      42.682  25.447  27.749  1.00  0.00     0.074 A 
ATOM     34  C   UNL A   1      44.969  24.714  27.179  1.00  0.00     0.049 A 
ATOM     35  N   UNL A   1      42.884  26.715  28.007  1.00  0.00    -0.248 NA
ATOM     36  C   UNL A   1      41.276  25.029  27.857  1.00  0.00     0.031 C 
ATOM     37  C   UNL A   1      46.018  23.801  26.718  1.00  0.00     0.029 A 
ATOM     38  N   UNL A   1      45.627  25.903  27.374  1.00  0.00    -0.354 N 
ATOM     39  C   UNL A   1      41.632  27.248  28.284  1.00  0.00     0.074 A 
ATOM     40  C   UNL A   1      40.672  26.179  28.112  1.00  0.00     0.031 C 
ATOM     41  C   UNL A   1      47.187  24.458  26.680  1.00  0.00     0.029 A 
ATOM     42  C   UNL A   1      46.967  25.847  27.075  1.00  0.00     0.049 A 
ATOM     43  H   UNL A   1      45.182  26.718  27.699  1.00  0.00     0.167 HD
ATOM     44  C   UNL A   1      41.313  28.507  28.668  1.00  0.00     0.037 A 
ATOM     45  C   UNL A   1      47.911  26.807  27.101  1.00  0.00     0.037 A 
ATOM     46  C   UNL A   1      42.275  29.561  28.860  1.00  0.00     0.049 A 
ATOM     47  C   UNL A   1      47.539  28.194  27.544  1.00  0.00     0.074 A 
ATOM     48  C   UNL A   1      42.063  30.845  29.332  1.00  0.00     0.029 A 
ATOM     49  N   UNL A   1      43.629  29.456  28.580  1.00  0.00    -0.354 N 
ATOM     50  N   UNL A   1      46.365  28.660  27.896  1.00  0.00    -0.248 NA
ATOM     51  C   UNL A   1      48.622  29.184  27.601  1.00  0.00     0.031 C 
ATOM     52  C   UNL A   1      43.279  31.534  29.282  1.00  0.00     0.029 A 
ATOM     53  C   UNL A   1      44.260  30.663  28.836  1.00  0.00     0.049 A 
ATOM     54  H   UNL A   1      44.076  28.644  28.248  1.00  0.00     0.167 HD
ATOM     55  C   UNL A   1      46.571  29.991  28.237  1.00  0.00     0.074 A 
ATOM     56  C   UNL A   1      47.986  30.251  28.065  1.00  0.00     0.031 C 
ATOM     57  C   UNL A   1      45.669  30.912  28.656  1.00  0.00     0.037 A 
BRANCH  44  58
ATOM     58  C   UNL A   1      39.859  28.812  28.894  1.00  0.00     0.057 A 
ATOM     59  C   UNL A   1      39.266  28.719  30.161  1.00  0.00     0.134 A 
ATOM     60  C   UNL A   1      39.044  29.221  27.831  1.00  0.00     0.134 A 
ATOM     61  F   UNL A   1      39.987  28.323  31.221  1.00  0.00    -0.206 F 
ATOM     62  C   UNL A   1      37.909  28.983  30.354  1.00  0.00     0.040 A 
ATOM     63  C   UNL A   1      37.693  29.518  28.017  1.00  0.00     0.040 A 
ATOM     64  F   UNL A   1      39.546  29.341  26.592  1.00  0.00    -0.206 F 
ATOM     65  C   UNL A   1      37.120  29.389  29.281  1.00  0.00     0.006 A 
ENDBRANCH  44  58
BRANCH  45  66
ATOM     66  C   UNL A   1      49.304  26.478  26.705  1.00  0.00     0.057 A 
ATOM     67  C   UNL A   1      50.224  25.980  27.635  1.00  0.00     0.134 A 
ATOM     68  C   UNL A   1      49.742  26.634  25.385  1.00  0.00     0.134 A 
ATOM     69  F   UNL A   1      49.869  25.825  28.919  1.00  0.00    -0.206 F 
ATOM     70  C   UNL A   1      51.533  25.661  27.270  1.00  0.00     0.040 A 
ATOM     71  C   UNL A   1      51.040  26.295  24.999  1.00  0.00     0.040 A 
ATOM     72  F   UNL A   1      48.905  27.096  24.444  1.00  0.00    -0.206 F 
ATOM     73  C   UNL A   1      51.942  25.811  25.945  1.00  0.00     0.006 A 
ENDBRANCH  45  66
BRANCH  57  74
ATOM     74  C   UNL A   1      46.186  32.284  28.981  1.00  0.00     0.057 A 
ATOM     75  C   UNL A   1      46.223  33.308  28.025  1.00  0.00     0.134 A 
ATOM     76  C   UNL A   1      46.614  32.596  30.278  1.00  0.00     0.134 A 
ATOM     77  F   UNL A   1      45.840  33.073  26.762  1.00  0.00    -0.206 F 
ATOM     78  C   UNL A   1      46.688  34.586  28.343  1.00  0.00     0.040 A 
ATOM     79  C   UNL A   1      47.054  33.876  30.615  1.00  0.00     0.040 A 
ATOM     80  F   UNL A   1      46.596  31.664  31.243  1.00  0.00    -0.206 F 
ATOM     81  C   UNL A   1      47.098  34.874  29.645  1.00  0.00     0.006 A 
ENDBRANCH  57  74
ENDBRANCH  31  32
ENDBRANCH  23  26
ENDBRANCH  21  22
ENDBRANCH   1  21
TORSDOF 12
ENDMDL
MODEL 3
REMARK VINA RESULT:     -12.0      0.537      6.339
REMARK SMILES Cc1ccnc(N2CCCC[C@H]2C(=O)NCCCCNC(=O)c2ccc(-c3c4nc(c(-c5c(F)cccc5F)c5ccc([nH]5)c(-c5c(F)cccc5F)c5nc(c(-c6c(F)cccc6F)c6ccc3[nH]6)C=C5)C=C4)cc2)n1
REMARK SMILES IDX 18 1 17 2 16 3 15 4 13 5 14 6 12 8 7 9 8 10 9 11 11 12 10 13
REMARK SMILES IDX 6 14 1 15 2 16 3 17 77 18 4 19 5 20 19 21 20 22 21 23 22 25
REMARK SMILES IDX 23 26 24 27 76 28 25 29 75 30 26 31 27 32 28 33 69 34 29 35
REMARK SMILES IDX 74 36 68 37 70 38 30 39 73 40 67 41 66 42 31 44 57 45 40 46
REMARK SMILES IDX 56 47 41 48 44 49 55 50 71 51 42 52 43 53 54 55 72 56 45 57
REMARK SMILES IDX 32 58 33 59 38 60 34 61 35 62 37 63 39 64 36 65 58 66 59 67
REMARK SMILES IDX 64 68 60 69 61 70 63 71 65 72 62 73 46 74 47 75 52 76 48 77
REMARK SMILES IDX 49 78 51 79 53 80 50 81
REMARK H PARENT 15 7 20 24 70 43 44 54
REMARK Flexibility Score: inf
ROOT
ATOM      1  C   UNL A   1      31.409  32.214  26.504  1.00  0.00     0.023 C 
ENDROOT
BRANCH   1   2
ATOM      2  C   UNL A   1      31.451  30.692  26.390  1.00  0.00     0.023 C 
BRANCH   2   3
ATOM      3  C   UNL A   1      32.836  30.077  26.539  1.00  0.00     0.116 C 
BRANCH   3   4
ATOM      4  N   UNL A   1      33.437  29.737  25.268  1.00  0.00    -0.354 N 
ATOM      5  C   UNL A   1      32.965  28.897  24.300  1.00  0.00     0.242 C 
ATOM      6  O   UNL A   1      33.613  28.849  23.250  1.00  0.00    -0.273 OA
ATOM      7  H   UNL A   1      34.300  30.168  25.074  1.00  0.00     0.163 HD
BRANCH   5   8
ATOM      8  C   UNL A   1      31.687  28.053  24.539  1.00  0.00     0.174 C 
ATOM      9  N   UNL A   1      30.854  27.975  23.341  1.00  0.00    -0.329 N 
ATOM     10  C   UNL A   1      31.305  27.211  22.200  1.00  0.00     0.120 C 
ATOM     11  C   UNL A   1      31.599  25.776  22.625  1.00  0.00     0.022 C 
ATOM     12  C   UNL A   1      32.056  26.616  24.971  1.00  0.00     0.035 C 
ATOM     13  C   UNL A   1      32.545  25.726  23.822  1.00  0.00     0.004 C 
BRANCH   9  14
ATOM     14  C   UNL A   1      29.669  28.647  23.242  1.00  0.00     0.226 A 
ATOM     15  C   UNL A   1      28.565  32.139  23.216  1.00  0.00     0.067 C 
ATOM     16  C   UNL A   1      28.509  30.643  23.219  1.00  0.00     0.043 A 
ATOM     17  C   UNL A   1      27.302  29.986  23.142  1.00  0.00     0.044 A 
ATOM     18  N   UNL A   1      29.688  29.987  23.290  1.00  0.00    -0.218 NA
ATOM     19  C   UNL A   1      27.377  28.618  23.118  1.00  0.00     0.117 A 
ATOM     20  N   UNL A   1      28.537  27.940  23.147  1.00  0.00    -0.221 NA
ENDBRANCH   9  14
ENDBRANCH   5   8
ENDBRANCH   3   4
ENDBRANCH   2   3
ENDBRANCH   1   2
BRANCH   1  21
ATOM     21  C   UNL A   1      32.580  32.846  27.247  1.00  0.00     0.116 C 
BRANCH  21  22
ATOM     22  N   UNL A   1      32.329  34.228  27.633  1.00  0.00    -0.352 N 
ATOM     23  C   UNL A   1      32.960  34.997  28.580  1.00  0.00     0.251 C 
ATOM     24  H   UNL A   1      31.601  34.675  27.144  1.00  0.00     0.163 HD
ATOM     25  O   UNL A   1      32.522  36.107  28.869  1.00  0.00    -0.269 OA
BRANCH  23  26
ATOM     26  C   UNL A   1      34.153  34.470  29.275  1.00  0.00     0.039 A 
ATOM     27  C   UNL A   1      33.992  33.811  30.495  1.00  0.00     0.014 A 
ATOM     28  C   UNL A   1      35.424  34.602  28.709  1.00  0.00     0.014 A 
ATOM     29  C   UNL A   1      35.095  33.213  31.109  1.00  0.00     0.010 A 
ATOM     30  C   UNL A   1      36.504  33.935  29.277  1.00  0.00     0.010 A 
ATOM     31  C   UNL A   1      36.352  33.233  30.482  1.00  0.00    -0.014 A 
BRANCH  31  32
ATOM     32  C   UNL A   1      37.515  32.514  31.063  1.00  0.00     0.031 A 
ATOM     33  C   UNL A   1      38.149  33.003  32.336  1.00  0.00     0.074 A 
ATOM     34  C   UNL A   1      38.054  31.471  30.402  1.00  0.00     0.049 A 
ATOM     35  N   UNL A   1      39.211  32.554  32.956  1.00  0.00    -0.248 NA
ATOM     36  C   UNL A   1      37.527  34.171  32.978  1.00  0.00     0.031 C 
ATOM     37  C   UNL A   1      37.573  30.941  29.124  1.00  0.00     0.029 A 
ATOM     38  N   UNL A   1      39.136  30.683  30.702  1.00  0.00    -0.354 N 
ATOM     39  C   UNL A   1      39.396  33.395  34.045  1.00  0.00     0.074 A 
ATOM     40  C   UNL A   1      38.369  34.412  33.971  1.00  0.00     0.031 C 
ATOM     41  C   UNL A   1      38.348  29.908  28.758  1.00  0.00     0.029 A 
ATOM     42  C   UNL A   1      39.401  29.726  29.753  1.00  0.00     0.049 A 
ATOM     43  H   UNL A   1      39.671  30.792  31.521  1.00  0.00     0.167 HD
ATOM     44  C   UNL A   1      40.324  33.318  35.029  1.00  0.00     0.037 A 
ATOM     45  C   UNL A   1      40.389  28.813  29.682  1.00  0.00     0.037 A 
ATOM     46  C   UNL A   1      41.330  32.291  35.110  1.00  0.00     0.049 A 
ATOM     47  C   UNL A   1      41.400  28.734  30.791  1.00  0.00     0.074 A 
ATOM     48  C   UNL A   1      42.259  32.073  36.113  1.00  0.00     0.029 A 
ATOM     49  N   UNL A   1      41.546  31.317  34.146  1.00  0.00    -0.354 N 
ATOM     50  N   UNL A   1      41.505  29.477  31.866  1.00  0.00    -0.248 NA
ATOM     51  C   UNL A   1      42.422  27.684  30.683  1.00  0.00     0.031 C 
ATOM     52  C   UNL A   1      43.074  31.003  35.729  1.00  0.00     0.029 A 
ATOM     53  C   UNL A   1      42.615  30.516  34.515  1.00  0.00     0.049 A 
ATOM     54  H   UNL A   1      41.017  31.210  33.323  1.00  0.00     0.167 HD
ATOM     55  C   UNL A   1      42.590  28.975  32.572  1.00  0.00     0.074 A 
ATOM     56  C   UNL A   1      43.098  27.851  31.811  1.00  0.00     0.031 C 
ATOM     57  C   UNL A   1      43.116  29.403  33.746  1.00  0.00     0.037 A 
BRANCH  44  58
ATOM     58  C   UNL A   1      40.297  34.381  36.089  1.00  0.00     0.057 A 
ATOM     59  C   UNL A   1      39.509  34.263  37.244  1.00  0.00     0.134 A 
ATOM     60  C   UNL A   1      41.081  35.534  35.962  1.00  0.00     0.134 A 
ATOM     61  F   UNL A   1      38.726  33.190  37.424  1.00  0.00    -0.206 F 
ATOM     62  C   UNL A   1      39.474  35.268  38.211  1.00  0.00     0.040 A 
ATOM     63  C   UNL A   1      41.079  36.533  36.938  1.00  0.00     0.040 A 
ATOM     64  F   UNL A   1      41.866  35.710  34.888  1.00  0.00    -0.206 F 
ATOM     65  C   UNL A   1      40.265  36.405  38.062  1.00  0.00     0.006 A 
ENDBRANCH  44  58
BRANCH  45  66
ATOM     66  C   UNL A   1      40.457  27.894  28.518  1.00  0.00     0.057 A 
ATOM     67  C   UNL A   1      41.192  28.224  27.374  1.00  0.00     0.134 A 
ATOM     68  C   UNL A   1      39.804  26.655  28.529  1.00  0.00     0.134 A 
ATOM     69  F   UNL A   1      41.824  29.405  27.297  1.00  0.00    -0.206 F 
ATOM     70  C   UNL A   1      41.267  27.363  26.279  1.00  0.00     0.040 A 
ATOM     71  C   UNL A   1      39.892  25.772  27.452  1.00  0.00     0.040 A 
ATOM     72  F   UNL A   1      39.092  26.275  29.600  1.00  0.00    -0.206 F 
ATOM     73  C   UNL A   1      40.621  26.128  26.319  1.00  0.00     0.006 A 
ENDBRANCH  45  66
BRANCH  57  74
ATOM     74  C   UNL A   1      44.289  28.643  34.294  1.00  0.00     0.057 A 
ATOM     75  C   UNL A   1      45.610  29.031  34.035  1.00  0.00     0.134 A 
ATOM     76  C   UNL A   1      44.093  27.533  35.126  1.00  0.00     0.134 A 
ATOM     77  F   UNL A   1      45.868  30.078  33.237  1.00  0.00    -0.206 F 
ATOM     78  C   UNL A   1      46.694  28.328  34.566  1.00  0.00     0.040 A 
ATOM     79  C   UNL A   1      45.167  26.839  35.684  1.00  0.00     0.040 A 
ATOM     80  F   UNL A   1      42.854  27.113  35.421  1.00  0.00    -0.206 F 
ATOM     81  C   UNL A   1      46.472  27.233  35.400  1.00  0.00     0.006 A 
ENDBRANCH  57  74
ENDBRANCH  31  32
ENDBRANCH  23  26
ENDBRANCH  21  22
ENDBRANCH   1  21
TORSDOF 12
ENDMDL
