MODEL 1
REMARK VINA RESULT:     -11.2      0.000      0.000
REMARK SMILES N#Cc1cccc(/C=C/C(=O)NCC(=O)NCCCCNC(=O)c2ccc(-c3c4nc(c(-c5c(F)cccc5F)c5ccc([nH]5)c(-c5c(F)cccc5F)c5nc(c(-c6c(F)cccc6F)c6ccc3[nH]6)C=C5)C=C4)cc2)c1
REMARK SMILES IDX 17 1 16 2 14 3 15 4 13 6 12 7 10 8 11 9 9 11 8 12 7 13 3 14
REMARK SMILES IDX 4 15 78 16 5 17 6 18 2 19 1 20 18 21 19 22 20 23 21 24 22 25
REMARK SMILES IDX 23 27 24 28 25 29 77 30 26 31 76 32 27 33 28 34 29 35 70 36
REMARK SMILES IDX 30 37 75 38 69 39 71 40 31 41 74 42 68 43 67 44 32 46 58 47
REMARK SMILES IDX 41 48 57 49 42 50 45 51 56 52 72 53 43 54 44 55 55 57 73 58
REMARK SMILES IDX 46 59 33 60 34 61 39 62 35 63 36 64 38 65 40 66 37 67 59 68
REMARK SMILES IDX 60 69 65 70 61 71 62 72 64 73 66 74 63 75 47 76 48 77 53 78
REMARK SMILES IDX 49 79 50 80 52 81 54 82 51 83
REMARK H PARENT 16 5 12 10 21 26 71 45 45 56
REMARK Flexibility Score: inf
ROOT
ATOM      1  C   UNL A   1      32.845  29.855  25.910  1.00  0.00     0.116 C 
ENDROOT
BRANCH   1   2
ATOM      2  N   UNL A   1      33.414  29.732  24.588  1.00  0.00    -0.355 N 
ATOM      3  C   UNL A   1      33.815  28.635  23.889  1.00  0.00     0.239 C 
ATOM      4  O   UNL A   1      34.134  28.822  22.709  1.00  0.00    -0.273 OA
ATOM      5  H   UNL A   1      33.531  30.585  24.111  1.00  0.00     0.163 HD
BRANCH   3   6
ATOM      6  C   UNL A   1      33.720  27.197  24.436  1.00  0.00     0.216 C 
BRANCH   6   7
ATOM      7  N   UNL A   1      33.156  26.166  23.576  1.00  0.00    -0.343 N 
ATOM      8  C   UNL A   1      31.981  25.989  22.930  1.00  0.00     0.244 C 
ATOM      9  O   UNL A   1      31.884  25.004  22.195  1.00  0.00    -0.270 OA
ATOM     10  H   UNL A   1      33.779  25.419  23.431  1.00  0.00     0.164 HD
BRANCH   8  11
ATOM     11  C   UNL A   1      30.774  26.854  23.074  1.00  0.00     0.072 C 
ATOM     12  C   UNL A   1      30.504  28.032  22.496  1.00  0.00     0.014 C 
BRANCH  12  13
ATOM     13  C   UNL A   1      29.360  28.923  22.760  1.00  0.00    -0.024 A 
ATOM     14  C   UNL A   1      28.611  31.222  23.104  1.00  0.00     0.053 A 
ATOM     15  C   UNL A   1      27.319  30.766  23.367  1.00  0.00     0.019 A 
ATOM     16  C   UNL A   1      29.623  30.302  22.807  1.00  0.00     0.027 A 
ATOM     17  C   UNL A   1      27.047  29.398  23.337  1.00  0.00     0.002 A 
ATOM     18  C   UNL A   1      28.062  28.480  23.041  1.00  0.00     0.008 A 
BRANCH  14  19
ATOM     19  C   UNL A   1      28.915  32.622  23.137  1.00  0.00     0.099 C 
ATOM     20  N   UNL A   1      29.138  33.762  23.164  1.00  0.00    -0.192 NA
ENDBRANCH  14  19
ENDBRANCH  12  13
ENDBRANCH   8  11
ENDBRANCH   6   7
ENDBRANCH   3   6
ENDBRANCH   1   2
BRANCH   1  21
ATOM     21  C   UNL A   1      31.410  30.362  25.894  1.00  0.00     0.023 C 
BRANCH  21  22
ATOM     22  C   UNL A   1      31.265  31.792  26.404  1.00  0.00     0.023 C 
BRANCH  22  23
ATOM     23  C   UNL A   1      32.569  32.438  26.854  1.00  0.00     0.116 C 
BRANCH  23  24
ATOM     24  N   UNL A   1      32.377  33.727  27.503  1.00  0.00    -0.352 N 
ATOM     25  C   UNL A   1      33.145  34.298  28.494  1.00  0.00     0.251 C 
ATOM     26  H   UNL A   1      31.603  34.254  27.199  1.00  0.00     0.163 HD
ATOM     27  O   UNL A   1      32.797  35.331  29.052  1.00  0.00    -0.269 OA
BRANCH  25  28
ATOM     28  C   UNL A   1      34.391  33.613  28.893  1.00  0.00     0.039 A 
ATOM     29  C   UNL A   1      35.620  34.206  28.602  1.00  0.00     0.014 A 
ATOM     30  C   UNL A   1      34.323  32.441  29.648  1.00  0.00     0.014 A 
ATOM     31  C   UNL A   1      36.786  33.663  29.147  1.00  0.00     0.010 A 
ATOM     32  C   UNL A   1      35.470  31.959  30.262  1.00  0.00     0.010 A 
ATOM     33  C   UNL A   1      36.714  32.566  30.020  1.00  0.00    -0.014 A 
BRANCH  33  34
ATOM     34  C   UNL A   1      37.915  32.011  30.696  1.00  0.00     0.031 A 
ATOM     35  C   UNL A   1      38.697  30.917  30.023  1.00  0.00     0.074 A 
ATOM     36  C   UNL A   1      38.241  32.409  31.941  1.00  0.00     0.049 A 
ATOM     37  N   UNL A   1      39.663  30.176  30.500  1.00  0.00    -0.248 NA
ATOM     38  C   UNL A   1      38.318  30.596  28.637  1.00  0.00     0.031 C 
ATOM     39  C   UNL A   1      37.554  33.449  32.709  1.00  0.00     0.029 A 
ATOM     40  N   UNL A   1      39.224  31.965  32.792  1.00  0.00    -0.354 N 
ATOM     41  C   UNL A   1      39.995  29.293  29.481  1.00  0.00     0.074 A 
ATOM     42  C   UNL A   1      39.087  29.549  28.384  1.00  0.00     0.031 C 
ATOM     43  C   UNL A   1      38.144  33.571  33.910  1.00  0.00     0.029 A 
ATOM     44  C   UNL A   1      39.210  32.580  34.022  1.00  0.00     0.049 A 
ATOM     45  H   UNL A   1      39.878  31.271  32.544  1.00  0.00     0.167 HD
ATOM     46  C   UNL A   1      40.982  28.367  29.452  1.00  0.00     0.037 A 
ATOM     47  C   UNL A   1      39.955  32.352  35.121  1.00  0.00     0.037 A 
ATOM     48  C   UNL A   1      41.886  28.122  30.543  1.00  0.00     0.049 A 
ATOM     49  C   UNL A   1      41.000  31.267  35.090  1.00  0.00     0.074 A 
ATOM     50  C   UNL A   1      42.938  27.227  30.603  1.00  0.00     0.029 A 
ATOM     51  N   UNL A   1      41.838  28.769  31.769  1.00  0.00    -0.354 N 
ATOM     52  N   UNL A   1      41.334  30.467  34.106  1.00  0.00    -0.248 NA
ATOM     53  C   UNL A   1      41.775  31.052  36.321  1.00  0.00     0.031 C 
ATOM     54  C   UNL A   1      43.486  27.284  31.886  1.00  0.00     0.029 A 
ATOM     55  C   UNL A   1      42.828  28.272  32.600  1.00  0.00     0.049 A 
ATOM     56  H   UNL A   1      41.197  29.476  32.012  1.00  0.00     0.167 HD
ATOM     57  C   UNL A   1      42.385  29.693  34.582  1.00  0.00     0.074 A 
ATOM     58  C   UNL A   1      42.633  30.115  35.943  1.00  0.00     0.031 C 
ATOM     59  C   UNL A   1      43.086  28.725  33.944  1.00  0.00     0.037 A 
BRANCH  46  60
ATOM     60  C   UNL A   1      41.129  27.547  28.203  1.00  0.00     0.057 A 
ATOM     61  C   UNL A   1      40.454  26.331  28.031  1.00  0.00     0.134 A 
ATOM     62  C   UNL A   1      41.928  27.995  27.144  1.00  0.00     0.134 A 
ATOM     63  F   UNL A   1      39.679  25.838  29.010  1.00  0.00    -0.206 F 
ATOM     64  C   UNL A   1      40.594  25.575  26.867  1.00  0.00     0.040 A 
ATOM     65  C   UNL A   1      42.048  27.265  25.960  1.00  0.00     0.040 A 
ATOM     66  F   UNL A   1      42.595  29.155  27.236  1.00  0.00    -0.206 F 
ATOM     67  C   UNL A   1      41.387  26.047  25.823  1.00  0.00     0.006 A 
ENDBRANCH  46  60
BRANCH  47  68
ATOM     68  C   UNL A   1      39.747  33.161  36.352  1.00  0.00     0.057 A 
ATOM     69  C   UNL A   1      40.520  34.301  36.606  1.00  0.00     0.134 A 
ATOM     70  C   UNL A   1      38.800  32.801  37.319  1.00  0.00     0.134 A 
ATOM     71  F   UNL A   1      41.458  34.689  35.728  1.00  0.00    -0.206 F 
ATOM     72  C   UNL A   1      40.384  35.033  37.787  1.00  0.00     0.040 A 
ATOM     73  C   UNL A   1      38.630  33.543  38.489  1.00  0.00     0.040 A 
ATOM     74  F   UNL A   1      38.019  31.726  37.137  1.00  0.00    -0.206 F 
ATOM     75  C   UNL A   1      39.432  34.655  38.731  1.00  0.00     0.006 A 
ENDBRANCH  47  68
BRANCH  59  76
ATOM     76  C   UNL A   1      44.245  28.100  34.666  1.00  0.00     0.057 A 
ATOM     77  C   UNL A   1      44.124  26.908  35.388  1.00  0.00     0.134 A 
ATOM     78  C   UNL A   1      45.527  28.659  34.551  1.00  0.00     0.134 A 
ATOM     79  F   UNL A   1      42.925  26.327  35.547  1.00  0.00    -0.206 F 
ATOM     80  C   UNL A   1      45.233  26.298  35.976  1.00  0.00     0.040 A 
ATOM     81  C   UNL A   1      46.647  28.041  35.105  1.00  0.00     0.040 A 
ATOM     82  F   UNL A   1      45.714  29.797  33.863  1.00  0.00    -0.206 F 
ATOM     83  C   UNL A   1      46.501  26.857  35.823  1.00  0.00     0.006 A 
ENDBRANCH  59  76
ENDBRANCH  33  34
ENDBRANCH  25  28
ENDBRANCH  23  24
ENDBRANCH  22  23
ENDBRANCH  21  22
ENDBRANCH   1  21
TORSDOF 15
ENDMDL
MODEL 2
REMARK VINA RESULT:     -11.2      0.501      6.394
REMARK SMILES N#Cc1cccc(/C=C/C(=O)NCC(=O)NCCCCNC(=O)c2ccc(-c3c4nc(c(-c5c(F)cccc5F)c5ccc([nH]5)c(-c5c(F)cccc5F)c5nc(c(-c6c(F)cccc6F)c6ccc3[nH]6)C=C5)C=C4)cc2)c1
REMARK SMILES IDX 17 1 16 2 14 3 15 4 13 6 12 7 10 8 11 9 9 11 8 12 7 13 3 14
REMARK SMILES IDX 4 15 78 16 5 17 6 18 2 19 1 20 18 21 19 22 20 23 21 24 22 25
REMARK SMILES IDX 23 27 24 28 25 29 77 30 26 31 76 32 27 33 28 34 29 35 70 36
REMARK SMILES IDX 30 37 75 38 69 39 71 40 31 41 74 42 68 43 67 44 32 46 58 47
REMARK SMILES IDX 41 48 57 49 42 50 45 51 56 52 72 53 43 54 44 55 55 57 73 58
REMARK SMILES IDX 46 59 33 60 34 61 39 62 35 63 36 64 38 65 40 66 37 67 59 68
REMARK SMILES IDX 60 69 65 70 61 71 62 72 64 73 66 74 63 75 47 76 48 77 53 78
REMARK SMILES IDX 49 79 50 80 52 81 54 82 51 83
REMARK H PARENT 16 5 12 10 21 26 71 45 45 56
REMARK Flexibility Score: inf
ROOT
ATOM      1  C   UNL A   1      33.103  29.844  26.180  1.00  0.00     0.116 C 
ENDROOT
BRANCH   1   2
ATOM      2  N   UNL A   1      33.632  29.683  24.845  1.00  0.00    -0.355 N 
ATOM      3  C   UNL A   1      33.897  28.563  24.120  1.00  0.00     0.239 C 
ATOM      4  O   UNL A   1      34.214  28.735  22.938  1.00  0.00    -0.273 OA
ATOM      5  H   UNL A   1      33.834  30.527  24.380  1.00  0.00     0.163 HD
BRANCH   3   6
ATOM      6  C   UNL A   1      33.653  27.133  24.645  1.00  0.00     0.216 C 
BRANCH   6   7
ATOM      7  N   UNL A   1      33.210  26.117  23.702  1.00  0.00    -0.343 N 
ATOM      8  C   UNL A   1      32.104  25.920  22.948  1.00  0.00     0.244 C 
ATOM      9  O   UNL A   1      32.113  24.962  22.172  1.00  0.00    -0.270 OA
ATOM     10  H   UNL A   1      33.874  25.401  23.585  1.00  0.00     0.164 HD
BRANCH   8  11
ATOM     11  C   UNL A   1      30.854  26.731  23.017  1.00  0.00     0.072 C 
ATOM     12  C   UNL A   1      30.642  27.995  22.622  1.00  0.00     0.014 C 
BRANCH  12  13
ATOM     13  C   UNL A   1      29.430  28.809  22.823  1.00  0.00    -0.024 A 
ATOM     14  C   UNL A   1      28.509  31.058  23.059  1.00  0.00     0.053 A 
ATOM     15  C   UNL A   1      27.246  30.520  23.308  1.00  0.00     0.019 A 
ATOM     16  C   UNL A   1      29.592  30.204  22.823  1.00  0.00     0.027 A 
ATOM     17  C   UNL A   1      27.075  29.136  23.325  1.00  0.00     0.002 A 
ATOM     18  C   UNL A   1      28.160  28.284  23.089  1.00  0.00     0.008 A 
BRANCH  14  19
ATOM     19  C   UNL A   1      28.711  32.477  23.045  1.00  0.00     0.099 C 
ATOM     20  N   UNL A   1      28.886  33.625  23.013  1.00  0.00    -0.192 NA
ENDBRANCH  14  19
ENDBRANCH  12  13
ENDBRANCH   8  11
ENDBRANCH   6   7
ENDBRANCH   3   6
ENDBRANCH   1   2
BRANCH   1  21
ATOM     21  C   UNL A   1      31.645  30.279  26.192  1.00  0.00     0.023 C 
BRANCH  21  22
ATOM     22  C   UNL A   1      31.454  31.756  26.519  1.00  0.00     0.023 C 
BRANCH  22  23
ATOM     23  C   UNL A   1      32.631  32.400  27.242  1.00  0.00     0.116 C 
BRANCH  23  24
ATOM     24  N   UNL A   1      32.454  33.829  27.466  1.00  0.00    -0.352 N 
ATOM     25  C   UNL A   1      33.104  34.628  28.380  1.00  0.00     0.251 C 
ATOM     26  H   UNL A   1      31.789  34.278  26.895  1.00  0.00     0.163 HD
ATOM     27  O   UNL A   1      32.765  35.791  28.561  1.00  0.00    -0.269 OA
BRANCH  25  28
ATOM     28  C   UNL A   1      34.203  34.036  29.168  1.00  0.00     0.039 A 
ATOM     29  C   UNL A   1      33.899  33.231  30.268  1.00  0.00     0.014 A 
ATOM     30  C   UNL A   1      35.523  34.195  28.742  1.00  0.00     0.014 A 
ATOM     31  C   UNL A   1      34.921  32.514  30.893  1.00  0.00     0.010 A 
ATOM     32  C   UNL A   1      36.519  33.412  29.307  1.00  0.00     0.010 A 
ATOM     33  C   UNL A   1      36.229  32.560  30.386  1.00  0.00    -0.014 A 
BRANCH  33  34
ATOM     34  C   UNL A   1      37.330  31.745  30.960  1.00  0.00     0.031 A 
ATOM     35  C   UNL A   1      37.833  32.058  32.342  1.00  0.00     0.074 A 
ATOM     36  C   UNL A   1      37.942  30.805  30.214  1.00  0.00     0.049 A 
ATOM     37  N   UNL A   1      38.886  31.595  32.964  1.00  0.00    -0.248 NA
ATOM     38  C   UNL A   1      37.062  33.047  33.113  1.00  0.00     0.031 C 
ATOM     39  C   UNL A   1      37.561  30.417  28.854  1.00  0.00     0.029 A 
ATOM     40  N   UNL A   1      39.034  30.018  30.488  1.00  0.00    -0.354 N 
ATOM     41  C   UNL A   1      38.912  32.248  34.190  1.00  0.00     0.074 A 
ATOM     42  C   UNL A   1      37.808  33.183  34.199  1.00  0.00     0.031 C 
ATOM     43  C   UNL A   1      38.397  29.459  28.420  1.00  0.00     0.029 A 
ATOM     44  C   UNL A   1      39.407  29.206  29.443  1.00  0.00     0.049 A 
ATOM     45  H   UNL A   1      39.505  30.033  31.353  1.00  0.00     0.167 HD
ATOM     46  C   UNL A   1      39.766  32.070  35.225  1.00  0.00     0.037 A 
ATOM     47  C   UNL A   1      40.459  28.374  29.315  1.00  0.00     0.037 A 
ATOM     48  C   UNL A   1      40.859  31.134  35.214  1.00  0.00     0.049 A 
ATOM     49  C   UNL A   1      41.437  28.244  30.453  1.00  0.00     0.074 A 
ATOM     50  C   UNL A   1      41.763  30.857  36.222  1.00  0.00     0.029 A 
ATOM     51  N   UNL A   1      41.200  30.331  34.136  1.00  0.00    -0.354 N 
ATOM     52  N   UNL A   1      41.428  28.835  31.624  1.00  0.00    -0.248 NA
ATOM     53  C   UNL A   1      42.574  27.333  30.255  1.00  0.00     0.031 C 
ATOM     54  C   UNL A   1      42.691  29.935  35.733  1.00  0.00     0.029 A 
ATOM     55  C   UNL A   1      42.318  29.577  34.448  1.00  0.00     0.049 A 
ATOM     56  H   UNL A   1      40.718  30.301  33.277  1.00  0.00     0.167 HD
ATOM     57  C   UNL A   1      42.522  28.330  32.316  1.00  0.00     0.074 A 
ATOM     58  C   UNL A   1      43.177  27.388  31.435  1.00  0.00     0.031 C 
ATOM     59  C   UNL A   1      42.940  28.616  33.573  1.00  0.00     0.037 A 
BRANCH  46  60
ATOM     60  C   UNL A   1      39.555  32.909  36.452  1.00  0.00     0.057 A 
ATOM     61  C   UNL A   1      40.239  34.116  36.651  1.00  0.00     0.134 A 
ATOM     62  C   UNL A   1      38.632  32.523  37.432  1.00  0.00     0.134 A 
ATOM     63  F   UNL A   1      41.145  34.541  35.757  1.00  0.00    -0.206 F 
ATOM     64  C   UNL A   1      40.036  34.891  37.793  1.00  0.00     0.040 A 
ATOM     65  C   UNL A   1      38.394  33.308  38.561  1.00  0.00     0.040 A 
ATOM     66  F   UNL A   1      37.936  31.383  37.302  1.00  0.00    -0.206 F 
ATOM     67  C   UNL A   1      39.105  34.491  38.749  1.00  0.00     0.006 A 
ENDBRANCH  46  60
BRANCH  47  68
ATOM     68  C   UNL A   1      40.653  27.592  28.064  1.00  0.00     0.057 A 
ATOM     69  C   UNL A   1      40.114  26.308  27.925  1.00  0.00     0.134 A 
ATOM     70  C   UNL A   1      41.406  28.090  26.993  1.00  0.00     0.134 A 
ATOM     71  F   UNL A   1      39.397  25.765  28.920  1.00  0.00    -0.206 F 
ATOM     72  C   UNL A   1      40.342  25.534  26.784  1.00  0.00     0.040 A 
ATOM     73  C   UNL A   1      41.615  27.342  25.834  1.00  0.00     0.040 A 
ATOM     74  F   UNL A   1      41.945  29.317  27.056  1.00  0.00    -0.206 F 
ATOM     75  C   UNL A   1      41.092  26.055  25.732  1.00  0.00     0.006 A 
ENDBRANCH  47  68
BRANCH  59  76
ATOM     76  C   UNL A   1      44.114  27.854  34.117  1.00  0.00     0.057 A 
ATOM     77  C   UNL A   1      43.977  26.598  34.719  1.00  0.00     0.134 A 
ATOM     78  C   UNL A   1      45.414  28.350  33.946  1.00  0.00     0.134 A 
ATOM     79  F   UNL A   1      42.761  26.069  34.924  1.00  0.00    -0.206 F 
ATOM     80  C   UNL A   1      45.090  25.866  35.137  1.00  0.00     0.040 A 
ATOM     81  C   UNL A   1      46.535  27.615  34.329  1.00  0.00     0.040 A 
ATOM     82  F   UNL A   1      45.616  29.544  33.367  1.00  0.00    -0.206 F 
ATOM     83  C   UNL A   1      46.374  26.368  34.929  1.00  0.00     0.006 A 
ENDBRANCH  59  76
ENDBRANCH  33  34
ENDBRANCH  25  28
ENDBRANCH  23  24
ENDBRANCH  22  23
ENDBRANCH  21  22
ENDBRANCH   1  21
TORSDOF 15
ENDMDL
MODEL 3
REMARK VINA RESULT:     -11.1      4.578      9.132
REMARK SMILES N#Cc1cccc(/C=C/C(=O)NCC(=O)NCCCCNC(=O)c2ccc(-c3c4nc(c(-c5c(F)cccc5F)c5ccc([nH]5)c(-c5c(F)cccc5F)c5nc(c(-c6c(F)cccc6F)c6ccc3[nH]6)C=C5)C=C4)cc2)c1
REMARK SMILES IDX 17 1 16 2 14 3 15 4 13 6 12 7 10 8 11 9 9 11 8 12 7 13 3 14
REMARK SMILES IDX 4 15 78 16 5 17 6 18 2 19 1 20 18 21 19 22 20 23 21 24 22 25
REMARK SMILES IDX 23 27 24 28 25 29 77 30 26 31 76 32 27 33 28 34 29 35 70 36
REMARK SMILES IDX 30 37 75 38 69 39 71 40 31 41 74 42 68 43 67 44 32 46 58 47
REMARK SMILES IDX 41 48 57 49 42 50 45 51 56 52 72 53 43 54 44 55 55 57 73 58
REMARK SMILES IDX 46 59 33 60 34 61 39 62 35 63 36 64 38 65 40 66 37 67 59 68
REMARK SMILES IDX 60 69 65 70 61 71 62 72 64 73 66 74 63 75 47 76 48 77 53 78
REMARK SMILES IDX 49 79 50 80 52 81 54 82 51 83
REMARK H PARENT 16 5 12 10 21 26 71 45 45 56
REMARK Flexibility Score: inf
ROOT
ATOM      1  C   UNL A   1      34.803  21.478  26.312  1.00  0.00     0.116 C 
ENDROOT
BRANCH   1   2
ATOM      2  N   UNL A   1      34.113  20.480  25.527  1.00  0.00    -0.355 N 
ATOM      3  C   UNL A   1      32.907  20.518  24.899  1.00  0.00     0.239 C 
ATOM      4  O   UNL A   1      32.634  19.554  24.175  1.00  0.00    -0.273 OA
ATOM      5  H   UNL A   1      34.597  19.628  25.431  1.00  0.00     0.163 HD
BRANCH   3   6
ATOM      6  C   UNL A   1      31.980  21.750  24.912  1.00  0.00     0.216 C 
BRANCH   6   7
ATOM      7  N   UNL A   1      31.189  22.007  26.107  1.00  0.00    -0.343 N 
ATOM      8  C   UNL A   1      30.569  23.087  26.637  1.00  0.00     0.244 C 
ATOM      9  O   UNL A   1      29.894  22.908  27.653  1.00  0.00    -0.270 OA
ATOM     10  H   UNL A   1      31.079  21.203  26.663  1.00  0.00     0.164 HD
BRANCH   8  11
ATOM     11  C   UNL A   1      30.679  24.485  26.127  1.00  0.00     0.072 C 
ATOM     12  C   UNL A   1      31.457  25.485  26.564  1.00  0.00     0.014 C 
BRANCH  12  13
ATOM     13  C   UNL A   1      31.447  26.891  26.122  1.00  0.00    -0.024 A 
ATOM     14  C   UNL A   1      30.919  28.451  24.318  1.00  0.00     0.053 A 
ATOM     15  C   UNL A   1      31.453  29.501  25.065  1.00  0.00     0.019 A 
ATOM     16  C   UNL A   1      30.922  27.155  24.846  1.00  0.00     0.027 A 
ATOM     17  C   UNL A   1      31.990  29.251  26.328  1.00  0.00     0.002 A 
ATOM     18  C   UNL A   1      31.992  27.954  26.853  1.00  0.00     0.008 A 
BRANCH  14  19
ATOM     19  C   UNL A   1      30.371  28.683  23.015  1.00  0.00     0.099 C 
ATOM     20  N   UNL A   1      29.921  28.893  21.964  1.00  0.00    -0.192 NA
ENDBRANCH  14  19
ENDBRANCH  12  13
ENDBRANCH   8  11
ENDBRANCH   6   7
ENDBRANCH   3   6
ENDBRANCH   1   2
BRANCH   1  21
ATOM     21  C   UNL A   1      36.014  22.061  25.597  1.00  0.00     0.023 C 
BRANCH  21  22
ATOM     22  C   UNL A   1      37.005  21.005  25.120  1.00  0.00     0.023 C 
BRANCH  22  23
ATOM     23  C   UNL A   1      38.439  21.227  25.586  1.00  0.00     0.116 C 
BRANCH  23  24
ATOM     24  N   UNL A   1      39.251  20.019  25.540  1.00  0.00    -0.352 N 
ATOM     25  C   UNL A   1      40.573  19.875  25.897  1.00  0.00     0.251 C 
ATOM     26  H   UNL A   1      38.801  19.206  25.214  1.00  0.00     0.163 HD
ATOM     27  O   UNL A   1      41.180  18.833  25.683  1.00  0.00    -0.269 OA
BRANCH  25  28
ATOM     28  C   UNL A   1      41.258  21.027  26.517  1.00  0.00     0.039 A 
ATOM     29  C   UNL A   1      41.890  21.967  25.701  1.00  0.00     0.014 A 
ATOM     30  C   UNL A   1      41.172  21.221  27.897  1.00  0.00     0.014 A 
ATOM     31  C   UNL A   1      42.365  23.153  26.265  1.00  0.00     0.010 A 
ATOM     32  C   UNL A   1      41.562  22.438  28.439  1.00  0.00     0.010 A 
ATOM     33  C   UNL A   1      42.160  23.418  27.628  1.00  0.00    -0.014 A 
BRANCH  33  34
ATOM     34  C   UNL A   1      42.565  24.702  28.254  1.00  0.00     0.031 A 
ATOM     35  C   UNL A   1      41.538  25.782  28.450  1.00  0.00     0.074 A 
ATOM     36  C   UNL A   1      43.859  24.938  28.550  1.00  0.00     0.049 A 
ATOM     37  N   UNL A   1      41.703  27.028  28.812  1.00  0.00    -0.248 NA
ATOM     38  C   UNL A   1      40.139  25.415  28.170  1.00  0.00     0.031 C 
ATOM     39  C   UNL A   1      44.955  23.981  28.393  1.00  0.00     0.029 A 
ATOM     40  N   UNL A   1      44.474  26.071  29.024  1.00  0.00    -0.354 N 
ATOM     41  C   UNL A   1      40.435  27.595  28.788  1.00  0.00     0.074 A 
ATOM     42  C   UNL A   1      39.522  26.578  28.316  1.00  0.00     0.031 C 
ATOM     43  C   UNL A   1      46.104  24.562  28.775  1.00  0.00     0.029 A 
ATOM     44  C   UNL A   1      45.839  25.948  29.147  1.00  0.00     0.049 A 
ATOM     45  H   UNL A   1      43.985  26.893  29.254  1.00  0.00     0.167 HD
ATOM     46  C   UNL A   1      40.062  28.846  29.147  1.00  0.00     0.037 A 
ATOM     47  C   UNL A   1      46.770  26.857  29.494  1.00  0.00     0.037 A 
ATOM     48  C   UNL A   1      40.974  29.852  29.621  1.00  0.00     0.049 A 
ATOM     49  C   UNL A   1      46.339  28.264  29.821  1.00  0.00     0.074 A 
ATOM     50  C   UNL A   1      40.691  31.140  30.038  1.00  0.00     0.029 A 
ATOM     51  N   UNL A   1      42.346  29.685  29.732  1.00  0.00    -0.354 N 
ATOM     52  N   UNL A   1      45.133  28.778  29.836  1.00  0.00    -0.248 NA
ATOM     53  C   UNL A   1      47.398  29.219  30.181  1.00  0.00     0.031 C 
ATOM     54  C   UNL A   1      41.899  31.774  30.339  1.00  0.00     0.029 A 
ATOM     55  C   UNL A   1      42.926  30.857  30.188  1.00  0.00     0.049 A 
ATOM     56  H   UNL A   1      42.835  28.857  29.521  1.00  0.00     0.167 HD
ATOM     57  C   UNL A   1      45.283  30.095  30.253  1.00  0.00     0.074 A 
ATOM     58  C   UNL A   1      46.697  30.305  30.477  1.00  0.00     0.031 C 
ATOM     59  C   UNL A   1      44.333  31.042  30.440  1.00  0.00     0.037 A 
BRANCH  46  60
ATOM     60  C   UNL A   1      38.606  29.196  29.033  1.00  0.00     0.057 A 
ATOM     61  C   UNL A   1      37.740  29.128  30.133  1.00  0.00     0.134 A 
ATOM     62  C   UNL A   1      38.071  29.639  27.817  1.00  0.00     0.134 A 
ATOM     63  F   UNL A   1      38.184  28.703  31.325  1.00  0.00    -0.206 F 
ATOM     64  C   UNL A   1      36.389  29.457  30.020  1.00  0.00     0.040 A 
ATOM     65  C   UNL A   1      36.729  30.005  27.701  1.00  0.00     0.040 A 
ATOM     66  F   UNL A   1      38.845  29.736  26.726  1.00  0.00    -0.206 F 
ATOM     67  C   UNL A   1      35.882  29.905  28.802  1.00  0.00     0.006 A 
ENDBRANCH  46  60
BRANCH  47  68
ATOM     68  C   UNL A   1      48.208  26.478  29.554  1.00  0.00     0.057 A 
ATOM     69  C   UNL A   1      48.757  25.912  30.710  1.00  0.00     0.134 A 
ATOM     70  C   UNL A   1      49.073  26.701  28.475  1.00  0.00     0.134 A 
ATOM     71  F   UNL A   1      47.986  25.690  31.785  1.00  0.00    -0.206 F 
ATOM     72  C   UNL A   1      50.118  25.612  30.806  1.00  0.00     0.040 A 
ATOM     73  C   UNL A   1      50.429  26.375  28.545  1.00  0.00     0.040 A 
ATOM     74  F   UNL A   1      48.612  27.232  27.333  1.00  0.00    -0.206 F 
ATOM     75  C   UNL A   1      50.957  25.840  29.717  1.00  0.00     0.006 A 
ENDBRANCH  47  68
BRANCH  59  76
ATOM     76  C   UNL A   1      44.760  32.373  30.988  1.00  0.00     0.057 A 
ATOM     77  C   UNL A   1      44.904  32.607  32.361  1.00  0.00     0.134 A 
ATOM     78  C   UNL A   1      45.126  33.407  30.115  1.00  0.00     0.134 A 
ATOM     79  F   UNL A   1      44.562  31.664  33.252  1.00  0.00    -0.206 F 
ATOM     80  C   UNL A   1      45.390  33.823  32.844  1.00  0.00     0.040 A 
ATOM     81  C   UNL A   1      45.643  34.614  30.585  1.00  0.00     0.040 A 
ATOM     82  F   UNL A   1      45.022  33.245  28.786  1.00  0.00    -0.206 F 
ATOM     83  C   UNL A   1      45.774  34.825  31.955  1.00  0.00     0.006 A 
ENDBRANCH  59  76
ENDBRANCH  33  34
ENDBRANCH  25  28
ENDBRANCH  23  24
ENDBRANCH  22  23
ENDBRANCH  21  22
ENDBRANCH   1  21
TORSDOF 15
ENDMDL
