MODEL 1
REMARK VINA RESULT:     -12.9      0.000      0.000
REMARK SMILES Cc1ccc(-c2cc(OCC(=O)NCCCCNC(=O)c3ccc(-c4c5nc(c(-c6c(F)cccc6F)c6ccc([nH]6)c(-c6c(F)cccc6F)c6nc(c(-c7c(F)cccc7F)c7ccc4[nH]7)C=C6)C=C5)cc3)nc(NCc3ccc4c(c3)OCO4)n2)cc1
REMARK SMILES IDX 14 1 13 2 11 3 12 4 10 6 9 7 8 8 6 9 7 10 88 11 76 12 75 13
REMARK SMILES IDX 5 14 1 15 2 16 3 17 90 18 4 19 89 20 77 21 78 23 79 24 80 25
REMARK SMILES IDX 84 26 81 27 83 28 82 29 85 30 87 31 86 32 15 33 16 34 17 35
REMARK SMILES IDX 18 36 19 37 20 39 21 40 22 41 74 42 23 43 73 44 24 45 25 46
REMARK SMILES IDX 26 47 67 48 27 49 72 50 66 51 68 52 28 53 71 54 65 55 64 56
REMARK SMILES IDX 29 58 55 59 38 60 54 61 39 62 42 63 53 64 69 65 40 66 41 67
REMARK SMILES IDX 52 69 70 70 43 71 30 72 31 73 36 74 32 75 33 76 35 77 37 78
REMARK SMILES IDX 34 79 56 80 57 81 62 82 58 83 59 84 61 85 63 86 60 87 44 88
REMARK SMILES IDX 45 89 50 90 46 91 47 92 49 93 51 94 48 95
REMARK H PARENT 13 5 77 22 18 38 68 57 42 68
REMARK Flexibility Score: inf
ROOT
ATOM      1  C   UNL A   1      31.366  28.964  24.958  1.00  0.00     0.116 C 
ENDROOT
BRANCH   1   2
ATOM      2  N   UNL A   1      31.168  27.840  25.856  1.00  0.00    -0.353 N 
ATOM      3  C   UNL A   1      31.937  26.724  26.015  1.00  0.00     0.258 C 
ATOM      4  O   UNL A   1      31.604  25.890  26.860  1.00  0.00    -0.271 OA
ATOM      5  H   UNL A   1      30.371  27.890  26.430  1.00  0.00     0.163 HD
BRANCH   3   6
ATOM      6  C   UNL A   1      33.194  26.529  25.158  1.00  0.00     0.331 C 
BRANCH   6   7
ATOM      7  O   UNL A   1      34.285  25.879  25.781  1.00  0.00    -0.467 OA
BRANCH   7   8
ATOM      8  C   UNL A   1      34.752  24.734  25.198  1.00  0.00     0.219 A 
ATOM      9  C   UNL A   1      36.200  22.948  24.824  1.00  0.00     0.080 A 
ATOM     10  C   UNL A   1      35.946  24.131  25.486  1.00  0.00     0.097 A 
ATOM     11  N   UNL A   1      35.364  22.434  23.901  1.00  0.00    -0.213 NA
ATOM     12  C   UNL A   1      34.224  23.096  23.683  1.00  0.00     0.226 A 
ATOM     13  N   UNL A   1      33.888  24.228  24.306  1.00  0.00    -0.177 NA
BRANCH   9  14
ATOM     14  C   UNL A   1      37.383  22.151  25.158  1.00  0.00     0.000 A 
ATOM     15  C   UNL A   1      40.737  19.681  26.331  1.00  0.00     0.044 C 
ATOM     16  C   UNL A   1      39.583  20.538  25.901  1.00  0.00    -0.051 A 
ATOM     17  C   UNL A   1      39.521  21.883  26.289  1.00  0.00     0.004 A 
ATOM     18  C   UNL A   1      38.548  20.006  25.130  1.00  0.00     0.004 A 
ATOM     19  C   UNL A   1      38.436  22.683  25.913  1.00  0.00     0.010 A 
ATOM     20  C   UNL A   1      37.460  20.804  24.765  1.00  0.00     0.010 A 
ENDBRANCH   9  14
BRANCH  12  21
ATOM     21  N   UNL A   1      33.284  22.619  22.810  1.00  0.00    -0.350 N 
ATOM     22  H   UNL A   1      33.416  22.747  21.842  1.00  0.00     0.164 HD
BRANCH  21  23
ATOM     23  C   UNL A   1      32.106  21.934  23.274  1.00  0.00     0.152 C 
BRANCH  23  24
ATOM     24  C   UNL A   1      32.399  20.547  23.824  1.00  0.00    -0.025 A 
ATOM     25  C   UNL A   1      32.517  20.390  25.227  1.00  0.00     0.009 A 
ATOM     26  C   UNL A   1      32.540  19.414  23.001  1.00  0.00     0.056 A 
ATOM     27  C   UNL A   1      32.816  19.148  25.800  1.00  0.00     0.051 A 
ATOM     28  C   UNL A   1      32.857  18.209  23.591  1.00  0.00     0.166 A 
ATOM     29  C   UNL A   1      32.999  18.081  24.951  1.00  0.00     0.165 A 
ATOM     30  O   UNL A   1      33.088  17.042  22.932  1.00  0.00    -0.454 OA
ATOM     31  O   UNL A   1      33.346  16.817  25.317  1.00  0.00    -0.454 OA
ATOM     32  C   UNL A   1      33.540  16.213  24.021  1.00  0.00     0.468 C 
ENDBRANCH  23  24
ENDBRANCH  21  23
ENDBRANCH  12  21
ENDBRANCH   7   8
ENDBRANCH   6   7
ENDBRANCH   3   6
ENDBRANCH   1   2
BRANCH   1  33
ATOM     33  C   UNL A   1      32.536  29.875  25.348  1.00  0.00     0.023 C 
BRANCH  33  34
ATOM     34  C   UNL A   1      32.395  30.623  26.676  1.00  0.00     0.023 C 
BRANCH  34  35
ATOM     35  C   UNL A   1      33.421  30.240  27.730  1.00  0.00     0.116 C 
BRANCH  35  36
ATOM     36  N   UNL A   1      34.201  31.345  28.269  1.00  0.00    -0.352 N 
ATOM     37  C   UNL A   1      35.476  31.354  28.819  1.00  0.00     0.251 C 
ATOM     38  H   UNL A   1      33.754  32.222  28.238  1.00  0.00     0.163 HD
ATOM     39  O   UNL A   1      35.919  32.383  29.299  1.00  0.00    -0.269 OA
BRANCH  37  40
ATOM     40  C   UNL A   1      36.358  30.159  28.690  1.00  0.00     0.039 A 
ATOM     41  C   UNL A   1      36.534  29.353  29.825  1.00  0.00     0.014 A 
ATOM     42  C   UNL A   1      37.160  29.955  27.574  1.00  0.00     0.014 A 
ATOM     43  C   UNL A   1      37.677  28.564  29.937  1.00  0.00     0.010 A 
ATOM     44  C   UNL A   1      38.349  29.274  27.725  1.00  0.00     0.010 A 
ATOM     45  C   UNL A   1      38.639  28.638  28.933  1.00  0.00    -0.014 A 
BRANCH  45  46
ATOM     46  C   UNL A   1      40.023  28.222  29.112  1.00  0.00     0.031 A 
ATOM     47  C   UNL A   1      40.510  26.945  28.559  1.00  0.00     0.074 A 
ATOM     48  C   UNL A   1      40.897  29.093  29.664  1.00  0.00     0.049 A 
ATOM     49  N   UNL A   1      41.543  26.317  29.009  1.00  0.00    -0.248 NA
ATOM     50  C   UNL A   1      39.853  26.260  27.453  1.00  0.00     0.031 C 
ATOM     51  C   UNL A   1      42.355  29.020  29.649  1.00  0.00     0.029 A 
ATOM     52  N   UNL A   1      40.611  30.150  30.539  1.00  0.00    -0.354 N 
ATOM     53  C   UNL A   1      41.860  25.339  28.096  1.00  0.00     0.074 A 
ATOM     54  C   UNL A   1      40.741  25.298  27.181  1.00  0.00     0.031 C 
ATOM     55  C   UNL A   1      42.837  29.767  30.655  1.00  0.00     0.029 A 
ATOM     56  C   UNL A   1      41.699  30.220  31.434  1.00  0.00     0.049 A 
ATOM     57  H   UNL A   1      39.814  30.727  30.529  1.00  0.00     0.167 HD
ATOM     58  C   UNL A   1      43.100  24.772  28.118  1.00  0.00     0.037 A 
ATOM     59  C   UNL A   1      41.532  30.001  32.771  1.00  0.00     0.037 A 
ATOM     60  C   UNL A   1      43.921  25.328  29.191  1.00  0.00     0.049 A 
ATOM     61  C   UNL A   1      42.347  28.846  33.304  1.00  0.00     0.074 A 
ATOM     62  C   UNL A   1      44.890  26.318  29.204  1.00  0.00     0.029 A 
ATOM     63  N   UNL A   1      43.574  25.103  30.518  1.00  0.00    -0.354 N 
ATOM     64  N   UNL A   1      42.841  27.900  32.555  1.00  0.00    -0.248 NA
ATOM     65  C   UNL A   1      42.666  28.661  34.716  1.00  0.00     0.031 C 
ATOM     66  C   UNL A   1      45.107  26.710  30.546  1.00  0.00     0.029 A 
ATOM     67  C   UNL A   1      44.278  25.949  31.352  1.00  0.00     0.049 A 
ATOM     68  H   UNL A   1      42.919  24.434  30.822  1.00  0.00     0.167 HD
ATOM     69  C   UNL A   1      43.515  26.995  33.337  1.00  0.00     0.074 A 
ATOM     70  C   UNL A   1      43.390  27.527  34.681  1.00  0.00     0.031 C 
ATOM     71  C   UNL A   1      44.115  25.891  32.796  1.00  0.00     0.037 A 
BRANCH  58  72
ATOM     72  C   UNL A   1      43.648  23.962  26.968  1.00  0.00     0.057 A 
ATOM     73  C   UNL A   1      44.418  24.559  25.951  1.00  0.00     0.134 A 
ATOM     74  C   UNL A   1      43.405  22.590  26.786  1.00  0.00     0.134 A 
ATOM     75  F   UNL A   1      44.835  25.828  26.029  1.00  0.00    -0.206 F 
ATOM     76  C   UNL A   1      44.799  23.880  24.786  1.00  0.00     0.040 A 
ATOM     77  C   UNL A   1      43.734  21.911  25.603  1.00  0.00     0.040 A 
ATOM     78  F   UNL A   1      42.871  21.844  27.762  1.00  0.00    -0.206 F 
ATOM     79  C   UNL A   1      44.420  22.562  24.588  1.00  0.00     0.006 A 
ENDBRANCH  58  72
BRANCH  59  80
ATOM     80  C   UNL A   1      40.191  30.413  33.263  1.00  0.00     0.057 A 
ATOM     81  C   UNL A   1      39.939  31.785  33.442  1.00  0.00     0.134 A 
ATOM     82  C   UNL A   1      39.080  29.570  33.166  1.00  0.00     0.134 A 
ATOM     83  F   UNL A   1      40.962  32.650  33.538  1.00  0.00    -0.206 F 
ATOM     84  C   UNL A   1      38.646  32.311  33.402  1.00  0.00     0.040 A 
ATOM     85  C   UNL A   1      37.778  30.085  33.140  1.00  0.00     0.040 A 
ATOM     86  F   UNL A   1      39.237  28.253  32.972  1.00  0.00    -0.206 F 
ATOM     87  C   UNL A   1      37.560  31.461  33.214  1.00  0.00     0.006 A 
ENDBRANCH  59  80
BRANCH  71  88
ATOM     88  C   UNL A   1      44.697  24.702  33.533  1.00  0.00     0.057 A 
ATOM     89  C   UNL A   1      46.063  24.407  33.627  1.00  0.00     0.134 A 
ATOM     90  C   UNL A   1      43.860  23.869  34.320  1.00  0.00     0.134 A 
ATOM     91  F   UNL A   1      46.992  25.165  33.032  1.00  0.00    -0.206 F 
ATOM     92  C   UNL A   1      46.555  23.340  34.397  1.00  0.00     0.040 A 
ATOM     93  C   UNL A   1      44.344  22.843  35.135  1.00  0.00     0.040 A 
ATOM     94  F   UNL A   1      42.529  24.030  34.356  1.00  0.00    -0.206 F 
ATOM     95  C   UNL A   1      45.698  22.564  35.166  1.00  0.00     0.006 A 
ENDBRANCH  71  88
ENDBRANCH  45  46
ENDBRANCH  37  40
ENDBRANCH  35  36
ENDBRANCH  34  35
ENDBRANCH  33  34
ENDBRANCH   1  33
TORSDOF 17
ENDMDL
MODEL 2
REMARK VINA RESULT:     -12.8      1.754      3.719
REMARK SMILES Cc1ccc(-c2cc(OCC(=O)NCCCCNC(=O)c3ccc(-c4c5nc(c(-c6c(F)cccc6F)c6ccc([nH]6)c(-c6c(F)cccc6F)c6nc(c(-c7c(F)cccc7F)c7ccc4[nH]7)C=C6)C=C5)cc3)nc(NCc3ccc4c(c3)OCO4)n2)cc1
REMARK SMILES IDX 14 1 13 2 11 3 12 4 10 6 9 7 8 8 6 9 7 10 88 11 76 12 75 13
REMARK SMILES IDX 5 14 1 15 2 16 3 17 90 18 4 19 89 20 77 21 78 23 79 24 80 25
REMARK SMILES IDX 84 26 81 27 83 28 82 29 85 30 87 31 86 32 15 33 16 34 17 35
REMARK SMILES IDX 18 36 19 37 20 39 21 40 22 41 74 42 23 43 73 44 24 45 25 46
REMARK SMILES IDX 26 47 67 48 27 49 72 50 66 51 68 52 28 53 71 54 65 55 64 56
REMARK SMILES IDX 29 58 55 59 38 60 54 61 39 62 42 63 53 64 69 65 40 66 41 67
REMARK SMILES IDX 52 69 70 70 43 71 30 72 31 73 36 74 32 75 33 76 35 77 37 78
REMARK SMILES IDX 34 79 56 80 57 81 62 82 58 83 59 84 61 85 63 86 60 87 44 88
REMARK SMILES IDX 45 89 50 90 46 91 47 92 49 93 51 94 48 95
REMARK H PARENT 13 5 77 22 18 38 68 57 42 68
REMARK Flexibility Score: inf
ROOT
ATOM      1  C   UNL A   1      32.883  26.798  26.032  1.00  0.00     0.116 C 
ENDROOT
BRANCH   1   2
ATOM      2  N   UNL A   1      32.375  27.031  24.691  1.00  0.00    -0.353 N 
ATOM      3  C   UNL A   1      32.641  26.344  23.542  1.00  0.00     0.258 C 
ATOM      4  O   UNL A   1      32.080  26.691  22.500  1.00  0.00    -0.271 OA
ATOM      5  H   UNL A   1      31.753  27.787  24.598  1.00  0.00     0.163 HD
BRANCH   3   6
ATOM      6  C   UNL A   1      33.613  25.158  23.564  1.00  0.00     0.331 C 
BRANCH   6   7
ATOM      7  O   UNL A   1      33.032  23.869  23.603  1.00  0.00    -0.467 OA
BRANCH   7   8
ATOM      8  C   UNL A   1      33.819  22.837  24.032  1.00  0.00     0.219 A 
ATOM      9  C   UNL A   1      34.348  20.664  24.684  1.00  0.00     0.080 A 
ATOM     10  C   UNL A   1      33.378  21.575  24.322  1.00  0.00     0.097 A 
ATOM     11  N   UNL A   1      35.648  20.994  24.808  1.00  0.00    -0.213 NA
ATOM     12  C   UNL A   1      35.984  22.252  24.510  1.00  0.00     0.226 A 
ATOM     13  N   UNL A   1      35.111  23.185  24.119  1.00  0.00    -0.177 NA
BRANCH   9  14
ATOM     14  C   UNL A   1      34.004  19.254  24.882  1.00  0.00     0.000 A 
ATOM     15  C   UNL A   1      32.887  15.087  25.227  1.00  0.00     0.044 C 
ATOM     16  C   UNL A   1      33.293  16.528  25.123  1.00  0.00    -0.051 A 
ATOM     17  C   UNL A   1      32.533  17.522  25.752  1.00  0.00     0.004 A 
ATOM     18  C   UNL A   1      34.417  16.900  24.383  1.00  0.00     0.004 A 
ATOM     19  C   UNL A   1      32.890  18.871  25.639  1.00  0.00     0.010 A 
ATOM     20  C   UNL A   1      34.766  18.248  24.264  1.00  0.00     0.010 A 
ENDBRANCH   9  14
BRANCH  12  21
ATOM     21  N   UNL A   1      37.288  22.665  24.546  1.00  0.00    -0.350 N 
ATOM     22  H   UNL A   1      37.830  22.624  23.725  1.00  0.00     0.164 HD
BRANCH  21  23
ATOM     23  C   UNL A   1      37.887  23.159  25.759  1.00  0.00     0.152 C 
BRANCH  23  24
ATOM     24  C   UNL A   1      39.056  22.314  26.237  1.00  0.00    -0.025 A 
ATOM     25  C   UNL A   1      39.897  22.837  27.250  1.00  0.00     0.009 A 
ATOM     26  C   UNL A   1      39.326  21.029  25.729  1.00  0.00     0.056 A 
ATOM     27  C   UNL A   1      41.009  22.125  27.716  1.00  0.00     0.051 A 
ATOM     28  C   UNL A   1      40.441  20.361  26.189  1.00  0.00     0.166 A 
ATOM     29  C   UNL A   1      41.264  20.898  27.149  1.00  0.00     0.165 A 
ATOM     30  O   UNL A   1      40.873  19.147  25.754  1.00  0.00    -0.454 OA
ATOM     31  O   UNL A   1      42.322  20.090  27.432  1.00  0.00    -0.454 OA
ATOM     32  C   UNL A   1      42.138  19.059  26.438  1.00  0.00     0.468 C 
ENDBRANCH  23  24
ENDBRANCH  21  23
ENDBRANCH  12  21
ENDBRANCH   7   8
ENDBRANCH   6   7
ENDBRANCH   3   6
ENDBRANCH   1   2
BRANCH   1  33
ATOM     33  C   UNL A   1      33.898  27.847  26.504  1.00  0.00     0.023 C 
BRANCH  33  34
ATOM     34  C   UNL A   1      33.324  29.055  27.246  1.00  0.00     0.023 C 
BRANCH  34  35
ATOM     35  C   UNL A   1      33.727  30.403  26.668  1.00  0.00     0.116 C 
BRANCH  35  36
ATOM     36  N   UNL A   1      34.206  31.377  27.639  1.00  0.00    -0.352 N 
ATOM     37  C   UNL A   1      35.288  31.314  28.506  1.00  0.00     0.251 C 
ATOM     38  H   UNL A   1      33.680  32.208  27.688  1.00  0.00     0.163 HD
ATOM     39  O   UNL A   1      35.469  32.212  29.312  1.00  0.00    -0.269 OA
BRANCH  37  40
ATOM     40  C   UNL A   1      36.311  30.240  28.356  1.00  0.00     0.039 A 
ATOM     41  C   UNL A   1      36.398  29.276  29.373  1.00  0.00     0.014 A 
ATOM     42  C   UNL A   1      37.295  30.293  27.378  1.00  0.00     0.014 A 
ATOM     43  C   UNL A   1      37.591  28.584  29.563  1.00  0.00     0.010 A 
ATOM     44  C   UNL A   1      38.516  29.705  27.630  1.00  0.00     0.010 A 
ATOM     45  C   UNL A   1      38.684  28.907  28.762  1.00  0.00    -0.014 A 
BRANCH  45  46
ATOM     46  C   UNL A   1      40.061  28.591  29.114  1.00  0.00     0.031 A 
ATOM     47  C   UNL A   1      40.734  27.403  28.556  1.00  0.00     0.074 A 
ATOM     48  C   UNL A   1      40.766  29.483  29.844  1.00  0.00     0.049 A 
ATOM     49  N   UNL A   1      41.748  26.827  29.109  1.00  0.00    -0.248 NA
ATOM     50  C   UNL A   1      40.304  26.756  27.323  1.00  0.00     0.031 C 
ATOM     51  C   UNL A   1      42.213  29.529  30.037  1.00  0.00     0.029 A 
ATOM     52  N   UNL A   1      40.267  30.442  30.734  1.00  0.00    -0.354 N 
ATOM     53  C   UNL A   1      42.276  25.952  28.190  1.00  0.00     0.074 A 
ATOM     54  C   UNL A   1      41.304  25.893  27.122  1.00  0.00     0.031 C 
ATOM     55  C   UNL A   1      42.480  30.232  31.149  1.00  0.00     0.029 A 
ATOM     56  C   UNL A   1      41.207  30.530  31.782  1.00  0.00     0.049 A 
ATOM     57  H   UNL A   1      39.430  30.952  30.646  1.00  0.00     0.167 HD
ATOM     58  C   UNL A   1      43.547  25.486  28.357  1.00  0.00     0.037 A 
ATOM     59  C   UNL A   1      40.876  30.194  33.062  1.00  0.00     0.037 A 
ATOM     60  C   UNL A   1      44.156  26.022  29.572  1.00  0.00     0.049 A 
ATOM     61  C   UNL A   1      41.709  29.071  33.632  1.00  0.00     0.074 A 
ATOM     62  C   UNL A   1      45.020  27.082  29.791  1.00  0.00     0.029 A 
ATOM     63  N   UNL A   1      43.649  25.666  30.816  1.00  0.00    -0.354 N 
ATOM     64  N   UNL A   1      42.388  28.228  32.903  1.00  0.00    -0.248 NA
ATOM     65  C   UNL A   1      41.843  28.802  35.060  1.00  0.00     0.031 C 
ATOM     66  C   UNL A   1      45.011  27.384  31.173  1.00  0.00     0.029 A 
ATOM     67  C   UNL A   1      44.150  26.499  31.798  1.00  0.00     0.049 A 
ATOM     68  H   UNL A   1      43.021  24.925  30.977  1.00  0.00     0.167 HD
ATOM     69  C   UNL A   1      43.024  27.322  33.715  1.00  0.00     0.074 A 
ATOM     70  C   UNL A   1      42.665  27.737  35.058  1.00  0.00     0.031 C 
ATOM     71  C   UNL A   1      43.792  26.316  33.196  1.00  0.00     0.037 A 
BRANCH  58  72
ATOM     72  C   UNL A   1      44.322  24.815  27.248  1.00  0.00     0.057 A 
ATOM     73  C   UNL A   1      44.872  25.556  26.184  1.00  0.00     0.134 A 
ATOM     74  C   UNL A   1      44.517  23.427  27.154  1.00  0.00     0.134 A 
ATOM     75  F   UNL A   1      44.874  26.894  26.178  1.00  0.00    -0.206 F 
ATOM     76  C   UNL A   1      45.447  24.956  25.056  1.00  0.00     0.040 A 
ATOM     77  C   UNL A   1      45.043  22.810  26.009  1.00  0.00     0.040 A 
ATOM     78  F   UNL A   1      44.238  22.615  28.183  1.00  0.00    -0.206 F 
ATOM     79  C   UNL A   1      45.495  23.576  24.945  1.00  0.00     0.006 A 
ENDBRANCH  58  72
BRANCH  59  80
ATOM     80  C   UNL A   1      39.447  30.458  33.379  1.00  0.00     0.057 A 
ATOM     81  C   UNL A   1      39.063  31.777  33.680  1.00  0.00     0.134 A 
ATOM     82  C   UNL A   1      38.434  29.570  33.004  1.00  0.00     0.134 A 
ATOM     83  F   UNL A   1      39.988  32.681  34.043  1.00  0.00    -0.206 F 
ATOM     84  C   UNL A   1      37.753  32.227  33.497  1.00  0.00     0.040 A 
ATOM     85  C   UNL A   1      37.115  30.006  32.832  1.00  0.00     0.040 A 
ATOM     86  F   UNL A   1      38.723  28.302  32.681  1.00  0.00    -0.206 F 
ATOM     87  C   UNL A   1      36.780  31.345  33.036  1.00  0.00     0.006 A 
ENDBRANCH  59  80
BRANCH  71  88
ATOM     88  C   UNL A   1      44.370  25.124  33.931  1.00  0.00     0.057 A 
ATOM     89  C   UNL A   1      43.614  24.143  34.586  1.00  0.00     0.134 A 
ATOM     90  C   UNL A   1      45.761  24.852  33.870  1.00  0.00     0.134 A 
ATOM     91  F   UNL A   1      42.278  24.197  34.636  1.00  0.00    -0.206 F 
ATOM     92  C   UNL A   1      44.196  23.010  35.178  1.00  0.00     0.040 A 
ATOM     93  C   UNL A   1      46.343  23.699  34.404  1.00  0.00     0.040 A 
ATOM     94  F   UNL A   1      46.621  25.681  33.262  1.00  0.00    -0.206 F 
ATOM     95  C   UNL A   1      45.561  22.776  35.076  1.00  0.00     0.006 A 
ENDBRANCH  71  88
ENDBRANCH  45  46
ENDBRANCH  37  40
ENDBRANCH  35  36
ENDBRANCH  34  35
ENDBRANCH  33  34
ENDBRANCH   1  33
TORSDOF 17
ENDMDL
MODEL 3
REMARK VINA RESULT:     -12.7      3.412      9.408
REMARK SMILES Cc1ccc(-c2cc(OCC(=O)NCCCCNC(=O)c3ccc(-c4c5nc(c(-c6c(F)cccc6F)c6ccc([nH]6)c(-c6c(F)cccc6F)c6nc(c(-c7c(F)cccc7F)c7ccc4[nH]7)C=C6)C=C5)cc3)nc(NCc3ccc4c(c3)OCO4)n2)cc1
REMARK SMILES IDX 14 1 13 2 11 3 12 4 10 6 9 7 8 8 6 9 7 10 88 11 76 12 75 13
REMARK SMILES IDX 5 14 1 15 2 16 3 17 90 18 4 19 89 20 77 21 78 23 79 24 80 25
REMARK SMILES IDX 84 26 81 27 83 28 82 29 85 30 87 31 86 32 15 33 16 34 17 35
REMARK SMILES IDX 18 36 19 37 20 39 21 40 22 41 74 42 23 43 73 44 24 45 25 46
REMARK SMILES IDX 26 47 67 48 27 49 72 50 66 51 68 52 28 53 71 54 65 55 64 56
REMARK SMILES IDX 29 58 55 59 38 60 54 61 39 62 42 63 53 64 69 65 40 66 41 67
REMARK SMILES IDX 52 69 70 70 43 71 30 72 31 73 36 74 32 75 33 76 35 77 37 78
REMARK SMILES IDX 34 79 56 80 57 81 62 82 58 83 59 84 61 85 63 86 60 87 44 88
REMARK SMILES IDX 45 89 50 90 46 91 47 92 49 93 51 94 48 95
REMARK H PARENT 13 5 77 22 18 38 68 57 42 68
REMARK Flexibility Score: inf
ROOT
ATOM      1  C   UNL A   1      35.950  21.393  24.751  1.00  0.00     0.116 C 
ENDROOT
BRANCH   1   2
ATOM      2  N   UNL A   1      35.150  21.050  25.914  1.00  0.00    -0.353 N 
ATOM      3  C   UNL A   1      34.371  21.861  26.688  1.00  0.00     0.258 C 
ATOM      4  O   UNL A   1      33.746  21.362  27.626  1.00  0.00    -0.271 OA
ATOM      5  H   UNL A   1      35.172  20.103  26.181  1.00  0.00     0.163 HD
BRANCH   3   6
ATOM      6  C   UNL A   1      34.278  23.359  26.378  1.00  0.00     0.331 C 
BRANCH   6   7
ATOM      7  O   UNL A   1      33.290  23.748  25.442  1.00  0.00    -0.467 OA
BRANCH   7   8
ATOM      8  C   UNL A   1      32.663  24.944  25.650  1.00  0.00     0.219 A 
ATOM      9  C   UNL A   1      32.460  27.193  26.226  1.00  0.00     0.080 A 
ATOM     10  C   UNL A   1      33.258  26.071  26.150  1.00  0.00     0.097 A 
ATOM     11  N   UNL A   1      31.155  27.184  25.890  1.00  0.00    -0.213 NA
ATOM     12  C   UNL A   1      30.660  26.036  25.418  1.00  0.00     0.226 A 
ATOM     13  N   UNL A   1      31.374  24.916  25.281  1.00  0.00    -0.177 NA
BRANCH   9  14
ATOM     14  C   UNL A   1      33.031  28.484  26.616  1.00  0.00     0.000 A 
ATOM     15  C   UNL A   1      34.725  32.213  28.012  1.00  0.00     0.044 C 
ATOM     16  C   UNL A   1      34.149  30.923  27.506  1.00  0.00    -0.051 A 
ATOM     17  C   UNL A   1      32.783  30.831  27.209  1.00  0.00     0.004 A 
ATOM     18  C   UNL A   1      34.956  29.796  27.344  1.00  0.00     0.004 A 
ATOM     19  C   UNL A   1      32.232  29.625  26.760  1.00  0.00     0.010 A 
ATOM     20  C   UNL A   1      34.402  28.591  26.905  1.00  0.00     0.010 A 
ENDBRANCH   9  14
BRANCH  12  21
ATOM     21  N   UNL A   1      29.362  25.945  24.993  1.00  0.00    -0.350 N 
ATOM     22  H   UNL A   1      28.656  25.730  25.646  1.00  0.00     0.164 HD
BRANCH  21  23
ATOM     23  C   UNL A   1      29.005  26.158  23.615  1.00  0.00     0.152 C 
BRANCH  23  24
ATOM     24  C   UNL A   1      29.025  27.623  23.211  1.00  0.00    -0.025 A 
ATOM     25  C   UNL A   1      30.165  28.120  22.533  1.00  0.00     0.009 A 
ATOM     26  C   UNL A   1      27.953  28.499  23.467  1.00  0.00     0.056 A 
ATOM     27  C   UNL A   1      30.263  29.466  22.159  1.00  0.00     0.051 A 
ATOM     28  C   UNL A   1      28.088  29.824  23.109  1.00  0.00     0.166 A 
ATOM     29  C   UNL A   1      29.214  30.295  22.480  1.00  0.00     0.165 A 
ATOM     30  O   UNL A   1      27.175  30.804  23.343  1.00  0.00    -0.454 OA
ATOM     31  O   UNL A   1      29.153  31.635  22.248  1.00  0.00    -0.454 OA
ATOM     32  C   UNL A   1      27.924  31.964  22.930  1.00  0.00     0.468 C 
ENDBRANCH  23  24
ENDBRANCH  21  23
ENDBRANCH  12  21
ENDBRANCH   7   8
ENDBRANCH   6   7
ENDBRANCH   3   6
ENDBRANCH   1   2
BRANCH   1  33
ATOM     33  C   UNL A   1      37.453  21.499  25.038  1.00  0.00     0.023 C 
BRANCH  33  34
ATOM     34  C   UNL A   1      37.915  22.769  25.755  1.00  0.00     0.023 C 
BRANCH  34  35
ATOM     35  C   UNL A   1      39.233  22.631  26.500  1.00  0.00     0.116 C 
BRANCH  35  36
ATOM     36  N   UNL A   1      40.020  21.455  26.158  1.00  0.00    -0.352 N 
ATOM     37  C   UNL A   1      41.398  21.284  26.114  1.00  0.00     0.251 C 
ATOM     38  H   UNL A   1      39.494  20.657  25.922  1.00  0.00     0.163 HD
ATOM     39  O   UNL A   1      41.863  20.231  25.713  1.00  0.00    -0.269 OA
BRANCH  37  40
ATOM     40  C   UNL A   1      42.302  22.318  26.694  1.00  0.00     0.039 A 
ATOM     41  C   UNL A   1      42.581  22.244  28.067  1.00  0.00     0.014 A 
ATOM     42  C   UNL A   1      42.684  23.445  25.977  1.00  0.00     0.014 A 
ATOM     43  C   UNL A   1      42.970  23.392  28.753  1.00  0.00     0.010 A 
ATOM     44  C   UNL A   1      42.949  24.611  26.664  1.00  0.00     0.010 A 
ATOM     45  C   UNL A   1      43.021  24.598  28.057  1.00  0.00    -0.014 A 
BRANCH  45  46
ATOM     46  C   UNL A   1      42.990  25.902  28.704  1.00  0.00     0.031 A 
ATOM     47  C   UNL A   1      41.732  26.663  28.819  1.00  0.00     0.074 A 
ATOM     48  C   UNL A   1      44.103  26.343  29.331  1.00  0.00     0.049 A 
ATOM     49  N   UNL A   1      41.680  27.943  28.975  1.00  0.00    -0.248 NA
ATOM     50  C   UNL A   1      40.419  26.036  28.750  1.00  0.00     0.031 C 
ATOM     51  C   UNL A   1      44.207  27.438  30.292  1.00  0.00     0.029 A 
ATOM     52  N   UNL A   1      45.431  25.988  29.064  1.00  0.00    -0.354 N 
ATOM     53  C   UNL A   1      40.389  28.263  29.321  1.00  0.00     0.074 A 
ATOM     54  C   UNL A   1      39.627  27.054  29.101  1.00  0.00     0.031 C 
ATOM     55  C   UNL A   1      45.481  27.861  30.330  1.00  0.00     0.029 A 
ATOM     56  C   UNL A   1      46.199  27.150  29.287  1.00  0.00     0.049 A 
ATOM     57  H   UNL A   1      45.761  25.105  28.779  1.00  0.00     0.167 HD
ATOM     58  C   UNL A   1      40.126  29.469  29.900  1.00  0.00     0.037 A 
ATOM     59  C   UNL A   1      46.895  27.744  28.275  1.00  0.00     0.037 A 
ATOM     60  C   UNL A   1      41.341  30.268  30.044  1.00  0.00     0.049 A 
ATOM     61  C   UNL A   1      46.481  29.172  28.008  1.00  0.00     0.074 A 
ATOM     62  C   UNL A   1      42.198  30.473  31.112  1.00  0.00     0.029 A 
ATOM     63  N   UNL A   1      42.005  30.730  28.914  1.00  0.00    -0.354 N 
ATOM     64  N   UNL A   1      45.341  29.681  28.388  1.00  0.00    -0.248 NA
ATOM     65  C   UNL A   1      47.308  30.138  27.293  1.00  0.00     0.031 C 
ATOM     66  C   UNL A   1      43.398  31.037  30.617  1.00  0.00     0.029 A 
ATOM     67  C   UNL A   1      43.265  31.186  29.248  1.00  0.00     0.049 A 
ATOM     68  H   UNL A   1      41.631  30.732  28.004  1.00  0.00     0.167 HD
ATOM     69  C   UNL A   1      45.260  30.990  27.984  1.00  0.00     0.074 A 
ATOM     70  C   UNL A   1      46.526  31.232  27.317  1.00  0.00     0.031 C 
ATOM     71  C   UNL A   1      44.153  31.750  28.242  1.00  0.00     0.037 A 
BRANCH  58  72
ATOM     72  C   UNL A   1      38.830  29.765  30.616  1.00  0.00     0.057 A 
ATOM     73  C   UNL A   1      37.860  30.620  30.056  1.00  0.00     0.134 A 
ATOM     74  C   UNL A   1      38.504  29.270  31.890  1.00  0.00     0.134 A 
ATOM     75  F   UNL A   1      37.962  31.085  28.806  1.00  0.00    -0.206 F 
ATOM     76  C   UNL A   1      36.728  31.051  30.759  1.00  0.00     0.040 A 
ATOM     77  C   UNL A   1      37.403  29.733  32.626  1.00  0.00     0.040 A 
ATOM     78  F   UNL A   1      39.221  28.291  32.459  1.00  0.00    -0.206 F 
ATOM     79  C   UNL A   1      36.518  30.642  32.066  1.00  0.00     0.006 A 
ENDBRANCH  58  72
BRANCH  59  80
ATOM     80  C   UNL A   1      47.369  26.776  27.251  1.00  0.00     0.057 A 
ATOM     81  C   UNL A   1      46.603  26.611  26.083  1.00  0.00     0.134 A 
ATOM     82  C   UNL A   1      48.698  26.344  27.206  1.00  0.00     0.134 A 
ATOM     83  F   UNL A   1      45.320  27.010  26.058  1.00  0.00    -0.206 F 
ATOM     84  C   UNL A   1      47.164  26.155  24.888  1.00  0.00     0.040 A 
ATOM     85  C   UNL A   1      49.267  25.870  26.017  1.00  0.00     0.040 A 
ATOM     86  F   UNL A   1      49.499  26.487  28.271  1.00  0.00    -0.206 F 
ATOM     87  C   UNL A   1      48.513  25.816  24.845  1.00  0.00     0.006 A 
ENDBRANCH  59  80
BRANCH  71  88
ATOM     88  C   UNL A   1      43.820  33.117  27.681  1.00  0.00     0.057 A 
ATOM     89  C   UNL A   1      43.678  34.284  28.444  1.00  0.00     0.134 A 
ATOM     90  C   UNL A   1      43.773  33.322  26.278  1.00  0.00     0.134 A 
ATOM     91  F   UNL A   1      43.806  34.276  29.776  1.00  0.00    -0.206 F 
ATOM     92  C   UNL A   1      43.455  35.544  27.864  1.00  0.00     0.040 A 
ATOM     93  C   UNL A   1      43.611  34.579  25.690  1.00  0.00     0.040 A 
ATOM     94  F   UNL A   1      43.911  32.312  25.407  1.00  0.00    -0.206 F 
ATOM     95  C   UNL A   1      43.436  35.698  26.484  1.00  0.00     0.006 A 
ENDBRANCH  71  88
ENDBRANCH  45  46
ENDBRANCH  37  40
ENDBRANCH  35  36
ENDBRANCH  34  35
ENDBRANCH  33  34
ENDBRANCH   1  33
TORSDOF 17
ENDMDL
