MODEL 1
REMARK VINA RESULT:     -11.7      0.000      0.000
REMARK SMILES Cc1cccc([C@@H](CC(=O)NCCCCNC(=O)c2ccc(-c3c4nc(c(-c5c(F)cccc5F)c5ccc([nH]5)c(-c5c(F)cccc5F)c5nc(c(-c6c(F)cccc6F)c6ccc3[nH]6)C=C5)C=C4)cc2)NC(=O)OC(C)(C)C)c1
REMARK SMILES IDX 12 1 11 2 9 3 10 4 8 6 7 7 6 8 1 9 2 10 3 11 81 12 4 13 5 14
REMARK SMILES IDX 73 15 74 16 75 18 76 19 77 20 78 21 79 22 80 23 13 24 14 25
REMARK SMILES IDX 15 26 16 27 17 28 18 30 19 31 20 32 72 33 21 34 71 35 22 36
REMARK SMILES IDX 23 37 24 38 65 39 25 40 70 41 64 42 66 43 26 44 69 45 63 46
REMARK SMILES IDX 62 47 27 49 53 50 36 51 52 52 37 53 40 54 51 55 67 56 38 57
REMARK SMILES IDX 39 58 50 60 68 61 41 62 28 63 29 64 34 65 30 66 31 67 33 68
REMARK SMILES IDX 35 69 32 70 54 71 55 72 60 73 56 74 57 75 59 76 61 77 58 78
REMARK SMILES IDX 42 79 43 80 48 81 44 82 45 83 47 84 49 85 46 86
REMARK H PARENT 11 5 73 17 16 29 66 48 40 59
REMARK Flexibility Score: inf
ROOT
ATOM      1  C   UNL A   1      31.102  26.720  25.465  1.00  0.00     0.116 C 
ENDROOT
BRANCH   1   2
ATOM      2  N   UNL A   1      30.894  25.687  26.460  1.00  0.00    -0.356 N 
ATOM      3  C   UNL A   1      30.699  24.349  26.275  1.00  0.00     0.222 C 
ATOM      4  O   UNL A   1      30.215  23.713  27.216  1.00  0.00    -0.275 OA
ATOM      5  H   UNL A   1      30.895  25.991  27.396  1.00  0.00     0.163 HD
BRANCH   3   6
ATOM      6  C   UNL A   1      31.096  23.647  24.984  1.00  0.00     0.130 C 
BRANCH   6   7
ATOM      7  C   UNL A   1      32.418  22.847  24.983  1.00  0.00     0.125 C 
BRANCH   7   8
ATOM      8  C   UNL A   1      32.349  21.468  24.322  1.00  0.00    -0.025 A 
ATOM      9  C   UNL A   1      32.629  17.794  25.350  1.00  0.00     0.044 C 
ATOM     10  C   UNL A   1      32.527  19.030  24.504  1.00  0.00    -0.051 A 
ATOM     11  C   UNL A   1      32.421  18.915  23.116  1.00  0.00     0.003 A 
ATOM     12  C   UNL A   1      32.537  20.306  25.093  1.00  0.00     0.009 A 
ATOM     13  C   UNL A   1      32.170  20.045  22.345  1.00  0.00     0.001 A 
ATOM     14  C   UNL A   1      32.080  21.300  22.952  1.00  0.00     0.006 A 
ENDBRANCH   7   8
BRANCH   7  15
ATOM     15  N   UNL A   1      33.032  22.796  26.297  1.00  0.00    -0.314 N 
ATOM     16  C   UNL A   1      34.345  23.011  26.597  1.00  0.00     0.408 C 
ATOM     17  H   UNL A   1      32.438  22.584  27.053  1.00  0.00     0.167 HD
ATOM     18  O   UNL A   1      34.783  22.778  27.702  1.00  0.00    -0.225 OA
BRANCH  16  19
ATOM     19  O   UNL A   1      35.039  23.506  25.542  1.00  0.00    -0.444 OA
BRANCH  19  20
ATOM     20  C   UNL A   1      36.124  22.747  24.958  1.00  0.00     0.106 C 
ATOM     21  C   UNL A   1      36.053  21.265  25.346  1.00  0.00     0.056 C 
ATOM     22  C   UNL A   1      36.168  22.950  23.441  1.00  0.00     0.056 C 
ATOM     23  C   UNL A   1      37.396  23.348  25.576  1.00  0.00     0.056 C 
ENDBRANCH  19  20
ENDBRANCH  16  19
ENDBRANCH   7  15
ENDBRANCH   6   7
ENDBRANCH   3   6
ENDBRANCH   1   2
BRANCH   1  24
ATOM     24  C   UNL A   1      32.509  27.301  25.590  1.00  0.00     0.023 C 
BRANCH  24  25
ATOM     25  C   UNL A   1      32.734  28.798  25.808  1.00  0.00     0.023 C 
BRANCH  25  26
ATOM     26  C   UNL A   1      33.604  29.175  27.001  1.00  0.00     0.116 C 
BRANCH  26  27
ATOM     27  N   UNL A   1      34.210  30.530  26.909  1.00  0.00    -0.352 N 
ATOM     28  C   UNL A   1      35.256  31.113  27.625  1.00  0.00     0.251 C 
ATOM     29  H   UNL A   1      33.805  31.115  26.228  1.00  0.00     0.163 HD
ATOM     30  O   UNL A   1      35.412  32.328  27.668  1.00  0.00    -0.269 OA
BRANCH  28  31
ATOM     31  C   UNL A   1      36.240  30.229  28.269  1.00  0.00     0.039 A 
ATOM     32  C   UNL A   1      36.207  29.706  29.568  1.00  0.00     0.014 A 
ATOM     33  C   UNL A   1      37.344  30.003  27.484  1.00  0.00     0.014 A 
ATOM     34  C   UNL A   1      37.323  28.986  30.007  1.00  0.00     0.010 A 
ATOM     35  C   UNL A   1      38.090  28.910  27.705  1.00  0.00     0.010 A 
ATOM     36  C   UNL A   1      38.271  28.639  29.046  1.00  0.00    -0.014 A 
BRANCH  36  37
ATOM     37  C   UNL A   1      39.647  28.235  29.230  1.00  0.00     0.031 A 
ATOM     38  C   UNL A   1      40.051  26.922  28.763  1.00  0.00     0.074 A 
ATOM     39  C   UNL A   1      40.503  29.284  29.362  1.00  0.00     0.049 A 
ATOM     40  N   UNL A   1      41.090  26.306  29.188  1.00  0.00    -0.248 NA
ATOM     41  C   UNL A   1      39.301  26.192  27.744  1.00  0.00     0.031 C 
ATOM     42  C   UNL A   1      41.913  29.423  29.034  1.00  0.00     0.029 A 
ATOM     43  N   UNL A   1      40.170  30.555  29.859  1.00  0.00    -0.354 N 
ATOM     44  C   UNL A   1      41.363  25.350  28.240  1.00  0.00     0.074 A 
ATOM     45  C   UNL A   1      40.141  25.185  27.486  1.00  0.00     0.031 C 
ATOM     46  C   UNL A   1      42.390  30.525  29.651  1.00  0.00     0.029 A 
ATOM     47  C   UNL A   1      41.319  31.057  30.480  1.00  0.00     0.049 A 
ATOM     48  H   UNL A   1      39.299  31.005  29.784  1.00  0.00     0.167 HD
ATOM     49  C   UNL A   1      42.659  24.997  28.021  1.00  0.00     0.037 A 
ATOM     50  C   UNL A   1      41.296  31.116  31.843  1.00  0.00     0.037 A 
ATOM     51  C   UNL A   1      43.558  25.864  28.799  1.00  0.00     0.049 A 
ATOM     52  C   UNL A   1      42.198  30.068  32.454  1.00  0.00     0.074 A 
ATOM     53  C   UNL A   1      44.357  26.946  28.460  1.00  0.00     0.029 A 
ATOM     54  N   UNL A   1      43.413  25.931  30.182  1.00  0.00    -0.354 N 
ATOM     55  N   UNL A   1      42.690  29.042  31.812  1.00  0.00    -0.248 NA
ATOM     56  C   UNL A   1      42.654  30.129  33.829  1.00  0.00     0.031 C 
ATOM     57  C   UNL A   1      44.699  27.646  29.653  1.00  0.00     0.029 A 
ATOM     58  C   UNL A   1      44.113  26.993  30.722  1.00  0.00     0.049 A 
ATOM     59  H   UNL A   1      42.877  25.297  30.711  1.00  0.00     0.167 HD
ATOM     60  C   UNL A   1      43.520  28.315  32.630  1.00  0.00     0.074 A 
ATOM     61  C   UNL A   1      43.467  29.059  33.878  1.00  0.00     0.031 C 
ATOM     62  C   UNL A   1      44.153  27.179  32.177  1.00  0.00     0.037 A 
BRANCH  49  63
ATOM     63  C   UNL A   1      43.091  24.114  26.875  1.00  0.00     0.057 A 
ATOM     64  C   UNL A   1      43.022  22.712  26.958  1.00  0.00     0.134 A 
ATOM     65  C   UNL A   1      43.562  24.600  25.638  1.00  0.00     0.134 A 
ATOM     66  F   UNL A   1      42.513  22.093  28.029  1.00  0.00    -0.206 F 
ATOM     67  C   UNL A   1      43.466  21.865  25.935  1.00  0.00     0.040 A 
ATOM     68  C   UNL A   1      44.057  23.765  24.626  1.00  0.00     0.040 A 
ATOM     69  F   UNL A   1      43.517  25.906  25.337  1.00  0.00    -0.206 F 
ATOM     70  C   UNL A   1      44.013  22.387  24.774  1.00  0.00     0.006 A 
ENDBRANCH  49  63
BRANCH  50  71
ATOM     71  C   UNL A   1      39.941  31.551  32.336  1.00  0.00     0.057 A 
ATOM     72  C   UNL A   1      39.137  30.564  32.949  1.00  0.00     0.134 A 
ATOM     73  C   UNL A   1      39.680  32.879  32.695  1.00  0.00     0.134 A 
ATOM     74  F   UNL A   1      39.318  29.267  32.647  1.00  0.00    -0.206 F 
ATOM     75  C   UNL A   1      38.262  30.865  33.997  1.00  0.00     0.040 A 
ATOM     76  C   UNL A   1      38.779  33.190  33.726  1.00  0.00     0.040 A 
ATOM     77  F   UNL A   1      40.393  33.882  32.164  1.00  0.00    -0.206 F 
ATOM     78  C   UNL A   1      38.113  32.179  34.419  1.00  0.00     0.006 A 
ENDBRANCH  50  71
BRANCH  62  79
ATOM     79  C   UNL A   1      44.893  26.107  32.988  1.00  0.00     0.057 A 
ATOM     80  C   UNL A   1      46.208  25.676  32.785  1.00  0.00     0.134 A 
ATOM     81  C   UNL A   1      44.278  25.498  34.120  1.00  0.00     0.134 A 
ATOM     82  F   UNL A   1      46.962  26.104  31.774  1.00  0.00    -0.206 F 
ATOM     83  C   UNL A   1      46.857  24.758  33.628  1.00  0.00     0.040 A 
ATOM     84  C   UNL A   1      44.930  24.627  34.998  1.00  0.00     0.040 A 
ATOM     85  F   UNL A   1      42.996  25.701  34.452  1.00  0.00    -0.206 F 
ATOM     86  C   UNL A   1      46.232  24.250  34.753  1.00  0.00     0.006 A 
ENDBRANCH  62  79
ENDBRANCH  36  37
ENDBRANCH  28  31
ENDBRANCH  26  27
ENDBRANCH  25  26
ENDBRANCH  24  25
ENDBRANCH   1  24
TORSDOF 16
ENDMDL
MODEL 2
REMARK VINA RESULT:     -11.6      3.414      8.654
REMARK SMILES Cc1cccc([C@@H](CC(=O)NCCCCNC(=O)c2ccc(-c3c4nc(c(-c5c(F)cccc5F)c5ccc([nH]5)c(-c5c(F)cccc5F)c5nc(c(-c6c(F)cccc6F)c6ccc3[nH]6)C=C5)C=C4)cc2)NC(=O)OC(C)(C)C)c1
REMARK SMILES IDX 12 1 11 2 9 3 10 4 8 6 7 7 6 8 1 9 2 10 3 11 81 12 4 13 5 14
REMARK SMILES IDX 73 15 74 16 75 18 76 19 77 20 78 21 79 22 80 23 13 24 14 25
REMARK SMILES IDX 15 26 16 27 17 28 18 30 19 31 20 32 72 33 21 34 71 35 22 36
REMARK SMILES IDX 23 37 24 38 65 39 25 40 70 41 64 42 66 43 26 44 69 45 63 46
REMARK SMILES IDX 62 47 27 49 53 50 36 51 52 52 37 53 40 54 51 55 67 56 38 57
REMARK SMILES IDX 39 58 50 60 68 61 41 62 28 63 29 64 34 65 30 66 31 67 33 68
REMARK SMILES IDX 35 69 32 70 54 71 55 72 60 73 56 74 57 75 59 76 61 77 58 78
REMARK SMILES IDX 42 79 43 80 48 81 44 82 45 83 47 84 49 85 46 86
REMARK H PARENT 11 5 73 17 16 29 66 48 40 59
REMARK Flexibility Score: inf
ROOT
ATOM      1  C   UNL A   1      39.808  21.031  26.125  1.00  0.00     0.116 C 
ENDROOT
BRANCH   1   2
ATOM      2  N   UNL A   1      38.938  22.176  26.306  1.00  0.00    -0.356 N 
ATOM      3  C   UNL A   1      37.722  22.423  25.739  1.00  0.00     0.222 C 
ATOM      4  O   UNL A   1      37.314  23.588  25.764  1.00  0.00    -0.275 OA
ATOM      5  H   UNL A   1      39.269  22.869  26.922  1.00  0.00     0.163 HD
BRANCH   3   6
ATOM      6  C   UNL A   1      36.874  21.314  25.135  1.00  0.00     0.130 C 
BRANCH   6   7
ATOM      7  C   UNL A   1      35.404  21.645  24.792  1.00  0.00     0.125 C 
BRANCH   7   8
ATOM      8  C   UNL A   1      34.483  20.435  24.613  1.00  0.00    -0.025 A 
ATOM      9  C   UNL A   1      34.741  16.619  24.684  1.00  0.00     0.044 C 
ATOM     10  C   UNL A   1      34.194  18.003  24.492  1.00  0.00    -0.051 A 
ATOM     11  C   UNL A   1      32.864  18.178  24.103  1.00  0.00     0.003 A 
ATOM     12  C   UNL A   1      35.006  19.132  24.699  1.00  0.00     0.009 A 
ATOM     13  C   UNL A   1      32.312  19.454  24.075  1.00  0.00     0.001 A 
ATOM     14  C   UNL A   1      33.102  20.564  24.382  1.00  0.00     0.006 A 
ENDBRANCH   7   8
BRANCH   7  15
ATOM     15  N   UNL A   1      35.293  22.586  23.692  1.00  0.00    -0.314 N 
ATOM     16  C   UNL A   1      34.532  23.717  23.654  1.00  0.00     0.408 C 
ATOM     17  H   UNL A   1      35.824  22.386  22.887  1.00  0.00     0.167 HD
ATOM     18  O   UNL A   1      34.383  24.340  22.625  1.00  0.00    -0.225 OA
BRANCH  16  19
ATOM     19  O   UNL A   1      34.012  24.028  24.867  1.00  0.00    -0.444 OA
BRANCH  19  20
ATOM     20  C   UNL A   1      32.658  24.526  24.978  1.00  0.00     0.106 C 
ATOM     21  C   UNL A   1      32.595  26.045  24.778  1.00  0.00     0.056 C 
ATOM     22  C   UNL A   1      31.727  23.774  24.024  1.00  0.00     0.056 C 
ATOM     23  C   UNL A   1      32.246  24.212  26.425  1.00  0.00     0.056 C 
ENDBRANCH  19  20
ENDBRANCH  16  19
ENDBRANCH   7  15
ENDBRANCH   6   7
ENDBRANCH   3   6
ENDBRANCH   1   2
BRANCH   1  24
ATOM     24  C   UNL A   1      40.841  20.967  27.247  1.00  0.00     0.023 C 
BRANCH  24  25
ATOM     25  C   UNL A   1      42.085  20.083  27.134  1.00  0.00     0.023 C 
BRANCH  25  26
ATOM     26  C   UNL A   1      42.784  20.085  25.780  1.00  0.00     0.116 C 
BRANCH  26  27
ATOM     27  N   UNL A   1      44.266  20.185  25.860  1.00  0.00    -0.352 N 
ATOM     28  C   UNL A   1      45.124  21.257  25.610  1.00  0.00     0.251 C 
ATOM     29  H   UNL A   1      44.718  19.355  26.136  1.00  0.00     0.163 HD
ATOM     30  O   UNL A   1      46.319  21.092  25.394  1.00  0.00    -0.269 OA
BRANCH  28  31
ATOM     31  C   UNL A   1      44.582  22.621  25.698  1.00  0.00     0.039 A 
ATOM     32  C   UNL A   1      44.362  23.529  24.654  1.00  0.00     0.014 A 
ATOM     33  C   UNL A   1      44.374  23.028  26.993  1.00  0.00     0.014 A 
ATOM     34  C   UNL A   1      43.954  24.824  24.993  1.00  0.00     0.010 A 
ATOM     35  C   UNL A   1      43.496  24.014  27.236  1.00  0.00     0.010 A 
ATOM     36  C   UNL A   1      43.564  25.039  26.314  1.00  0.00    -0.014 A 
BRANCH  36  37
ATOM     37  C   UNL A   1      43.446  26.286  27.036  1.00  0.00     0.031 A 
ATOM     38  C   UNL A   1      42.131  26.883  27.176  1.00  0.00     0.074 A 
ATOM     39  C   UNL A   1      44.468  26.503  27.907  1.00  0.00     0.049 A 
ATOM     40  N   UNL A   1      41.938  28.121  27.438  1.00  0.00    -0.248 NA
ATOM     41  C   UNL A   1      40.903  26.104  27.040  1.00  0.00     0.031 C 
ATOM     42  C   UNL A   1      44.529  27.250  29.153  1.00  0.00     0.029 A 
ATOM     43  N   UNL A   1      45.771  25.992  27.784  1.00  0.00    -0.354 N 
ATOM     44  C   UNL A   1      40.648  28.200  27.905  1.00  0.00     0.074 A 
ATOM     45  C   UNL A   1      39.995  26.990  27.460  1.00  0.00     0.031 C 
ATOM     46  C   UNL A   1      45.826  27.448  29.470  1.00  0.00     0.029 A 
ATOM     47  C   UNL A   1      46.628  26.927  28.374  1.00  0.00     0.049 A 
ATOM     48  H   UNL A   1      46.031  25.140  27.365  1.00  0.00     0.167 HD
ATOM     49  C   UNL A   1      40.347  29.143  28.840  1.00  0.00     0.037 A 
ATOM     50  C   UNL A   1      47.415  27.650  27.525  1.00  0.00     0.037 A 
ATOM     51  C   UNL A   1      41.572  29.831  29.276  1.00  0.00     0.049 A 
ATOM     52  C   UNL A   1      46.950  29.084  27.430  1.00  0.00     0.074 A 
ATOM     53  C   UNL A   1      42.361  29.730  30.412  1.00  0.00     0.029 A 
ATOM     54  N   UNL A   1      42.366  30.476  28.331  1.00  0.00    -0.354 N 
ATOM     55  N   UNL A   1      45.787  29.520  27.837  1.00  0.00    -0.248 NA
ATOM     56  C   UNL A   1      47.786  30.149  26.913  1.00  0.00     0.031 C 
ATOM     57  C   UNL A   1      43.623  30.333  30.141  1.00  0.00     0.029 A 
ATOM     58  C   UNL A   1      43.607  30.806  28.841  1.00  0.00     0.049 A 
ATOM     59  H   UNL A   1      42.077  30.672  27.410  1.00  0.00     0.167 HD
ATOM     60  C   UNL A   1      45.695  30.880  27.669  1.00  0.00     0.074 A 
ATOM     61  C   UNL A   1      46.990  31.217  27.099  1.00  0.00     0.031 C 
ATOM     62  C   UNL A   1      44.556  31.568  28.021  1.00  0.00     0.037 A 
BRANCH  49  63
ATOM     63  C   UNL A   1      39.025  29.190  29.567  1.00  0.00     0.057 A 
ATOM     64  C   UNL A   1      37.869  29.715  28.962  1.00  0.00     0.134 A 
ATOM     65  C   UNL A   1      38.825  28.698  30.873  1.00  0.00     0.134 A 
ATOM     66  F   UNL A   1      37.868  30.140  27.693  1.00  0.00    -0.206 F 
ATOM     67  C   UNL A   1      36.642  29.824  29.629  1.00  0.00     0.040 A 
ATOM     68  C   UNL A   1      37.617  28.848  31.570  1.00  0.00     0.040 A 
ATOM     69  F   UNL A   1      39.778  28.007  31.513  1.00  0.00    -0.206 F 
ATOM     70  C   UNL A   1      36.517  29.417  30.946  1.00  0.00     0.006 A 
ENDBRANCH  49  63
BRANCH  50  71
ATOM     71  C   UNL A   1      47.928  26.783  26.404  1.00  0.00     0.057 A 
ATOM     72  C   UNL A   1      47.364  26.991  25.126  1.00  0.00     0.134 A 
ATOM     73  C   UNL A   1      49.211  26.222  26.437  1.00  0.00     0.134 A 
ATOM     74  F   UNL A   1      46.131  27.515  25.012  1.00  0.00    -0.206 F 
ATOM     75  C   UNL A   1      48.107  26.832  23.952  1.00  0.00     0.040 A 
ATOM     76  C   UNL A   1      49.951  26.031  25.259  1.00  0.00     0.040 A 
ATOM     77  F   UNL A   1      49.824  25.989  27.605  1.00  0.00    -0.206 F 
ATOM     78  C   UNL A   1      49.422  26.391  24.019  1.00  0.00     0.006 A 
ENDBRANCH  50  71
BRANCH  62  79
ATOM     79  C   UNL A   1      44.165  33.012  27.680  1.00  0.00     0.057 A 
ATOM     80  C   UNL A   1      43.912  34.040  28.594  1.00  0.00     0.134 A 
ATOM     81  C   UNL A   1      44.105  33.447  26.324  1.00  0.00     0.134 A 
ATOM     82  F   UNL A   1      43.901  33.850  29.911  1.00  0.00    -0.206 F 
ATOM     83  C   UNL A   1      43.655  35.367  28.210  1.00  0.00     0.040 A 
ATOM     84  C   UNL A   1      43.905  34.774  25.931  1.00  0.00     0.040 A 
ATOM     85  F   UNL A   1      44.233  32.614  25.282  1.00  0.00    -0.206 F 
ATOM     86  C   UNL A   1      43.675  35.746  26.879  1.00  0.00     0.006 A 
ENDBRANCH  62  79
ENDBRANCH  36  37
ENDBRANCH  28  31
ENDBRANCH  26  27
ENDBRANCH  25  26
ENDBRANCH  24  25
ENDBRANCH   1  24
TORSDOF 16
ENDMDL
MODEL 3
REMARK VINA RESULT:     -11.6      2.522      4.519
REMARK SMILES Cc1cccc([C@@H](CC(=O)NCCCCNC(=O)c2ccc(-c3c4nc(c(-c5c(F)cccc5F)c5ccc([nH]5)c(-c5c(F)cccc5F)c5nc(c(-c6c(F)cccc6F)c6ccc3[nH]6)C=C5)C=C4)cc2)NC(=O)OC(C)(C)C)c1
REMARK SMILES IDX 12 1 11 2 9 3 10 4 8 6 7 7 6 8 1 9 2 10 3 11 81 12 4 13 5 14
REMARK SMILES IDX 73 15 74 16 75 18 76 19 77 20 78 21 79 22 80 23 13 24 14 25
REMARK SMILES IDX 15 26 16 27 17 28 18 30 19 31 20 32 72 33 21 34 71 35 22 36
REMARK SMILES IDX 23 37 24 38 65 39 25 40 70 41 64 42 66 43 26 44 69 45 63 46
REMARK SMILES IDX 62 47 27 49 53 50 36 51 52 52 37 53 40 54 51 55 67 56 38 57
REMARK SMILES IDX 39 58 50 60 68 61 41 62 28 63 29 64 34 65 30 66 31 67 33 68
REMARK SMILES IDX 35 69 32 70 54 71 55 72 60 73 56 74 57 75 59 76 61 77 58 78
REMARK SMILES IDX 42 79 43 80 48 81 44 82 45 83 47 84 49 85 46 86
REMARK H PARENT 11 5 73 17 16 29 66 48 40 59
REMARK Flexibility Score: inf
ROOT
ATOM      1  C   UNL A   1      33.715  30.322  26.947  1.00  0.00     0.116 C 
ENDROOT
BRANCH   1   2
ATOM      2  N   UNL A   1      32.806  29.483  27.703  1.00  0.00    -0.356 N 
ATOM      3  C   UNL A   1      32.243  28.293  27.343  1.00  0.00     0.222 C 
ATOM      4  O   UNL A   1      31.255  27.920  27.981  1.00  0.00    -0.275 OA
ATOM      5  H   UNL A   1      32.564  29.814  28.597  1.00  0.00     0.163 HD
BRANCH   3   6
ATOM      6  C   UNL A   1      32.821  27.431  26.230  1.00  0.00     0.130 C 
BRANCH   6   7
ATOM      7  C   UNL A   1      31.927  26.308  25.658  1.00  0.00     0.125 C 
BRANCH   7   8
ATOM      8  C   UNL A   1      30.781  26.776  24.757  1.00  0.00    -0.025 A 
ATOM      9  C   UNL A   1      30.109  29.540  22.200  1.00  0.00     0.044 C 
ATOM     10  C   UNL A   1      29.893  28.391  23.140  1.00  0.00    -0.051 A 
ATOM     11  C   UNL A   1      28.635  27.788  23.226  1.00  0.00     0.003 A 
ATOM     12  C   UNL A   1      30.944  27.910  23.941  1.00  0.00     0.009 A 
ATOM     13  C   UNL A   1      28.472  26.630  23.976  1.00  0.00     0.001 A 
ATOM     14  C   UNL A   1      29.550  26.100  24.689  1.00  0.00     0.006 A 
ENDBRANCH   7   8
BRANCH   7  15
ATOM     15  N   UNL A   1      31.478  25.385  26.684  1.00  0.00    -0.314 N 
ATOM     16  C   UNL A   1      31.430  24.024  26.599  1.00  0.00     0.408 C 
ATOM     17  H   UNL A   1      31.174  25.783  27.531  1.00  0.00     0.167 HD
ATOM     18  O   UNL A   1      30.880  23.361  27.451  1.00  0.00    -0.225 OA
BRANCH  16  19
ATOM     19  O   UNL A   1      32.063  23.556  25.495  1.00  0.00    -0.444 OA
BRANCH  19  20
ATOM     20  C   UNL A   1      33.297  22.808  25.620  1.00  0.00     0.106 C 
ATOM     21  C   UNL A   1      34.194  23.377  26.725  1.00  0.00     0.056 C 
ATOM     22  C   UNL A   1      33.006  21.318  25.814  1.00  0.00     0.056 C 
ATOM     23  C   UNL A   1      34.007  23.004  24.271  1.00  0.00     0.056 C 
ENDBRANCH  19  20
ENDBRANCH  16  19
ENDBRANCH   7  15
ENDBRANCH   6   7
ENDBRANCH   3   6
ENDBRANCH   1   2
BRANCH   1  24
ATOM     24  C   UNL A   1      34.225  31.469  27.817  1.00  0.00     0.023 C 
BRANCH  24  25
ATOM     25  C   UNL A   1      33.496  32.814  27.868  1.00  0.00     0.023 C 
BRANCH  25  26
ATOM     26  C   UNL A   1      34.219  33.937  28.600  1.00  0.00     0.116 C 
BRANCH  26  27
ATOM     27  N   UNL A   1      33.806  34.105  30.018  1.00  0.00    -0.352 N 
ATOM     28  C   UNL A   1      34.401  33.662  31.201  1.00  0.00     0.251 C 
ATOM     29  H   UNL A   1      32.973  34.613  30.145  1.00  0.00     0.163 HD
ATOM     30  O   UNL A   1      33.774  33.587  32.251  1.00  0.00    -0.269 OA
BRANCH  28  31
ATOM     31  C   UNL A   1      35.841  33.365  31.190  1.00  0.00     0.039 A 
ATOM     32  C   UNL A   1      36.851  34.024  30.476  1.00  0.00     0.014 A 
ATOM     33  C   UNL A   1      36.157  32.239  31.910  1.00  0.00     0.014 A 
ATOM     34  C   UNL A   1      38.140  33.482  30.522  1.00  0.00     0.010 A 
ATOM     35  C   UNL A   1      37.408  32.087  32.370  1.00  0.00     0.010 A 
ATOM     36  C   UNL A   1      38.371  32.479  31.462  1.00  0.00    -0.014 A 
BRANCH  36  37
ATOM     37  C   UNL A   1      39.441  31.507  31.511  1.00  0.00     0.031 A 
ATOM     38  C   UNL A   1      39.363  30.350  30.639  1.00  0.00     0.074 A 
ATOM     39  C   UNL A   1      40.609  32.015  31.988  1.00  0.00     0.049 A 
ATOM     40  N   UNL A   1      40.009  29.263  30.844  1.00  0.00    -0.248 NA
ATOM     41  C   UNL A   1      38.542  30.336  29.431  1.00  0.00     0.031 C 
ATOM     42  C   UNL A   1      41.993  31.648  31.733  1.00  0.00     0.029 A 
ATOM     43  N   UNL A   1      40.730  33.098  32.875  1.00  0.00    -0.354 N 
ATOM     44  C   UNL A   1      40.020  28.610  29.635  1.00  0.00     0.074 A 
ATOM     45  C   UNL A   1      38.952  29.200  28.860  1.00  0.00     0.031 C 
ATOM     46  C   UNL A   1      42.768  32.215  32.683  1.00  0.00     0.029 A 
ATOM     47  C   UNL A   1      41.882  32.869  33.634  1.00  0.00     0.049 A 
ATOM     48  H   UNL A   1      40.122  33.868  32.947  1.00  0.00     0.167 HD
ATOM     49  C   UNL A   1      41.094  27.835  29.320  1.00  0.00     0.037 A 
ATOM     50  C   UNL A   1      41.690  32.523  34.940  1.00  0.00     0.037 A 
ATOM     51  C   UNL A   1      42.138  27.976  30.347  1.00  0.00     0.049 A 
ATOM     52  C   UNL A   1      42.016  31.066  35.176  1.00  0.00     0.074 A 
ATOM     53  C   UNL A   1      43.335  28.676  30.389  1.00  0.00     0.029 A 
ATOM     54  N   UNL A   1      41.836  27.681  31.673  1.00  0.00    -0.354 N 
ATOM     55  N   UNL A   1      42.156  30.170  34.235  1.00  0.00    -0.248 NA
ATOM     56  C   UNL A   1      42.259  30.519  36.497  1.00  0.00     0.031 C 
ATOM     57  C   UNL A   1      43.749  28.781  31.749  1.00  0.00     0.029 A 
ATOM     58  C   UNL A   1      42.809  28.144  32.539  1.00  0.00     0.049 A 
ATOM     59  H   UNL A   1      41.025  27.201  31.960  1.00  0.00     0.167 HD
ATOM     60  C   UNL A   1      42.511  28.957  34.772  1.00  0.00     0.074 A 
ATOM     61  C   UNL A   1      42.575  29.247  36.196  1.00  0.00     0.031 C 
ATOM     62  C   UNL A   1      42.710  27.853  33.974  1.00  0.00     0.037 A 
BRANCH  49  63
ATOM     63  C   UNL A   1      41.306  27.239  27.949  1.00  0.00     0.057 A 
ATOM     64  C   UNL A   1      40.981  25.900  27.669  1.00  0.00     0.134 A 
ATOM     65  C   UNL A   1      41.809  27.957  26.846  1.00  0.00     0.134 A 
ATOM     66  F   UNL A   1      40.409  25.107  28.583  1.00  0.00    -0.206 F 
ATOM     67  C   UNL A   1      41.218  25.301  26.425  1.00  0.00     0.040 A 
ATOM     68  C   UNL A   1      42.099  27.358  25.611  1.00  0.00     0.040 A 
ATOM     69  F   UNL A   1      41.997  29.283  26.901  1.00  0.00    -0.206 F 
ATOM     70  C   UNL A   1      41.804  26.021  25.398  1.00  0.00     0.006 A 
ENDBRANCH  49  63
BRANCH  50  71
ATOM     71  C   UNL A   1      40.555  33.311  35.540  1.00  0.00     0.057 A 
ATOM     72  C   UNL A   1      39.365  32.604  35.822  1.00  0.00     0.134 A 
ATOM     73  C   UNL A   1      40.782  34.474  36.285  1.00  0.00     0.134 A 
ATOM     74  F   UNL A   1      39.071  31.484  35.141  1.00  0.00    -0.206 F 
ATOM     75  C   UNL A   1      38.550  32.928  36.911  1.00  0.00     0.040 A 
ATOM     76  C   UNL A   1      39.949  34.822  37.361  1.00  0.00     0.040 A 
ATOM     77  F   UNL A   1      41.885  35.209  36.086  1.00  0.00    -0.206 F 
ATOM     78  C   UNL A   1      38.866  34.017  37.713  1.00  0.00     0.006 A 
ENDBRANCH  50  71
BRANCH  62  79
ATOM     79  C   UNL A   1      42.851  26.384  34.389  1.00  0.00     0.057 A 
ATOM     80  C   UNL A   1      41.981  25.671  35.222  1.00  0.00     0.134 A 
ATOM     81  C   UNL A   1      43.899  25.576  33.861  1.00  0.00     0.134 A 
ATOM     82  F   UNL A   1      40.943  26.235  35.835  1.00  0.00    -0.206 F 
ATOM     83  C   UNL A   1      42.117  24.297  35.483  1.00  0.00     0.040 A 
ATOM     84  C   UNL A   1      44.013  24.197  34.068  1.00  0.00     0.040 A 
ATOM     85  F   UNL A   1      44.892  26.068  33.108  1.00  0.00    -0.206 F 
ATOM     86  C   UNL A   1      43.117  23.548  34.887  1.00  0.00     0.006 A 
ENDBRANCH  62  79
ENDBRANCH  36  37
ENDBRANCH  28  31
ENDBRANCH  26  27
ENDBRANCH  25  26
ENDBRANCH  24  25
ENDBRANCH   1  24
TORSDOF 16
ENDMDL
