MODEL 1
REMARK VINA RESULT:     -11.8      0.000      0.000
REMARK SMILES Cc1cc(Cl)cc2c1O[C@H](C(F)(F)F)C(C(=O)NCCCCNC(=O)c1ccc(-c3c4nc(c(-c5c(F)cccc5F)c5ccc([nH]5)c(-c5c(F)cccc5F)c5nc(c(-c6c(F)cccc6F)c6ccc3[nH]6)C=C5)C=C4)cc1)=C2
REMARK SMILES IDX 21 1 20 2 19 3 18 4 16 5 17 6 15 8 1 9 2 10 3 11 8 12 4 13
REMARK SMILES IDX 7 14 9 15 5 16 6 17 80 18 10 19 11 20 12 21 13 22 14 23
REMARK SMILES IDX 22 24 23 25 24 26 25 28 26 29 27 30 79 31 28 32 78 33 29 34
REMARK SMILES IDX 30 35 31 36 72 37 32 38 77 39 71 40 73 41 33 42 76 43 70 44
REMARK SMILES IDX 69 45 34 47 60 48 43 49 59 50 44 51 47 52 58 53 74 54 45 55
REMARK SMILES IDX 46 56 57 58 75 59 48 60 35 61 36 62 41 63 37 64 38 65 40 66
REMARK SMILES IDX 42 67 39 68 61 69 62 70 67 71 63 72 64 73 66 74 68 75 65 76
REMARK SMILES IDX 49 77 50 78 55 79 51 80 52 81 54 82 56 83 53 84
REMARK H PARENT 18 7 23 27 73 46 47 57
REMARK Flexibility Score: inf
ROOT
ATOM      1  C   UNL A   1      33.450  29.087  25.651  1.00  0.00     0.023 C 
ENDROOT
BRANCH   1   2
ATOM      2  C   UNL A   1      33.654  27.800  24.847  1.00  0.00     0.023 C 
BRANCH   2   3
ATOM      3  C   UNL A   1      32.363  27.181  24.318  1.00  0.00     0.116 C 
BRANCH   3   4
ATOM      4  N   UNL A   1      31.583  26.565  25.377  1.00  0.00    -0.352 N 
ATOM      5  C   UNL A   1      31.532  25.359  25.991  1.00  0.00     0.251 C 
ATOM      6  O   UNL A   1      30.674  25.260  26.876  1.00  0.00    -0.270 OA
ATOM      7  H   UNL A   1      30.917  27.187  25.746  1.00  0.00     0.163 HD
BRANCH   5   8
ATOM      8  C   UNL A   1      32.406  24.189  25.679  1.00  0.00     0.067 C 
ATOM      9  C   UNL A   1      34.401  19.571  24.627  1.00  0.00     0.048 C 
ATOM     10  C   UNL A   1      34.951  20.883  25.108  1.00  0.00    -0.007 A 
ATOM     11  C   UNL A   1      36.328  21.044  25.308  1.00  0.00     0.027 A 
ATOM     12  C   UNL A   1      34.102  21.975  25.344  1.00  0.00     0.131 A 
ATOM     13  C   UNL A   1      36.834  22.268  25.751  1.00  0.00     0.042 A 
ATOM     14  C   UNL A   1      34.608  23.199  25.796  1.00  0.00     0.019 A 
ATOM     15  O   UNL A   1      32.761  21.778  25.161  1.00  0.00    -0.475 OA
ATOM     16  Cl  UNL A   1      38.528  22.446  26.000  1.00  0.00    -0.084 Cl
ATOM     17  C   UNL A   1      35.982  23.342  26.001  1.00  0.00     0.032 A 
ATOM     18  C   UNL A   1      33.685  24.291  26.085  1.00  0.00     0.025 C 
ATOM     19  C   UNL A   1      31.958  22.966  24.929  1.00  0.00     0.314 C 
BRANCH  19  20
ATOM     20  C   UNL A   1      31.835  23.212  23.414  1.00  0.00     0.429 C 
ATOM     21  F   UNL A   1      31.934  22.042  22.735  1.00  0.00    -0.167 F 
ATOM     22  F   UNL A   1      30.640  23.752  23.072  1.00  0.00    -0.167 F 
ATOM     23  F   UNL A   1      32.791  24.040  22.937  1.00  0.00    -0.167 F 
ENDBRANCH  19  20
ENDBRANCH   5   8
ENDBRANCH   3   4
ENDBRANCH   2   3
ENDBRANCH   1   2
BRANCH   1  24
ATOM     24  C   UNL A   1      33.762  28.987  27.144  1.00  0.00     0.116 C 
BRANCH  24  25
ATOM     25  N   UNL A   1      33.755  30.267  27.838  1.00  0.00    -0.352 N 
ATOM     26  C   UNL A   1      34.787  30.855  28.533  1.00  0.00     0.251 C 
ATOM     27  H   UNL A   1      32.912  30.773  27.805  1.00  0.00     0.163 HD
ATOM     28  O   UNL A   1      34.623  31.912  29.131  1.00  0.00    -0.269 OA
BRANCH  26  29
ATOM     29  C   UNL A   1      36.086  30.159  28.589  1.00  0.00     0.039 A 
ATOM     30  C   UNL A   1      36.918  30.203  27.468  1.00  0.00     0.014 A 
ATOM     31  C   UNL A   1      36.506  29.543  29.770  1.00  0.00     0.014 A 
ATOM     32  C   UNL A   1      38.217  29.703  27.561  1.00  0.00     0.010 A 
ATOM     33  C   UNL A   1      37.816  29.092  29.876  1.00  0.00     0.010 A 
ATOM     34  C   UNL A   1      38.687  29.185  28.780  1.00  0.00    -0.014 A 
BRANCH  34  35
ATOM     35  C   UNL A   1      40.099  28.767  28.942  1.00  0.00     0.031 A 
ATOM     36  C   UNL A   1      41.112  29.733  29.479  1.00  0.00     0.074 A 
ATOM     37  C   UNL A   1      40.477  27.540  28.534  1.00  0.00     0.049 A 
ATOM     38  N   UNL A   1      42.407  29.592  29.594  1.00  0.00    -0.248 NA
ATOM     39  C   UNL A   1      40.605  31.041  29.923  1.00  0.00     0.031 C 
ATOM     40  C   UNL A   1      39.588  26.525  27.967  1.00  0.00     0.029 A 
ATOM     41  N   UNL A   1      41.712  26.944  28.524  1.00  0.00    -0.354 N 
ATOM     42  C   UNL A   1      42.871  30.791  30.113  1.00  0.00     0.074 A 
ATOM     43  C   UNL A   1      41.726  31.666  30.252  1.00  0.00     0.031 C 
ATOM     44  C   UNL A   1      40.303  25.423  27.686  1.00  0.00     0.029 A 
ATOM     45  C   UNL A   1      41.703  25.667  28.019  1.00  0.00     0.049 A 
ATOM     46  H   UNL A   1      42.529  27.389  28.849  1.00  0.00     0.167 HD
ATOM     47  C   UNL A   1      44.136  31.126  30.460  1.00  0.00     0.037 A 
ATOM     48  C   UNL A   1      42.711  24.794  27.840  1.00  0.00     0.037 A 
ATOM     49  C   UNL A   1      45.269  30.250  30.338  1.00  0.00     0.049 A 
ATOM     50  C   UNL A   1      44.107  25.191  28.228  1.00  0.00     0.074 A 
ATOM     51  C   UNL A   1      46.587  30.491  30.682  1.00  0.00     0.029 A 
ATOM     52  N   UNL A   1      45.215  28.958  29.837  1.00  0.00    -0.354 N 
ATOM     53  N   UNL A   1      44.530  26.323  28.737  1.00  0.00    -0.248 NA
ATOM     54  C   UNL A   1      45.165  24.192  28.020  1.00  0.00     0.031 C 
ATOM     55  C   UNL A   1      47.337  29.352  30.369  1.00  0.00     0.029 A 
ATOM     56  C   UNL A   1      46.479  28.390  29.862  1.00  0.00     0.049 A 
ATOM     57  H   UNL A   1      44.401  28.510  29.513  1.00  0.00     0.167 HD
ATOM     58  C   UNL A   1      45.894  26.166  28.933  1.00  0.00     0.074 A 
ATOM     59  C   UNL A   1      46.230  24.826  28.494  1.00  0.00     0.031 C 
ATOM     60  C   UNL A   1      46.789  27.051  29.433  1.00  0.00     0.037 A 
BRANCH  47  61
ATOM     61  C   UNL A   1      44.355  32.501  31.016  1.00  0.00     0.057 A 
ATOM     62  C   UNL A   1      44.300  32.750  32.393  1.00  0.00     0.134 A 
ATOM     63  C   UNL A   1      44.661  33.576  30.174  1.00  0.00     0.134 A 
ATOM     64  F   UNL A   1      43.995  31.763  33.250  1.00  0.00    -0.206 F 
ATOM     65  C   UNL A   1      44.524  34.024  32.914  1.00  0.00     0.040 A 
ATOM     66  C   UNL A   1      44.910  34.852  30.684  1.00  0.00     0.040 A 
ATOM     67  F   UNL A   1      44.733  33.404  28.846  1.00  0.00    -0.206 F 
ATOM     68  C   UNL A   1      44.837  35.079  32.057  1.00  0.00     0.006 A 
ENDBRANCH  47  61
BRANCH  48  69
ATOM     69  C   UNL A   1      42.428  23.441  27.302  1.00  0.00     0.057 A 
ATOM     70  C   UNL A   1      42.553  23.177  25.933  1.00  0.00     0.134 A 
ATOM     71  C   UNL A   1      42.047  22.383  28.134  1.00  0.00     0.134 A 
ATOM     72  F   UNL A   1      42.899  24.156  25.085  1.00  0.00    -0.206 F 
ATOM     73  C   UNL A   1      42.300  21.908  25.409  1.00  0.00     0.040 A 
ATOM     74  C   UNL A   1      41.808  21.105  27.626  1.00  0.00     0.040 A 
ATOM     75  F   UNL A   1      41.917  22.574  29.456  1.00  0.00    -0.206 F 
ATOM     76  C   UNL A   1      41.931  20.866  26.258  1.00  0.00     0.006 A 
ENDBRANCH  48  69
BRANCH  60  77
ATOM     77  C   UNL A   1      48.209  26.593  29.566  1.00  0.00     0.057 A 
ATOM     78  C   UNL A   1      49.159  26.842  28.570  1.00  0.00     0.134 A 
ATOM     79  C   UNL A   1      48.642  25.951  30.734  1.00  0.00     0.134 A 
ATOM     80  F   UNL A   1      48.803  27.443  27.425  1.00  0.00    -0.206 F 
ATOM     81  C   UNL A   1      50.492  26.457  28.724  1.00  0.00     0.040 A 
ATOM     82  C   UNL A   1      49.975  25.579  30.908  1.00  0.00     0.040 A 
ATOM     83  F   UNL A   1      47.780  25.692  31.727  1.00  0.00    -0.206 F 
ATOM     84  C   UNL A   1      50.903  25.830  29.900  1.00  0.00     0.006 A 
ENDBRANCH  60  77
ENDBRANCH  34  35
ENDBRANCH  26  29
ENDBRANCH  24  25
ENDBRANCH   1  24
TORSDOF 12
ENDMDL
MODEL 2
REMARK VINA RESULT:     -11.7      2.731      7.540
REMARK SMILES Cc1cc(Cl)cc2c1O[C@H](C(F)(F)F)C(C(=O)NCCCCNC(=O)c1ccc(-c3c4nc(c(-c5c(F)cccc5F)c5ccc([nH]5)c(-c5c(F)cccc5F)c5nc(c(-c6c(F)cccc6F)c6ccc3[nH]6)C=C5)C=C4)cc1)=C2
REMARK SMILES IDX 21 1 20 2 19 3 18 4 16 5 17 6 15 8 1 9 2 10 3 11 8 12 4 13
REMARK SMILES IDX 7 14 9 15 5 16 6 17 80 18 10 19 11 20 12 21 13 22 14 23
REMARK SMILES IDX 22 24 23 25 24 26 25 28 26 29 27 30 79 31 28 32 78 33 29 34
REMARK SMILES IDX 30 35 31 36 72 37 32 38 77 39 71 40 73 41 33 42 76 43 70 44
REMARK SMILES IDX 69 45 34 47 60 48 43 49 59 50 44 51 47 52 58 53 74 54 45 55
REMARK SMILES IDX 46 56 57 58 75 59 48 60 35 61 36 62 41 63 37 64 38 65 40 66
REMARK SMILES IDX 42 67 39 68 61 69 62 70 67 71 63 72 64 73 66 74 68 75 65 76
REMARK SMILES IDX 49 77 50 78 55 79 51 80 52 81 54 82 56 83 53 84
REMARK H PARENT 18 7 23 27 73 46 47 57
REMARK Flexibility Score: inf
ROOT
ATOM      1  C   UNL A   1      38.041  20.072  24.998  1.00  0.00     0.023 C 
ENDROOT
BRANCH   1   2
ATOM      2  C   UNL A   1      37.315  21.326  24.505  1.00  0.00     0.023 C 
BRANCH   2   3
ATOM      3  C   UNL A   1      37.447  22.532  25.431  1.00  0.00     0.116 C 
BRANCH   3   4
ATOM      4  N   UNL A   1      36.357  22.602  26.388  1.00  0.00    -0.352 N 
ATOM      5  C   UNL A   1      35.098  23.100  26.417  1.00  0.00     0.251 C 
ATOM      6  O   UNL A   1      34.497  22.937  27.485  1.00  0.00    -0.270 OA
ATOM      7  H   UNL A   1      36.597  22.175  27.242  1.00  0.00     0.163 HD
BRANCH   5   8
ATOM      8  C   UNL A   1      34.419  23.805  25.291  1.00  0.00     0.067 C 
ATOM      9  C   UNL A   1      32.772  25.560  20.749  1.00  0.00     0.048 C 
ATOM     10  C   UNL A   1      32.696  26.045  22.168  1.00  0.00    -0.007 A 
ATOM     11  C   UNL A   1      31.991  27.215  22.481  1.00  0.00     0.027 A 
ATOM     12  C   UNL A   1      33.307  25.327  23.207  1.00  0.00     0.131 A 
ATOM     13  C   UNL A   1      31.920  27.658  23.803  1.00  0.00     0.042 A 
ATOM     14  C   UNL A   1      33.243  25.776  24.531  1.00  0.00     0.019 A 
ATOM     15  O   UNL A   1      34.006  24.202  22.865  1.00  0.00    -0.475 OA
ATOM     16  Cl  UNL A   1      31.057  29.102  24.168  1.00  0.00    -0.084 Cl
ATOM     17  C   UNL A   1      32.546  26.949  24.827  1.00  0.00     0.032 A 
ATOM     18  C   UNL A   1      33.941  25.032  25.573  1.00  0.00     0.025 C 
ATOM     19  C   UNL A   1      34.214  23.224  23.920  1.00  0.00     0.314 C 
BRANCH  19  20
ATOM     20  C   UNL A   1      33.081  22.182  23.881  1.00  0.00     0.429 C 
ATOM     21  F   UNL A   1      33.521  20.988  24.350  1.00  0.00    -0.167 F 
ATOM     22  F   UNL A   1      32.028  22.533  24.658  1.00  0.00    -0.167 F 
ATOM     23  F   UNL A   1      32.599  21.976  22.635  1.00  0.00    -0.167 F 
ENDBRANCH  19  20
ENDBRANCH   5   8
ENDBRANCH   3   4
ENDBRANCH   2   3
ENDBRANCH   1   2
BRANCH   1  24
ATOM     24  C   UNL A   1      39.298  20.324  25.831  1.00  0.00     0.116 C 
BRANCH  24  25
ATOM     25  N   UNL A   1      40.215  19.193  25.876  1.00  0.00    -0.352 N 
ATOM     26  C   UNL A   1      41.558  19.208  26.174  1.00  0.00     0.251 C 
ATOM     27  H   UNL A   1      39.827  18.312  25.668  1.00  0.00     0.163 HD
ATOM     28  O   UNL A   1      42.230  18.185  26.109  1.00  0.00    -0.269 OA
BRANCH  26  29
ATOM     29  C   UNL A   1      42.187  20.494  26.526  1.00  0.00     0.039 A 
ATOM     30  C   UNL A   1      42.711  21.286  25.502  1.00  0.00     0.014 A 
ATOM     31  C   UNL A   1      42.180  20.945  27.848  1.00  0.00     0.014 A 
ATOM     32  C   UNL A   1      43.151  22.577  25.792  1.00  0.00     0.010 A 
ATOM     33  C   UNL A   1      42.571  22.249  28.127  1.00  0.00     0.010 A 
ATOM     34  C   UNL A   1      43.041  23.082  27.099  1.00  0.00    -0.014 A 
BRANCH  34  35
ATOM     35  C   UNL A   1      43.379  24.490  27.409  1.00  0.00     0.031 A 
ATOM     36  C   UNL A   1      44.810  24.940  27.392  1.00  0.00     0.074 A 
ATOM     37  C   UNL A   1      42.402  25.340  27.779  1.00  0.00     0.049 A 
ATOM     38  N   UNL A   1      45.315  26.096  27.736  1.00  0.00    -0.248 NA
ATOM     39  C   UNL A   1      45.806  23.952  26.952  1.00  0.00     0.031 C 
ATOM     40  C   UNL A   1      40.978  25.009  27.863  1.00  0.00     0.029 A 
ATOM     41  N   UNL A   1      42.461  26.655  28.163  1.00  0.00    -0.354 N 
ATOM     42  C   UNL A   1      46.685  25.973  27.565  1.00  0.00     0.074 A 
ATOM     43  C   UNL A   1      46.939  24.617  27.126  1.00  0.00     0.031 C 
ATOM     44  C   UNL A   1      40.296  26.099  28.251  1.00  0.00     0.029 A 
ATOM     45  C   UNL A   1      41.236  27.192  28.477  1.00  0.00     0.049 A 
ATOM     46  H   UNL A   1      43.302  27.167  28.210  1.00  0.00     0.167 HD
ATOM     47  C   UNL A   1      47.644  26.912  27.739  1.00  0.00     0.037 A 
ATOM     48  C   UNL A   1      40.911  28.427  28.904  1.00  0.00     0.037 A 
ATOM     49  C   UNL A   1      47.389  28.264  28.158  1.00  0.00     0.049 A 
ATOM     50  C   UNL A   1      41.994  29.450  29.095  1.00  0.00     0.074 A 
ATOM     51  C   UNL A   1      48.293  29.295  28.343  1.00  0.00     0.029 A 
ATOM     52  N   UNL A   1      46.133  28.774  28.449  1.00  0.00    -0.354 N 
ATOM     53  N   UNL A   1      43.286  29.326  28.910  1.00  0.00    -0.248 NA
ATOM     54  C   UNL A   1      41.576  30.783  29.552  1.00  0.00     0.031 C 
ATOM     55  C   UNL A   1      47.586  30.425  28.769  1.00  0.00     0.029 A 
ATOM     56  C   UNL A   1      46.239  30.106  28.815  1.00  0.00     0.049 A 
ATOM     57  H   UNL A   1      45.291  28.266  28.403  1.00  0.00     0.167 HD
ATOM     58  C   UNL A   1      43.832  30.567  29.202  1.00  0.00     0.074 A 
ATOM     59  C   UNL A   1      42.732  31.434  29.572  1.00  0.00     0.031 C 
ATOM     60  C   UNL A   1      45.130  30.954  29.167  1.00  0.00     0.037 A 
BRANCH  47  61
ATOM     61  C   UNL A   1      49.061  26.507  27.466  1.00  0.00     0.057 A 
ATOM     62  C   UNL A   1      49.876  25.972  28.472  1.00  0.00     0.134 A 
ATOM     63  C   UNL A   1      49.605  26.618  26.181  1.00  0.00     0.134 A 
ATOM     64  F   UNL A   1      49.417  25.855  29.727  1.00  0.00    -0.206 F 
ATOM     65  C   UNL A   1      51.189  25.576  28.214  1.00  0.00     0.040 A 
ATOM     66  C   UNL A   1      50.910  26.205  25.905  1.00  0.00     0.040 A 
ATOM     67  F   UNL A   1      48.877  27.120  25.173  1.00  0.00    -0.206 F 
ATOM     68  C   UNL A   1      51.706  25.687  26.924  1.00  0.00     0.006 A 
ENDBRANCH  47  61
BRANCH  48  69
ATOM     69  C   UNL A   1      39.488  28.773  29.141  1.00  0.00     0.057 A 
ATOM     70  C   UNL A   1      38.688  29.256  28.100  1.00  0.00     0.134 A 
ATOM     71  C   UNL A   1      38.892  28.615  30.397  1.00  0.00     0.134 A 
ATOM     72  F   UNL A   1      39.209  29.443  26.879  1.00  0.00    -0.206 F 
ATOM     73  C   UNL A   1      37.344  29.578  28.301  1.00  0.00     0.040 A 
ATOM     74  C   UNL A   1      37.546  28.918  30.608  1.00  0.00     0.040 A 
ATOM     75  F   UNL A   1      39.607  28.150  31.433  1.00  0.00    -0.206 F 
ATOM     76  C   UNL A   1      36.769  29.404  29.558  1.00  0.00     0.006 A 
ENDBRANCH  48  69
BRANCH  60  77
ATOM     77  C   UNL A   1      45.430  32.383  29.502  1.00  0.00     0.057 A 
ATOM     78  C   UNL A   1      45.766  32.780  30.801  1.00  0.00     0.134 A 
ATOM     79  C   UNL A   1      45.445  33.360  28.498  1.00  0.00     0.134 A 
ATOM     80  F   UNL A   1      45.759  31.891  31.806  1.00  0.00    -0.206 F 
ATOM     81  C   UNL A   1      46.095  34.104  31.095  1.00  0.00     0.040 A 
ATOM     82  C   UNL A   1      45.791  34.683  28.776  1.00  0.00     0.040 A 
ATOM     83  F   UNL A   1      45.140  33.040  27.233  1.00  0.00    -0.206 F 
ATOM     84  C   UNL A   1      46.115  35.057  30.078  1.00  0.00     0.006 A 
ENDBRANCH  60  77
ENDBRANCH  34  35
ENDBRANCH  26  29
ENDBRANCH  24  25
ENDBRANCH   1  24
TORSDOF 12
ENDMDL
MODEL 3
REMARK VINA RESULT:     -11.7      4.035      5.786
REMARK SMILES Cc1cc(Cl)cc2c1O[C@H](C(F)(F)F)C(C(=O)NCCCCNC(=O)c1ccc(-c3c4nc(c(-c5c(F)cccc5F)c5ccc([nH]5)c(-c5c(F)cccc5F)c5nc(c(-c6c(F)cccc6F)c6ccc3[nH]6)C=C5)C=C4)cc1)=C2
REMARK SMILES IDX 21 1 20 2 19 3 18 4 16 5 17 6 15 8 1 9 2 10 3 11 8 12 4 13
REMARK SMILES IDX 7 14 9 15 5 16 6 17 80 18 10 19 11 20 12 21 13 22 14 23
REMARK SMILES IDX 22 24 23 25 24 26 25 28 26 29 27 30 79 31 28 32 78 33 29 34
REMARK SMILES IDX 30 35 31 36 72 37 32 38 77 39 71 40 73 41 33 42 76 43 70 44
REMARK SMILES IDX 69 45 34 47 60 48 43 49 59 50 44 51 47 52 58 53 74 54 45 55
REMARK SMILES IDX 46 56 57 58 75 59 48 60 35 61 36 62 41 63 37 64 38 65 40 66
REMARK SMILES IDX 42 67 39 68 61 69 62 70 67 71 63 72 64 73 66 74 68 75 65 76
REMARK SMILES IDX 49 77 50 78 55 79 51 80 52 81 54 82 56 83 53 84
REMARK H PARENT 18 7 23 27 73 46 47 57
REMARK Flexibility Score: inf
ROOT
ATOM      1  C   UNL A   1      31.643  31.953  26.830  1.00  0.00     0.023 C 
ENDROOT
BRANCH   1   2
ATOM      2  C   UNL A   1      31.910  30.445  26.833  1.00  0.00     0.023 C 
BRANCH   2   3
ATOM      3  C   UNL A   1      33.294  30.052  26.328  1.00  0.00     0.116 C 
BRANCH   3   4
ATOM      4  N   UNL A   1      33.278  29.702  24.919  1.00  0.00    -0.352 N 
ATOM      5  C   UNL A   1      33.008  28.602  24.177  1.00  0.00     0.251 C 
ATOM      6  O   UNL A   1      33.130  28.753  22.956  1.00  0.00    -0.270 OA
ATOM      7  H   UNL A   1      33.530  30.467  24.353  1.00  0.00     0.163 HD
BRANCH   5   8
ATOM      8  C   UNL A   1      32.594  27.273  24.716  1.00  0.00     0.067 C 
ATOM      9  C   UNL A   1      30.192  23.276  26.876  1.00  0.00     0.048 C 
ATOM     10  C   UNL A   1      31.611  23.583  26.490  1.00  0.00    -0.007 A 
ATOM     11  C   UNL A   1      32.615  22.619  26.652  1.00  0.00     0.027 A 
ATOM     12  C   UNL A   1      31.952  24.827  25.941  1.00  0.00     0.131 A 
ATOM     13  C   UNL A   1      33.930  22.908  26.287  1.00  0.00     0.042 A 
ATOM     14  C   UNL A   1      33.273  25.121  25.583  1.00  0.00     0.019 A 
ATOM     15  O   UNL A   1      30.954  25.754  25.817  1.00  0.00    -0.475 OA
ATOM     16  Cl  UNL A   1      35.153  21.715  26.501  1.00  0.00    -0.084 Cl
ATOM     17  C   UNL A   1      34.265  24.154  25.759  1.00  0.00     0.032 A 
ATOM     18  C   UNL A   1      33.597  26.448  25.069  1.00  0.00     0.025 C 
ATOM     19  C   UNL A   1      31.169  26.811  24.844  1.00  0.00     0.314 C 
BRANCH  19  20
ATOM     20  C   UNL A   1      30.557  26.396  23.494  1.00  0.00     0.429 C 
ATOM     21  F   UNL A   1      29.474  25.603  23.689  1.00  0.00    -0.167 F 
ATOM     22  F   UNL A   1      30.128  27.458  22.771  1.00  0.00    -0.167 F 
ATOM     23  F   UNL A   1      31.424  25.714  22.712  1.00  0.00    -0.167 F 
ENDBRANCH  19  20
ENDBRANCH   5   8
ENDBRANCH   3   4
ENDBRANCH   2   3
ENDBRANCH   1   2
BRANCH   1  24
ATOM     24  C   UNL A   1      32.801  32.826  27.314  1.00  0.00     0.116 C 
BRANCH  24  25
ATOM     25  N   UNL A   1      32.418  34.197  27.626  1.00  0.00    -0.352 N 
ATOM     26  C   UNL A   1      32.996  35.045  28.542  1.00  0.00     0.251 C 
ATOM     27  H   UNL A   1      31.655  34.559  27.120  1.00  0.00     0.163 HD
ATOM     28  O   UNL A   1      32.527  36.158  28.754  1.00  0.00    -0.269 OA
BRANCH  26  29
ATOM     29  C   UNL A   1      34.163  34.568  29.306  1.00  0.00     0.039 A 
ATOM     30  C   UNL A   1      33.954  33.998  30.563  1.00  0.00     0.014 A 
ATOM     31  C   UNL A   1      35.440  34.610  28.742  1.00  0.00     0.014 A 
ATOM     32  C   UNL A   1      35.019  33.386  31.223  1.00  0.00     0.010 A 
ATOM     33  C   UNL A   1      36.489  33.956  29.376  1.00  0.00     0.010 A 
ATOM     34  C   UNL A   1      36.283  33.322  30.612  1.00  0.00    -0.014 A 
BRANCH  34  35
ATOM     35  C   UNL A   1      37.397  32.568  31.230  1.00  0.00     0.031 A 
ATOM     36  C   UNL A   1      37.955  33.001  32.554  1.00  0.00     0.074 A 
ATOM     37  C   UNL A   1      37.952  31.539  30.561  1.00  0.00     0.049 A 
ATOM     38  N   UNL A   1      38.992  32.539  33.203  1.00  0.00    -0.248 NA
ATOM     39  C   UNL A   1      37.270  34.117  33.224  1.00  0.00     0.031 C 
ATOM     40  C   UNL A   1      37.517  31.046  29.254  1.00  0.00     0.029 A 
ATOM     41  N   UNL A   1      39.012  30.730  30.886  1.00  0.00    -0.354 N 
ATOM     42  C   UNL A   1      39.091  33.311  34.350  1.00  0.00     0.074 A 
ATOM     43  C   UNL A   1      38.035  34.299  34.290  1.00  0.00     0.031 C 
ATOM     44  C   UNL A   1      38.288  30.004  28.898  1.00  0.00     0.029 A 
ATOM     45  C   UNL A   1      39.292  29.781  29.933  1.00  0.00     0.049 A 
ATOM     46  H   UNL A   1      39.523  30.821  31.723  1.00  0.00     0.167 HD
ATOM     47  C   UNL A   1      39.971  33.194  35.372  1.00  0.00     0.037 A 
ATOM     48  C   UNL A   1      40.253  28.840  29.899  1.00  0.00     0.037 A 
ATOM     49  C   UNL A   1      41.008  32.200  35.439  1.00  0.00     0.049 A 
ATOM     50  C   UNL A   1      41.222  28.734  31.042  1.00  0.00     0.074 A 
ATOM     51  C   UNL A   1      41.937  31.988  36.442  1.00  0.00     0.029 A 
ATOM     52  N   UNL A   1      41.248  31.245  34.462  1.00  0.00    -0.354 N 
ATOM     53  N   UNL A   1      41.292  29.459  32.132  1.00  0.00    -0.248 NA
ATOM     54  C   UNL A   1      42.243  27.680  30.952  1.00  0.00     0.031 C 
ATOM     55  C   UNL A   1      42.754  30.918  36.063  1.00  0.00     0.029 A 
ATOM     56  C   UNL A   1      42.312  30.443  34.839  1.00  0.00     0.049 A 
ATOM     57  H   UNL A   1      40.738  31.151  33.625  1.00  0.00     0.167 HD
ATOM     58  C   UNL A   1      42.344  28.935  32.869  1.00  0.00     0.074 A 
ATOM     59  C   UNL A   1      42.882  27.827  32.106  1.00  0.00     0.031 C 
ATOM     60  C   UNL A   1      42.823  29.337  34.071  1.00  0.00     0.037 A 
BRANCH  47  61
ATOM     61  C   UNL A   1      39.841  34.164  36.507  1.00  0.00     0.057 A 
ATOM     62  C   UNL A   1      40.456  35.422  36.468  1.00  0.00     0.134 A 
ATOM     63  C   UNL A   1      39.067  33.855  37.631  1.00  0.00     0.134 A 
ATOM     64  F   UNL A   1      41.224  35.770  35.424  1.00  0.00    -0.206 F 
ATOM     65  C   UNL A   1      40.319  36.334  37.515  1.00  0.00     0.040 A 
ATOM     66  C   UNL A   1      38.903  34.768  38.676  1.00  0.00     0.040 A 
ATOM     67  F   UNL A   1      38.449  32.669  37.729  1.00  0.00    -0.206 F 
ATOM     68  C   UNL A   1      39.534  36.009  38.620  1.00  0.00     0.006 A 
ENDBRANCH  47  61
BRANCH  48  69
ATOM     69  C   UNL A   1      40.320  27.897  28.756  1.00  0.00     0.057 A 
ATOM     70  C   UNL A   1      39.625  26.683  28.790  1.00  0.00     0.134 A 
ATOM     71  C   UNL A   1      41.059  28.189  27.604  1.00  0.00     0.134 A 
ATOM     72  F   UNL A   1      38.914  26.343  29.874  1.00  0.00    -0.206 F 
ATOM     73  C   UNL A   1      39.668  25.787  27.720  1.00  0.00     0.040 A 
ATOM     74  C   UNL A   1      41.097  27.309  26.520  1.00  0.00     0.040 A 
ATOM     75  F   UNL A   1      41.741  29.340  27.510  1.00  0.00    -0.206 F 
ATOM     76  C   UNL A   1      40.403  26.103  26.579  1.00  0.00     0.006 A 
ENDBRANCH  48  69
BRANCH  60  77
ATOM     77  C   UNL A   1      43.960  28.556  34.654  1.00  0.00     0.057 A 
ATOM     78  C   UNL A   1      45.292  28.933  34.453  1.00  0.00     0.134 A 
ATOM     79  C   UNL A   1      43.714  27.450  35.479  1.00  0.00     0.134 A 
ATOM     80  F   UNL A   1      45.591  29.977  33.665  1.00  0.00    -0.206 F 
ATOM     81  C   UNL A   1      46.344  28.230  35.042  1.00  0.00     0.040 A 
ATOM     82  C   UNL A   1      44.756  26.751  36.089  1.00  0.00     0.040 A 
ATOM     83  F   UNL A   1      42.458  27.044  35.716  1.00  0.00    -0.206 F 
ATOM     84  C   UNL A   1      46.075  27.140  35.869  1.00  0.00     0.006 A 
ENDBRANCH  60  77
ENDBRANCH  34  35
ENDBRANCH  26  29
ENDBRANCH  24  25
ENDBRANCH   1  24
TORSDOF 12
ENDMDL
