MODEL 1
REMARK VINA RESULT:     -12.4      0.000      0.000
REMARK SMILES O=C(NCCCCNC(=O)[C@@H]1CCCC[C@H]1C(=O)Nc1ccccc1C(=O)N1CCOCC1)c1ccc(-c2c3nc(c(-c4c(F)cccc4F)c4ccc([nH]4)c(-c4c(F)cccc4F)c4nc(c(-c5c(F)cccc5F)c5ccc2[nH]5)C=C4)C=C3)cc1
REMARK SMILES IDX 6 1 5 2 4 3 3 4 1 5 2 6 34 8 35 9 87 10 36 11 86 12 37 13
REMARK SMILES IDX 38 14 39 15 80 16 40 17 85 18 79 19 81 20 41 21 84 22 78 23
REMARK SMILES IDX 77 24 42 26 68 27 51 28 67 29 52 30 55 31 66 32 82 33 53 34
REMARK SMILES IDX 54 35 65 37 83 38 56 39 43 40 44 41 49 42 45 43 46 44 48 45
REMARK SMILES IDX 50 46 47 47 69 48 70 49 75 50 71 51 72 52 74 53 76 54 73 55
REMARK SMILES IDX 57 56 58 57 63 58 59 59 60 60 62 61 64 62 61 63 7 64 8 65
REMARK SMILES IDX 9 66 10 68 11 69 12 70 16 71 13 72 15 73 14 74 17 75 18 76
REMARK SMILES IDX 19 77 20 79 21 80 25 81 22 82 24 83 23 84 26 85 27 86 28 87
REMARK SMILES IDX 29 88 33 89 30 90 32 91 31 92
REMARK H PARENT 3 7 81 25 55 36 8 67 19 78
REMARK Flexibility Score: inf
ROOT
ATOM      1  C   UNL A   1      36.370  21.926  24.432  1.00  0.00     0.023 C 
ENDROOT
BRANCH   1   2
ATOM      2  C   UNL A   1      37.829  21.480  24.509  1.00  0.00     0.023 C 
BRANCH   2   3
ATOM      3  C   UNL A   1      38.262  20.801  25.805  1.00  0.00     0.116 C 
BRANCH   3   4
ATOM      4  N   UNL A   1      39.281  19.775  25.630  1.00  0.00    -0.352 N 
ATOM      5  O   UNL A   1      41.338  18.845  25.668  1.00  0.00    -0.269 OA
ATOM      6  C   UNL A   1      40.620  19.805  25.938  1.00  0.00     0.251 C 
ATOM      7  H   UNL A   1      38.963  18.933  25.231  1.00  0.00     0.163 HD
BRANCH   6   8
ATOM      8  C   UNL A   1      41.205  21.014  26.549  1.00  0.00     0.039 A 
ATOM      9  C   UNL A   1      41.169  21.202  27.930  1.00  0.00     0.014 A 
ATOM     10  C   UNL A   1      41.754  21.993  25.715  1.00  0.00     0.014 A 
ATOM     11  C   UNL A   1      41.515  22.438  28.461  1.00  0.00     0.010 A 
ATOM     12  C   UNL A   1      42.184  23.205  26.263  1.00  0.00     0.010 A 
ATOM     13  C   UNL A   1      42.020  23.455  27.633  1.00  0.00    -0.014 A 
BRANCH  13  14
ATOM     14  C   UNL A   1      42.381  24.765  28.232  1.00  0.00     0.031 A 
ATOM     15  C   UNL A   1      43.807  25.095  28.574  1.00  0.00     0.074 A 
ATOM     16  C   UNL A   1      41.409  25.678  28.419  1.00  0.00     0.049 A 
ATOM     17  N   UNL A   1      44.301  26.204  29.065  1.00  0.00    -0.248 NA
ATOM     18  C   UNL A   1      44.811  24.043  28.348  1.00  0.00     0.031 C 
ATOM     19  C   UNL A   1      39.989  25.465  28.131  1.00  0.00     0.029 A 
ATOM     20  N   UNL A   1      41.468  26.971  28.867  1.00  0.00    -0.354 N 
ATOM     21  C   UNL A   1      45.662  25.977  29.233  1.00  0.00     0.074 A 
ATOM     22  C   UNL A   1      45.915  24.616  28.810  1.00  0.00     0.031 C 
ATOM     23  C   UNL A   1      39.321  26.607  28.351  1.00  0.00     0.029 A 
ATOM     24  C   UNL A   1      40.253  27.610  28.851  1.00  0.00     0.049 A 
ATOM     25  H   UNL A   1      42.300  27.400  29.171  1.00  0.00     0.167 HD
ATOM     26  C   UNL A   1      46.610  26.828  29.693  1.00  0.00     0.037 A 
ATOM     27  C   UNL A   1      39.923  28.865  29.205  1.00  0.00     0.037 A 
ATOM     28  C   UNL A   1      46.356  28.191  30.083  1.00  0.00     0.049 A 
ATOM     29  C   UNL A   1      40.996  29.787  29.705  1.00  0.00     0.074 A 
ATOM     30  C   UNL A   1      47.258  29.147  30.521  1.00  0.00     0.029 A 
ATOM     31  N   UNL A   1      45.107  28.795  30.077  1.00  0.00    -0.354 N 
ATOM     32  N   UNL A   1      42.281  29.564  29.834  1.00  0.00    -0.248 NA
ATOM     33  C   UNL A   1      40.571  31.131  30.114  1.00  0.00     0.031 C 
ATOM     34  C   UNL A   1      46.548  30.315  30.818  1.00  0.00     0.029 A 
ATOM     35  C   UNL A   1      45.211  30.102  30.524  1.00  0.00     0.049 A 
ATOM     36  H   UNL A   1      44.270  28.358  29.798  1.00  0.00     0.167 HD
ATOM     37  C   UNL A   1      42.823  30.745  30.322  1.00  0.00     0.074 A 
ATOM     38  C   UNL A   1      41.728  31.686  30.446  1.00  0.00     0.031 C 
ATOM     39  C   UNL A   1      44.110  31.023  30.640  1.00  0.00     0.037 A 
BRANCH  26  40
ATOM     40  C   UNL A   1      48.012  26.304  29.823  1.00  0.00     0.057 A 
ATOM     41  C   UNL A   1      48.937  26.382  28.774  1.00  0.00     0.134 A 
ATOM     42  C   UNL A   1      48.455  25.752  31.033  1.00  0.00     0.134 A 
ATOM     43  F   UNL A   1      48.574  26.888  27.585  1.00  0.00    -0.206 F 
ATOM     44  C   UNL A   1      50.244  25.912  28.917  1.00  0.00     0.040 A 
ATOM     45  C   UNL A   1      49.766  25.300  31.194  1.00  0.00     0.040 A 
ATOM     46  F   UNL A   1      47.623  25.653  32.080  1.00  0.00    -0.206 F 
ATOM     47  C   UNL A   1      50.664  25.374  30.133  1.00  0.00     0.006 A 
ENDBRANCH  26  40
BRANCH  27  48
ATOM     48  C   UNL A   1      38.517  29.319  29.082  1.00  0.00     0.057 A 
ATOM     49  C   UNL A   1      37.999  29.740  27.853  1.00  0.00     0.134 A 
ATOM     50  C   UNL A   1      37.653  29.321  30.183  1.00  0.00     0.134 A 
ATOM     51  F   UNL A   1      38.784  29.774  26.766  1.00  0.00    -0.206 F 
ATOM     52  C   UNL A   1      36.675  30.159  27.724  1.00  0.00     0.040 A 
ATOM     53  C   UNL A   1      36.319  29.711  30.064  1.00  0.00     0.040 A 
ATOM     54  F   UNL A   1      38.088  28.919  31.387  1.00  0.00    -0.206 F 
ATOM     55  C   UNL A   1      35.827  30.137  28.831  1.00  0.00     0.006 A 
ENDBRANCH  27  48
BRANCH  39  56
ATOM     56  C   UNL A   1      44.399  32.412  31.125  1.00  0.00     0.057 A 
ATOM     57  C   UNL A   1      44.362  32.742  32.485  1.00  0.00     0.134 A 
ATOM     58  C   UNL A   1      44.728  33.429  30.220  1.00  0.00     0.134 A 
ATOM     59  F   UNL A   1      44.038  31.816  33.401  1.00  0.00    -0.206 F 
ATOM     60  C   UNL A   1      44.615  34.042  32.927  1.00  0.00     0.040 A 
ATOM     61  C   UNL A   1      45.007  34.726  30.651  1.00  0.00     0.040 A 
ATOM     62  F   UNL A   1      44.786  33.176  28.903  1.00  0.00    -0.206 F 
ATOM     63  C   UNL A   1      44.943  35.037  32.007  1.00  0.00     0.006 A 
ENDBRANCH  39  56
ENDBRANCH  13  14
ENDBRANCH   6   8
ENDBRANCH   3   4
ENDBRANCH   2   3
ENDBRANCH   1   2
BRANCH   1  64
ATOM     64  C   UNL A   1      36.115  23.392  24.749  1.00  0.00     0.116 C 
BRANCH  64  65
ATOM     65  N   UNL A   1      35.597  23.609  26.086  1.00  0.00    -0.356 N 
ATOM     66  C   UNL A   1      34.295  23.825  26.421  1.00  0.00     0.223 C 
ATOM     67  H   UNL A   1      36.251  23.598  26.824  1.00  0.00     0.163 HD
ATOM     68  O   UNL A   1      33.793  22.984  27.169  1.00  0.00    -0.275 OA
BRANCH  66  69
ATOM     69  C   UNL A   1      33.455  25.013  25.938  1.00  0.00     0.091 C 
ATOM     70  C   UNL A   1      34.201  26.324  26.226  1.00  0.00     0.014 C 
ATOM     71  C   UNL A   1      31.990  25.126  26.419  1.00  0.00     0.091 C 
ATOM     72  C   UNL A   1      33.551  27.516  25.547  1.00  0.00     0.001 C 
ATOM     73  C   UNL A   1      31.329  26.393  25.813  1.00  0.00     0.014 C 
ATOM     74  C   UNL A   1      32.123  27.667  26.050  1.00  0.00     0.001 C 
BRANCH  71  75
ATOM     75  C   UNL A   1      30.912  24.040  26.243  1.00  0.00     0.228 C 
ATOM     76  O   UNL A   1      30.118  23.849  27.175  1.00  0.00    -0.274 OA
ATOM     77  N   UNL A   1      30.604  23.452  25.051  1.00  0.00    -0.325 N 
ATOM     78  H   UNL A   1      29.684  23.111  24.966  1.00  0.00     0.169 HD
BRANCH  77  79
ATOM     79  C   UNL A   1      31.424  23.274  23.939  1.00  0.00     0.054 A 
ATOM     80  C   UNL A   1      31.383  24.284  22.967  1.00  0.00     0.027 A 
ATOM     81  C   UNL A   1      32.247  22.152  23.758  1.00  0.00     0.063 A 
ATOM     82  C   UNL A   1      32.303  24.292  21.922  1.00  0.00     0.002 A 
ATOM     83  C   UNL A   1      33.212  22.209  22.735  1.00  0.00     0.016 A 
ATOM     84  C   UNL A   1      33.257  23.284  21.841  1.00  0.00     0.001 A 
BRANCH  81  85
ATOM     85  C   UNL A   1      32.110  20.839  24.488  1.00  0.00     0.256 C 
ATOM     86  O   UNL A   1      31.449  20.769  25.523  1.00  0.00    -0.269 OA
ATOM     87  N   UNL A   1      32.899  19.759  24.071  1.00  0.00    -0.334 N 
ATOM     88  C   UNL A   1      33.934  19.361  25.020  1.00  0.00     0.148 C 
ATOM     89  C   UNL A   1      32.195  18.601  23.518  1.00  0.00     0.148 C 
ATOM     90  C   UNL A   1      34.853  18.297  24.420  1.00  0.00     0.181 C 
ATOM     91  C   UNL A   1      33.141  17.499  23.027  1.00  0.00     0.181 C 
ATOM     92  O   UNL A   1      34.095  17.139  24.035  1.00  0.00    -0.378 OA
ENDBRANCH  81  85
ENDBRANCH  77  79
ENDBRANCH  71  75
ENDBRANCH  66  69
ENDBRANCH  64  65
ENDBRANCH   1  64
TORSDOF 14
ENDMDL
MODEL 2
REMARK VINA RESULT:     -12.3      4.168      8.896
REMARK SMILES O=C(NCCCCNC(=O)[C@@H]1CCCC[C@H]1C(=O)Nc1ccccc1C(=O)N1CCOCC1)c1ccc(-c2c3nc(c(-c4c(F)cccc4F)c4ccc([nH]4)c(-c4c(F)cccc4F)c4nc(c(-c5c(F)cccc5F)c5ccc2[nH]5)C=C4)C=C3)cc1
REMARK SMILES IDX 6 1 5 2 4 3 3 4 1 5 2 6 34 8 35 9 87 10 36 11 86 12 37 13
REMARK SMILES IDX 38 14 39 15 80 16 40 17 85 18 79 19 81 20 41 21 84 22 78 23
REMARK SMILES IDX 77 24 42 26 68 27 51 28 67 29 52 30 55 31 66 32 82 33 53 34
REMARK SMILES IDX 54 35 65 37 83 38 56 39 43 40 44 41 49 42 45 43 46 44 48 45
REMARK SMILES IDX 50 46 47 47 69 48 70 49 75 50 71 51 72 52 74 53 76 54 73 55
REMARK SMILES IDX 57 56 58 57 63 58 59 59 60 60 62 61 64 62 61 63 7 64 8 65
REMARK SMILES IDX 9 66 10 68 11 69 12 70 16 71 13 72 15 73 14 74 17 75 18 76
REMARK SMILES IDX 19 77 20 79 21 80 25 81 22 82 24 83 23 84 26 85 27 86 28 87
REMARK SMILES IDX 29 88 33 89 30 90 32 91 31 92
REMARK H PARENT 3 7 81 25 55 36 8 67 19 78
REMARK Flexibility Score: inf
ROOT
ATOM      1  C   UNL A   1      31.978  27.930  27.234  1.00  0.00     0.023 C 
ENDROOT
BRANCH   1   2
ATOM      2  C   UNL A   1      31.487  29.004  26.264  1.00  0.00     0.023 C 
BRANCH   2   3
ATOM      3  C   UNL A   1      32.492  30.092  25.896  1.00  0.00     0.116 C 
BRANCH   3   4
ATOM      4  N   UNL A   1      32.161  31.411  26.420  1.00  0.00    -0.352 N 
ATOM      5  O   UNL A   1      32.405  33.297  27.636  1.00  0.00    -0.269 OA
ATOM      6  C   UNL A   1      32.878  32.226  27.263  1.00  0.00     0.251 C 
ATOM      7  H   UNL A   1      31.294  31.773  26.126  1.00  0.00     0.163 HD
BRANCH   6   8
ATOM      8  C   UNL A   1      34.196  31.788  27.761  1.00  0.00     0.039 A 
ATOM      9  C   UNL A   1      34.436  30.446  28.054  1.00  0.00     0.014 A 
ATOM     10  C   UNL A   1      35.188  32.749  27.979  1.00  0.00     0.014 A 
ATOM     11  C   UNL A   1      35.596  30.091  28.730  1.00  0.00     0.010 A 
ATOM     12  C   UNL A   1      36.392  32.374  28.580  1.00  0.00     0.010 A 
ATOM     13  C   UNL A   1      36.584  31.051  29.007  1.00  0.00    -0.014 A 
BRANCH  13  14
ATOM     14  C   UNL A   1      37.812  30.639  29.731  1.00  0.00     0.031 A 
ATOM     15  C   UNL A   1      38.028  31.017  31.171  1.00  0.00     0.074 A 
ATOM     16  C   UNL A   1      38.714  29.873  29.088  1.00  0.00     0.049 A 
ATOM     17  N   UNL A   1      39.023  30.706  31.963  1.00  0.00    -0.248 NA
ATOM     18  C   UNL A   1      37.002  31.861  31.803  1.00  0.00     0.031 C 
ATOM     19  C   UNL A   1      38.613  29.453  27.689  1.00  0.00     0.029 A 
ATOM     20  N   UNL A   1      39.874  29.292  29.528  1.00  0.00    -0.354 N 
ATOM     21  C   UNL A   1      38.761  31.337  33.174  1.00  0.00     0.074 A 
ATOM     22  C   UNL A   1      37.521  32.065  33.007  1.00  0.00     0.031 C 
ATOM     23  C   UNL A   1      39.634  28.631  27.404  1.00  0.00     0.029 A 
ATOM     24  C   UNL A   1      40.490  28.517  28.578  1.00  0.00     0.049 A 
ATOM     25  H   UNL A   1      40.230  29.418  30.437  1.00  0.00     0.167 HD
ATOM     26  C   UNL A   1      39.485  31.305  34.318  1.00  0.00     0.037 A 
ATOM     27  C   UNL A   1      41.624  27.796  28.642  1.00  0.00     0.037 A 
ATOM     28  C   UNL A   1      40.703  30.553  34.486  1.00  0.00     0.049 A 
ATOM     29  C   UNL A   1      42.402  27.775  29.924  1.00  0.00     0.074 A 
ATOM     30  C   UNL A   1      41.487  30.423  35.620  1.00  0.00     0.029 A 
ATOM     31  N   UNL A   1      41.310  29.800  33.491  1.00  0.00    -0.354 N 
ATOM     32  N   UNL A   1      42.127  28.356  31.067  1.00  0.00    -0.248 NA
ATOM     33  C   UNL A   1      43.651  27.003  29.924  1.00  0.00     0.031 C 
ATOM     34  C   UNL A   1      42.590  29.623  35.299  1.00  0.00     0.029 A 
ATOM     35  C   UNL A   1      42.470  29.220  33.979  1.00  0.00     0.049 A 
ATOM     36  H   UNL A   1      40.968  29.695  32.575  1.00  0.00     0.167 HD
ATOM     37  C   UNL A   1      43.158  28.007  31.927  1.00  0.00     0.074 A 
ATOM     38  C   UNL A   1      44.053  27.147  31.179  1.00  0.00     0.031 C 
ATOM     39  C   UNL A   1      43.347  28.367  33.219  1.00  0.00     0.037 A 
BRANCH  26  40
ATOM     40  C   UNL A   1      38.995  32.127  35.476  1.00  0.00     0.057 A 
ATOM     41  C   UNL A   1      38.240  31.571  36.517  1.00  0.00     0.134 A 
ATOM     42  C   UNL A   1      39.321  33.487  35.571  1.00  0.00     0.134 A 
ATOM     43  F   UNL A   1      37.883  30.279  36.481  1.00  0.00    -0.206 F 
ATOM     44  C   UNL A   1      37.810  32.343  37.599  1.00  0.00     0.040 A 
ATOM     45  C   UNL A   1      38.917  34.262  36.659  1.00  0.00     0.040 A 
ATOM     46  F   UNL A   1      40.047  34.081  34.612  1.00  0.00    -0.206 F 
ATOM     47  C   UNL A   1      38.155  33.691  37.675  1.00  0.00     0.006 A 
ENDBRANCH  26  40
BRANCH  27  48
ATOM     48  C   UNL A   1      42.075  27.027  27.457  1.00  0.00     0.057 A 
ATOM     49  C   UNL A   1      42.856  27.626  26.463  1.00  0.00     0.134 A 
ATOM     50  C   UNL A   1      41.755  25.673  27.301  1.00  0.00     0.134 A 
ATOM     51  F   UNL A   1      43.181  28.924  26.551  1.00  0.00    -0.206 F 
ATOM     52  C   UNL A   1      43.294  26.909  25.349  1.00  0.00     0.040 A 
ATOM     53  C   UNL A   1      42.209  24.937  26.207  1.00  0.00     0.040 A 
ATOM     54  F   UNL A   1      41.017  25.041  28.225  1.00  0.00    -0.206 F 
ATOM     55  C   UNL A   1      42.977  25.557  25.222  1.00  0.00     0.006 A 
ENDBRANCH  27  48
BRANCH  39  56
ATOM     56  C   UNL A   1      44.555  27.805  33.906  1.00  0.00     0.057 A 
ATOM     57  C   UNL A   1      45.775  28.491  33.933  1.00  0.00     0.134 A 
ATOM     58  C   UNL A   1      44.493  26.566  34.557  1.00  0.00     0.134 A 
ATOM     59  F   UNL A   1      45.904  29.674  33.314  1.00  0.00    -0.206 F 
ATOM     60  C   UNL A   1      46.900  27.952  34.559  1.00  0.00     0.040 A 
ATOM     61  C   UNL A   1      45.603  26.028  35.207  1.00  0.00     0.040 A 
ATOM     62  F   UNL A   1      43.351  25.862  34.572  1.00  0.00    -0.206 F 
ATOM     63  C   UNL A   1      46.814  26.718  35.202  1.00  0.00     0.006 A 
ENDBRANCH  39  56
ENDBRANCH  13  14
ENDBRANCH   6   8
ENDBRANCH   3   4
ENDBRANCH   2   3
ENDBRANCH   1   2
BRANCH   1  64
ATOM     64  C   UNL A   1      32.461  26.638  26.591  1.00  0.00     0.116 C 
BRANCH  64  65
ATOM     65  N   UNL A   1      31.486  25.567  26.649  1.00  0.00    -0.356 N 
ATOM     66  C   UNL A   1      31.752  24.232  26.606  1.00  0.00     0.223 C 
ATOM     67  H   UNL A   1      30.540  25.830  26.730  1.00  0.00     0.163 HD
ATOM     68  O   UNL A   1      31.412  23.591  27.603  1.00  0.00    -0.275 OA
BRANCH  66  69
ATOM     69  C   UNL A   1      32.423  23.513  25.431  1.00  0.00     0.091 C 
ATOM     70  C   UNL A   1      33.870  23.156  25.803  1.00  0.00     0.014 C 
ATOM     71  C   UNL A   1      32.389  24.180  24.038  1.00  0.00     0.091 C 
ATOM     72  C   UNL A   1      34.510  22.221  24.793  1.00  0.00     0.001 C 
ATOM     73  C   UNL A   1      33.122  23.287  23.003  1.00  0.00     0.014 C 
ATOM     74  C   UNL A   1      34.526  22.890  23.426  1.00  0.00     0.001 C 
BRANCH  71  75
ATOM     75  C   UNL A   1      31.113  24.618  23.294  1.00  0.00     0.228 C 
ATOM     76  O   UNL A   1      30.244  23.763  23.073  1.00  0.00    -0.274 OA
ATOM     77  N   UNL A   1      30.755  25.917  23.085  1.00  0.00    -0.325 N 
ATOM     78  H   UNL A   1      29.790  26.087  22.990  1.00  0.00     0.169 HD
BRANCH  77  79
ATOM     79  C   UNL A   1      31.580  27.036  22.993  1.00  0.00     0.054 A 
ATOM     80  C   UNL A   1      32.952  26.815  23.179  1.00  0.00     0.027 A 
ATOM     81  C   UNL A   1      31.100  28.331  22.744  1.00  0.00     0.063 A 
ATOM     82  C   UNL A   1      33.870  27.828  22.914  1.00  0.00     0.002 A 
ATOM     83  C   UNL A   1      32.043  29.324  22.417  1.00  0.00     0.016 A 
ATOM     84  C   UNL A   1      33.415  29.067  22.475  1.00  0.00     0.001 A 
BRANCH  81  85
ATOM     85  C   UNL A   1      29.671  28.783  22.913  1.00  0.00     0.256 C 
ATOM     86  O   UNL A   1      28.789  27.968  23.183  1.00  0.00    -0.269 OA
ATOM     87  N   UNL A   1      29.343  30.100  22.569  1.00  0.00    -0.334 N 
ATOM     88  C   UNL A   1      28.492  30.227  21.390  1.00  0.00     0.148 C 
ATOM     89  C   UNL A   1      28.897  30.975  23.656  1.00  0.00     0.148 C 
ATOM     90  C   UNL A   1      28.324  31.692  20.986  1.00  0.00     0.181 C 
ATOM     91  C   UNL A   1      28.627  32.413  23.199  1.00  0.00     0.181 C 
ATOM     92  O   UNL A   1      27.750  32.446  22.065  1.00  0.00    -0.378 OA
ENDBRANCH  81  85
ENDBRANCH  77  79
ENDBRANCH  71  75
ENDBRANCH  66  69
ENDBRANCH  64  65
ENDBRANCH   1  64
TORSDOF 14
ENDMDL
MODEL 3
REMARK VINA RESULT:     -12.3      4.111      8.794
REMARK SMILES O=C(NCCCCNC(=O)[C@@H]1CCCC[C@H]1C(=O)Nc1ccccc1C(=O)N1CCOCC1)c1ccc(-c2c3nc(c(-c4c(F)cccc4F)c4ccc([nH]4)c(-c4c(F)cccc4F)c4nc(c(-c5c(F)cccc5F)c5ccc2[nH]5)C=C4)C=C3)cc1
REMARK SMILES IDX 6 1 5 2 4 3 3 4 1 5 2 6 34 8 35 9 87 10 36 11 86 12 37 13
REMARK SMILES IDX 38 14 39 15 80 16 40 17 85 18 79 19 81 20 41 21 84 22 78 23
REMARK SMILES IDX 77 24 42 26 68 27 51 28 67 29 52 30 55 31 66 32 82 33 53 34
REMARK SMILES IDX 54 35 65 37 83 38 56 39 43 40 44 41 49 42 45 43 46 44 48 45
REMARK SMILES IDX 50 46 47 47 69 48 70 49 75 50 71 51 72 52 74 53 76 54 73 55
REMARK SMILES IDX 57 56 58 57 63 58 59 59 60 60 62 61 64 62 61 63 7 64 8 65
REMARK SMILES IDX 9 66 10 68 11 69 12 70 16 71 13 72 15 73 14 74 17 75 18 76
REMARK SMILES IDX 19 77 20 79 21 80 25 81 22 82 24 83 23 84 26 85 27 86 28 87
REMARK SMILES IDX 29 88 33 89 30 90 32 91 31 92
REMARK H PARENT 3 7 81 25 55 36 8 67 19 78
REMARK Flexibility Score: inf
ROOT
ATOM      1  C   UNL A   1      32.261  28.566  27.562  1.00  0.00     0.023 C 
ENDROOT
BRANCH   1   2
ATOM      2  C   UNL A   1      31.572  29.603  26.677  1.00  0.00     0.023 C 
BRANCH   2   3
ATOM      3  C   UNL A   1      32.465  30.699  26.100  1.00  0.00     0.116 C 
BRANCH   3   4
ATOM      4  N   UNL A   1      32.215  32.024  26.652  1.00  0.00    -0.352 N 
ATOM      5  O   UNL A   1      32.579  33.872  27.898  1.00  0.00    -0.269 OA
ATOM      6  C   UNL A   1      32.987  32.784  27.499  1.00  0.00     0.251 C 
ATOM      7  H   UNL A   1      31.365  32.438  26.379  1.00  0.00     0.163 HD
BRANCH   6   8
ATOM      8  C   UNL A   1      34.287  32.266  27.967  1.00  0.00     0.039 A 
ATOM      9  C   UNL A   1      34.433  30.924  28.319  1.00  0.00     0.014 A 
ATOM     10  C   UNL A   1      35.359  33.153  28.099  1.00  0.00     0.014 A 
ATOM     11  C   UNL A   1      35.589  30.510  28.968  1.00  0.00     0.010 A 
ATOM     12  C   UNL A   1      36.555  32.712  28.673  1.00  0.00     0.010 A 
ATOM     13  C   UNL A   1      36.660  31.400  29.158  1.00  0.00    -0.014 A 
BRANCH  13  14
ATOM     14  C   UNL A   1      37.881  30.926  29.855  1.00  0.00     0.031 A 
ATOM     15  C   UNL A   1      38.133  31.265  31.298  1.00  0.00     0.074 A 
ATOM     16  C   UNL A   1      38.744  30.139  29.183  1.00  0.00     0.049 A 
ATOM     17  N   UNL A   1      39.126  30.900  32.070  1.00  0.00    -0.248 NA
ATOM     18  C   UNL A   1      37.150  32.135  31.963  1.00  0.00     0.031 C 
ATOM     19  C   UNL A   1      38.606  29.752  27.777  1.00  0.00     0.029 A 
ATOM     20  N   UNL A   1      39.886  29.504  29.594  1.00  0.00    -0.354 N 
ATOM     21  C   UNL A   1      38.906  31.515  33.296  1.00  0.00     0.074 A 
ATOM     22  C   UNL A   1      37.693  32.294  33.163  1.00  0.00     0.031 C 
ATOM     23  C   UNL A   1      39.590  28.897  27.461  1.00  0.00     0.029 A 
ATOM     24  C   UNL A   1      40.458  28.725  28.619  1.00  0.00     0.049 A 
ATOM     25  H   UNL A   1      40.259  29.598  30.500  1.00  0.00     0.167 HD
ATOM     26  C   UNL A   1      39.645  31.432  34.428  1.00  0.00     0.037 A 
ATOM     27  C   UNL A   1      41.563  27.960  28.652  1.00  0.00     0.037 A 
ATOM     28  C   UNL A   1      40.834  30.630  34.563  1.00  0.00     0.049 A 
ATOM     29  C   UNL A   1      42.359  27.882  29.921  1.00  0.00     0.074 A 
ATOM     30  C   UNL A   1      41.629  30.446  35.682  1.00  0.00     0.029 A 
ATOM     31  N   UNL A   1      41.398  29.875  33.545  1.00  0.00    -0.354 N 
ATOM     32  N   UNL A   1      42.122  28.450  31.079  1.00  0.00    -0.248 NA
ATOM     33  C   UNL A   1      43.576  27.064  29.886  1.00  0.00     0.031 C 
ATOM     34  C   UNL A   1      42.695  29.611  35.329  1.00  0.00     0.029 A 
ATOM     35  C   UNL A   1      42.540  29.240  34.003  1.00  0.00     0.049 A 
ATOM     36  H   UNL A   1      41.038  29.802  32.631  1.00  0.00     0.167 HD
ATOM     37  C   UNL A   1      43.151  28.044  31.917  1.00  0.00     0.074 A 
ATOM     38  C   UNL A   1      44.001  27.166  31.138  1.00  0.00     0.031 C 
ATOM     39  C   UNL A   1      43.373  28.370  33.213  1.00  0.00     0.037 A 
BRANCH  26  40
ATOM     40  C   UNL A   1      39.204  32.248  35.610  1.00  0.00     0.057 A 
ATOM     41  C   UNL A   1      39.592  33.583  35.780  1.00  0.00     0.134 A 
ATOM     42  C   UNL A   1      38.342  31.699  36.570  1.00  0.00     0.134 A 
ATOM     43  F   UNL A   1      40.425  34.165  34.905  1.00  0.00    -0.206 F 
ATOM     44  C   UNL A   1      39.154  34.336  36.872  1.00  0.00     0.040 A 
ATOM     45  C   UNL A   1      37.880  32.450  37.653  1.00  0.00     0.040 A 
ATOM     46  F   UNL A   1      37.926  30.429  36.464  1.00  0.00    -0.206 F 
ATOM     47  C   UNL A   1      38.291  33.771  37.809  1.00  0.00     0.006 A 
ENDBRANCH  26  40
BRANCH  27  48
ATOM     48  C   UNL A   1      41.967  27.199  27.445  1.00  0.00     0.057 A 
ATOM     49  C   UNL A   1      42.755  27.788  26.451  1.00  0.00     0.134 A 
ATOM     50  C   UNL A   1      41.594  25.862  27.267  1.00  0.00     0.134 A 
ATOM     51  F   UNL A   1      43.131  29.071  26.559  1.00  0.00    -0.206 F 
ATOM     52  C   UNL A   1      43.149  27.078  25.316  1.00  0.00     0.040 A 
ATOM     53  C   UNL A   1      42.003  25.132  26.151  1.00  0.00     0.040 A 
ATOM     54  F   UNL A   1      40.846  25.239  28.190  1.00  0.00    -0.206 F 
ATOM     55  C   UNL A   1      42.779  25.742  25.168  1.00  0.00     0.006 A 
ENDBRANCH  27  48
BRANCH  39  56
ATOM     56  C   UNL A   1      44.568  27.747  33.870  1.00  0.00     0.057 A 
ATOM     57  C   UNL A   1      45.812  28.388  33.899  1.00  0.00     0.134 A 
ATOM     58  C   UNL A   1      44.469  26.494  34.489  1.00  0.00     0.134 A 
ATOM     59  F   UNL A   1      45.976  29.582  33.309  1.00  0.00    -0.206 F 
ATOM     60  C   UNL A   1      46.924  27.793  34.497  1.00  0.00     0.040 A 
ATOM     61  C   UNL A   1      45.566  25.901  35.112  1.00  0.00     0.040 A 
ATOM     62  F   UNL A   1      43.302  25.831  34.501  1.00  0.00    -0.206 F 
ATOM     63  C   UNL A   1      46.801  26.547  35.110  1.00  0.00     0.006 A 
ENDBRANCH  39  56
ENDBRANCH  13  14
ENDBRANCH   6   8
ENDBRANCH   3   4
ENDBRANCH   2   3
ENDBRANCH   1   2
BRANCH   1  64
ATOM     64  C   UNL A   1      32.673  27.279  26.864  1.00  0.00     0.116 C 
BRANCH  64  65
ATOM     65  N   UNL A   1      33.720  27.468  25.879  1.00  0.00    -0.356 N 
ATOM     66  C   UNL A   1      33.815  26.843  24.673  1.00  0.00     0.223 C 
ATOM     67  H   UNL A   1      34.430  28.113  26.102  1.00  0.00     0.163 HD
ATOM     68  O   UNL A   1      33.781  27.582  23.688  1.00  0.00    -0.275 OA
BRANCH  66  69
ATOM     69  C   UNL A   1      33.956  25.328  24.484  1.00  0.00     0.091 C 
ATOM     70  C   UNL A   1      35.154  24.816  25.298  1.00  0.00     0.014 C 
ATOM     71  C   UNL A   1      34.020  24.765  23.046  1.00  0.00     0.091 C 
ATOM     72  C   UNL A   1      35.199  23.300  25.364  1.00  0.00     0.001 C 
ATOM     73  C   UNL A   1      34.163  23.221  23.086  1.00  0.00     0.014 C 
ATOM     74  C   UNL A   1      35.311  22.737  23.955  1.00  0.00     0.001 C 
BRANCH  71  75
ATOM     75  C   UNL A   1      32.960  24.999  21.953  1.00  0.00     0.228 C 
ATOM     76  O   UNL A   1      33.334  25.021  20.772  1.00  0.00    -0.274 OA
ATOM     77  N   UNL A   1      31.614  24.932  22.164  1.00  0.00    -0.325 N 
ATOM     78  H   UNL A   1      31.069  24.689  21.381  1.00  0.00     0.169 HD
BRANCH  77  79
ATOM     79  C   UNL A   1      30.913  25.160  23.346  1.00  0.00     0.054 A 
ATOM     80  C   UNL A   1      30.754  24.057  24.198  1.00  0.00     0.027 A 
ATOM     81  C   UNL A   1      30.368  26.405  23.693  1.00  0.00     0.063 A 
ATOM     82  C   UNL A   1      30.242  24.229  25.482  1.00  0.00     0.002 A 
ATOM     83  C   UNL A   1      29.914  26.574  25.014  1.00  0.00     0.016 A 
ATOM     84  C   UNL A   1      29.878  25.501  25.910  1.00  0.00     0.001 A 
BRANCH  81  85
ATOM     85  C   UNL A   1      30.114  27.546  22.738  1.00  0.00     0.256 C 
ATOM     86  O   UNL A   1      30.681  27.581  21.647  1.00  0.00    -0.269 OA
ATOM     87  N   UNL A   1      29.377  28.646  23.195  1.00  0.00    -0.334 N 
ATOM     88  C   UNL A   1      30.148  29.877  23.336  1.00  0.00     0.148 C 
ATOM     89  C   UNL A   1      28.083  28.887  22.555  1.00  0.00     0.148 C 
ATOM     90  C   UNL A   1      29.317  30.976  23.998  1.00  0.00     0.181 C 
ATOM     91  C   UNL A   1      27.319  30.068  23.164  1.00  0.00     0.181 C 
ATOM     92  O   UNL A   1      28.136  31.244  23.225  1.00  0.00    -0.378 OA
ENDBRANCH  81  85
ENDBRANCH  77  79
ENDBRANCH  71  75
ENDBRANCH  66  69
ENDBRANCH  64  65
ENDBRANCH   1  64
TORSDOF 14
ENDMDL
