MODEL 1
REMARK VINA RESULT:     -13.3      0.000      0.000
REMARK SMILES COc1ccc(-c2cc(Cl)cc3c2O[C@@H](C(F)(F)F)C(C(=O)NCCCCNC(=O)c2ccc(-c4c5nc(c(-c6c(F)cccc6F)c6ccc([nH]6)c(-c6c(F)cccc6F)c6nc(c(-c7c(F)cccc7F)c7ccc4[nH]7)C=C6)C=C5)cc2)=C3)cc1C
REMARK SMILES IDX 25 1 24 2 23 3 21 4 22 5 20 7 7 8 8 9 13 10 9 11 12 12 14 13
REMARK SMILES IDX 10 14 11 15 85 16 15 17 6 18 3 19 4 20 87 21 5 22 86 23
REMARK SMILES IDX 88 24 2 25 1 26 16 27 17 28 18 29 19 30 26 31 27 32 28 33
REMARK SMILES IDX 29 34 30 36 31 37 32 38 84 39 33 40 83 41 34 42 35 43 36 44
REMARK SMILES IDX 77 45 37 46 82 47 76 48 78 49 38 50 81 51 75 52 74 53 39 55
REMARK SMILES IDX 65 56 48 57 64 58 49 59 52 60 63 61 79 62 50 63 51 64 62 66
REMARK SMILES IDX 80 67 53 68 40 69 41 70 46 71 42 72 43 73 45 74 47 75 44 76
REMARK SMILES IDX 66 77 67 78 72 79 68 80 69 81 71 82 73 83 70 84 54 85 55 86
REMARK SMILES IDX 60 87 56 88 57 89 59 90 61 91 58 92
REMARK H PARENT 23 6 28 35 78 54 52 65
REMARK Flexibility Score: inf
ROOT
ATOM      1  C   UNL A   1      33.897  28.322  26.036  1.00  0.00     0.023 C 
ENDROOT
BRANCH   1   2
ATOM      2  C   UNL A   1      33.403  27.656  24.740  1.00  0.00     0.116 C 
BRANCH   2   3
ATOM      3  N   UNL A   1      34.043  26.398  24.389  1.00  0.00    -0.352 N 
ATOM      4  C   UNL A   1      33.645  25.352  23.597  1.00  0.00     0.251 C 
ATOM      5  O   UNL A   1      34.539  24.781  22.964  1.00  0.00    -0.270 OA
ATOM      6  H   UNL A   1      34.930  26.273  24.798  1.00  0.00     0.163 HD
BRANCH   4   7
ATOM      7  C   UNL A   1      32.221  24.783  23.571  1.00  0.00     0.067 C 
ATOM      8  C   UNL A   1      33.916  21.852  25.682  1.00  0.00     0.026 A 
ATOM      9  C   UNL A   1      33.511  20.511  25.535  1.00  0.00     0.033 A 
ATOM     10  C   UNL A   1      33.077  22.775  25.066  1.00  0.00     0.135 A 
ATOM     11  C   UNL A   1      32.635  20.155  24.501  1.00  0.00     0.042 A 
ATOM     12  C   UNL A   1      32.494  22.450  23.818  1.00  0.00     0.019 A 
ATOM     13  O   UNL A   1      32.643  23.936  25.750  1.00  0.00    -0.475 OA
ATOM     14  Cl  UNL A   1      32.218  18.500  24.282  1.00  0.00    -0.084 Cl
ATOM     15  C   UNL A   1      32.212  21.111  23.571  1.00  0.00     0.032 A 
ATOM     16  C   UNL A   1      32.146  23.597  22.903  1.00  0.00     0.025 C 
ATOM     17  C   UNL A   1      31.599  24.570  24.941  1.00  0.00     0.314 C 
BRANCH   8  18
ATOM     18  C   UNL A   1      35.398  22.033  25.538  1.00  0.00    -0.014 A 
ATOM     19  C   UNL A   1      38.243  22.060  25.546  1.00  0.00     0.121 A 
ATOM     20  C   UNL A   1      37.491  23.203  25.870  1.00  0.00     0.047 A 
ATOM     21  C   UNL A   1      37.584  20.879  25.204  1.00  0.00    -0.008 A 
ATOM     22  C   UNL A   1      36.083  23.196  25.869  1.00  0.00     0.013 A 
ATOM     23  C   UNL A   1      36.177  20.903  25.164  1.00  0.00     0.016 A 
ATOM     24  C   UNL A   1      38.271  19.567  24.942  1.00  0.00     0.048 C 
BRANCH  19  25
ATOM     25  O   UNL A   1      39.595  22.198  25.724  1.00  0.00    -0.496 OA
ATOM     26  C   UNL A   1      40.066  22.075  27.063  1.00  0.00     0.278 C 
ENDBRANCH  19  25
ENDBRANCH   8  18
BRANCH  17  27
ATOM     27  C   UNL A   1      30.699  25.704  25.451  1.00  0.00     0.429 C 
ATOM     28  F   UNL A   1      29.512  25.199  25.887  1.00  0.00    -0.167 F 
ATOM     29  F   UNL A   1      31.219  26.402  26.474  1.00  0.00    -0.167 F 
ATOM     30  F   UNL A   1      30.364  26.576  24.467  1.00  0.00    -0.167 F 
ENDBRANCH  17  27
ENDBRANCH   4   7
ENDBRANCH   2   3
ENDBRANCH   1   2
BRANCH   1  31
ATOM     31  C   UNL A   1      33.595  29.808  26.251  1.00  0.00     0.023 C 
BRANCH  31  32
ATOM     32  C   UNL A   1      33.457  30.288  27.686  1.00  0.00     0.116 C 
BRANCH  32  33
ATOM     33  N   UNL A   1      34.284  31.422  28.108  1.00  0.00    -0.352 N 
ATOM     34  C   UNL A   1      35.586  31.424  28.582  1.00  0.00     0.251 C 
ATOM     35  H   UNL A   1      33.854  32.305  28.048  1.00  0.00     0.163 HD
ATOM     36  O   UNL A   1      36.102  32.453  28.964  1.00  0.00    -0.269 OA
BRANCH  34  37
ATOM     37  C   UNL A   1      36.417  30.178  28.478  1.00  0.00     0.039 A 
ATOM     38  C   UNL A   1      36.588  29.407  29.633  1.00  0.00     0.014 A 
ATOM     39  C   UNL A   1      37.217  29.941  27.368  1.00  0.00     0.014 A 
ATOM     40  C   UNL A   1      37.749  28.649  29.776  1.00  0.00     0.010 A 
ATOM     41  C   UNL A   1      38.431  29.317  27.560  1.00  0.00     0.010 A 
ATOM     42  C   UNL A   1      38.731  28.735  28.794  1.00  0.00    -0.014 A 
BRANCH  42  43
ATOM     43  C   UNL A   1      40.134  28.413  29.031  1.00  0.00     0.031 A 
ATOM     44  C   UNL A   1      40.751  27.199  28.459  1.00  0.00     0.074 A 
ATOM     45  C   UNL A   1      40.915  29.310  29.676  1.00  0.00     0.049 A 
ATOM     46  N   UNL A   1      41.790  26.614  28.954  1.00  0.00    -0.248 NA
ATOM     47  C   UNL A   1      40.227  26.530  27.276  1.00  0.00     0.031 C 
ATOM     48  C   UNL A   1      42.375  29.323  29.750  1.00  0.00     0.029 A 
ATOM     49  N   UNL A   1      40.516  30.313  30.572  1.00  0.00    -0.354 N 
ATOM     50  C   UNL A   1      42.246  25.714  28.019  1.00  0.00     0.074 A 
ATOM     51  C   UNL A   1      41.199  25.649  27.025  1.00  0.00     0.031 C 
ATOM     52  C   UNL A   1      42.748  30.044  30.819  1.00  0.00     0.029 A 
ATOM     53  C   UNL A   1      41.542  30.406  31.538  1.00  0.00     0.049 A 
ATOM     54  H   UNL A   1      39.688  30.846  30.535  1.00  0.00     0.167 HD
ATOM     55  C   UNL A   1      43.522  25.236  28.111  1.00  0.00     0.037 A 
ATOM     56  C   UNL A   1      41.307  30.135  32.854  1.00  0.00     0.037 A 
ATOM     57  C   UNL A   1      44.204  25.767  29.291  1.00  0.00     0.049 A 
ATOM     58  C   UNL A   1      42.130  28.995  33.404  1.00  0.00     0.074 A 
ATOM     59  C   UNL A   1      45.123  26.793  29.457  1.00  0.00     0.029 A 
ATOM     60  N   UNL A   1      43.749  25.443  30.565  1.00  0.00    -0.354 N 
ATOM     61  N   UNL A   1      42.746  28.117  32.663  1.00  0.00    -0.248 NA
ATOM     62  C   UNL A   1      42.306  28.739  34.830  1.00  0.00     0.031 C 
ATOM     63  C   UNL A   1      45.202  27.100  30.835  1.00  0.00     0.029 A 
ATOM     64  C   UNL A   1      44.335  26.259  31.512  1.00  0.00     0.049 A 
ATOM     65  H   UNL A   1      43.100  24.729  30.762  1.00  0.00     0.167 HD
ATOM     66  C   UNL A   1      43.356  27.182  33.462  1.00  0.00     0.074 A 
ATOM     67  C   UNL A   1      43.075  27.634  34.811  1.00  0.00     0.031 C 
ATOM     68  C   UNL A   1      44.027  26.116  32.929  1.00  0.00     0.037 A 
BRANCH  55  69
ATOM     69  C   UNL A   1      44.242  24.552  26.965  1.00  0.00     0.057 A 
ATOM     70  C   UNL A   1      44.195  23.153  26.803  1.00  0.00     0.134 A 
ATOM     71  C   UNL A   1      45.043  25.210  26.017  1.00  0.00     0.134 A 
ATOM     72  F   UNL A   1      43.373  22.382  27.525  1.00  0.00    -0.206 F 
ATOM     73  C   UNL A   1      44.992  22.460  25.881  1.00  0.00     0.040 A 
ATOM     74  C   UNL A   1      45.887  24.530  25.125  1.00  0.00     0.040 A 
ATOM     75  F   UNL A   1      45.001  26.540  25.869  1.00  0.00    -0.206 F 
ATOM     76  C   UNL A   1      45.879  23.146  25.068  1.00  0.00     0.006 A 
ENDBRANCH  55  69
BRANCH  56  77
ATOM     77  C   UNL A   1      39.936  30.497  33.293  1.00  0.00     0.057 A 
ATOM     78  C   UNL A   1      39.635  31.856  33.490  1.00  0.00     0.134 A 
ATOM     79  C   UNL A   1      38.858  29.622  33.137  1.00  0.00     0.134 A 
ATOM     80  F   UNL A   1      40.627  32.748  33.647  1.00  0.00    -0.206 F 
ATOM     81  C   UNL A   1      38.328  32.342  33.420  1.00  0.00     0.040 A 
ATOM     82  C   UNL A   1      37.542  30.096  33.073  1.00  0.00     0.040 A 
ATOM     83  F   UNL A   1      39.065  28.316  32.917  1.00  0.00    -0.206 F 
ATOM     84  C   UNL A   1      37.278  31.462  33.173  1.00  0.00     0.006 A 
ENDBRANCH  56  77
BRANCH  68  85
ATOM     85  C   UNL A   1      44.548  24.896  33.665  1.00  0.00     0.057 A 
ATOM     86  C   UNL A   1      45.899  24.531  33.759  1.00  0.00     0.134 A 
ATOM     87  C   UNL A   1      43.669  24.098  34.439  1.00  0.00     0.134 A 
ATOM     88  F   UNL A   1      46.868  25.255  33.188  1.00  0.00    -0.206 F 
ATOM     89  C   UNL A   1      46.334  23.425  34.506  1.00  0.00     0.040 A 
ATOM     90  C   UNL A   1      44.099  23.030  35.233  1.00  0.00     0.040 A 
ATOM     91  F   UNL A   1      42.350  24.332  34.484  1.00  0.00    -0.206 F 
ATOM     92  C   UNL A   1      45.436  22.677  35.256  1.00  0.00     0.006 A 
ENDBRANCH  68  85
ENDBRANCH  42  43
ENDBRANCH  34  37
ENDBRANCH  32  33
ENDBRANCH  31  32
ENDBRANCH   1  31
TORSDOF 14
ENDMDL
MODEL 2
REMARK VINA RESULT:     -13.1      3.200      8.706
REMARK SMILES COc1ccc(-c2cc(Cl)cc3c2O[C@@H](C(F)(F)F)C(C(=O)NCCCCNC(=O)c2ccc(-c4c5nc(c(-c6c(F)cccc6F)c6ccc([nH]6)c(-c6c(F)cccc6F)c6nc(c(-c7c(F)cccc7F)c7ccc4[nH]7)C=C6)C=C5)cc2)=C3)cc1C
REMARK SMILES IDX 25 1 24 2 23 3 21 4 22 5 20 7 7 8 8 9 13 10 9 11 12 12 14 13
REMARK SMILES IDX 10 14 11 15 85 16 15 17 6 18 3 19 4 20 87 21 5 22 86 23
REMARK SMILES IDX 88 24 2 25 1 26 16 27 17 28 18 29 19 30 26 31 27 32 28 33
REMARK SMILES IDX 29 34 30 36 31 37 32 38 84 39 33 40 83 41 34 42 35 43 36 44
REMARK SMILES IDX 77 45 37 46 82 47 76 48 78 49 38 50 81 51 75 52 74 53 39 55
REMARK SMILES IDX 65 56 48 57 64 58 49 59 52 60 63 61 79 62 50 63 51 64 62 66
REMARK SMILES IDX 80 67 53 68 40 69 41 70 46 71 42 72 43 73 45 74 47 75 44 76
REMARK SMILES IDX 66 77 67 78 72 79 68 80 69 81 71 82 73 83 70 84 54 85 55 86
REMARK SMILES IDX 60 87 56 88 57 89 59 90 61 91 58 92
REMARK H PARENT 23 6 28 35 78 54 52 65
REMARK Flexibility Score: inf
ROOT
ATOM      1  C   UNL A   1      36.008  23.165  26.092  1.00  0.00     0.023 C 
ENDROOT
BRANCH   1   2
ATOM      2  C   UNL A   1      34.472  23.106  26.016  1.00  0.00     0.116 C 
BRANCH   2   3
ATOM      3  N   UNL A   1      33.778  24.373  26.190  1.00  0.00    -0.352 N 
ATOM      4  C   UNL A   1      32.490  24.761  25.928  1.00  0.00     0.251 C 
ATOM      5  O   UNL A   1      32.000  25.578  26.713  1.00  0.00    -0.270 OA
ATOM      6  H   UNL A   1      34.341  25.087  26.568  1.00  0.00     0.163 HD
BRANCH   4   7
ATOM      7  C   UNL A   1      31.707  24.359  24.671  1.00  0.00     0.067 C 
ATOM      8  C   UNL A   1      32.094  28.239  23.825  1.00  0.00     0.026 A 
ATOM      9  C   UNL A   1      31.077  28.951  23.161  1.00  0.00     0.033 A 
ATOM     10  C   UNL A   1      31.918  26.859  23.832  1.00  0.00     0.135 A 
ATOM     11  C   UNL A   1      29.825  28.355  22.956  1.00  0.00     0.042 A 
ATOM     12  C   UNL A   1      30.612  26.333  23.980  1.00  0.00     0.019 A 
ATOM     13  O   UNL A   1      32.979  25.985  23.498  1.00  0.00    -0.475 OA
ATOM     14  Cl  UNL A   1      28.567  29.269  22.221  1.00  0.00    -0.084 Cl
ATOM     15  C   UNL A   1      29.557  27.081  23.466  1.00  0.00     0.032 A 
ATOM     16  C   UNL A   1      30.488  24.965  24.601  1.00  0.00     0.025 C 
ATOM     17  C   UNL A   1      32.426  24.636  23.362  1.00  0.00     0.314 C 
BRANCH   8  18
ATOM     18  C   UNL A   1      32.539  28.904  25.094  1.00  0.00    -0.014 A 
ATOM     19  C   UNL A   1      33.406  30.520  27.269  1.00  0.00     0.121 A 
ATOM     20  C   UNL A   1      34.122  29.379  26.862  1.00  0.00     0.047 A 
ATOM     21  C   UNL A   1      32.234  30.871  26.597  1.00  0.00    -0.008 A 
ATOM     22  C   UNL A   1      33.699  28.576  25.787  1.00  0.00     0.013 A 
ATOM     23  C   UNL A   1      31.803  30.031  25.553  1.00  0.00     0.016 A 
ATOM     24  C   UNL A   1      31.442  32.120  26.866  1.00  0.00     0.048 C 
BRANCH  19  25
ATOM     25  O   UNL A   1      34.022  31.263  28.242  1.00  0.00    -0.496 OA
ATOM     26  C   UNL A   1      35.058  32.136  27.802  1.00  0.00     0.278 C 
ENDBRANCH  19  25
ENDBRANCH   8  18
BRANCH  17  27
ATOM     27  C   UNL A   1      33.201  23.456  22.761  1.00  0.00     0.429 C 
ATOM     28  F   UNL A   1      32.951  23.363  21.425  1.00  0.00    -0.167 F 
ATOM     29  F   UNL A   1      34.535  23.545  22.898  1.00  0.00    -0.167 F 
ATOM     30  F   UNL A   1      32.800  22.264  23.271  1.00  0.00    -0.167 F 
ENDBRANCH  17  27
ENDBRANCH   4   7
ENDBRANCH   2   3
ENDBRANCH   1   2
BRANCH   1  31
ATOM     31  C   UNL A   1      36.801  21.898  25.759  1.00  0.00     0.023 C 
BRANCH  31  32
ATOM     32  C   UNL A   1      38.154  22.082  25.091  1.00  0.00     0.116 C 
BRANCH  32  33
ATOM     33  N   UNL A   1      39.352  21.827  25.897  1.00  0.00    -0.352 N 
ATOM     34  C   UNL A   1      40.148  22.726  26.587  1.00  0.00     0.251 C 
ATOM     35  H   UNL A   1      39.630  20.883  25.954  1.00  0.00     0.163 HD
ATOM     36  O   UNL A   1      41.158  22.353  27.146  1.00  0.00    -0.269 OA
BRANCH  34  37
ATOM     37  C   UNL A   1      39.680  24.139  26.777  1.00  0.00     0.039 A 
ATOM     38  C   UNL A   1      40.383  25.156  26.120  1.00  0.00     0.014 A 
ATOM     39  C   UNL A   1      38.773  24.465  27.777  1.00  0.00     0.014 A 
ATOM     40  C   UNL A   1      40.415  26.430  26.682  1.00  0.00     0.010 A 
ATOM     41  C   UNL A   1      38.918  25.677  28.419  1.00  0.00     0.010 A 
ATOM     42  C   UNL A   1      39.801  26.635  27.914  1.00  0.00    -0.014 A 
BRANCH  42  43
ATOM     43  C   UNL A   1      40.158  27.723  28.818  1.00  0.00     0.031 A 
ATOM     44  C   UNL A   1      39.249  28.866  29.042  1.00  0.00     0.074 A 
ATOM     45  C   UNL A   1      41.282  27.617  29.564  1.00  0.00     0.049 A 
ATOM     46  N   UNL A   1      39.639  30.032  29.435  1.00  0.00    -0.248 NA
ATOM     47  C   UNL A   1      37.812  28.786  28.820  1.00  0.00     0.031 C 
ATOM     48  C   UNL A   1      41.658  28.426  30.722  1.00  0.00     0.029 A 
ATOM     49  N   UNL A   1      42.425  26.848  29.296  1.00  0.00    -0.354 N 
ATOM     50  C   UNL A   1      38.519  30.740  29.809  1.00  0.00     0.074 A 
ATOM     51  C   UNL A   1      37.406  29.948  29.340  1.00  0.00     0.031 C 
ATOM     52  C   UNL A   1      42.987  28.351  30.890  1.00  0.00     0.029 A 
ATOM     53  C   UNL A   1      43.522  27.599  29.771  1.00  0.00     0.049 A 
ATOM     54  H   UNL A   1      42.455  25.962  28.864  1.00  0.00     0.167 HD
ATOM     55  C   UNL A   1      38.654  31.842  30.604  1.00  0.00     0.037 A 
ATOM     56  C   UNL A   1      44.498  28.043  28.929  1.00  0.00     0.037 A 
ATOM     57  C   UNL A   1      40.061  32.116  30.898  1.00  0.00     0.049 A 
ATOM     58  C   UNL A   1      44.644  29.544  28.892  1.00  0.00     0.074 A 
ATOM     59  C   UNL A   1      40.853  31.852  32.005  1.00  0.00     0.029 A 
ATOM     60  N   UNL A   1      40.931  32.470  29.872  1.00  0.00    -0.354 N 
ATOM     61  N   UNL A   1      43.737  30.375  29.325  1.00  0.00    -0.248 NA
ATOM     62  C   UNL A   1      45.809  30.231  28.343  1.00  0.00     0.031 C 
ATOM     63  C   UNL A   1      42.207  32.028  31.634  1.00  0.00     0.029 A 
ATOM     64  C   UNL A   1      42.241  32.403  30.302  1.00  0.00     0.049 A 
ATOM     65  H   UNL A   1      40.650  32.733  28.965  1.00  0.00     0.167 HD
ATOM     66  C   UNL A   1      44.146  31.667  29.099  1.00  0.00     0.074 A 
ATOM     67  C   UNL A   1      45.463  31.522  28.510  1.00  0.00     0.031 C 
ATOM     68  C   UNL A   1      43.348  32.733  29.412  1.00  0.00     0.037 A 
BRANCH  55  69
ATOM     69  C   UNL A   1      37.503  32.466  31.369  1.00  0.00     0.057 A 
ATOM     70  C   UNL A   1      37.066  31.932  32.598  1.00  0.00     0.134 A 
ATOM     71  C   UNL A   1      36.749  33.564  30.923  1.00  0.00     0.134 A 
ATOM     72  F   UNL A   1      37.751  30.978  33.240  1.00  0.00    -0.206 F 
ATOM     73  C   UNL A   1      35.895  32.352  33.244  1.00  0.00     0.040 A 
ATOM     74  C   UNL A   1      35.545  33.961  31.527  1.00  0.00     0.040 A 
ATOM     75  F   UNL A   1      37.171  34.341  29.918  1.00  0.00    -0.206 F 
ATOM     76  C   UNL A   1      35.103  33.340  32.684  1.00  0.00     0.006 A 
ENDBRANCH  55  69
BRANCH  56  77
ATOM     77  C   UNL A   1      44.755  27.124  27.791  1.00  0.00     0.057 A 
ATOM     78  C   UNL A   1      44.184  27.433  26.543  1.00  0.00     0.134 A 
ATOM     79  C   UNL A   1      45.822  26.222  27.798  1.00  0.00     0.134 A 
ATOM     80  F   UNL A   1      43.155  28.292  26.468  1.00  0.00    -0.206 F 
ATOM     81  C   UNL A   1      44.723  26.956  25.346  1.00  0.00     0.040 A 
ATOM     82  C   UNL A   1      46.366  25.732  26.604  1.00  0.00     0.040 A 
ATOM     83  F   UNL A   1      46.435  25.901  28.946  1.00  0.00    -0.206 F 
ATOM     84  C   UNL A   1      45.843  26.130  25.374  1.00  0.00     0.006 A 
ENDBRANCH  56  77
BRANCH  68  85
ATOM     85  C   UNL A   1      43.556  34.183  29.021  1.00  0.00     0.057 A 
ATOM     86  C   UNL A   1      43.574  34.664  27.704  1.00  0.00     0.134 A 
ATOM     87  C   UNL A   1      43.616  35.191  30.015  1.00  0.00     0.134 A 
ATOM     88  F   UNL A   1      43.402  33.855  26.653  1.00  0.00    -0.206 F 
ATOM     89  C   UNL A   1      43.708  36.028  27.398  1.00  0.00     0.040 A 
ATOM     90  C   UNL A   1      43.691  36.556  29.721  1.00  0.00     0.040 A 
ATOM     91  F   UNL A   1      43.580  34.902  31.324  1.00  0.00    -0.206 F 
ATOM     92  C   UNL A   1      43.756  36.981  28.407  1.00  0.00     0.006 A 
ENDBRANCH  68  85
ENDBRANCH  42  43
ENDBRANCH  34  37
ENDBRANCH  32  33
ENDBRANCH  31  32
ENDBRANCH   1  31
TORSDOF 14
ENDMDL
MODEL 3
REMARK VINA RESULT:     -12.8      1.644      2.606
REMARK SMILES COc1ccc(-c2cc(Cl)cc3c2O[C@@H](C(F)(F)F)C(C(=O)NCCCCNC(=O)c2ccc(-c4c5nc(c(-c6c(F)cccc6F)c6ccc([nH]6)c(-c6c(F)cccc6F)c6nc(c(-c7c(F)cccc7F)c7ccc4[nH]7)C=C6)C=C5)cc2)=C3)cc1C
REMARK SMILES IDX 25 1 24 2 23 3 21 4 22 5 20 7 7 8 8 9 13 10 9 11 12 12 14 13
REMARK SMILES IDX 10 14 11 15 85 16 15 17 6 18 3 19 4 20 87 21 5 22 86 23
REMARK SMILES IDX 88 24 2 25 1 26 16 27 17 28 18 29 19 30 26 31 27 32 28 33
REMARK SMILES IDX 29 34 30 36 31 37 32 38 84 39 33 40 83 41 34 42 35 43 36 44
REMARK SMILES IDX 77 45 37 46 82 47 76 48 78 49 38 50 81 51 75 52 74 53 39 55
REMARK SMILES IDX 65 56 48 57 64 58 49 59 52 60 63 61 79 62 50 63 51 64 62 66
REMARK SMILES IDX 80 67 53 68 40 69 41 70 46 71 42 72 43 73 45 74 47 75 44 76
REMARK SMILES IDX 66 77 67 78 72 79 68 80 69 81 71 82 73 83 70 84 54 85 55 86
REMARK SMILES IDX 60 87 56 88 57 89 59 90 61 91 58 92
REMARK H PARENT 23 6 28 35 78 54 52 65
REMARK Flexibility Score: inf
ROOT
ATOM      1  C   UNL A   1      33.152  28.704  25.982  1.00  0.00     0.023 C 
ENDROOT
BRANCH   1   2
ATOM      2  C   UNL A   1      33.023  27.991  24.625  1.00  0.00     0.116 C 
BRANCH   2   3
ATOM      3  N   UNL A   1      33.718  26.719  24.506  1.00  0.00    -0.352 N 
ATOM      4  C   UNL A   1      33.403  25.555  23.856  1.00  0.00     0.251 C 
ATOM      5  O   UNL A   1      34.352  24.929  23.372  1.00  0.00    -0.270 OA
ATOM      6  H   UNL A   1      34.579  26.689  24.984  1.00  0.00     0.163 HD
BRANCH   4   7
ATOM      7  C   UNL A   1      31.999  24.936  23.827  1.00  0.00     0.067 C 
ATOM      8  C   UNL A   1      33.816  22.013  25.846  1.00  0.00     0.026 A 
ATOM      9  C   UNL A   1      33.457  20.663  25.667  1.00  0.00     0.033 A 
ATOM     10  C   UNL A   1      32.940  22.922  25.262  1.00  0.00     0.135 A 
ATOM     11  C   UNL A   1      32.585  20.302  24.631  1.00  0.00     0.042 A 
ATOM     12  C   UNL A   1      32.357  22.608  24.011  1.00  0.00     0.019 A 
ATOM     13  O   UNL A   1      32.471  24.048  25.979  1.00  0.00    -0.475 OA
ATOM     14  Cl  UNL A   1      32.225  18.640  24.373  1.00  0.00    -0.084 Cl
ATOM     15  C   UNL A   1      32.120  21.267  23.731  1.00  0.00     0.032 A 
ATOM     16  C   UNL A   1      31.960  23.765  23.129  1.00  0.00     0.025 C 
ATOM     17  C   UNL A   1      31.398  24.666  25.196  1.00  0.00     0.314 C 
BRANCH   8  18
ATOM     18  C   UNL A   1      35.289  22.250  25.695  1.00  0.00    -0.014 A 
ATOM     19  C   UNL A   1      38.132  22.368  25.668  1.00  0.00     0.121 A 
ATOM     20  C   UNL A   1      37.349  23.464  26.073  1.00  0.00     0.047 A 
ATOM     21  C   UNL A   1      37.505  21.190  25.261  1.00  0.00    -0.008 A 
ATOM     22  C   UNL A   1      35.942  23.412  26.089  1.00  0.00     0.013 A 
ATOM     23  C   UNL A   1      36.097  21.171  25.241  1.00  0.00     0.016 A 
ATOM     24  C   UNL A   1      38.229  19.920  24.909  1.00  0.00     0.048 C 
BRANCH  19  25
ATOM     25  O   UNL A   1      39.481  22.538  25.837  1.00  0.00    -0.496 OA
ATOM     26  C   UNL A   1      39.973  22.363  27.162  1.00  0.00     0.278 C 
ENDBRANCH  19  25
ENDBRANCH   8  18
BRANCH  17  27
ATOM     27  C   UNL A   1      30.463  25.753  25.743  1.00  0.00     0.429 C 
ATOM     28  F   UNL A   1      29.330  25.187  26.244  1.00  0.00    -0.167 F 
ATOM     29  F   UNL A   1      30.995  26.490  26.732  1.00  0.00    -0.167 F 
ATOM     30  F   UNL A   1      30.030  26.594  24.771  1.00  0.00    -0.167 F 
ENDBRANCH  17  27
ENDBRANCH   4   7
ENDBRANCH   2   3
ENDBRANCH   1   2
BRANCH   1  31
ATOM     31  C   UNL A   1      34.471  28.574  26.748  1.00  0.00     0.023 C 
BRANCH  31  32
ATOM     32  C   UNL A   1      35.036  29.837  27.378  1.00  0.00     0.116 C 
BRANCH  32  33
ATOM     33  N   UNL A   1      34.218  31.052  27.318  1.00  0.00    -0.352 N 
ATOM     34  C   UNL A   1      34.296  32.196  28.096  1.00  0.00     0.251 C 
ATOM     35  H   UNL A   1      33.514  31.055  26.630  1.00  0.00     0.163 HD
ATOM     36  O   UNL A   1      33.485  33.089  27.964  1.00  0.00    -0.269 OA
BRANCH  34  37
ATOM     37  C   UNL A   1      35.480  32.404  28.995  1.00  0.00     0.039 A 
ATOM     38  C   UNL A   1      36.520  33.217  28.531  1.00  0.00     0.014 A 
ATOM     39  C   UNL A   1      35.677  31.607  30.115  1.00  0.00     0.014 A 
ATOM     40  C   UNL A   1      37.817  32.983  28.984  1.00  0.00     0.010 A 
ATOM     41  C   UNL A   1      36.970  31.269  30.456  1.00  0.00     0.010 A 
ATOM     42  C   UNL A   1      38.046  31.904  29.833  1.00  0.00    -0.014 A 
BRANCH  42  43
ATOM     43  C   UNL A   1      39.349  31.263  29.982  1.00  0.00     0.031 A 
ATOM     44  C   UNL A   1      39.659  29.988  29.305  1.00  0.00     0.074 A 
ATOM     45  C   UNL A   1      40.331  31.916  30.645  1.00  0.00     0.049 A 
ATOM     46  N   UNL A   1      40.556  29.153  29.713  1.00  0.00    -0.248 NA
ATOM     47  C   UNL A   1      38.961  29.538  28.108  1.00  0.00     0.031 C 
ATOM     48  C   UNL A   1      41.758  31.600  30.651  1.00  0.00     0.029 A 
ATOM     49  N   UNL A   1      40.196  32.915  31.621  1.00  0.00    -0.354 N 
ATOM     50  C   UNL A   1      40.769  28.244  28.701  1.00  0.00     0.074 A 
ATOM     51  C   UNL A   1      39.703  28.485  27.756  1.00  0.00     0.031 C 
ATOM     52  C   UNL A   1      42.318  32.141  31.744  1.00  0.00     0.029 A 
ATOM     53  C   UNL A   1      41.246  32.708  32.541  1.00  0.00     0.049 A 
ATOM     54  H   UNL A   1      39.507  33.619  31.657  1.00  0.00     0.167 HD
ATOM     55  C   UNL A   1      41.907  27.490  28.702  1.00  0.00     0.037 A 
ATOM     56  C   UNL A   1      41.000  32.401  33.846  1.00  0.00     0.037 A 
ATOM     57  C   UNL A   1      42.729  27.771  29.880  1.00  0.00     0.049 A 
ATOM     58  C   UNL A   1      41.564  31.071  34.283  1.00  0.00     0.074 A 
ATOM     59  C   UNL A   1      43.858  28.553  30.067  1.00  0.00     0.029 A 
ATOM     60  N   UNL A   1      42.254  27.463  31.151  1.00  0.00    -0.354 N 
ATOM     61  N   UNL A   1      41.943  30.134  33.459  1.00  0.00    -0.248 NA
ATOM     62  C   UNL A   1      41.724  30.679  35.681  1.00  0.00     0.031 C 
ATOM     63  C   UNL A   1      44.049  28.734  31.456  1.00  0.00     0.029 A 
ATOM     64  C   UNL A   1      43.038  28.059  32.119  1.00  0.00     0.049 A 
ATOM     65  H   UNL A   1      41.468  26.899  31.333  1.00  0.00     0.167 HD
ATOM     66  C   UNL A   1      42.354  29.031  34.168  1.00  0.00     0.074 A 
ATOM     67  C   UNL A   1      42.225  29.436  35.555  1.00  0.00     0.031 C 
ATOM     68  C   UNL A   1      42.751  27.885  33.537  1.00  0.00     0.037 A 
BRANCH  55  69
ATOM     69  C   UNL A   1      42.419  26.749  27.483  1.00  0.00     0.057 A 
ATOM     70  C   UNL A   1      42.883  27.442  26.346  1.00  0.00     0.134 A 
ATOM     71  C   UNL A   1      42.432  25.351  27.343  1.00  0.00     0.134 A 
ATOM     72  F   UNL A   1      43.072  28.767  26.353  1.00  0.00    -0.206 F 
ATOM     73  C   UNL A   1      43.184  26.810  25.133  1.00  0.00     0.040 A 
ATOM     74  C   UNL A   1      42.678  24.707  26.121  1.00  0.00     0.040 A 
ATOM     75  F   UNL A   1      42.265  24.542  28.397  1.00  0.00    -0.206 F 
ATOM     76  C   UNL A   1      43.037  25.439  25.001  1.00  0.00     0.006 A 
ENDBRANCH  55  69
BRANCH  56  77
ATOM     77  C   UNL A   1      39.759  33.024  34.372  1.00  0.00     0.057 A 
ATOM     78  C   UNL A   1      38.577  32.263  34.371  1.00  0.00     0.134 A 
ATOM     79  C   UNL A   1      39.795  34.145  35.207  1.00  0.00     0.134 A 
ATOM     80  F   UNL A   1      38.479  31.175  33.591  1.00  0.00    -0.206 F 
ATOM     81  C   UNL A   1      37.522  32.536  35.244  1.00  0.00     0.040 A 
ATOM     82  C   UNL A   1      38.739  34.432  36.081  1.00  0.00     0.040 A 
ATOM     83  F   UNL A   1      40.897  34.903  35.283  1.00  0.00    -0.206 F 
ATOM     84  C   UNL A   1      37.618  33.604  36.130  1.00  0.00     0.006 A 
ENDBRANCH  56  77
BRANCH  68  85
ATOM     85  C   UNL A   1      43.008  26.531  34.168  1.00  0.00     0.057 A 
ATOM     86  C   UNL A   1      44.263  25.909  34.252  1.00  0.00     0.134 A 
ATOM     87  C   UNL A   1      41.970  25.851  34.853  1.00  0.00     0.134 A 
ATOM     88  F   UNL A   1      45.370  26.482  33.765  1.00  0.00    -0.206 F 
ATOM     89  C   UNL A   1      44.457  24.680  34.904  1.00  0.00     0.040 A 
ATOM     90  C   UNL A   1      42.165  24.656  35.554  1.00  0.00     0.040 A 
ATOM     91  F   UNL A   1      40.717  26.326  34.896  1.00  0.00    -0.206 F 
ATOM     92  C   UNL A   1      43.411  24.055  35.568  1.00  0.00     0.006 A 
ENDBRANCH  68  85
ENDBRANCH  42  43
ENDBRANCH  34  37
ENDBRANCH  32  33
ENDBRANCH  31  32
ENDBRANCH   1  31
TORSDOF 14
ENDMDL
