MODEL 1
REMARK VINA RESULT:     -11.9      0.000      0.000
REMARK SMILES Cc1ccc2c(c1)OCCN2c1sc(C(=O)NCCCCNC(=O)c2ccc(-c3c4nc(c(-c5c(F)cccc5F)c5ccc([nH]5)c(-c5c(F)cccc5F)c5nc(c(-c6c(F)cccc6F)c6ccc3[nH]6)C=C5)C=C4)cc2)cc1C
REMARK SMILES IDX 20 1 19 2 18 3 17 4 15 5 16 6 14 8 12 9 13 10 80 11 79 12
REMARK SMILES IDX 81 13 11 14 1 15 2 16 3 17 7 18 4 19 6 20 5 21 8 22 9 23
REMARK SMILES IDX 10 24 21 25 22 26 23 27 24 29 25 30 26 31 78 32 27 33 77 34
REMARK SMILES IDX 28 35 29 36 30 37 71 38 31 39 76 40 70 41 72 42 32 43 75 44
REMARK SMILES IDX 69 45 68 46 33 48 59 49 42 50 58 51 43 52 46 53 57 54 73 55
REMARK SMILES IDX 44 56 45 57 56 59 74 60 47 61 34 62 35 63 40 64 36 65 37 66
REMARK SMILES IDX 39 67 41 68 38 69 60 70 61 71 66 72 62 73 63 74 65 75 67 76
REMARK SMILES IDX 64 77 48 78 49 79 54 80 50 81 51 82 53 83 55 84 52 85
REMARK H PARENT 17 7 22 28 72 47 46 58
REMARK Flexibility Score: inf
ROOT
ATOM      1  C   UNL A   1      32.518  28.476  26.961  1.00  0.00     0.023 C 
ENDROOT
BRANCH   1   2
ATOM      2  C   UNL A   1      31.841  29.294  25.854  1.00  0.00     0.023 C 
BRANCH   2   3
ATOM      3  C   UNL A   1      32.565  29.243  24.510  1.00  0.00     0.116 C 
BRANCH   3   4
ATOM      4  N   UNL A   1      31.635  28.989  23.427  1.00  0.00    -0.351 N 
ATOM      5  C   UNL A   1      31.072  27.839  22.931  1.00  0.00     0.261 C 
ATOM      6  O   UNL A   1      30.278  28.018  22.001  1.00  0.00    -0.268 OA
ATOM      7  H   UNL A   1      31.351  29.804  22.953  1.00  0.00     0.163 HD
BRANCH   5   8
ATOM      8  C   UNL A   1      31.311  26.508  23.472  1.00  0.00     0.094 A 
ATOM      9  C   UNL A   1      32.167  24.262  24.122  1.00  0.00     0.099 A 
ATOM     10  S   UNL A   1      32.215  25.269  22.732  1.00  0.00    -0.112 S 
ATOM     11  C   UNL A   1      31.227  24.732  25.027  1.00  0.00    -0.015 A 
ATOM     12  C   UNL A   1      30.747  26.027  24.642  1.00  0.00     0.031 A 
ATOM     13  C   UNL A   1      30.795  24.056  26.286  1.00  0.00     0.047 C 
BRANCH   9  14
ATOM     14  N   UNL A   1      32.918  23.131  24.233  1.00  0.00    -0.327 N 
ATOM     15  C   UNL A   1      38.351  22.707  26.126  1.00  0.00     0.044 C 
ATOM     16  C   UNL A   1      36.941  22.831  25.633  1.00  0.00    -0.047 A 
ATOM     17  C   UNL A   1      36.327  24.078  25.507  1.00  0.00     0.006 A 
ATOM     18  C   UNL A   1      36.203  21.686  25.321  1.00  0.00     0.052 A 
ATOM     19  C   UNL A   1      35.003  24.182  25.062  1.00  0.00     0.030 A 
ATOM     20  C   UNL A   1      34.880  21.792  24.877  1.00  0.00     0.143 A 
ATOM     21  C   UNL A   1      34.254  23.047  24.707  1.00  0.00     0.085 A 
ATOM     22  O   UNL A   1      34.254  20.590  24.624  1.00  0.00    -0.490 OA
ATOM     23  C   UNL A   1      32.830  20.723  24.573  1.00  0.00     0.251 C 
ATOM     24  C   UNL A   1      32.416  21.877  23.670  1.00  0.00     0.165 C 
ENDBRANCH   9  14
ENDBRANCH   5   8
ENDBRANCH   3   4
ENDBRANCH   2   3
ENDBRANCH   1   2
BRANCH   1  25
ATOM     25  C   UNL A   1      33.926  28.930  27.335  1.00  0.00     0.116 C 
BRANCH  25  26
ATOM     26  N   UNL A   1      33.971  30.223  28.001  1.00  0.00    -0.352 N 
ATOM     27  C   UNL A   1      35.033  30.814  28.646  1.00  0.00     0.251 C 
ATOM     28  H   UNL A   1      33.134  30.742  27.988  1.00  0.00     0.163 HD
ATOM     29  O   UNL A   1      34.890  31.876  29.243  1.00  0.00    -0.269 OA
BRANCH  27  30
ATOM     30  C   UNL A   1      36.338  30.123  28.661  1.00  0.00     0.039 A 
ATOM     31  C   UNL A   1      36.769  29.445  29.802  1.00  0.00     0.014 A 
ATOM     32  C   UNL A   1      37.166  30.212  27.537  1.00  0.00     0.014 A 
ATOM     33  C   UNL A   1      38.086  29.010  29.883  1.00  0.00     0.010 A 
ATOM     34  C   UNL A   1      38.465  29.703  27.594  1.00  0.00     0.010 A 
ATOM     35  C   UNL A   1      38.954  29.149  28.788  1.00  0.00    -0.014 A 
BRANCH  35  36
ATOM     36  C   UNL A   1      40.372  28.734  28.930  1.00  0.00     0.031 A 
ATOM     37  C   UNL A   1      40.825  27.371  28.478  1.00  0.00     0.074 A 
ATOM     38  C   UNL A   1      41.269  29.615  29.411  1.00  0.00     0.049 A 
ATOM     39  N   UNL A   1      42.031  26.859  28.484  1.00  0.00    -0.248 NA
ATOM     40  C   UNL A   1      39.791  26.463  27.960  1.00  0.00     0.031 C 
ATOM     41  C   UNL A   1      40.953  30.963  29.887  1.00  0.00     0.029 A 
ATOM     42  N   UNL A   1      42.628  29.516  29.560  1.00  0.00    -0.354 N 
ATOM     43  C   UNL A   1      41.896  25.564  27.998  1.00  0.00     0.074 A 
ATOM     44  C   UNL A   1      40.489  25.360  27.729  1.00  0.00     0.031 C 
ATOM     45  C   UNL A   1      42.092  31.582  30.234  1.00  0.00     0.029 A 
ATOM     46  C   UNL A   1      43.207  30.661  30.051  1.00  0.00     0.049 A 
ATOM     47  H   UNL A   1      43.139  28.706  29.337  1.00  0.00     0.167 HD
ATOM     48  C   UNL A   1      42.858  24.634  27.783  1.00  0.00     0.037 A 
ATOM     49  C   UNL A   1      44.494  30.935  30.334  1.00  0.00     0.037 A 
ATOM     50  C   UNL A   1      44.262  24.845  28.024  1.00  0.00     0.049 A 
ATOM     51  C   UNL A   1      45.539  29.885  30.094  1.00  0.00     0.074 A 
ATOM     52  C   UNL A   1      45.319  23.981  27.792  1.00  0.00     0.029 A 
ATOM     53  N   UNL A   1      44.805  26.004  28.556  1.00  0.00    -0.354 N 
ATOM     54  N   UNL A   1      45.399  28.678  29.603  1.00  0.00    -0.248 NA
ATOM     55  C   UNL A   1      46.919  30.236  30.452  1.00  0.00     0.031 C 
ATOM     56  C   UNL A   1      46.497  24.604  28.220  1.00  0.00     0.029 A 
ATOM     57  C   UNL A   1      46.179  25.871  28.682  1.00  0.00     0.049 A 
ATOM     58  H   UNL A   1      44.291  26.806  28.806  1.00  0.00     0.167 HD
ATOM     59  C   UNL A   1      46.672  28.124  29.592  1.00  0.00     0.074 A 
ATOM     60  C   UNL A   1      47.574  29.140  30.097  1.00  0.00     0.031 C 
ATOM     61  C   UNL A   1      47.059  26.884  29.204  1.00  0.00     0.037 A 
BRANCH  48  62
ATOM     62  C   UNL A   1      42.414  23.290  27.281  1.00  0.00     0.057 A 
ATOM     63  C   UNL A   1      41.989  22.301  28.177  1.00  0.00     0.134 A 
ATOM     64  C   UNL A   1      42.421  22.967  25.918  1.00  0.00     0.134 A 
ATOM     65  F   UNL A   1      41.964  22.542  29.496  1.00  0.00    -0.206 F 
ATOM     66  C   UNL A   1      41.580  21.041  27.735  1.00  0.00     0.040 A 
ATOM     67  C   UNL A   1      41.991  21.719  25.462  1.00  0.00     0.040 A 
ATOM     68  F   UNL A   1      42.804  23.874  25.006  1.00  0.00    -0.206 F 
ATOM     69  C   UNL A   1      41.573  20.750  26.373  1.00  0.00     0.006 A 
ENDBRANCH  48  62
BRANCH  49  70
ATOM     70  C   UNL A   1      44.856  32.263  30.883  1.00  0.00     0.057 A 
ATOM     71  C   UNL A   1      45.180  33.332  30.038  1.00  0.00     0.134 A 
ATOM     72  C   UNL A   1      44.901  32.489  32.262  1.00  0.00     0.134 A 
ATOM     73  F   UNL A   1      45.160  33.173  28.707  1.00  0.00    -0.206 F 
ATOM     74  C   UNL A   1      45.552  34.577  30.547  1.00  0.00     0.040 A 
ATOM     75  C   UNL A   1      45.249  33.736  32.784  1.00  0.00     0.040 A 
ATOM     76  F   UNL A   1      44.584  31.508  33.119  1.00  0.00    -0.206 F 
ATOM     77  C   UNL A   1      45.583  34.781  31.924  1.00  0.00     0.006 A 
ENDBRANCH  49  70
BRANCH  61  78
ATOM     78  C   UNL A   1      48.520  26.569  29.315  1.00  0.00     0.057 A 
ATOM     79  C   UNL A   1      49.033  25.935  30.452  1.00  0.00     0.134 A 
ATOM     80  C   UNL A   1      49.420  26.898  28.293  1.00  0.00     0.134 A 
ATOM     81  F   UNL A   1      48.224  25.598  31.467  1.00  0.00    -0.206 F 
ATOM     82  C   UNL A   1      50.391  25.635  30.568  1.00  0.00     0.040 A 
ATOM     83  C   UNL A   1      50.777  26.584  28.388  1.00  0.00     0.040 A 
ATOM     84  F   UNL A   1      48.988  27.492  27.169  1.00  0.00    -0.206 F 
ATOM     85  C   UNL A   1      51.266  25.954  29.531  1.00  0.00     0.006 A 
ENDBRANCH  61  78
ENDBRANCH  35  36
ENDBRANCH  27  30
ENDBRANCH  25  26
ENDBRANCH   1  25
TORSDOF 12
ENDMDL
MODEL 2
REMARK VINA RESULT:     -11.9      3.171      8.369
REMARK SMILES Cc1ccc2c(c1)OCCN2c1sc(C(=O)NCCCCNC(=O)c2ccc(-c3c4nc(c(-c5c(F)cccc5F)c5ccc([nH]5)c(-c5c(F)cccc5F)c5nc(c(-c6c(F)cccc6F)c6ccc3[nH]6)C=C5)C=C4)cc2)cc1C
REMARK SMILES IDX 20 1 19 2 18 3 17 4 15 5 16 6 14 8 12 9 13 10 80 11 79 12
REMARK SMILES IDX 81 13 11 14 1 15 2 16 3 17 7 18 4 19 6 20 5 21 8 22 9 23
REMARK SMILES IDX 10 24 21 25 22 26 23 27 24 29 25 30 26 31 78 32 27 33 77 34
REMARK SMILES IDX 28 35 29 36 30 37 71 38 31 39 76 40 70 41 72 42 32 43 75 44
REMARK SMILES IDX 69 45 68 46 33 48 59 49 42 50 58 51 43 52 46 53 57 54 73 55
REMARK SMILES IDX 44 56 45 57 56 59 74 60 47 61 34 62 35 63 40 64 36 65 37 66
REMARK SMILES IDX 39 67 41 68 38 69 60 70 61 71 66 72 62 73 63 74 65 75 67 76
REMARK SMILES IDX 64 77 48 78 49 79 54 80 50 81 51 82 53 83 55 84 52 85
REMARK H PARENT 17 7 22 28 72 47 46 58
REMARK Flexibility Score: inf
ROOT
ATOM      1  C   UNL A   1      36.011  23.428  26.096  1.00  0.00     0.023 C 
ENDROOT
BRANCH   1   2
ATOM      2  C   UNL A   1      35.608  21.952  26.208  1.00  0.00     0.023 C 
BRANCH   2   3
ATOM      3  C   UNL A   1      34.382  21.705  27.086  1.00  0.00     0.116 C 
BRANCH   3   4
ATOM      4  N   UNL A   1      33.377  20.939  26.374  1.00  0.00    -0.351 N 
ATOM      5  C   UNL A   1      32.460  21.274  25.408  1.00  0.00     0.261 C 
ATOM      6  O   UNL A   1      31.777  20.327  25.001  1.00  0.00    -0.268 OA
ATOM      7  H   UNL A   1      33.348  19.990  26.634  1.00  0.00     0.163 HD
BRANCH   5   8
ATOM      8  C   UNL A   1      32.319  22.606  24.835  1.00  0.00     0.094 A 
ATOM      9  C   UNL A   1      31.886  25.005  24.329  1.00  0.00     0.099 A 
ATOM     10  S   UNL A   1      31.150  23.767  25.266  1.00  0.00    -0.112 S 
ATOM     11  C   UNL A   1      32.830  24.464  23.470  1.00  0.00    -0.015 A 
ATOM     12  C   UNL A   1      33.073  23.084  23.776  1.00  0.00     0.031 A 
ATOM     13  C   UNL A   1      33.579  25.196  22.405  1.00  0.00     0.047 C 
BRANCH   9  14
ATOM     14  N   UNL A   1      31.502  26.310  24.411  1.00  0.00    -0.327 N 
ATOM     15  C   UNL A   1      34.158  30.571  27.252  1.00  0.00     0.044 C 
ATOM     16  C   UNL A   1      33.475  29.454  26.521  1.00  0.00    -0.047 A 
ATOM     17  C   UNL A   1      33.954  28.145  26.593  1.00  0.00     0.006 A 
ATOM     18  C   UNL A   1      32.359  29.717  25.721  1.00  0.00     0.052 A 
ATOM     19  C   UNL A   1      33.319  27.111  25.891  1.00  0.00     0.030 A 
ATOM     20  C   UNL A   1      31.727  28.683  25.021  1.00  0.00     0.143 A 
ATOM     21  C   UNL A   1      32.174  27.346  25.112  1.00  0.00     0.085 A 
ATOM     22  O   UNL A   1      30.653  29.075  24.252  1.00  0.00    -0.490 OA
ATOM     23  C   UNL A   1      30.307  28.094  23.268  1.00  0.00     0.251 C 
ATOM     24  C   UNL A   1      30.195  26.708  23.887  1.00  0.00     0.165 C 
ENDBRANCH   9  14
ENDBRANCH   5   8
ENDBRANCH   3   4
ENDBRANCH   2   3
ENDBRANCH   1   2
BRANCH   1  25
ATOM     25  C   UNL A   1      37.252  23.700  25.252  1.00  0.00     0.116 C 
BRANCH  25  26
ATOM     26  N   UNL A   1      38.389  22.857  25.589  1.00  0.00    -0.352 N 
ATOM     27  C   UNL A   1      39.471  23.163  26.383  1.00  0.00     0.251 C 
ATOM     28  H   UNL A   1      38.384  21.953  25.200  1.00  0.00     0.163 HD
ATOM     29  O   UNL A   1      40.403  22.373  26.501  1.00  0.00    -0.269 OA
BRANCH  27  30
ATOM     30  C   UNL A   1      39.524  24.480  27.049  1.00  0.00     0.039 A 
ATOM     31  C   UNL A   1      40.210  25.544  26.462  1.00  0.00     0.014 A 
ATOM     32  C   UNL A   1      38.932  24.630  28.306  1.00  0.00     0.014 A 
ATOM     33  C   UNL A   1      40.454  26.694  27.202  1.00  0.00     0.010 A 
ATOM     34  C   UNL A   1      39.112  25.818  29.018  1.00  0.00     0.010 A 
ATOM     35  C   UNL A   1      39.923  26.837  28.494  1.00  0.00    -0.014 A 
BRANCH  35  36
ATOM     36  C   UNL A   1      40.256  28.050  29.284  1.00  0.00     0.031 A 
ATOM     37  C   UNL A   1      39.269  29.179  29.415  1.00  0.00     0.074 A 
ATOM     38  C   UNL A   1      41.431  28.105  29.938  1.00  0.00     0.049 A 
ATOM     39  N   UNL A   1      39.374  30.291  30.101  1.00  0.00    -0.248 NA
ATOM     40  C   UNL A   1      38.005  29.050  28.675  1.00  0.00     0.031 C 
ATOM     41  C   UNL A   1      42.473  27.077  29.885  1.00  0.00     0.029 A 
ATOM     42  N   UNL A   1      41.937  29.052  30.789  1.00  0.00    -0.354 N 
ATOM     43  C   UNL A   1      38.205  31.001  29.855  1.00  0.00     0.074 A 
ATOM     44  C   UNL A   1      37.416  30.207  28.937  1.00  0.00     0.031 C 
ATOM     45  C   UNL A   1      43.475  27.428  30.705  1.00  0.00     0.029 A 
ATOM     46  C   UNL A   1      43.169  28.725  31.300  1.00  0.00     0.049 A 
ATOM     47  H   UNL A   1      41.465  29.885  31.013  1.00  0.00     0.167 HD
ATOM     48  C   UNL A   1      37.819  32.199  30.356  1.00  0.00     0.037 A 
ATOM     49  C   UNL A   1      43.970  29.398  32.147  1.00  0.00     0.037 A 
ATOM     50  C   UNL A   1      38.591  32.977  31.290  1.00  0.00     0.049 A 
ATOM     51  C   UNL A   1      43.522  30.726  32.682  1.00  0.00     0.074 A 
ATOM     52  C   UNL A   1      38.263  34.180  31.893  1.00  0.00     0.029 A 
ATOM     53  N   UNL A   1      39.850  32.629  31.756  1.00  0.00    -0.354 N 
ATOM     54  N   UNL A   1      42.400  31.368  32.465  1.00  0.00    -0.248 NA
ATOM     55  C   UNL A   1      44.455  31.424  33.575  1.00  0.00     0.031 C 
ATOM     56  C   UNL A   1      39.340  34.577  32.694  1.00  0.00     0.029 A 
ATOM     57  C   UNL A   1      40.323  33.604  32.619  1.00  0.00     0.049 A 
ATOM     58  H   UNL A   1      40.336  31.808  31.510  1.00  0.00     0.167 HD
ATOM     59  C   UNL A   1      42.490  32.545  33.195  1.00  0.00     0.074 A 
ATOM     60  C   UNL A   1      43.765  32.512  33.884  1.00  0.00     0.031 C 
ATOM     61  C   UNL A   1      41.601  33.564  33.283  1.00  0.00     0.037 A 
BRANCH  48  62
ATOM     62  C   UNL A   1      36.506  32.752  29.881  1.00  0.00     0.057 A 
ATOM     63  C   UNL A   1      36.442  33.536  28.722  1.00  0.00     0.134 A 
ATOM     64  C   UNL A   1      35.310  32.523  30.573  1.00  0.00     0.134 A 
ATOM     65  F   UNL A   1      37.552  33.799  28.016  1.00  0.00    -0.206 F 
ATOM     66  C   UNL A   1      35.234  34.068  28.265  1.00  0.00     0.040 A 
ATOM     67  C   UNL A   1      34.092  33.030  30.112  1.00  0.00     0.040 A 
ATOM     68  F   UNL A   1      35.300  31.768  31.682  1.00  0.00    -0.206 F 
ATOM     69  C   UNL A   1      34.054  33.809  28.957  1.00  0.00     0.006 A 
ENDBRANCH  48  62
BRANCH  49  70
ATOM     70  C   UNL A   1      45.281  28.821  32.529  1.00  0.00     0.057 A 
ATOM     71  C   UNL A   1      46.441  29.115  31.803  1.00  0.00     0.134 A 
ATOM     72  C   UNL A   1      45.399  27.952  33.618  1.00  0.00     0.134 A 
ATOM     73  F   UNL A   1      46.387  29.937  30.745  1.00  0.00    -0.206 F 
ATOM     74  C   UNL A   1      47.673  28.552  32.136  1.00  0.00     0.040 A 
ATOM     75  C   UNL A   1      46.630  27.400  33.977  1.00  0.00     0.040 A 
ATOM     76  F   UNL A   1      44.326  27.648  34.361  1.00  0.00    -0.206 F 
ATOM     77  C   UNL A   1      47.769  27.694  33.229  1.00  0.00     0.006 A 
ENDBRANCH  49  70
BRANCH  61  78
ATOM     78  C   UNL A   1      41.985  34.720  34.156  1.00  0.00     0.057 A 
ATOM     79  C   UNL A   1      42.658  35.827  33.627  1.00  0.00     0.134 A 
ATOM     80  C   UNL A   1      41.690  34.734  35.525  1.00  0.00     0.134 A 
ATOM     81  F   UNL A   1      42.973  35.874  32.323  1.00  0.00    -0.206 F 
ATOM     82  C   UNL A   1      43.021  36.910  34.428  1.00  0.00     0.040 A 
ATOM     83  C   UNL A   1      42.028  35.821  36.333  1.00  0.00     0.040 A 
ATOM     84  F   UNL A   1      41.031  33.710  36.090  1.00  0.00    -0.206 F 
ATOM     85  C   UNL A   1      42.700  36.912  35.784  1.00  0.00     0.006 A 
ENDBRANCH  61  78
ENDBRANCH  35  36
ENDBRANCH  27  30
ENDBRANCH  25  26
ENDBRANCH   1  25
TORSDOF 12
ENDMDL
MODEL 3
REMARK VINA RESULT:     -11.9      2.282      7.768
REMARK SMILES Cc1ccc2c(c1)OCCN2c1sc(C(=O)NCCCCNC(=O)c2ccc(-c3c4nc(c(-c5c(F)cccc5F)c5ccc([nH]5)c(-c5c(F)cccc5F)c5nc(c(-c6c(F)cccc6F)c6ccc3[nH]6)C=C5)C=C4)cc2)cc1C
REMARK SMILES IDX 20 1 19 2 18 3 17 4 15 5 16 6 14 8 12 9 13 10 80 11 79 12
REMARK SMILES IDX 81 13 11 14 1 15 2 16 3 17 7 18 4 19 6 20 5 21 8 22 9 23
REMARK SMILES IDX 10 24 21 25 22 26 23 27 24 29 25 30 26 31 78 32 27 33 77 34
REMARK SMILES IDX 28 35 29 36 30 37 71 38 31 39 76 40 70 41 72 42 32 43 75 44
REMARK SMILES IDX 69 45 68 46 33 48 59 49 42 50 58 51 43 52 46 53 57 54 73 55
REMARK SMILES IDX 44 56 45 57 56 59 74 60 47 61 34 62 35 63 40 64 36 65 37 66
REMARK SMILES IDX 39 67 41 68 38 69 60 70 61 71 66 72 62 73 63 74 65 75 67 76
REMARK SMILES IDX 64 77 48 78 49 79 54 80 50 81 51 82 53 83 55 84 52 85
REMARK H PARENT 17 7 22 28 72 47 46 58
REMARK Flexibility Score: inf
ROOT
ATOM      1  C   UNL A   1      37.782  20.223  25.004  1.00  0.00     0.023 C 
ENDROOT
BRANCH   1   2
ATOM      2  C   UNL A   1      37.118  21.495  24.463  1.00  0.00     0.023 C 
BRANCH   2   3
ATOM      3  C   UNL A   1      37.144  22.674  25.435  1.00  0.00     0.116 C 
BRANCH   3   4
ATOM      4  N   UNL A   1      36.133  22.523  26.463  1.00  0.00    -0.351 N 
ATOM      5  C   UNL A   1      34.830  22.948  26.561  1.00  0.00     0.261 C 
ATOM      6  O   UNL A   1      34.253  22.593  27.594  1.00  0.00    -0.268 OA
ATOM      7  H   UNL A   1      36.442  22.014  27.248  1.00  0.00     0.163 HD
BRANCH   5   8
ATOM      8  C   UNL A   1      34.131  23.696  25.525  1.00  0.00     0.094 A 
ATOM      9  C   UNL A   1      33.115  25.394  24.015  1.00  0.00     0.099 A 
ATOM     10  S   UNL A   1      33.445  25.245  25.694  1.00  0.00    -0.112 S 
ATOM     11  C   UNL A   1      33.251  24.166  23.384  1.00  0.00    -0.015 A 
ATOM     12  C   UNL A   1      33.841  23.200  24.264  1.00  0.00     0.031 A 
ATOM     13  C   UNL A   1      32.915  23.860  21.962  1.00  0.00     0.047 C 
BRANCH   9  14
ATOM     14  N   UNL A   1      32.709  26.566  23.449  1.00  0.00    -0.327 N 
ATOM     15  C   UNL A   1      27.327  28.616  23.122  1.00  0.00     0.044 C 
ATOM     16  C   UNL A   1      28.720  28.071  23.210  1.00  0.00    -0.047 A 
ATOM     17  C   UNL A   1      28.970  26.811  23.758  1.00  0.00     0.006 A 
ATOM     18  C   UNL A   1      29.804  28.837  22.772  1.00  0.00     0.052 A 
ATOM     19  C   UNL A   1      30.278  26.318  23.852  1.00  0.00     0.030 A 
ATOM     20  C   UNL A   1      31.109  28.343  22.868  1.00  0.00     0.143 A 
ATOM     21  C   UNL A   1      31.378  27.056  23.384  1.00  0.00     0.085 A 
ATOM     22  O   UNL A   1      32.090  29.203  22.423  1.00  0.00    -0.490 OA
ATOM     23  C   UNL A   1      33.388  28.838  22.905  1.00  0.00     0.251 C 
ATOM     24  C   UNL A   1      33.665  27.358  22.675  1.00  0.00     0.165 C 
ENDBRANCH   9  14
ENDBRANCH   5   8
ENDBRANCH   3   4
ENDBRANCH   2   3
ENDBRANCH   1   2
BRANCH   1  25
ATOM     25  C   UNL A   1      39.077  20.446  25.780  1.00  0.00     0.116 C 
BRANCH  25  26
ATOM     26  N   UNL A   1      39.968  19.295  25.780  1.00  0.00    -0.352 N 
ATOM     27  C   UNL A   1      41.316  19.261  26.052  1.00  0.00     0.251 C 
ATOM     28  H   UNL A   1      39.553  18.430  25.558  1.00  0.00     0.163 HD
ATOM     29  O   UNL A   1      41.955  18.222  25.922  1.00  0.00    -0.269 OA
BRANCH  27  30
ATOM     30  C   UNL A   1      42.000  20.509  26.448  1.00  0.00     0.039 A 
ATOM     31  C   UNL A   1      42.154  20.835  27.796  1.00  0.00     0.014 A 
ATOM     32  C   UNL A   1      42.435  21.390  25.454  1.00  0.00     0.014 A 
ATOM     33  C   UNL A   1      42.579  22.111  28.148  1.00  0.00     0.010 A 
ATOM     34  C   UNL A   1      42.937  22.643  25.813  1.00  0.00     0.010 A 
ATOM     35  C   UNL A   1      42.959  23.034  27.161  1.00  0.00    -0.014 A 
BRANCH  35  36
ATOM     36  C   UNL A   1      43.345  24.410  27.566  1.00  0.00     0.031 A 
ATOM     37  C   UNL A   1      44.777  24.865  27.477  1.00  0.00     0.074 A 
ATOM     38  C   UNL A   1      42.389  25.272  27.956  1.00  0.00     0.049 A 
ATOM     39  N   UNL A   1      45.287  26.042  27.745  1.00  0.00    -0.248 NA
ATOM     40  C   UNL A   1      45.768  23.870  27.041  1.00  0.00     0.031 C 
ATOM     41  C   UNL A   1      40.967  24.950  28.088  1.00  0.00     0.029 A 
ATOM     42  N   UNL A   1      42.464  26.599  28.293  1.00  0.00    -0.354 N 
ATOM     43  C   UNL A   1      46.655  25.921  27.535  1.00  0.00     0.074 A 
ATOM     44  C   UNL A   1      46.900  24.550  27.141  1.00  0.00     0.031 C 
ATOM     45  C   UNL A   1      40.297  26.059  28.434  1.00  0.00     0.029 A 
ATOM     46  C   UNL A   1      41.245  27.155  28.596  1.00  0.00     0.049 A 
ATOM     47  H   UNL A   1      43.308  27.104  28.314  1.00  0.00     0.167 HD
ATOM     48  C   UNL A   1      47.618  26.868  27.647  1.00  0.00     0.037 A 
ATOM     49  C   UNL A   1      40.928  28.407  28.972  1.00  0.00     0.037 A 
ATOM     50  C   UNL A   1      47.372  28.239  28.012  1.00  0.00     0.049 A 
ATOM     51  C   UNL A   1      42.013  29.435  29.097  1.00  0.00     0.074 A 
ATOM     52  C   UNL A   1      48.275  29.285  28.105  1.00  0.00     0.029 A 
ATOM     53  N   UNL A   1      46.129  28.755  28.347  1.00  0.00    -0.354 N 
ATOM     54  N   UNL A   1      43.297  29.313  28.863  1.00  0.00    -0.248 NA
ATOM     55  C   UNL A   1      41.605  30.773  29.542  1.00  0.00     0.031 C 
ATOM     56  C   UNL A   1      47.583  30.424  28.535  1.00  0.00     0.029 A 
ATOM     57  C   UNL A   1      46.244  30.098  28.671  1.00  0.00     0.049 A 
ATOM     58  H   UNL A   1      45.288  28.243  28.353  1.00  0.00     0.167 HD
ATOM     59  C   UNL A   1      43.851  30.557  29.131  1.00  0.00     0.074 A 
ATOM     60  C   UNL A   1      42.758  31.427  29.516  1.00  0.00     0.031 C 
ATOM     61  C   UNL A   1      45.149  30.944  29.069  1.00  0.00     0.037 A 
BRANCH  48  62
ATOM     62  C   UNL A   1      49.035  26.441  27.394  1.00  0.00     0.057 A 
ATOM     63  C   UNL A   1      49.854  26.030  28.453  1.00  0.00     0.134 A 
ATOM     64  C   UNL A   1      49.594  26.449  26.109  1.00  0.00     0.134 A 
ATOM     65  F   UNL A   1      49.384  26.006  29.708  1.00  0.00    -0.206 F 
ATOM     66  C   UNL A   1      51.178  25.636  28.243  1.00  0.00     0.040 A 
ATOM     67  C   UNL A   1      50.909  26.034  25.884  1.00  0.00     0.040 A 
ATOM     68  F   UNL A   1      48.859  26.817  25.050  1.00  0.00    -0.206 F 
ATOM     69  C   UNL A   1      51.706  25.630  26.954  1.00  0.00     0.006 A 
ENDBRANCH  48  62
BRANCH  49  70
ATOM     70  C   UNL A   1      39.515  28.747  29.265  1.00  0.00     0.057 A 
ATOM     71  C   UNL A   1      38.987  28.600  30.554  1.00  0.00     0.134 A 
ATOM     72  C   UNL A   1      38.658  29.210  28.261  1.00  0.00     0.134 A 
ATOM     73  F   UNL A   1      39.758  28.154  31.555  1.00  0.00    -0.206 F 
ATOM     74  C   UNL A   1      37.650  28.887  30.831  1.00  0.00     0.040 A 
ATOM     75  C   UNL A   1      37.325  29.523  28.530  1.00  0.00     0.040 A 
ATOM     76  F   UNL A   1      39.113  29.387  27.013  1.00  0.00    -0.206 F 
ATOM     77  C   UNL A   1      36.817  29.354  29.817  1.00  0.00     0.006 A 
ENDBRANCH  49  70
BRANCH  61  78
ATOM     78  C   UNL A   1      45.445  32.369  29.429  1.00  0.00     0.057 A 
ATOM     79  C   UNL A   1      45.803  32.720  30.735  1.00  0.00     0.134 A 
ATOM     80  C   UNL A   1      45.371  33.394  28.477  1.00  0.00     0.134 A 
ATOM     81  F   UNL A   1      45.888  31.785  31.693  1.00  0.00    -0.206 F 
ATOM     82  C   UNL A   1      46.082  34.042  31.083  1.00  0.00     0.040 A 
ATOM     83  C   UNL A   1      45.669  34.717  28.808  1.00  0.00     0.040 A 
ATOM     84  F   UNL A   1      45.049  33.120  27.203  1.00  0.00    -0.206 F 
ATOM     85  C   UNL A   1      46.022  35.044  30.116  1.00  0.00     0.006 A 
ENDBRANCH  61  78
ENDBRANCH  35  36
ENDBRANCH  27  30
ENDBRANCH  25  26
ENDBRANCH   1  25
TORSDOF 12
ENDMDL
