MODEL 1
REMARK VINA RESULT:     -12.6      0.000      0.000
REMARK SMILES O=C(NCCCCNC(=O)C1CCN(c2ccc(C(F)(F)F)cc2[N+](=O)[O-])CC1)c1ccc(-c2c3nc(c(-c4c(F)cccc4F)c4ccc([nH]4)c(-c4c(F)cccc4F)c4nc(c(-c5c(F)cccc5F)c5ccc2[nH]5)C=C4)C=C3)cc1
REMARK SMILES IDX 5 1 4 2 3 3 1 4 2 5 30 7 31 8 83 9 32 10 82 11 33 12 34 13
REMARK SMILES IDX 35 14 76 15 36 16 81 17 75 18 77 19 37 20 80 21 74 22 73 23
REMARK SMILES IDX 38 25 64 26 47 27 63 28 48 29 51 30 62 31 78 32 49 33 50 34
REMARK SMILES IDX 61 36 79 37 52 38 39 39 40 40 45 41 41 42 42 43 44 44 46 45
REMARK SMILES IDX 43 46 65 47 66 48 71 49 67 50 68 51 70 52 72 53 69 54 53 55
REMARK SMILES IDX 54 56 59 57 55 58 56 59 58 60 60 61 57 62 6 63 7 64 8 65
REMARK SMILES IDX 9 66 10 68 11 69 12 70 29 71 13 72 28 73 14 74 15 75 16 76
REMARK SMILES IDX 24 77 17 78 23 79 18 80 25 81 26 82 27 83 19 84 20 85 21 86
REMARK SMILES IDX 22 87
REMARK H PARENT 3 6 77 24 51 35 8 67
REMARK Flexibility Score: inf
ROOT
ATOM      1  C   UNL A   1      38.025  19.661  25.022  1.00  0.00     0.023 C 
ENDROOT
BRANCH   1   2
ATOM      2  C   UNL A   1      39.264  20.060  25.814  1.00  0.00     0.116 C 
BRANCH   2   3
ATOM      3  N   UNL A   1      40.284  19.023  25.850  1.00  0.00    -0.352 N 
ATOM      4  O   UNL A   1      42.379  18.188  25.997  1.00  0.00    -0.269 OA
ATOM      5  C   UNL A   1      41.627  19.151  26.118  1.00  0.00     0.251 C 
ATOM      6  H   UNL A   1      39.972  18.109  25.657  1.00  0.00     0.163 HD
BRANCH   5   7
ATOM      7  C   UNL A   1      42.167  20.467  26.520  1.00  0.00     0.039 A 
ATOM      8  C   UNL A   1      42.199  20.836  27.865  1.00  0.00     0.014 A 
ATOM      9  C   UNL A   1      42.619  21.352  25.537  1.00  0.00     0.014 A 
ATOM     10  C   UNL A   1      42.533  22.138  28.213  1.00  0.00     0.010 A 
ATOM     11  C   UNL A   1      43.041  22.637  25.899  1.00  0.00     0.010 A 
ATOM     12  C   UNL A   1      42.967  23.051  27.236  1.00  0.00    -0.014 A 
BRANCH  12  13
ATOM     13  C   UNL A   1      43.387  24.409  27.669  1.00  0.00     0.031 A 
ATOM     14  C   UNL A   1      44.821  24.850  27.593  1.00  0.00     0.074 A 
ATOM     15  C   UNL A   1      42.433  25.272  28.069  1.00  0.00     0.049 A 
ATOM     16  N   UNL A   1      45.331  26.029  27.853  1.00  0.00    -0.248 NA
ATOM     17  C   UNL A   1      45.813  23.846  27.182  1.00  0.00     0.031 C 
ATOM     18  C   UNL A   1      41.010  24.948  28.207  1.00  0.00     0.029 A 
ATOM     19  N   UNL A   1      42.505  26.601  28.399  1.00  0.00    -0.354 N 
ATOM     20  C   UNL A   1      46.700  25.907  27.646  1.00  0.00     0.074 A 
ATOM     21  C   UNL A   1      46.946  24.531  27.268  1.00  0.00     0.031 C 
ATOM     22  C   UNL A   1      40.336  26.061  28.529  1.00  0.00     0.029 A 
ATOM     23  C   UNL A   1      41.282  27.161  28.676  1.00  0.00     0.049 A 
ATOM     24  H   UNL A   1      43.350  27.105  28.433  1.00  0.00     0.167 HD
ATOM     25  C   UNL A   1      47.659  26.858  27.752  1.00  0.00     0.037 A 
ATOM     26  C   UNL A   1      40.954  28.421  29.013  1.00  0.00     0.037 A 
ATOM     27  C   UNL A   1      47.409  28.229  28.120  1.00  0.00     0.049 A 
ATOM     28  C   UNL A   1      42.035  29.455  29.109  1.00  0.00     0.074 A 
ATOM     29  C   UNL A   1      48.316  29.267  28.251  1.00  0.00     0.029 A 
ATOM     30  N   UNL A   1      46.160  28.754  28.412  1.00  0.00    -0.354 N 
ATOM     31  N   UNL A   1      43.321  29.324  28.895  1.00  0.00    -0.248 NA
ATOM     32  C   UNL A   1      41.620  30.811  29.493  1.00  0.00     0.031 C 
ATOM     33  C   UNL A   1      47.619  30.414  28.650  1.00  0.00     0.029 A 
ATOM     34  C   UNL A   1      46.272  30.099  28.730  1.00  0.00     0.049 A 
ATOM     35  H   UNL A   1      45.316  28.247  28.395  1.00  0.00     0.167 HD
ATOM     36  C   UNL A   1      43.871  30.578  29.120  1.00  0.00     0.074 A 
ATOM     37  C   UNL A   1      42.772  31.464  29.450  1.00  0.00     0.031 C 
ATOM     38  C   UNL A   1      45.170  30.960  29.067  1.00  0.00     0.037 A 
BRANCH  25  39
ATOM     39  C   UNL A   1      49.076  26.452  27.470  1.00  0.00     0.057 A 
ATOM     40  C   UNL A   1      49.936  26.026  28.490  1.00  0.00     0.134 A 
ATOM     41  C   UNL A   1      49.569  26.431  26.158  1.00  0.00     0.134 A 
ATOM     42  F   UNL A   1      49.531  26.033  29.769  1.00  0.00    -0.206 F 
ATOM     43  C   UNL A   1      51.240  25.604  28.217  1.00  0.00     0.040 A 
ATOM     44  C   UNL A   1      50.862  25.992  25.871  1.00  0.00     0.040 A 
ATOM     45  F   UNL A   1      48.795  26.821  25.134  1.00  0.00    -0.206 F 
ATOM     46  C   UNL A   1      51.704  25.579  26.903  1.00  0.00     0.006 A 
ENDBRANCH  25  39
BRANCH  26  47
ATOM     47  C   UNL A   1      39.537  28.764  29.286  1.00  0.00     0.057 A 
ATOM     48  C   UNL A   1      38.700  29.255  28.278  1.00  0.00     0.134 A 
ATOM     49  C   UNL A   1      38.982  28.590  30.560  1.00  0.00     0.134 A 
ATOM     50  F   UNL A   1      39.180  29.456  27.041  1.00  0.00    -0.206 F 
ATOM     51  C   UNL A   1      37.367  29.576  28.530  1.00  0.00     0.040 A 
ATOM     52  C   UNL A   1      37.644  28.881  30.819  1.00  0.00     0.040 A 
ATOM     53  F   UNL A   1      39.731  28.113  31.564  1.00  0.00    -0.206 F 
ATOM     54  C   UNL A   1      36.833  29.383  29.804  1.00  0.00     0.006 A 
ENDBRANCH  26  47
BRANCH  38  55
ATOM     55  C   UNL A   1      45.459  32.398  29.374  1.00  0.00     0.057 A 
ATOM     56  C   UNL A   1      45.755  32.825  30.675  1.00  0.00     0.134 A 
ATOM     57  C   UNL A   1      45.445  33.364  28.361  1.00  0.00     0.134 A 
ATOM     58  F   UNL A   1      45.769  31.948  31.692  1.00  0.00    -0.206 F 
ATOM     59  C   UNL A   1      45.997  34.168  30.964  1.00  0.00     0.040 A 
ATOM     60  C   UNL A   1      45.707  34.707  28.634  1.00  0.00     0.040 A 
ATOM     61  F   UNL A   1      45.173  33.019  27.094  1.00  0.00    -0.206 F 
ATOM     62  C   UNL A   1      45.977  35.113  29.940  1.00  0.00     0.006 A 
ENDBRANCH  38  55
ENDBRANCH  12  13
ENDBRANCH   5   7
ENDBRANCH   2   3
ENDBRANCH   1   2
BRANCH   1  63
ATOM     63  C   UNL A   1      37.111  20.817  24.616  1.00  0.00     0.023 C 
BRANCH  63  64
ATOM     64  C   UNL A   1      36.179  21.314  25.718  1.00  0.00     0.116 C 
BRANCH  64  65
ATOM     65  N   UNL A   1      34.837  20.781  25.572  1.00  0.00    -0.356 N 
ATOM     66  C   UNL A   1      33.806  21.229  24.798  1.00  0.00     0.223 C 
ATOM     67  H   UNL A   1      34.641  19.979  26.110  1.00  0.00     0.163 HD
ATOM     68  O   UNL A   1      32.707  20.692  24.923  1.00  0.00    -0.275 OA
BRANCH  66  69
ATOM     69  C   UNL A   1      34.071  22.347  23.800  1.00  0.00     0.082 C 
ATOM     70  C   UNL A   1      34.241  23.711  24.494  1.00  0.00     0.035 C 
ATOM     71  C   UNL A   1      32.959  22.384  22.734  1.00  0.00     0.035 C 
ATOM     72  C   UNL A   1      32.920  24.341  24.932  1.00  0.00     0.117 C 
ATOM     73  C   UNL A   1      31.664  22.996  23.268  1.00  0.00     0.117 C 
ATOM     74  N   UNL A   1      31.986  24.306  23.811  1.00  0.00    -0.366 N 
BRANCH  74  75
ATOM     75  C   UNL A   1      31.282  25.437  23.458  1.00  0.00     0.116 A 
ATOM     76  C   UNL A   1      30.146  25.766  24.219  1.00  0.00     0.034 A 
ATOM     77  C   UNL A   1      31.621  26.331  22.429  1.00  0.00     0.293 A 
ATOM     78  C   UNL A   1      29.411  26.935  23.991  1.00  0.00     0.016 A 
ATOM     79  C   UNL A   1      30.893  27.511  22.183  1.00  0.00     0.101 A 
ATOM     80  C   UNL A   1      29.781  27.825  22.974  1.00  0.00     0.062 A 
BRANCH  77  81
ATOM     81  N   UNL A   1      32.729  26.049  21.533  1.00  0.00     0.064 N 
ATOM     82  O   UNL A   1      32.449  25.496  20.459  1.00  0.00    -0.258 OA
ATOM     83  O   UNL A   1      33.873  26.328  21.917  1.00  0.00    -0.258 OA
ENDBRANCH  77  81
BRANCH  80  84
ATOM     84  C   UNL A   1      28.986  29.090  22.754  1.00  0.00     0.416 C 
ATOM     85  F   UNL A   1      29.242  29.660  21.547  1.00  0.00    -0.166 F 
ATOM     86  F   UNL A   1      27.643  28.868  22.789  1.00  0.00    -0.166 F 
ATOM     87  F   UNL A   1      29.232  30.052  23.684  1.00  0.00    -0.166 F 
ENDBRANCH  80  84
ENDBRANCH  74  75
ENDBRANCH  66  69
ENDBRANCH  64  65
ENDBRANCH  63  64
ENDBRANCH   1  63
TORSDOF 14
ENDMDL
MODEL 2
REMARK VINA RESULT:     -12.6      5.397     10.286
REMARK SMILES O=C(NCCCCNC(=O)C1CCN(c2ccc(C(F)(F)F)cc2[N+](=O)[O-])CC1)c1ccc(-c2c3nc(c(-c4c(F)cccc4F)c4ccc([nH]4)c(-c4c(F)cccc4F)c4nc(c(-c5c(F)cccc5F)c5ccc2[nH]5)C=C4)C=C3)cc1
REMARK SMILES IDX 5 1 4 2 3 3 1 4 2 5 30 7 31 8 83 9 32 10 82 11 33 12 34 13
REMARK SMILES IDX 35 14 76 15 36 16 81 17 75 18 77 19 37 20 80 21 74 22 73 23
REMARK SMILES IDX 38 25 64 26 47 27 63 28 48 29 51 30 62 31 78 32 49 33 50 34
REMARK SMILES IDX 61 36 79 37 52 38 39 39 40 40 45 41 41 42 42 43 44 44 46 45
REMARK SMILES IDX 43 46 65 47 66 48 71 49 67 50 68 51 70 52 72 53 69 54 53 55
REMARK SMILES IDX 54 56 59 57 55 58 56 59 58 60 60 61 57 62 6 63 7 64 8 65
REMARK SMILES IDX 9 66 10 68 11 69 12 70 29 71 13 72 28 73 14 74 15 75 16 76
REMARK SMILES IDX 24 77 17 78 23 79 18 80 25 81 26 82 27 83 19 84 20 85 21 86
REMARK SMILES IDX 22 87
REMARK H PARENT 3 6 77 24 51 35 8 67
REMARK Flexibility Score: inf
ROOT
ATOM      1  C   UNL A   1      31.417  32.149  26.526  1.00  0.00     0.023 C 
ENDROOT
BRANCH   1   2
ATOM      2  C   UNL A   1      32.569  32.819  27.263  1.00  0.00     0.116 C 
BRANCH   2   3
ATOM      3  N   UNL A   1      32.285  34.192  27.651  1.00  0.00    -0.352 N 
ATOM      4  O   UNL A   1      32.511  36.088  28.861  1.00  0.00    -0.269 OA
ATOM      5  C   UNL A   1      32.947  34.981  28.563  1.00  0.00     0.251 C 
ATOM      6  H   UNL A   1      31.516  34.613  27.201  1.00  0.00     0.163 HD
BRANCH   5   7
ATOM      7  C   UNL A   1      34.174  34.468  29.211  1.00  0.00     0.039 A 
ATOM      8  C   UNL A   1      35.419  34.648  28.607  1.00  0.00     0.014 A 
ATOM      9  C   UNL A   1      34.073  33.777  30.422  1.00  0.00     0.014 A 
ATOM     10  C   UNL A   1      36.534  34.006  29.128  1.00  0.00     0.010 A 
ATOM     11  C   UNL A   1      35.215  33.206  30.994  1.00  0.00     0.010 A 
ATOM     12  C   UNL A   1      36.448  33.285  30.332  1.00  0.00    -0.014 A 
BRANCH  12  13
ATOM     13  C   UNL A   1      37.686  32.682  30.888  1.00  0.00     0.031 A 
ATOM     14  C   UNL A   1      38.270  33.146  32.193  1.00  0.00     0.074 A 
ATOM     15  C   UNL A   1      38.243  31.648  30.227  1.00  0.00     0.049 A 
ATOM     16  N   UNL A   1      39.295  32.662  32.850  1.00  0.00    -0.248 NA
ATOM     17  C   UNL A   1      37.633  34.300  32.842  1.00  0.00     0.031 C 
ATOM     18  C   UNL A   1      37.778  31.127  28.938  1.00  0.00     0.029 A 
ATOM     19  N   UNL A   1      39.292  30.830  30.557  1.00  0.00    -0.354 N 
ATOM     20  C   UNL A   1      39.431  33.456  33.983  1.00  0.00     0.074 A 
ATOM     21  C   UNL A   1      38.403  34.472  33.909  1.00  0.00     0.031 C 
ATOM     22  C   UNL A   1      38.496  30.041  28.620  1.00  0.00     0.029 A 
ATOM     23  C   UNL A   1      39.505  29.822  29.650  1.00  0.00     0.049 A 
ATOM     24  H   UNL A   1      39.839  30.952  31.367  1.00  0.00     0.167 HD
ATOM     25  C   UNL A   1      40.326  33.339  34.994  1.00  0.00     0.037 A 
ATOM     26  C   UNL A   1      40.412  28.830  29.642  1.00  0.00     0.037 A 
ATOM     27  C   UNL A   1      41.343  32.321  35.069  1.00  0.00     0.049 A 
ATOM     28  C   UNL A   1      41.380  28.718  30.781  1.00  0.00     0.074 A 
ATOM     29  C   UNL A   1      42.293  32.120  36.056  1.00  0.00     0.029 A 
ATOM     30  N   UNL A   1      41.539  31.329  34.120  1.00  0.00    -0.354 N 
ATOM     31  N   UNL A   1      41.484  29.469  31.851  1.00  0.00    -0.248 NA
ATOM     32  C   UNL A   1      42.357  27.623  30.714  1.00  0.00     0.031 C 
ATOM     33  C   UNL A   1      43.083  31.023  35.691  1.00  0.00     0.029 A 
ATOM     34  C   UNL A   1      42.600  30.518  34.494  1.00  0.00     0.049 A 
ATOM     35  H   UNL A   1      41.004  31.216  33.302  1.00  0.00     0.167 HD
ATOM     36  C   UNL A   1      42.536  28.939  32.583  1.00  0.00     0.074 A 
ATOM     37  C   UNL A   1      43.014  27.782  31.854  1.00  0.00     0.031 C 
ATOM     38  C   UNL A   1      43.067  29.378  33.751  1.00  0.00     0.037 A 
BRANCH  25  39
ATOM     39  C   UNL A   1      40.251  34.342  36.109  1.00  0.00     0.057 A 
ATOM     40  C   UNL A   1      40.917  35.572  36.037  1.00  0.00     0.134 A 
ATOM     41  C   UNL A   1      39.459  34.102  37.239  1.00  0.00     0.134 A 
ATOM     42  F   UNL A   1      41.702  35.860  34.987  1.00  0.00    -0.206 F 
ATOM     43  C   UNL A   1      40.807  36.523  37.054  1.00  0.00     0.040 A 
ATOM     44  C   UNL A   1      39.324  35.053  38.252  1.00  0.00     0.040 A 
ATOM     45  F   UNL A   1      38.789  32.947  37.367  1.00  0.00    -0.206 F 
ATOM     46  C   UNL A   1      40.003  36.267  38.163  1.00  0.00     0.006 A 
ENDBRANCH  25  39
BRANCH  26  47
ATOM     47  C   UNL A   1      40.443  27.869  28.512  1.00  0.00     0.057 A 
ATOM     48  C   UNL A   1      41.177  28.135  27.351  1.00  0.00     0.134 A 
ATOM     49  C   UNL A   1      39.751  26.654  28.577  1.00  0.00     0.134 A 
ATOM     50  F   UNL A   1      41.848  29.290  27.226  1.00  0.00    -0.206 F 
ATOM     51  C   UNL A   1      41.210  27.233  26.288  1.00  0.00     0.040 A 
ATOM     52  C   UNL A   1      39.798  25.731  27.533  1.00  0.00     0.040 A 
ATOM     53  F   UNL A   1      39.039  26.338  29.668  1.00  0.00    -0.206 F 
ATOM     54  C   UNL A   1      40.524  26.023  26.380  1.00  0.00     0.006 A 
ENDBRANCH  26  47
BRANCH  38  55
ATOM     55  C   UNL A   1      44.221  28.595  34.299  1.00  0.00     0.057 A 
ATOM     56  C   UNL A   1      45.547  28.957  34.028  1.00  0.00     0.134 A 
ATOM     57  C   UNL A   1      44.005  27.472  35.107  1.00  0.00     0.134 A 
ATOM     58  F   UNL A   1      45.817  30.015  33.249  1.00  0.00    -0.206 F 
ATOM     59  C   UNL A   1      46.619  28.211  34.518  1.00  0.00     0.040 A 
ATOM     60  C   UNL A   1      45.070  26.731  35.620  1.00  0.00     0.040 A 
ATOM     61  F   UNL A   1      42.759  27.077  35.406  1.00  0.00    -0.206 F 
ATOM     62  C   UNL A   1      46.382  27.095  35.320  1.00  0.00     0.006 A 
ENDBRANCH  38  55
ENDBRANCH  12  13
ENDBRANCH   5   7
ENDBRANCH   2   3
ENDBRANCH   1   2
BRANCH   1  63
ATOM     63  C   UNL A   1      31.446  30.620  26.520  1.00  0.00     0.023 C 
BRANCH  63  64
ATOM     64  C   UNL A   1      32.375  30.002  25.478  1.00  0.00     0.116 C 
BRANCH  64  65
ATOM     65  N   UNL A   1      31.645  29.538  24.312  1.00  0.00    -0.356 N 
ATOM     66  C   UNL A   1      31.105  28.310  24.060  1.00  0.00     0.223 C 
ATOM     67  H   UNL A   1      31.521  30.206  23.599  1.00  0.00     0.163 HD
ATOM     68  O   UNL A   1      30.632  28.100  22.944  1.00  0.00    -0.275 OA
BRANCH  66  69
ATOM     69  C   UNL A   1      31.088  27.273  25.173  1.00  0.00     0.082 C 
ATOM     70  C   UNL A   1      32.457  26.593  25.349  1.00  0.00     0.035 C 
ATOM     71  C   UNL A   1      29.967  26.246  24.927  1.00  0.00     0.035 C 
ATOM     72  C   UNL A   1      32.750  25.530  24.291  1.00  0.00     0.117 C 
ATOM     73  C   UNL A   1      30.329  25.245  23.831  1.00  0.00     0.117 C 
ATOM     74  N   UNL A   1      31.601  24.636  24.189  1.00  0.00    -0.366 N 
BRANCH  74  75
ATOM     75  C   UNL A   1      31.779  23.271  24.204  1.00  0.00     0.116 A 
ATOM     76  C   UNL A   1      32.162  22.646  23.004  1.00  0.00     0.034 A 
ATOM     77  C   UNL A   1      31.662  22.437  25.328  1.00  0.00     0.293 A 
ATOM     78  C   UNL A   1      32.445  21.277  22.935  1.00  0.00     0.016 A 
ATOM     79  C   UNL A   1      31.940  21.057  25.278  1.00  0.00     0.101 A 
ATOM     80  C   UNL A   1      32.344  20.468  24.074  1.00  0.00     0.062 A 
BRANCH  77  81
ATOM     81  N   UNL A   1      31.199  22.963  26.600  1.00  0.00     0.064 N 
ATOM     82  O   UNL A   1      32.065  23.412  27.365  1.00  0.00    -0.258 OA
ATOM     83  O   UNL A   1      29.990  22.883  26.858  1.00  0.00    -0.258 OA
ENDBRANCH  77  81
BRANCH  80  84
ATOM     84  C   UNL A   1      32.670  18.996  23.984  1.00  0.00     0.416 C 
ATOM     85  F   UNL A   1      34.004  18.754  24.096  1.00  0.00    -0.166 F 
ATOM     86  F   UNL A   1      32.071  18.273  24.969  1.00  0.00    -0.166 F 
ATOM     87  F   UNL A   1      32.282  18.427  22.810  1.00  0.00    -0.166 F 
ENDBRANCH  80  84
ENDBRANCH  74  75
ENDBRANCH  66  69
ENDBRANCH  64  65
ENDBRANCH  63  64
ENDBRANCH   1  63
TORSDOF 14
ENDMDL
MODEL 3
REMARK VINA RESULT:     -12.6      5.568     10.435
REMARK SMILES O=C(NCCCCNC(=O)C1CCN(c2ccc(C(F)(F)F)cc2[N+](=O)[O-])CC1)c1ccc(-c2c3nc(c(-c4c(F)cccc4F)c4ccc([nH]4)c(-c4c(F)cccc4F)c4nc(c(-c5c(F)cccc5F)c5ccc2[nH]5)C=C4)C=C3)cc1
REMARK SMILES IDX 5 1 4 2 3 3 1 4 2 5 30 7 31 8 83 9 32 10 82 11 33 12 34 13
REMARK SMILES IDX 35 14 76 15 36 16 81 17 75 18 77 19 37 20 80 21 74 22 73 23
REMARK SMILES IDX 38 25 64 26 47 27 63 28 48 29 51 30 62 31 78 32 49 33 50 34
REMARK SMILES IDX 61 36 79 37 52 38 39 39 40 40 45 41 41 42 42 43 44 44 46 45
REMARK SMILES IDX 43 46 65 47 66 48 71 49 67 50 68 51 70 52 72 53 69 54 53 55
REMARK SMILES IDX 54 56 59 57 55 58 56 59 58 60 60 61 57 62 6 63 7 64 8 65
REMARK SMILES IDX 9 66 10 68 11 69 12 70 29 71 13 72 28 73 14 74 15 75 16 76
REMARK SMILES IDX 24 77 17 78 23 79 18 80 25 81 26 82 27 83 19 84 20 85 21 86
REMARK SMILES IDX 22 87
REMARK H PARENT 3 6 77 24 51 35 8 67
REMARK Flexibility Score: inf
ROOT
ATOM      1  C   UNL A   1      31.403  32.114  26.646  1.00  0.00     0.023 C 
ENDROOT
BRANCH   1   2
ATOM      2  C   UNL A   1      32.613  32.832  27.230  1.00  0.00     0.116 C 
BRANCH   2   3
ATOM      3  N   UNL A   1      32.333  34.205  27.626  1.00  0.00    -0.352 N 
ATOM      4  O   UNL A   1      32.527  36.075  28.879  1.00  0.00    -0.269 OA
ATOM      5  C   UNL A   1      32.959  34.965  28.587  1.00  0.00     0.251 C 
ATOM      6  H   UNL A   1      31.598  34.648  27.142  1.00  0.00     0.163 HD
BRANCH   5   7
ATOM      7  C   UNL A   1      34.139  34.418  29.291  1.00  0.00     0.039 A 
ATOM      8  C   UNL A   1      35.416  34.571  28.751  1.00  0.00     0.014 A 
ATOM      9  C   UNL A   1      33.961  33.722  30.490  1.00  0.00     0.014 A 
ATOM     10  C   UNL A   1      36.489  33.899  29.322  1.00  0.00     0.010 A 
ATOM     11  C   UNL A   1      35.059  33.119  31.113  1.00  0.00     0.010 A 
ATOM     12  C   UNL A   1      36.325  33.172  30.515  1.00  0.00    -0.014 A 
BRANCH  12  13
ATOM     13  C   UNL A   1      37.518  32.535  31.128  1.00  0.00     0.031 A 
ATOM     14  C   UNL A   1      37.974  32.888  32.515  1.00  0.00     0.074 A 
ATOM     15  C   UNL A   1      38.151  31.570  30.433  1.00  0.00     0.049 A 
ATOM     16  N   UNL A   1      38.944  32.359  33.220  1.00  0.00    -0.248 NA
ATOM     17  C   UNL A   1      37.259  33.974  33.202  1.00  0.00     0.031 C 
ATOM     18  C   UNL A   1      37.815  31.159  29.067  1.00  0.00     0.029 A 
ATOM     19  N   UNL A   1      39.181  30.736  30.786  1.00  0.00    -0.354 N 
ATOM     20  C   UNL A   1      38.962  33.051  34.425  1.00  0.00     0.074 A 
ATOM     21  C   UNL A   1      37.927  34.059  34.345  1.00  0.00     0.031 C 
ATOM     22  C   UNL A   1      38.578  30.113  28.722  1.00  0.00     0.029 A 
ATOM     23  C   UNL A   1      39.493  29.814  29.817  1.00  0.00     0.049 A 
ATOM     24  H   UNL A   1      39.650  30.792  31.650  1.00  0.00     0.167 HD
ATOM     25  C   UNL A   1      39.764  32.855  35.499  1.00  0.00     0.037 A 
ATOM     26  C   UNL A   1      40.416  28.836  29.807  1.00  0.00     0.037 A 
ATOM     27  C   UNL A   1      40.789  31.845  35.579  1.00  0.00     0.049 A 
ATOM     28  C   UNL A   1      41.279  28.635  31.016  1.00  0.00     0.074 A 
ATOM     29  C   UNL A   1      41.650  31.568  36.627  1.00  0.00     0.029 A 
ATOM     30  N   UNL A   1      41.088  30.942  34.569  1.00  0.00    -0.354 N 
ATOM     31  N   UNL A   1      41.272  29.289  32.151  1.00  0.00    -0.248 NA
ATOM     32  C   UNL A   1      42.277  27.559  30.944  1.00  0.00     0.031 C 
ATOM     33  C   UNL A   1      42.489  30.516  36.242  1.00  0.00     0.029 A 
ATOM     34  C   UNL A   1      42.125  30.112  34.967  1.00  0.00     0.049 A 
ATOM     35  H   UNL A   1      40.631  30.896  33.699  1.00  0.00     0.167 HD
ATOM     36  C   UNL A   1      42.263  28.708  32.929  1.00  0.00     0.074 A 
ATOM     37  C   UNL A   1      42.826  27.624  32.148  1.00  0.00     0.031 C 
ATOM     38  C   UNL A   1      42.678  29.048  34.173  1.00  0.00     0.037 A 
BRANCH  25  39
ATOM     39  C   UNL A   1      39.571  33.756  36.685  1.00  0.00     0.057 A 
ATOM     40  C   UNL A   1      38.763  33.384  37.767  1.00  0.00     0.134 A 
ATOM     41  C   UNL A   1      40.245  34.981  36.774  1.00  0.00     0.134 A 
ATOM     42  F   UNL A   1      38.080  32.229  37.740  1.00  0.00    -0.206 F 
ATOM     43  C   UNL A   1      38.623  34.203  38.889  1.00  0.00     0.040 A 
ATOM     44  C   UNL A   1      40.129  35.798  37.899  1.00  0.00     0.040 A 
ATOM     45  F   UNL A   1      41.040  35.394  35.775  1.00  0.00    -0.206 F 
ATOM     46  C   UNL A   1      39.313  35.412  38.961  1.00  0.00     0.006 A 
ENDBRANCH  25  39
BRANCH  26  47
ATOM     47  C   UNL A   1      40.566  27.979  28.605  1.00  0.00     0.057 A 
ATOM     48  C   UNL A   1      41.389  28.359  27.539  1.00  0.00     0.134 A 
ATOM     49  C   UNL A   1      39.902  26.751  28.505  1.00  0.00     0.134 A 
ATOM     50  F   UNL A   1      42.039  29.531  27.573  1.00  0.00    -0.206 F 
ATOM     51  C   UNL A   1      41.534  27.554  26.409  1.00  0.00     0.040 A 
ATOM     52  C   UNL A   1      40.060  25.924  27.394  1.00  0.00     0.040 A 
ATOM     53  F   UNL A   1      39.108  26.328  29.499  1.00  0.00    -0.206 F 
ATOM     54  C   UNL A   1      40.873  26.328  26.338  1.00  0.00     0.006 A 
ENDBRANCH  26  47
BRANCH  38  55
ATOM     55  C   UNL A   1      43.792  28.231  34.755  1.00  0.00     0.057 A 
ATOM     56  C   UNL A   1      43.539  27.066  35.490  1.00  0.00     0.134 A 
ATOM     57  C   UNL A   1      45.127  28.611  34.578  1.00  0.00     0.134 A 
ATOM     58  F   UNL A   1      42.279  26.658  35.706  1.00  0.00    -0.206 F 
ATOM     59  C   UNL A   1      44.576  26.321  36.053  1.00  0.00     0.040 A 
ATOM     60  C   UNL A   1      46.173  27.864  35.118  1.00  0.00     0.040 A 
ATOM     61  F   UNL A   1      45.435  29.715  33.881  1.00  0.00    -0.206 F 
ATOM     62  C   UNL A   1      45.899  26.719  35.865  1.00  0.00     0.006 A 
ENDBRANCH  38  55
ENDBRANCH  12  13
ENDBRANCH   5   7
ENDBRANCH   2   3
ENDBRANCH   1   2
BRANCH   1  63
ATOM     63  C   UNL A   1      31.519  30.591  26.579  1.00  0.00     0.023 C 
BRANCH  63  64
ATOM     64  C   UNL A   1      32.399  30.065  25.448  1.00  0.00     0.116 C 
BRANCH  64  65
ATOM     65  N   UNL A   1      31.612  29.609  24.317  1.00  0.00    -0.356 N 
ATOM     66  C   UNL A   1      31.030  28.394  24.100  1.00  0.00     0.223 C 
ATOM     67  H   UNL A   1      31.477  30.274  23.602  1.00  0.00     0.163 HD
ATOM     68  O   UNL A   1      30.508  28.185  23.007  1.00  0.00    -0.275 OA
BRANCH  66  69
ATOM     69  C   UNL A   1      31.030  27.369  25.225  1.00  0.00     0.082 C 
ATOM     70  C   UNL A   1      32.406  26.703  25.398  1.00  0.00     0.035 C 
ATOM     71  C   UNL A   1      29.916  26.330  24.998  1.00  0.00     0.035 C 
ATOM     72  C   UNL A   1      32.701  25.631  24.349  1.00  0.00     0.117 C 
ATOM     73  C   UNL A   1      30.279  25.320  23.910  1.00  0.00     0.117 C 
ATOM     74  N   UNL A   1      31.558  24.726  24.265  1.00  0.00    -0.366 N 
BRANCH  74  75
ATOM     75  C   UNL A   1      31.749  23.363  24.294  1.00  0.00     0.116 A 
ATOM     76  C   UNL A   1      32.227  22.742  23.126  1.00  0.00     0.034 A 
ATOM     77  C   UNL A   1      31.555  22.527  25.405  1.00  0.00     0.293 A 
ATOM     78  C   UNL A   1      32.528  21.376  23.079  1.00  0.00     0.016 A 
ATOM     79  C   UNL A   1      31.851  21.150  25.377  1.00  0.00     0.101 A 
ATOM     80  C   UNL A   1      32.350  20.565  24.207  1.00  0.00     0.062 A 
BRANCH  77  81
ATOM     81  N   UNL A   1      30.992  23.047  26.639  1.00  0.00     0.064 N 
ATOM     82  O   UNL A   1      31.738  23.752  27.337  1.00  0.00    -0.258 OA
ATOM     83  O   UNL A   1      29.837  22.716  26.937  1.00  0.00    -0.258 OA
ENDBRANCH  77  81
BRANCH  80  84
ATOM     84  C   UNL A   1      32.697  19.097  24.141  1.00  0.00     0.416 C 
ATOM     85  F   UNL A   1      34.038  18.879  24.201  1.00  0.00    -0.166 F 
ATOM     86  F   UNL A   1      32.153  18.391  25.170  1.00  0.00    -0.166 F 
ATOM     87  F   UNL A   1      32.268  18.490  23.001  1.00  0.00    -0.166 F 
ENDBRANCH  80  84
ENDBRANCH  74  75
ENDBRANCH  66  69
ENDBRANCH  64  65
ENDBRANCH  63  64
ENDBRANCH   1  63
TORSDOF 14
ENDMDL
