MODEL 1
REMARK VINA RESULT:     -11.1      0.000      0.000
REMARK SMILES CC[C@@H](CNC(=O)NCc1c(C)noc1C)C(=O)NCCCCNC(=O)c1ccc(-c2c3nc(c(-c4c(F)cccc4F)c4ccc([nH]4)c(-c4c(F)cccc4F)c4nc(c(-c5c(F)cccc5F)c5ccc2[nH]5)C=C4)C=C3)cc1
REMARK SMILES IDX 20 1 19 2 17 3 18 4 3 6 2 7 1 8 4 9 5 10 6 11 7 13 8 14 9 16
REMARK SMILES IDX 10 17 11 18 15 19 12 20 13 21 14 22 16 23 21 24 22 25 23 26
REMARK SMILES IDX 24 27 25 28 26 30 27 31 28 32 80 33 29 34 79 35 30 36 31 37
REMARK SMILES IDX 32 38 73 39 33 40 78 41 72 42 74 43 34 44 77 45 71 46 70 47
REMARK SMILES IDX 35 49 61 50 44 51 60 52 45 53 48 54 59 55 75 56 46 57 47 58
REMARK SMILES IDX 58 60 76 61 49 62 36 63 37 64 42 65 38 66 39 67 41 68 43 69
REMARK SMILES IDX 40 70 62 71 63 72 68 73 64 74 65 75 67 76 69 77 66 78 50 79
REMARK SMILES IDX 51 80 56 81 52 82 53 83 55 84 57 85 54 86
REMARK H PARENT 19 5 5 12 8 15 24 29 74 48 48 59
REMARK Flexibility Score: inf
ROOT
ATOM      1  C   UNL A   1      35.921  21.686  24.427  1.00  0.00     0.116 C 
ENDROOT
BRANCH   1   2
ATOM      2  N   UNL A   1      35.237  21.709  25.705  1.00  0.00    -0.356 N 
ATOM      3  C   UNL A   1      34.080  21.105  26.091  1.00  0.00     0.224 C 
ATOM      4  O   UNL A   1      33.834  21.067  27.301  1.00  0.00    -0.275 OA
ATOM      5  H   UNL A   1      35.677  22.245  26.403  1.00  0.00     0.163 HD
BRANCH   3   6
ATOM      6  C   UNL A   1      33.109  20.471  25.099  1.00  0.00     0.097 C 
BRANCH   6   7
ATOM      7  C   UNL A   1      33.058  18.933  25.176  1.00  0.00     0.012 C 
ATOM      8  C   UNL A   1      34.204  18.236  24.455  1.00  0.00     0.005 C 
ENDBRANCH   6   7
BRANCH   6   9
ATOM      9  C   UNL A   1      31.776  21.227  24.985  1.00  0.00     0.131 C 
BRANCH   9  10
ATOM     10  N   UNL A   1      31.430  22.136  26.055  1.00  0.00    -0.337 N 
ATOM     11  C   UNL A   1      31.140  23.440  26.125  1.00  0.00     0.315 C 
ATOM     12  H   UNL A   1      31.399  21.693  26.934  1.00  0.00     0.165 HD
ATOM     13  O   UNL A   1      31.115  23.952  27.247  1.00  0.00    -0.249 OA
ATOM     14  N   UNL A   1      30.909  24.232  25.080  1.00  0.00    -0.334 N 
ATOM     15  H   UNL A   1      30.944  25.187  25.321  1.00  0.00     0.165 HD
BRANCH  14  16
ATOM     16  C   UNL A   1      30.618  24.032  23.678  1.00  0.00     0.159 C 
BRANCH  16  17
ATOM     17  C   UNL A   1      31.591  24.824  22.880  1.00  0.00     0.037 A 
ATOM     18  C   UNL A   1      31.575  26.204  22.515  1.00  0.00     0.086 A 
ATOM     19  C   UNL A   1      32.767  24.366  22.319  1.00  0.00     0.138 A 
ATOM     20  C   UNL A   1      30.589  27.259  22.837  1.00  0.00     0.071 C 
ATOM     21  N   UNL A   1      32.646  26.527  21.780  1.00  0.00    -0.085 NA
ATOM     22  O   UNL A   1      33.389  25.376  21.663  1.00  0.00    -0.361 OA
ATOM     23  C   UNL A   1      33.452  23.060  22.299  1.00  0.00     0.091 C 
ENDBRANCH  16  17
ENDBRANCH  14  16
ENDBRANCH   9  10
ENDBRANCH   6   9
ENDBRANCH   3   6
ENDBRANCH   1   2
BRANCH   1  24
ATOM     24  C   UNL A   1      37.437  21.644  24.564  1.00  0.00     0.023 C 
BRANCH  24  25
ATOM     25  C   UNL A   1      37.998  20.274  24.937  1.00  0.00     0.023 C 
BRANCH  25  26
ATOM     26  C   UNL A   1      39.018  20.268  26.073  1.00  0.00     0.116 C 
BRANCH  26  27
ATOM     27  N   UNL A   1      40.078  19.289  25.899  1.00  0.00    -0.352 N 
ATOM     28  C   UNL A   1      41.440  19.444  26.018  1.00  0.00     0.251 C 
ATOM     29  H   UNL A   1      39.779  18.382  25.661  1.00  0.00     0.163 HD
ATOM     30  O   UNL A   1      42.196  18.535  25.709  1.00  0.00    -0.269 OA
BRANCH  28  31
ATOM     31  C   UNL A   1      41.990  20.736  26.484  1.00  0.00     0.039 A 
ATOM     32  C   UNL A   1      42.319  21.704  25.533  1.00  0.00     0.014 A 
ATOM     33  C   UNL A   1      42.162  21.000  27.845  1.00  0.00     0.014 A 
ATOM     34  C   UNL A   1      42.753  22.961  25.954  1.00  0.00     0.010 A 
ATOM     35  C   UNL A   1      42.510  22.280  28.264  1.00  0.00     0.010 A 
ATOM     36  C   UNL A   1      42.811  23.275  27.322  1.00  0.00    -0.014 A 
BRANCH  36  37
ATOM     37  C   UNL A   1      43.175  24.644  27.767  1.00  0.00     0.031 A 
ATOM     38  C   UNL A   1      44.614  25.075  27.824  1.00  0.00     0.074 A 
ATOM     39  C   UNL A   1      42.201  25.494  28.149  1.00  0.00     0.049 A 
ATOM     40  N   UNL A   1      45.115  26.235  28.166  1.00  0.00    -0.248 NA
ATOM     41  C   UNL A   1      45.627  24.065  27.476  1.00  0.00     0.031 C 
ATOM     42  C   UNL A   1      40.773  25.173  28.211  1.00  0.00     0.029 A 
ATOM     43  N   UNL A   1      42.263  26.803  28.555  1.00  0.00    -0.354 N 
ATOM     44  C   UNL A   1      46.493  26.096  28.068  1.00  0.00     0.074 A 
ATOM     45  C   UNL A   1      46.754  24.719  27.709  1.00  0.00     0.031 C 
ATOM     46  C   UNL A   1      40.093  26.265  28.595  1.00  0.00     0.029 A 
ATOM     47  C   UNL A   1      41.035  27.352  28.835  1.00  0.00     0.049 A 
ATOM     48  H   UNL A   1      43.108  27.302  28.638  1.00  0.00     0.167 HD
ATOM     49  C   UNL A   1      47.455  27.036  28.227  1.00  0.00     0.037 A 
ATOM     50  C   UNL A   1      40.706  28.595  29.233  1.00  0.00     0.037 A 
ATOM     51  C   UNL A   1      47.194  28.409  28.577  1.00  0.00     0.049 A 
ATOM     52  C   UNL A   1      41.789  29.624  29.394  1.00  0.00     0.074 A 
ATOM     53  C   UNL A   1      48.096  29.447  28.730  1.00  0.00     0.029 A 
ATOM     54  N   UNL A   1      45.935  28.933  28.829  1.00  0.00    -0.354 N 
ATOM     55  N   UNL A   1      43.084  29.496  29.225  1.00  0.00    -0.248 NA
ATOM     56  C   UNL A   1      41.366  30.975  29.785  1.00  0.00     0.031 C 
ATOM     57  C   UNL A   1      47.387  30.591  29.112  1.00  0.00     0.029 A 
ATOM     58  C   UNL A   1      46.037  30.278  29.148  1.00  0.00     0.049 A 
ATOM     59  H   UNL A   1      45.093  28.425  28.788  1.00  0.00     0.167 HD
ATOM     60  C   UNL A   1      43.625  30.752  29.466  1.00  0.00     0.074 A 
ATOM     61  C   UNL A   1      42.516  31.633  29.766  1.00  0.00     0.031 C 
ATOM     62  C   UNL A   1      44.923  31.141  29.446  1.00  0.00     0.037 A 
BRANCH  49  63
ATOM     63  C   UNL A   1      48.878  26.614  28.002  1.00  0.00     0.057 A 
ATOM     64  C   UNL A   1      49.683  26.159  29.056  1.00  0.00     0.134 A 
ATOM     65  C   UNL A   1      49.441  26.628  26.721  1.00  0.00     0.134 A 
ATOM     66  F   UNL A   1      49.210  26.132  30.311  1.00  0.00    -0.206 F 
ATOM     67  C   UNL A   1      51.004  25.757  28.847  1.00  0.00     0.040 A 
ATOM     68  C   UNL A   1      50.752  26.202  26.495  1.00  0.00     0.040 A 
ATOM     69  F   UNL A   1      48.727  27.047  25.665  1.00  0.00    -0.206 F 
ATOM     70  C   UNL A   1      51.539  25.770  27.562  1.00  0.00     0.006 A 
ENDBRANCH  49  63
BRANCH  50  71
ATOM     71  C   UNL A   1      39.284  28.946  29.484  1.00  0.00     0.057 A 
ATOM     72  C   UNL A   1      38.709  28.787  30.752  1.00  0.00     0.134 A 
ATOM     73  C   UNL A   1      38.461  29.430  28.461  1.00  0.00     0.134 A 
ATOM     74  F   UNL A   1      39.441  28.312  31.770  1.00  0.00    -0.206 F 
ATOM     75  C   UNL A   1      37.362  29.069  30.985  1.00  0.00     0.040 A 
ATOM     76  C   UNL A   1      37.120  29.743  28.686  1.00  0.00     0.040 A 
ATOM     77  F   UNL A   1      38.953  29.615  27.227  1.00  0.00    -0.206 F 
ATOM     78  C   UNL A   1      36.564  29.552  29.949  1.00  0.00     0.006 A 
ENDBRANCH  50  71
BRANCH  62  79
ATOM     79  C   UNL A   1      45.205  32.588  29.732  1.00  0.00     0.057 A 
ATOM     80  C   UNL A   1      45.433  33.055  31.033  1.00  0.00     0.134 A 
ATOM     81  C   UNL A   1      45.260  33.523  28.691  1.00  0.00     0.134 A 
ATOM     82  F   UNL A   1      45.382  32.213  32.077  1.00  0.00    -0.206 F 
ATOM     83  C   UNL A   1      45.667  34.406  31.293  1.00  0.00     0.040 A 
ATOM     84  C   UNL A   1      45.523  34.871  28.935  1.00  0.00     0.040 A 
ATOM     85  F   UNL A   1      45.062  33.142  27.420  1.00  0.00    -0.206 F 
ATOM     86  C   UNL A   1      45.717  35.318  30.240  1.00  0.00     0.006 A 
ENDBRANCH  62  79
ENDBRANCH  36  37
ENDBRANCH  28  31
ENDBRANCH  26  27
ENDBRANCH  25  26
ENDBRANCH  24  25
ENDBRANCH   1  24
TORSDOF 16
ENDMDL
MODEL 2
REMARK VINA RESULT:     -11.0      4.821      9.769
REMARK SMILES CC[C@@H](CNC(=O)NCc1c(C)noc1C)C(=O)NCCCCNC(=O)c1ccc(-c2c3nc(c(-c4c(F)cccc4F)c4ccc([nH]4)c(-c4c(F)cccc4F)c4nc(c(-c5c(F)cccc5F)c5ccc2[nH]5)C=C4)C=C3)cc1
REMARK SMILES IDX 20 1 19 2 17 3 18 4 3 6 2 7 1 8 4 9 5 10 6 11 7 13 8 14 9 16
REMARK SMILES IDX 10 17 11 18 15 19 12 20 13 21 14 22 16 23 21 24 22 25 23 26
REMARK SMILES IDX 24 27 25 28 26 30 27 31 28 32 80 33 29 34 79 35 30 36 31 37
REMARK SMILES IDX 32 38 73 39 33 40 78 41 72 42 74 43 34 44 77 45 71 46 70 47
REMARK SMILES IDX 35 49 61 50 44 51 60 52 45 53 48 54 59 55 75 56 46 57 47 58
REMARK SMILES IDX 58 60 76 61 49 62 36 63 37 64 42 65 38 66 39 67 41 68 43 69
REMARK SMILES IDX 40 70 62 71 63 72 68 73 64 74 65 75 67 76 69 77 66 78 50 79
REMARK SMILES IDX 51 80 56 81 52 82 53 83 55 84 57 85 54 86
REMARK H PARENT 19 5 5 12 8 15 24 29 74 48 48 59
REMARK Flexibility Score: inf
ROOT
ATOM      1  C   UNL A   1      31.783  29.264  27.030  1.00  0.00     0.116 C 
ENDROOT
BRANCH   1   2
ATOM      2  N   UNL A   1      32.594  28.129  26.635  1.00  0.00    -0.356 N 
ATOM      3  C   UNL A   1      32.257  27.012  25.934  1.00  0.00     0.224 C 
ATOM      4  O   UNL A   1      33.179  26.310  25.505  1.00  0.00    -0.275 OA
ATOM      5  H   UNL A   1      33.536  28.172  26.918  1.00  0.00     0.163 HD
BRANCH   3   6
ATOM      6  C   UNL A   1      30.809  26.620  25.652  1.00  0.00     0.097 C 
BRANCH   6   7
ATOM      7  C   UNL A   1      30.242  27.231  24.356  1.00  0.00     0.012 C 
ATOM      8  C   UNL A   1      28.952  26.580  23.875  1.00  0.00     0.005 C 
ENDBRANCH   6   7
BRANCH   6   9
ATOM      9  C   UNL A   1      30.514  25.139  25.935  1.00  0.00     0.131 C 
BRANCH   9  10
ATOM     10  N   UNL A   1      31.389  24.448  26.856  1.00  0.00    -0.337 N 
ATOM     11  C   UNL A   1      31.978  23.247  26.873  1.00  0.00     0.315 C 
ATOM     12  H   UNL A   1      31.601  24.986  27.653  1.00  0.00     0.165 HD
ATOM     13  O   UNL A   1      32.484  22.883  27.938  1.00  0.00    -0.249 OA
ATOM     14  N   UNL A   1      32.031  22.404  25.845  1.00  0.00    -0.334 N 
ATOM     15  H   UNL A   1      32.298  21.496  26.119  1.00  0.00     0.165 HD
BRANCH  14  16
ATOM     16  C   UNL A   1      31.796  22.497  24.421  1.00  0.00     0.159 C 
BRANCH  16  17
ATOM     17  C   UNL A   1      33.028  23.024  23.775  1.00  0.00     0.037 A 
ATOM     18  C   UNL A   1      34.380  22.577  23.870  1.00  0.00     0.086 A 
ATOM     19  C   UNL A   1      33.112  24.090  22.902  1.00  0.00     0.138 A 
ATOM     20  C   UNL A   1      34.953  21.444  24.630  1.00  0.00     0.071 C 
ATOM     21  N   UNL A   1      35.198  23.333  23.128  1.00  0.00    -0.085 NA
ATOM     22  O   UNL A   1      34.400  24.275  22.522  1.00  0.00    -0.361 OA
ATOM     23  C   UNL A   1      32.124  25.019  22.322  1.00  0.00     0.091 C 
ENDBRANCH  16  17
ENDBRANCH  14  16
ENDBRANCH   9  10
ENDBRANCH   6   9
ENDBRANCH   3   6
ENDBRANCH   1   2
BRANCH   1  24
ATOM     24  C   UNL A   1      31.785  30.385  26.000  1.00  0.00     0.023 C 
BRANCH  24  25
ATOM     25  C   UNL A   1      31.472  31.766  26.570  1.00  0.00     0.023 C 
BRANCH  25  26
ATOM     26  C   UNL A   1      32.654  32.506  27.190  1.00  0.00     0.116 C 
BRANCH  26  27
ATOM     27  N   UNL A   1      32.352  33.878  27.562  1.00  0.00    -0.352 N 
ATOM     28  C   UNL A   1      32.978  34.696  28.474  1.00  0.00     0.251 C 
ATOM     29  H   UNL A   1      31.587  34.283  27.092  1.00  0.00     0.163 HD
ATOM     30  O   UNL A   1      32.507  35.789  28.752  1.00  0.00    -0.269 OA
BRANCH  28  31
ATOM     31  C   UNL A   1      34.207  34.228  29.151  1.00  0.00     0.039 A 
ATOM     32  C   UNL A   1      34.081  33.495  30.332  1.00  0.00     0.014 A 
ATOM     33  C   UNL A   1      35.471  34.492  28.617  1.00  0.00     0.014 A 
ATOM     34  C   UNL A   1      35.222  32.966  30.938  1.00  0.00     0.010 A 
ATOM     35  C   UNL A   1      36.597  33.891  29.172  1.00  0.00     0.010 A 
ATOM     36  C   UNL A   1      36.485  33.123  30.341  1.00  0.00    -0.014 A 
BRANCH  36  37
ATOM     37  C   UNL A   1      37.682  32.474  30.931  1.00  0.00     0.031 A 
ATOM     38  C   UNL A   1      38.281  32.988  32.210  1.00  0.00     0.074 A 
ATOM     39  C   UNL A   1      38.250  31.431  30.292  1.00  0.00     0.049 A 
ATOM     40  N   UNL A   1      39.310  32.535  32.880  1.00  0.00    -0.248 NA
ATOM     41  C   UNL A   1      37.661  34.184  32.803  1.00  0.00     0.031 C 
ATOM     42  C   UNL A   1      37.810  30.884  29.006  1.00  0.00     0.029 A 
ATOM     43  N   UNL A   1      39.318  30.643  30.638  1.00  0.00    -0.354 N 
ATOM     44  C   UNL A   1      39.455  33.381  33.971  1.00  0.00     0.074 A 
ATOM     45  C   UNL A   1      38.457  34.420  33.835  1.00  0.00     0.031 C 
ATOM     46  C   UNL A   1      38.578  29.830  28.690  1.00  0.00     0.029 A 
ATOM     47  C   UNL A   1      39.582  29.643  29.733  1.00  0.00     0.049 A 
ATOM     48  H   UNL A   1      39.846  30.780  31.457  1.00  0.00     0.167 HD
ATOM     49  C   UNL A   1      40.316  33.286  35.012  1.00  0.00     0.037 A 
ATOM     50  C   UNL A   1      40.521  28.679  29.746  1.00  0.00     0.037 A 
ATOM     51  C   UNL A   1      41.304  32.247  35.152  1.00  0.00     0.049 A 
ATOM     52  C   UNL A   1      41.460  28.587  30.917  1.00  0.00     0.074 A 
ATOM     53  C   UNL A   1      42.201  32.042  36.186  1.00  0.00     0.029 A 
ATOM     54  N   UNL A   1      41.524  31.238  34.226  1.00  0.00    -0.354 N 
ATOM     55  N   UNL A   1      41.534  29.352  31.980  1.00  0.00    -0.248 NA
ATOM     56  C   UNL A   1      42.433  27.488  30.899  1.00  0.00     0.031 C 
ATOM     57  C   UNL A   1      42.990  30.932  35.867  1.00  0.00     0.029 A 
ATOM     58  C   UNL A   1      42.551  30.414  34.659  1.00  0.00     0.049 A 
ATOM     59  H   UNL A   1      41.024  31.123  33.386  1.00  0.00     0.167 HD
ATOM     60  C   UNL A   1      42.545  28.814  32.765  1.00  0.00     0.074 A 
ATOM     61  C   UNL A   1      43.034  27.643  32.069  1.00  0.00     0.031 C 
ATOM     62  C   UNL A   1      43.028  29.253  33.953  1.00  0.00     0.037 A 
BRANCH  49  63
ATOM     63  C   UNL A   1      40.210  34.321  36.094  1.00  0.00     0.057 A 
ATOM     64  C   UNL A   1      39.375  34.138  37.205  1.00  0.00     0.134 A 
ATOM     65  C   UNL A   1      40.970  35.496  36.046  1.00  0.00     0.134 A 
ATOM     66  F   UNL A   1      38.610  33.041  37.308  1.00  0.00    -0.206 F 
ATOM     67  C   UNL A   1      39.282  35.096  38.217  1.00  0.00     0.040 A 
ATOM     68  C   UNL A   1      40.907  36.448  37.066  1.00  0.00     0.040 A 
ATOM     69  F   UNL A   1      41.793  35.735  35.014  1.00  0.00    -0.206 F 
ATOM     70  C   UNL A   1      40.056  36.251  38.153  1.00  0.00     0.006 A 
ENDBRANCH  49  63
BRANCH  50  71
ATOM     71  C   UNL A   1      40.608  27.707  28.626  1.00  0.00     0.057 A 
ATOM     72  C   UNL A   1      41.428  27.948  27.516  1.00  0.00     0.134 A 
ATOM     73  C   UNL A   1      39.861  26.523  28.629  1.00  0.00     0.134 A 
ATOM     74  F   UNL A   1      42.156  29.072  27.446  1.00  0.00    -0.206 F 
ATOM     75  C   UNL A   1      41.479  27.062  26.438  1.00  0.00     0.040 A 
ATOM     76  C   UNL A   1      39.924  25.615  27.572  1.00  0.00     0.040 A 
ATOM     77  F   UNL A   1      39.066  26.228  29.667  1.00  0.00    -0.206 F 
ATOM     78  C   UNL A   1      40.728  25.889  26.466  1.00  0.00     0.006 A 
ENDBRANCH  50  71
BRANCH  62  79
ATOM     79  C   UNL A   1      44.124  28.442  34.583  1.00  0.00     0.057 A 
ATOM     80  C   UNL A   1      45.477  28.724  34.354  1.00  0.00     0.134 A 
ATOM     81  C   UNL A   1      43.822  27.375  35.437  1.00  0.00     0.134 A 
ATOM     82  F   UNL A   1      45.835  29.726  33.536  1.00  0.00    -0.206 F 
ATOM     83  C   UNL A   1      46.490  27.949  34.921  1.00  0.00     0.040 A 
ATOM     84  C   UNL A   1      44.826  26.611  36.034  1.00  0.00     0.040 A 
ATOM     85  F   UNL A   1      42.547  27.058  35.707  1.00  0.00    -0.206 F 
ATOM     86  C   UNL A   1      46.164  26.891  35.769  1.00  0.00     0.006 A 
ENDBRANCH  62  79
ENDBRANCH  36  37
ENDBRANCH  28  31
ENDBRANCH  26  27
ENDBRANCH  25  26
ENDBRANCH  24  25
ENDBRANCH   1  24
TORSDOF 16
ENDMDL
MODEL 3
REMARK VINA RESULT:     -11.0      5.227      9.988
REMARK SMILES CC[C@@H](CNC(=O)NCc1c(C)noc1C)C(=O)NCCCCNC(=O)c1ccc(-c2c3nc(c(-c4c(F)cccc4F)c4ccc([nH]4)c(-c4c(F)cccc4F)c4nc(c(-c5c(F)cccc5F)c5ccc2[nH]5)C=C4)C=C3)cc1
REMARK SMILES IDX 20 1 19 2 17 3 18 4 3 6 2 7 1 8 4 9 5 10 6 11 7 13 8 14 9 16
REMARK SMILES IDX 10 17 11 18 15 19 12 20 13 21 14 22 16 23 21 24 22 25 23 26
REMARK SMILES IDX 24 27 25 28 26 30 27 31 28 32 80 33 29 34 79 35 30 36 31 37
REMARK SMILES IDX 32 38 73 39 33 40 78 41 72 42 74 43 34 44 77 45 71 46 70 47
REMARK SMILES IDX 35 49 61 50 44 51 60 52 45 53 48 54 59 55 75 56 46 57 47 58
REMARK SMILES IDX 58 60 76 61 49 62 36 63 37 64 42 65 38 66 39 67 41 68 43 69
REMARK SMILES IDX 40 70 62 71 63 72 68 73 64 74 65 75 67 76 69 77 66 78 50 79
REMARK SMILES IDX 51 80 56 81 52 82 53 83 55 84 57 85 54 86
REMARK H PARENT 19 5 5 12 8 15 24 29 74 48 48 59
REMARK Flexibility Score: inf
ROOT
ATOM      1  C   UNL A   1      32.494  29.607  26.942  1.00  0.00     0.116 C 
ENDROOT
BRANCH   1   2
ATOM      2  N   UNL A   1      31.793  28.374  27.244  1.00  0.00    -0.356 N 
ATOM      3  C   UNL A   1      31.725  27.210  26.542  1.00  0.00     0.224 C 
ATOM      4  O   UNL A   1      31.273  26.220  27.126  1.00  0.00    -0.275 OA
ATOM      5  H   UNL A   1      31.285  28.380  28.087  1.00  0.00     0.163 HD
BRANCH   3   6
ATOM      6  C   UNL A   1      32.198  27.089  25.096  1.00  0.00     0.097 C 
BRANCH   6   7
ATOM      7  C   UNL A   1      33.723  27.231  24.928  1.00  0.00     0.012 C 
ATOM      8  C   UNL A   1      34.141  28.317  23.946  1.00  0.00     0.005 C 
ENDBRANCH   6   7
BRANCH   6   9
ATOM      9  C   UNL A   1      31.493  25.968  24.318  1.00  0.00     0.131 C 
BRANCH   9  10
ATOM     10  N   UNL A   1      31.753  25.872  22.899  1.00  0.00    -0.337 N 
ATOM     11  C   UNL A   1      31.385  26.579  21.824  1.00  0.00     0.315 C 
ATOM     12  H   UNL A   1      32.338  25.113  22.671  1.00  0.00     0.165 HD
ATOM     13  O   UNL A   1      31.606  26.079  20.718  1.00  0.00    -0.249 OA
ATOM     14  N   UNL A   1      30.774  27.761  21.856  1.00  0.00    -0.334 N 
ATOM     15  H   UNL A   1      30.386  28.004  20.984  1.00  0.00     0.165 HD
BRANCH  14  16
ATOM     16  C   UNL A   1      30.542  28.776  22.859  1.00  0.00     0.159 C 
BRANCH  16  17
ATOM     17  C   UNL A   1      29.078  29.022  22.948  1.00  0.00     0.037 A 
ATOM     18  C   UNL A   1      28.022  28.156  23.363  1.00  0.00     0.086 A 
ATOM     19  C   UNL A   1      28.418  30.198  22.649  1.00  0.00     0.138 A 
ATOM     20  C   UNL A   1      28.077  26.756  23.841  1.00  0.00     0.071 C 
ATOM     21  N   UNL A   1      26.833  28.766  23.293  1.00  0.00    -0.085 NA
ATOM     22  O   UNL A   1      27.086  30.043  22.849  1.00  0.00    -0.361 OA
ATOM     23  C   UNL A   1      28.854  31.527  22.183  1.00  0.00     0.091 C 
ENDBRANCH  16  17
ENDBRANCH  14  16
ENDBRANCH   9  10
ENDBRANCH   6   9
ENDBRANCH   3   6
ENDBRANCH   1   2
BRANCH   1  24
ATOM     24  C   UNL A   1      31.670  30.570  26.098  1.00  0.00     0.023 C 
BRANCH  24  25
ATOM     25  C   UNL A   1      31.388  31.913  26.767  1.00  0.00     0.023 C 
BRANCH  25  26
ATOM     26  C   UNL A   1      32.621  32.707  27.193  1.00  0.00     0.116 C 
BRANCH  26  27
ATOM     27  N   UNL A   1      32.323  34.072  27.594  1.00  0.00    -0.352 N 
ATOM     28  C   UNL A   1      32.961  34.873  28.514  1.00  0.00     0.251 C 
ATOM     29  H   UNL A   1      31.553  34.486  27.141  1.00  0.00     0.163 HD
ATOM     30  O   UNL A   1      32.493  35.960  28.817  1.00  0.00    -0.269 OA
BRANCH  28  31
ATOM     31  C   UNL A   1      34.198  34.392  29.166  1.00  0.00     0.039 A 
ATOM     32  C   UNL A   1      34.087  33.650  30.344  1.00  0.00     0.014 A 
ATOM     33  C   UNL A   1      35.455  34.653  28.615  1.00  0.00     0.014 A 
ATOM     34  C   UNL A   1      35.234  33.109  30.926  1.00  0.00     0.010 A 
ATOM     35  C   UNL A   1      36.586  34.041  29.147  1.00  0.00     0.010 A 
ATOM     36  C   UNL A   1      36.488  33.264  30.310  1.00  0.00    -0.014 A 
BRANCH  36  37
ATOM     37  C   UNL A   1      37.691  32.603  30.875  1.00  0.00     0.031 A 
ATOM     38  C   UNL A   1      38.302  33.092  32.159  1.00  0.00     0.074 A 
ATOM     39  C   UNL A   1      38.252  31.573  30.210  1.00  0.00     0.049 A 
ATOM     40  N   UNL A   1      39.338  32.625  32.810  1.00  0.00    -0.248 NA
ATOM     41  C   UNL A   1      37.688  34.275  32.782  1.00  0.00     0.031 C 
ATOM     42  C   UNL A   1      37.800  31.053  28.918  1.00  0.00     0.029 A 
ATOM     43  N   UNL A   1      39.323  30.778  30.530  1.00  0.00    -0.354 N 
ATOM     44  C   UNL A   1      39.493  33.449  33.916  1.00  0.00     0.074 A 
ATOM     45  C   UNL A   1      38.494  34.491  33.810  1.00  0.00     0.031 C 
ATOM     46  C   UNL A   1      38.565  30.005  28.574  1.00  0.00     0.029 A 
ATOM     47  C   UNL A   1      39.578  29.797  29.603  1.00  0.00     0.049 A 
ATOM     48  H   UNL A   1      39.859  30.899  31.347  1.00  0.00     0.167 HD
ATOM     49  C   UNL A   1      40.364  33.333  34.947  1.00  0.00     0.037 A 
ATOM     50  C   UNL A   1      40.517  28.833  29.587  1.00  0.00     0.037 A 
ATOM     51  C   UNL A   1      41.353  32.291  35.056  1.00  0.00     0.049 A 
ATOM     52  C   UNL A   1      41.467  28.717  30.747  1.00  0.00     0.074 A 
ATOM     53  C   UNL A   1      42.260  32.066  36.077  1.00  0.00     0.029 A 
ATOM     54  N   UNL A   1      41.564  31.301  34.108  1.00  0.00    -0.354 N 
ATOM     55  N   UNL A   1      41.552  29.461  31.824  1.00  0.00    -0.248 NA
ATOM     56  C   UNL A   1      42.440  27.619  30.698  1.00  0.00     0.031 C 
ATOM     57  C   UNL A   1      43.045  30.962  35.728  1.00  0.00     0.029 A 
ATOM     58  C   UNL A   1      42.595  30.469  34.514  1.00  0.00     0.049 A 
ATOM     59  H   UNL A   1      41.056  31.204  33.270  1.00  0.00     0.167 HD
ATOM     60  C   UNL A   1      42.570  28.907  32.589  1.00  0.00     0.074 A 
ATOM     61  C   UNL A   1      43.053  27.750  31.865  1.00  0.00     0.031 C 
ATOM     62  C   UNL A   1      43.064  29.322  33.781  1.00  0.00     0.037 A 
BRANCH  49  63
ATOM     63  C   UNL A   1      40.269  34.346  36.050  1.00  0.00     0.057 A 
ATOM     64  C   UNL A   1      40.967  35.561  35.992  1.00  0.00     0.134 A 
ATOM     65  C   UNL A   1      39.450  34.127  37.164  1.00  0.00     0.134 A 
ATOM     66  F   UNL A   1      41.778  35.830  34.958  1.00  0.00    -0.206 F 
ATOM     67  C   UNL A   1      40.872  36.509  37.012  1.00  0.00     0.040 A 
ATOM     68  C   UNL A   1      39.325  35.080  38.177  1.00  0.00     0.040 A 
ATOM     69  F   UNL A   1      38.750  32.989  37.283  1.00  0.00    -0.206 F 
ATOM     70  C   UNL A   1      40.042  36.273  38.105  1.00  0.00     0.006 A 
ENDBRANCH  49  63
BRANCH  50  71
ATOM     71  C   UNL A   1      40.593  27.883  28.447  1.00  0.00     0.057 A 
ATOM     72  C   UNL A   1      41.330  28.187  27.296  1.00  0.00     0.134 A 
ATOM     73  C   UNL A   1      39.917  26.658  28.473  1.00  0.00     0.134 A 
ATOM     74  F   UNL A   1      41.987  29.353  27.203  1.00  0.00    -0.206 F 
ATOM     75  C   UNL A   1      41.368  27.322  26.201  1.00  0.00     0.040 A 
ATOM     76  C   UNL A   1      39.969  25.770  27.399  1.00  0.00     0.040 A 
ATOM     77  F   UNL A   1      39.203  26.302  29.551  1.00  0.00    -0.206 F 
ATOM     78  C   UNL A   1      40.688  26.106  26.253  1.00  0.00     0.006 A 
ENDBRANCH  50  71
BRANCH  62  79
ATOM     79  C   UNL A   1      44.167  28.499  34.384  1.00  0.00     0.057 A 
ATOM     80  C   UNL A   1      43.903  27.407  35.221  1.00  0.00     0.134 A 
ATOM     81  C   UNL A   1      45.508  28.797  34.115  1.00  0.00     0.134 A 
ATOM     82  F   UNL A   1      42.639  27.075  35.529  1.00  0.00    -0.206 F 
ATOM     83  C   UNL A   1      44.933  26.664  35.800  1.00  0.00     0.040 A 
ATOM     84  C   UNL A   1      46.547  28.043  34.663  1.00  0.00     0.040 A 
ATOM     85  F   UNL A   1      45.831  29.823  33.313  1.00  0.00    -0.206 F 
ATOM     86  C   UNL A   1      46.261  26.980  35.516  1.00  0.00     0.006 A 
ENDBRANCH  62  79
ENDBRANCH  36  37
ENDBRANCH  28  31
ENDBRANCH  26  27
ENDBRANCH  25  26
ENDBRANCH  24  25
ENDBRANCH   1  24
TORSDOF 16
ENDMDL
