MODEL 1
REMARK VINA RESULT:     -10.3      0.000      0.000
REMARK SMILES CCN(Cc1ccccn1)C(=O)NC(CC)(CC)C(=O)NCCCCNC(=O)c1ccc(-c2c3nc(c(-c4c(F)cccc4F)c4ccc([nH]4)c(-c4c(F)cccc4F)c4nc(c(-c5c(F)cccc5F)c5ccc2[nH]5)C=C4)C=C3)cc1
REMARK SMILES IDX 22 1 21 2 19 3 20 4 14 6 13 7 11 8 12 9 3 11 2 12 1 13 4 14
REMARK SMILES IDX 5 15 6 16 10 17 7 18 9 19 8 20 15 21 16 22 17 23 18 24 23 25
REMARK SMILES IDX 24 26 25 27 26 28 27 29 28 31 29 32 30 33 82 34 31 35 81 36
REMARK SMILES IDX 32 37 33 38 34 39 75 40 35 41 80 42 74 43 76 44 36 45 79 46
REMARK SMILES IDX 73 47 72 48 37 50 63 51 46 52 62 53 47 54 50 55 61 56 77 57
REMARK SMILES IDX 48 58 49 59 60 61 78 62 51 63 38 64 39 65 44 66 40 67 41 68
REMARK SMILES IDX 43 69 45 70 42 71 64 72 65 73 70 74 66 75 67 76 69 77 71 78
REMARK SMILES IDX 68 79 52 80 53 81 58 82 54 83 55 84 57 85 59 86 56 87
REMARK H PARENT 21 5 13 10 26 30 76 49 50 60
REMARK Flexibility Score: inf
ROOT
ATOM      1  C   UNL A   1      34.212  25.710  25.464  1.00  0.00     0.116 C 
ENDROOT
BRANCH   1   2
ATOM      2  N   UNL A   1      34.318  24.984  24.221  1.00  0.00    -0.354 N 
ATOM      3  C   UNL A   1      34.692  23.717  23.932  1.00  0.00     0.245 C 
ATOM      4  O   UNL A   1      35.060  23.555  22.758  1.00  0.00    -0.272 OA
ATOM      5  H   UNL A   1      34.070  25.514  23.429  1.00  0.00     0.163 HD
BRANCH   3   6
ATOM      6  C   UNL A   1      34.804  22.578  24.980  1.00  0.00     0.120 C 
BRANCH   6   7
ATOM      7  N   UNL A   1      33.623  21.683  24.844  1.00  0.00    -0.323 N 
ATOM      8  C   UNL A   1      32.285  21.733  24.893  1.00  0.00     0.318 C 
ATOM      9  O   UNL A   1      31.761  20.613  24.982  1.00  0.00    -0.249 OA
ATOM     10  H   UNL A   1      33.918  20.763  24.659  1.00  0.00     0.166 HD
BRANCH   8  11
ATOM     11  N   UNL A   1      31.505  22.838  24.698  1.00  0.00    -0.319 N 
BRANCH  11  12
ATOM     12  C   UNL A   1      31.295  23.633  25.918  1.00  0.00     0.118 C 
ATOM     13  C   UNL A   1      30.219  23.041  26.830  1.00  0.00     0.027 C 
ENDBRANCH  11  12
BRANCH  11  14
ATOM     14  C   UNL A   1      30.768  23.321  23.514  1.00  0.00     0.177 C 
BRANCH  14  15
ATOM     15  C   UNL A   1      30.844  24.800  23.210  1.00  0.00     0.060 A 
ATOM     16  C   UNL A   1      29.927  25.682  23.776  1.00  0.00     0.026 A 
ATOM     17  N   UNL A   1      31.774  25.207  22.303  1.00  0.00    -0.259 NA
ATOM     18  C   UNL A   1      29.991  27.031  23.436  1.00  0.00     0.004 A 
ATOM     19  C   UNL A   1      31.827  26.526  22.013  1.00  0.00     0.111 A 
ATOM     20  C   UNL A   1      30.968  27.468  22.550  1.00  0.00     0.020 A 
ENDBRANCH  14  15
ENDBRANCH  11  14
ENDBRANCH   8  11
ENDBRANCH   6   7
BRANCH   6  21
ATOM     21  C   UNL A   1      34.887  22.962  26.484  1.00  0.00     0.035 C 
ATOM     22  C   UNL A   1      34.365  21.910  27.469  1.00  0.00     0.007 C 
ENDBRANCH   6  21
BRANCH   6  23
ATOM     23  C   UNL A   1      36.089  21.775  24.569  1.00  0.00     0.035 C 
ATOM     24  C   UNL A   1      37.413  22.278  25.144  1.00  0.00     0.007 C 
ENDBRANCH   6  23
ENDBRANCH   3   6
ENDBRANCH   1   2
BRANCH   1  25
ATOM     25  C   UNL A   1      33.394  26.984  25.254  1.00  0.00     0.023 C 
BRANCH  25  26
ATOM     26  C   UNL A   1      34.022  28.253  25.846  1.00  0.00     0.023 C 
BRANCH  26  27
ATOM     27  C   UNL A   1      33.715  28.481  27.322  1.00  0.00     0.116 C 
BRANCH  27  28
ATOM     28  N   UNL A   1      33.675  29.900  27.640  1.00  0.00    -0.352 N 
ATOM     29  C   UNL A   1      34.607  30.667  28.290  1.00  0.00     0.251 C 
ATOM     30  H   UNL A   1      32.866  30.377  27.346  1.00  0.00     0.163 HD
ATOM     31  O   UNL A   1      34.300  31.780  28.718  1.00  0.00    -0.269 OA
BRANCH  29  32
ATOM     32  C   UNL A   1      35.978  30.157  28.481  1.00  0.00     0.039 A 
ATOM     33  C   UNL A   1      36.871  30.179  27.406  1.00  0.00     0.014 A 
ATOM     34  C   UNL A   1      36.376  29.634  29.716  1.00  0.00     0.014 A 
ATOM     35  C   UNL A   1      38.180  29.728  27.585  1.00  0.00     0.010 A 
ATOM     36  C   UNL A   1      37.699  29.251  29.912  1.00  0.00     0.010 A 
ATOM     37  C   UNL A   1      38.612  29.287  28.848  1.00  0.00    -0.014 A 
BRANCH  37  38
ATOM     38  C   UNL A   1      40.015  28.858  29.074  1.00  0.00     0.031 A 
ATOM     39  C   UNL A   1      41.004  29.804  29.695  1.00  0.00     0.074 A 
ATOM     40  C   UNL A   1      40.414  27.640  28.661  1.00  0.00     0.049 A 
ATOM     41  N   UNL A   1      42.285  29.639  29.910  1.00  0.00    -0.248 NA
ATOM     42  C   UNL A   1      40.492  31.121  30.106  1.00  0.00     0.031 C 
ATOM     43  C   UNL A   1      39.561  26.649  28.002  1.00  0.00     0.029 A 
ATOM     44  N   UNL A   1      41.642  27.033  28.723  1.00  0.00    -0.354 N 
ATOM     45  C   UNL A   1      42.732  30.832  30.465  1.00  0.00     0.074 A 
ATOM     46  C   UNL A   1      41.599  31.729  30.506  1.00  0.00     0.031 C 
ATOM     47  C   UNL A   1      40.287  25.550  27.741  1.00  0.00     0.029 A 
ATOM     48  C   UNL A   1      41.662  25.772  28.177  1.00  0.00     0.049 A 
ATOM     49  H   UNL A   1      42.435  27.460  29.120  1.00  0.00     0.167 HD
ATOM     50  C   UNL A   1      43.970  31.142  30.919  1.00  0.00     0.037 A 
ATOM     51  C   UNL A   1      42.675  24.898  28.038  1.00  0.00     0.037 A 
ATOM     52  C   UNL A   1      45.090  30.239  30.897  1.00  0.00     0.049 A 
ATOM     53  C   UNL A   1      44.041  25.268  28.545  1.00  0.00     0.074 A 
ATOM     54  C   UNL A   1      46.368  30.438  31.388  1.00  0.00     0.029 A 
ATOM     55  N   UNL A   1      45.065  28.964  30.352  1.00  0.00    -0.354 N 
ATOM     56  N   UNL A   1      44.434  26.374  29.129  1.00  0.00    -0.248 NA
ATOM     57  C   UNL A   1      45.103  24.265  28.379  1.00  0.00     0.031 C 
ATOM     58  C   UNL A   1      47.129  29.300  31.102  1.00  0.00     0.029 A 
ATOM     59  C   UNL A   1      46.312  28.372  30.476  1.00  0.00     0.049 A 
ATOM     60  H   UNL A   1      44.278  28.541  29.939  1.00  0.00     0.167 HD
ATOM     61  C   UNL A   1      45.778  26.190  29.425  1.00  0.00     0.074 A 
ATOM     62  C   UNL A   1      46.130  24.862  28.969  1.00  0.00     0.031 C 
ATOM     63  C   UNL A   1      46.643  27.046  30.023  1.00  0.00     0.037 A 
BRANCH  50  64
ATOM     64  C   UNL A   1      44.175  32.519  31.481  1.00  0.00     0.057 A 
ATOM     65  C   UNL A   1      44.559  33.598  30.672  1.00  0.00     0.134 A 
ATOM     66  C   UNL A   1      43.954  32.778  32.839  1.00  0.00     0.134 A 
ATOM     67  F   UNL A   1      44.798  33.415  29.365  1.00  0.00    -0.206 F 
ATOM     68  C   UNL A   1      44.741  34.877  31.199  1.00  0.00     0.040 A 
ATOM     69  C   UNL A   1      44.106  34.060  33.372  1.00  0.00     0.040 A 
ATOM     70  F   UNL A   1      43.579  31.794  33.670  1.00  0.00    -0.206 F 
ATOM     71  C   UNL A   1      44.508  35.112  32.553  1.00  0.00     0.006 A 
ENDBRANCH  50  64
BRANCH  51  72
ATOM     72  C   UNL A   1      42.433  23.574  27.410  1.00  0.00     0.057 A 
ATOM     73  C   UNL A   1      42.062  22.467  28.183  1.00  0.00     0.134 A 
ATOM     74  C   UNL A   1      42.571  23.381  26.031  1.00  0.00     0.134 A 
ATOM     75  F   UNL A   1      41.933  22.586  29.513  1.00  0.00    -0.206 F 
ATOM     76  C   UNL A   1      41.854  21.212  27.609  1.00  0.00     0.040 A 
ATOM     77  C   UNL A   1      42.341  22.137  25.441  1.00  0.00     0.040 A 
ATOM     78  F   UNL A   1      42.916  24.403  25.235  1.00  0.00    -0.206 F 
ATOM     79  C   UNL A   1      41.989  21.046  26.232  1.00  0.00     0.006 A 
ENDBRANCH  51  72
BRANCH  63  80
ATOM     80  C   UNL A   1      48.045  26.558  30.249  1.00  0.00     0.057 A 
ATOM     81  C   UNL A   1      48.412  25.879  31.417  1.00  0.00     0.134 A 
ATOM     82  C   UNL A   1      49.028  26.738  29.268  1.00  0.00     0.134 A 
ATOM     83  F   UNL A   1      47.522  25.687  32.401  1.00  0.00    -0.206 F 
ATOM     84  C   UNL A   1      49.715  25.415  31.611  1.00  0.00     0.040 A 
ATOM     85  C   UNL A   1      50.325  26.255  29.438  1.00  0.00     0.040 A 
ATOM     86  F   UNL A   1      48.739  27.372  28.121  1.00  0.00    -0.206 F 
ATOM     87  C   UNL A   1      50.674  25.596  30.615  1.00  0.00     0.006 A 
ENDBRANCH  63  80
ENDBRANCH  37  38
ENDBRANCH  29  32
ENDBRANCH  27  28
ENDBRANCH  26  27
ENDBRANCH  25  26
ENDBRANCH   1  25
TORSDOF 18
ENDMDL
MODEL 2
REMARK VINA RESULT:     -10.3      2.858      7.162
REMARK SMILES CCN(Cc1ccccn1)C(=O)NC(CC)(CC)C(=O)NCCCCNC(=O)c1ccc(-c2c3nc(c(-c4c(F)cccc4F)c4ccc([nH]4)c(-c4c(F)cccc4F)c4nc(c(-c5c(F)cccc5F)c5ccc2[nH]5)C=C4)C=C3)cc1
REMARK SMILES IDX 22 1 21 2 19 3 20 4 14 6 13 7 11 8 12 9 3 11 2 12 1 13 4 14
REMARK SMILES IDX 5 15 6 16 10 17 7 18 9 19 8 20 15 21 16 22 17 23 18 24 23 25
REMARK SMILES IDX 24 26 25 27 26 28 27 29 28 31 29 32 30 33 82 34 31 35 81 36
REMARK SMILES IDX 32 37 33 38 34 39 75 40 35 41 80 42 74 43 76 44 36 45 79 46
REMARK SMILES IDX 73 47 72 48 37 50 63 51 46 52 62 53 47 54 50 55 61 56 77 57
REMARK SMILES IDX 48 58 49 59 60 61 78 62 51 63 38 64 39 65 44 66 40 67 41 68
REMARK SMILES IDX 43 69 45 70 42 71 64 72 65 73 70 74 66 75 67 76 69 77 71 78
REMARK SMILES IDX 68 79 52 80 53 81 58 82 54 83 55 84 57 85 59 86 56 87
REMARK H PARENT 21 5 13 10 26 30 76 49 50 60
REMARK Flexibility Score: inf
ROOT
ATOM      1  C   UNL A   1      38.088  23.561  26.084  1.00  0.00     0.116 C 
ENDROOT
BRANCH   1   2
ATOM      2  N   UNL A   1      37.753  23.554  24.680  1.00  0.00    -0.354 N 
ATOM      3  C   UNL A   1      36.610  23.271  24.015  1.00  0.00     0.245 C 
ATOM      4  O   UNL A   1      36.782  22.965  22.825  1.00  0.00    -0.272 OA
ATOM      5  H   UNL A   1      38.502  23.803  24.091  1.00  0.00     0.163 HD
BRANCH   3   6
ATOM      6  C   UNL A   1      35.211  23.183  24.680  1.00  0.00     0.120 C 
BRANCH   6   7
ATOM      7  N   UNL A   1      34.192  22.935  23.624  1.00  0.00    -0.323 N 
ATOM      8  C   UNL A   1      33.061  22.243  23.429  1.00  0.00     0.318 C 
ATOM      9  O   UNL A   1      32.739  22.169  22.234  1.00  0.00    -0.249 OA
ATOM     10  H   UNL A   1      34.421  23.441  22.811  1.00  0.00     0.166 HD
BRANCH   8  11
ATOM     11  N   UNL A   1      32.211  21.787  24.396  1.00  0.00    -0.319 N 
BRANCH  11  12
ATOM     12  C   UNL A   1      31.486  22.860  25.095  1.00  0.00     0.118 C 
ATOM     13  C   UNL A   1      30.728  23.782  24.138  1.00  0.00     0.027 C 
ENDBRANCH  11  12
BRANCH  11  14
ATOM     14  C   UNL A   1      31.962  20.432  24.923  1.00  0.00     0.177 C 
BRANCH  14  15
ATOM     15  C   UNL A   1      32.704  19.289  24.266  1.00  0.00     0.060 A 
ATOM     16  C   UNL A   1      32.198  18.693  23.114  1.00  0.00     0.026 A 
ATOM     17  N   UNL A   1      33.818  18.821  24.892  1.00  0.00    -0.259 NA
ATOM     18  C   UNL A   1      32.876  17.609  22.561  1.00  0.00     0.004 A 
ATOM     19  C   UNL A   1      34.469  17.785  24.317  1.00  0.00     0.111 A 
ATOM     20  C   UNL A   1      34.043  17.154  23.163  1.00  0.00     0.020 A 
ENDBRANCH  14  15
ENDBRANCH  11  14
ENDBRANCH   8  11
ENDBRANCH   6   7
BRANCH   6  21
ATOM     21  C   UNL A   1      34.701  24.403  25.497  1.00  0.00     0.035 C 
ATOM     22  C   UNL A   1      34.109  25.553  24.675  1.00  0.00     0.007 C 
ENDBRANCH   6  21
BRANCH   6  23
ATOM     23  C   UNL A   1      35.284  21.919  25.610  1.00  0.00     0.035 C 
ATOM     24  C   UNL A   1      34.664  22.066  26.999  1.00  0.00     0.007 C 
ENDBRANCH   6  23
ENDBRANCH   3   6
ENDBRANCH   1   2
BRANCH   1  25
ATOM     25  C   UNL A   1      39.236  22.587  26.350  1.00  0.00     0.023 C 
BRANCH  25  26
ATOM     26  C   UNL A   1      38.825  21.110  26.400  1.00  0.00     0.023 C 
BRANCH  26  27
ATOM     27  C   UNL A   1      39.355  20.267  25.246  1.00  0.00     0.116 C 
BRANCH  27  28
ATOM     28  N   UNL A   1      40.244  19.218  25.723  1.00  0.00    -0.352 N 
ATOM     29  C   UNL A   1      41.547  19.312  26.137  1.00  0.00     0.251 C 
ATOM     30  H   UNL A   1      39.855  18.314  25.753  1.00  0.00     0.163 HD
ATOM     31  O   UNL A   1      42.235  18.297  26.245  1.00  0.00    -0.269 OA
BRANCH  29  32
ATOM     32  C   UNL A   1      42.128  20.632  26.449  1.00  0.00     0.039 A 
ATOM     33  C   UNL A   1      42.582  21.443  25.406  1.00  0.00     0.014 A 
ATOM     34  C   UNL A   1      42.247  21.059  27.776  1.00  0.00     0.014 A 
ATOM     35  C   UNL A   1      43.104  22.706  25.690  1.00  0.00     0.010 A 
ATOM     36  C   UNL A   1      42.701  22.345  28.052  1.00  0.00     0.010 A 
ATOM     37  C   UNL A   1      43.141  23.179  27.012  1.00  0.00    -0.014 A 
BRANCH  37  38
ATOM     38  C   UNL A   1      43.639  24.540  27.330  1.00  0.00     0.031 A 
ATOM     39  C   UNL A   1      42.680  25.614  27.764  1.00  0.00     0.074 A 
ATOM     40  C   UNL A   1      44.945  24.828  27.165  1.00  0.00     0.049 A 
ATOM     41  N   UNL A   1      42.911  26.877  28.017  1.00  0.00    -0.248 NA
ATOM     42  C   UNL A   1      41.269  25.222  27.906  1.00  0.00     0.031 C 
ATOM     43  C   UNL A   1      45.967  23.887  26.704  1.00  0.00     0.029 A 
ATOM     44  N   UNL A   1      45.632  26.000  27.354  1.00  0.00    -0.354 N 
ATOM     45  C   UNL A   1      41.677  27.431  28.333  1.00  0.00     0.074 A 
ATOM     46  C   UNL A   1      40.693  26.381  28.190  1.00  0.00     0.031 C 
ATOM     47  C   UNL A   1      47.154  24.512  26.668  1.00  0.00     0.029 A 
ATOM     48  C   UNL A   1      46.972  25.905  27.064  1.00  0.00     0.049 A 
ATOM     49  H   UNL A   1      45.207  26.830  27.668  1.00  0.00     0.167 HD
ATOM     50  C   UNL A   1      41.393  28.695  28.729  1.00  0.00     0.037 A 
ATOM     51  C   UNL A   1      47.942  26.837  27.106  1.00  0.00     0.037 A 
ATOM     52  C   UNL A   1      42.377  29.732  28.893  1.00  0.00     0.049 A 
ATOM     53  C   UNL A   1      47.600  28.234  27.544  1.00  0.00     0.074 A 
ATOM     54  C   UNL A   1      42.199  31.027  29.347  1.00  0.00     0.029 A 
ATOM     55  N   UNL A   1      43.727  29.591  28.606  1.00  0.00    -0.354 N 
ATOM     56  N   UNL A   1      46.440  28.727  27.905  1.00  0.00    -0.248 NA
ATOM     57  C   UNL A   1      48.705  29.204  27.585  1.00  0.00     0.031 C 
ATOM     58  C   UNL A   1      43.432  31.683  29.294  1.00  0.00     0.029 A 
ATOM     59  C   UNL A   1      44.389  30.783  28.853  1.00  0.00     0.049 A 
ATOM     60  H   UNL A   1      44.152  28.767  28.277  1.00  0.00     0.167 HD
ATOM     61  C   UNL A   1      46.679  30.053  28.243  1.00  0.00     0.074 A 
ATOM     62  C   UNL A   1      48.096  30.284  28.056  1.00  0.00     0.031 C 
ATOM     63  C   UNL A   1      45.802  30.994  28.670  1.00  0.00     0.037 A 
BRANCH  50  64
ATOM     64  C   UNL A   1      39.956  29.025  29.014  1.00  0.00     0.057 A 
ATOM     65  C   UNL A   1      39.435  28.993  30.315  1.00  0.00     0.134 A 
ATOM     66  C   UNL A   1      39.091  29.411  27.982  1.00  0.00     0.134 A 
ATOM     67  F   UNL A   1      40.207  28.620  31.347  1.00  0.00    -0.206 F 
ATOM     68  C   UNL A   1      38.100  29.307  30.575  1.00  0.00     0.040 A 
ATOM     69  C   UNL A   1      37.762  29.755  28.234  1.00  0.00     0.040 A 
ATOM     70  F   UNL A   1      39.525  29.468  26.714  1.00  0.00    -0.206 F 
ATOM     71  C   UNL A   1      37.261  29.697  29.533  1.00  0.00     0.006 A 
ENDBRANCH  50  64
BRANCH  51  72
ATOM     72  C   UNL A   1      49.336  26.475  26.746  1.00  0.00     0.057 A 
ATOM     73  C   UNL A   1      50.214  25.949  27.702  1.00  0.00     0.134 A 
ATOM     74  C   UNL A   1      49.825  26.650  25.447  1.00  0.00     0.134 A 
ATOM     75  F   UNL A   1      49.807  25.777  28.968  1.00  0.00    -0.206 F 
ATOM     76  C   UNL A   1      51.533  25.627  27.383  1.00  0.00     0.040 A 
ATOM     77  C   UNL A   1      51.135  26.307  25.108  1.00  0.00     0.040 A 
ATOM     78  F   UNL A   1      49.032  27.141  24.484  1.00  0.00    -0.206 F 
ATOM     79  C   UNL A   1      51.996  25.802  26.080  1.00  0.00     0.006 A 
ENDBRANCH  51  72
BRANCH  63  80
ATOM     80  C   UNL A   1      46.357  32.350  28.998  1.00  0.00     0.057 A 
ATOM     81  C   UNL A   1      46.836  32.663  30.276  1.00  0.00     0.134 A 
ATOM     82  C   UNL A   1      46.446  33.340  28.012  1.00  0.00     0.134 A 
ATOM     83  F   UNL A   1      46.766  31.763  31.269  1.00  0.00    -0.206 F 
ATOM     84  C   UNL A   1      47.365  33.922  30.568  1.00  0.00     0.040 A 
ATOM     85  C   UNL A   1      46.998  34.592  28.283  1.00  0.00     0.040 A 
ATOM     86  F   UNL A   1      46.013  33.101  26.765  1.00  0.00    -0.206 F 
ATOM     87  C   UNL A   1      47.454  34.888  29.566  1.00  0.00     0.006 A 
ENDBRANCH  63  80
ENDBRANCH  37  38
ENDBRANCH  29  32
ENDBRANCH  27  28
ENDBRANCH  26  27
ENDBRANCH  25  26
ENDBRANCH   1  25
TORSDOF 18
ENDMDL
MODEL 3
REMARK VINA RESULT:     -10.3      2.810      7.607
REMARK SMILES CCN(Cc1ccccn1)C(=O)NC(CC)(CC)C(=O)NCCCCNC(=O)c1ccc(-c2c3nc(c(-c4c(F)cccc4F)c4ccc([nH]4)c(-c4c(F)cccc4F)c4nc(c(-c5c(F)cccc5F)c5ccc2[nH]5)C=C4)C=C3)cc1
REMARK SMILES IDX 22 1 21 2 19 3 20 4 14 6 13 7 11 8 12 9 3 11 2 12 1 13 4 14
REMARK SMILES IDX 5 15 6 16 10 17 7 18 9 19 8 20 15 21 16 22 17 23 18 24 23 25
REMARK SMILES IDX 24 26 25 27 26 28 27 29 28 31 29 32 30 33 82 34 31 35 81 36
REMARK SMILES IDX 32 37 33 38 34 39 75 40 35 41 80 42 74 43 76 44 36 45 79 46
REMARK SMILES IDX 73 47 72 48 37 50 63 51 46 52 62 53 47 54 50 55 61 56 77 57
REMARK SMILES IDX 48 58 49 59 60 61 78 62 51 63 38 64 39 65 44 66 40 67 41 68
REMARK SMILES IDX 43 69 45 70 42 71 64 72 65 73 70 74 66 75 67 76 69 77 71 78
REMARK SMILES IDX 68 79 52 80 53 81 58 82 54 83 55 84 57 85 59 86 56 87
REMARK H PARENT 21 5 13 10 26 30 76 49 50 60
REMARK Flexibility Score: inf
ROOT
ATOM      1  C   UNL A   1      38.014  23.117  26.030  1.00  0.00     0.116 C 
ENDROOT
BRANCH   1   2
ATOM      2  N   UNL A   1      37.689  23.277  24.633  1.00  0.00    -0.354 N 
ATOM      3  C   UNL A   1      36.530  23.166  23.946  1.00  0.00     0.245 C 
ATOM      4  O   UNL A   1      36.681  22.962  22.731  1.00  0.00    -0.272 OA
ATOM      5  H   UNL A   1      38.462  23.513  24.070  1.00  0.00     0.163 HD
BRANCH   3   6
ATOM      6  C   UNL A   1      35.124  23.141  24.603  1.00  0.00     0.120 C 
BRANCH   6   7
ATOM      7  N   UNL A   1      34.107  22.878  23.549  1.00  0.00    -0.323 N 
ATOM      8  C   UNL A   1      32.972  22.188  23.365  1.00  0.00     0.318 C 
ATOM      9  O   UNL A   1      32.652  22.092  22.171  1.00  0.00    -0.249 OA
ATOM     10  H   UNL A   1      34.340  23.365  22.727  1.00  0.00     0.166 HD
BRANCH   8  11
ATOM     11  N   UNL A   1      32.116  21.757  24.339  1.00  0.00    -0.319 N 
BRANCH  11  12
ATOM     12  C   UNL A   1      31.276  22.827  24.900  1.00  0.00     0.118 C 
ATOM     13  C   UNL A   1      30.891  22.574  26.358  1.00  0.00     0.027 C 
ENDBRANCH  11  12
BRANCH  11  14
ATOM     14  C   UNL A   1      31.953  20.442  24.988  1.00  0.00     0.177 C 
BRANCH  14  15
ATOM     15  C   UNL A   1      32.674  19.270  24.362  1.00  0.00     0.060 A 
ATOM     16  C   UNL A   1      33.874  18.814  24.902  1.00  0.00     0.026 A 
ATOM     17  N   UNL A   1      32.153  18.750  23.217  1.00  0.00    -0.259 NA
ATOM     18  C   UNL A   1      34.541  17.765  24.274  1.00  0.00     0.004 A 
ATOM     19  C   UNL A   1      32.810  17.716  22.646  1.00  0.00     0.111 A 
ATOM     20  C   UNL A   1      33.993  17.193  23.132  1.00  0.00     0.020 A 
ENDBRANCH  14  15
ENDBRANCH  11  14
ENDBRANCH   8  11
ENDBRANCH   6   7
BRANCH   6  21
ATOM     21  C   UNL A   1      34.641  24.407  25.366  1.00  0.00     0.035 C 
ATOM     22  C   UNL A   1      34.004  25.501  24.502  1.00  0.00     0.007 C 
ENDBRANCH   6  21
BRANCH   6  23
ATOM     23  C   UNL A   1      35.156  21.915  25.583  1.00  0.00     0.035 C 
ATOM     24  C   UNL A   1      34.594  22.154  26.984  1.00  0.00     0.007 C 
ENDBRANCH   6  23
ENDBRANCH   3   6
ENDBRANCH   1   2
BRANCH   1  25
ATOM     25  C   UNL A   1      39.286  22.282  26.176  1.00  0.00     0.023 C 
BRANCH  25  26
ATOM     26  C   UNL A   1      39.046  20.797  26.477  1.00  0.00     0.023 C 
BRANCH  26  27
ATOM     27  C   UNL A   1      39.431  19.852  25.345  1.00  0.00     0.116 C 
BRANCH  27  28
ATOM     28  N   UNL A   1      40.432  18.889  25.777  1.00  0.00    -0.352 N 
ATOM     29  C   UNL A   1      41.739  19.101  26.130  1.00  0.00     0.251 C 
ATOM     30  H   UNL A   1      40.128  17.953  25.824  1.00  0.00     0.163 HD
ATOM     31  O   UNL A   1      42.521  18.152  26.204  1.00  0.00    -0.269 OA
BRANCH  29  32
ATOM     32  C   UNL A   1      42.213  20.468  26.419  1.00  0.00     0.039 A 
ATOM     33  C   UNL A   1      42.617  21.288  25.362  1.00  0.00     0.014 A 
ATOM     34  C   UNL A   1      42.281  20.933  27.736  1.00  0.00     0.014 A 
ATOM     35  C   UNL A   1      43.037  22.594  25.622  1.00  0.00     0.010 A 
ATOM     36  C   UNL A   1      42.631  22.256  27.987  1.00  0.00     0.010 A 
ATOM     37  C   UNL A   1      43.020  23.097  26.934  1.00  0.00    -0.014 A 
BRANCH  37  38
ATOM     38  C   UNL A   1      43.407  24.500  27.225  1.00  0.00     0.031 A 
ATOM     39  C   UNL A   1      44.849  24.920  27.137  1.00  0.00     0.074 A 
ATOM     40  C   UNL A   1      42.471  25.380  27.631  1.00  0.00     0.049 A 
ATOM     41  N   UNL A   1      45.392  26.077  27.419  1.00  0.00    -0.248 NA
ATOM     42  C   UNL A   1      45.810  23.896  26.700  1.00  0.00     0.031 C 
ATOM     43  C   UNL A   1      41.048  25.083  27.801  1.00  0.00     0.029 A 
ATOM     44  N   UNL A   1      42.580  26.700  27.986  1.00  0.00    -0.354 N 
ATOM     45  C   UNL A   1      46.755  25.915  27.208  1.00  0.00     0.074 A 
ATOM     46  C   UNL A   1      46.963  24.537  26.825  1.00  0.00     0.031 C 
ATOM     47  C   UNL A   1      40.414  26.194  28.207  1.00  0.00     0.029 A 
ATOM     48  C   UNL A   1      41.388  27.269  28.363  1.00  0.00     0.049 A 
ATOM     49  H   UNL A   1      43.432  27.193  27.974  1.00  0.00     0.167 HD
ATOM     50  C   UNL A   1      47.742  26.839  27.304  1.00  0.00     0.037 A 
ATOM     51  C   UNL A   1      41.112  28.515  28.792  1.00  0.00     0.037 A 
ATOM     52  C   UNL A   1      47.529  28.216  27.663  1.00  0.00     0.049 A 
ATOM     53  C   UNL A   1      42.225  29.520  28.894  1.00  0.00     0.074 A 
ATOM     54  C   UNL A   1      48.454  29.243  27.728  1.00  0.00     0.029 A 
ATOM     55  N   UNL A   1      46.303  28.758  28.020  1.00  0.00    -0.354 N 
ATOM     56  N   UNL A   1      43.500  29.372  28.626  1.00  0.00    -0.248 NA
ATOM     57  C   UNL A   1      41.860  30.868  29.353  1.00  0.00     0.031 C 
ATOM     58  C   UNL A   1      47.796  30.397  28.167  1.00  0.00     0.029 A 
ATOM     59  C   UNL A   1      46.452  30.101  28.328  1.00  0.00     0.049 A 
ATOM     60  H   UNL A   1      45.453  28.263  28.050  1.00  0.00     0.167 HD
ATOM     61  C   UNL A   1      44.083  30.611  28.856  1.00  0.00     0.074 A 
ATOM     62  C   UNL A   1      43.021  31.503  29.272  1.00  0.00     0.031 C 
ATOM     63  C   UNL A   1      45.383  30.977  28.733  1.00  0.00     0.037 A 
BRANCH  50  64
ATOM     64  C   UNL A   1      49.144  26.387  27.012  1.00  0.00     0.057 A 
ATOM     65  C   UNL A   1      49.668  26.397  25.712  1.00  0.00     0.134 A 
ATOM     66  C   UNL A   1      49.991  25.969  28.045  1.00  0.00     0.134 A 
ATOM     67  F   UNL A   1      48.905  26.775  24.675  1.00  0.00    -0.206 F 
ATOM     68  C   UNL A   1      50.974  25.982  25.448  1.00  0.00     0.040 A 
ATOM     69  C   UNL A   1      51.308  25.579  27.797  1.00  0.00     0.040 A 
ATOM     70  F   UNL A   1      49.557  25.940  29.315  1.00  0.00    -0.206 F 
ATOM     71  C   UNL A   1      51.801  25.578  26.494  1.00  0.00     0.006 A 
ENDBRANCH  50  64
BRANCH  51  72
ATOM     72  C   UNL A   1      39.718  28.891  29.135  1.00  0.00     0.057 A 
ATOM     73  C   UNL A   1      38.831  29.345  28.151  1.00  0.00     0.134 A 
ATOM     74  C   UNL A   1      39.240  28.811  30.448  1.00  0.00     0.134 A 
ATOM     75  F   UNL A   1      39.237  29.460  26.878  1.00  0.00    -0.206 F 
ATOM     76  C   UNL A   1      37.524  29.724  28.463  1.00  0.00     0.040 A 
ATOM     77  C   UNL A   1      37.928  29.163  30.769  1.00  0.00     0.040 A 
ATOM     78  F   UNL A   1      40.037  28.376  31.434  1.00  0.00    -0.206 F 
ATOM     79  C   UNL A   1      37.069  29.628  29.777  1.00  0.00     0.006 A 
ENDBRANCH  51  72
BRANCH  63  80
ATOM     80  C   UNL A   1      45.722  32.412  29.017  1.00  0.00     0.057 A 
ATOM     81  C   UNL A   1      46.122  32.839  30.289  1.00  0.00     0.134 A 
ATOM     82  C   UNL A   1      45.684  33.367  27.995  1.00  0.00     0.134 A 
ATOM     83  F   UNL A   1      46.166  31.975  31.315  1.00  0.00    -0.206 F 
ATOM     84  C   UNL A   1      46.451  34.172  30.540  1.00  0.00     0.040 A 
ATOM     85  C   UNL A   1      46.036  34.697  28.226  1.00  0.00     0.040 A 
ATOM     86  F   UNL A   1      45.317  33.022  26.751  1.00  0.00    -0.206 F 
ATOM     87  C   UNL A   1      46.416  35.104  29.503  1.00  0.00     0.006 A 
ENDBRANCH  63  80
ENDBRANCH  37  38
ENDBRANCH  29  32
ENDBRANCH  27  28
ENDBRANCH  26  27
ENDBRANCH  25  26
ENDBRANCH   1  25
TORSDOF 18
ENDMDL
