MODEL 1
REMARK VINA RESULT:     -12.3      0.000      0.000
REMARK SMILES N#C/C(=C/c1ccc(-c2cccc(C(=O)NCCCCNC(=O)c3ccc(-c4c5nc(c(-c6c(F)cccc6F)c6ccc([nH]6)c(-c6c(F)cccc6F)c6nc(c(-c7c(F)cccc7F)c7ccc4[nH]7)C=C6)C=C5)cc3)c2)o1)c1ccc(F)cc1
REMARK SMILES IDX 18 1 17 2 16 3 14 4 15 5 13 7 9 8 10 9 78 10 11 11 12 12
REMARK SMILES IDX 8 13 5 14 6 15 79 16 7 17 4 18 3 19 2 20 1 21 80 22 81 23
REMARK SMILES IDX 86 24 82 25 85 26 83 27 84 28 19 29 20 30 21 31 22 32 23 34
REMARK SMILES IDX 24 35 25 36 77 37 26 38 76 39 27 40 28 41 29 42 70 43 30 44
REMARK SMILES IDX 75 45 69 46 71 47 31 48 74 49 68 50 67 51 32 53 58 54 41 55
REMARK SMILES IDX 57 56 42 57 45 58 56 59 72 60 43 61 44 62 55 64 73 65 46 66
REMARK SMILES IDX 33 67 34 68 39 69 35 70 36 71 38 72 40 73 37 74 59 75 60 76
REMARK SMILES IDX 65 77 61 78 62 79 64 80 66 81 63 82 47 83 48 84 53 85 49 86
REMARK SMILES IDX 50 87 52 88 54 89 51 90
REMARK H PARENT 16 6 21 33 71 52 45 63
REMARK Flexibility Score: inf
ROOT
ATOM      1  C   UNL A   1      33.397  29.293  24.641  1.00  0.00     0.023 C 
ENDROOT
BRANCH   1   2
ATOM      2  C   UNL A   1      33.015  28.546  23.372  1.00  0.00     0.116 C 
BRANCH   2   3
ATOM      3  N   UNL A   1      32.092  29.248  22.488  1.00  0.00    -0.352 N 
ATOM      4  C   UNL A   1      30.710  29.204  22.406  1.00  0.00     0.251 C 
ATOM      5  O   UNL A   1      30.136  29.887  21.561  1.00  0.00    -0.269 OA
ATOM      6  H   UNL A   1      32.522  29.854  21.843  1.00  0.00     0.163 HD
BRANCH   4   7
ATOM      7  C   UNL A   1      29.915  28.295  23.273  1.00  0.00     0.040 A 
ATOM      8  C   UNL A   1      29.900  26.402  24.784  1.00  0.00     0.018 A 
ATOM      9  C   UNL A   1      28.546  26.198  24.508  1.00  0.00     0.012 A 
ATOM     10  C   UNL A   1      30.526  27.542  24.270  1.00  0.00     0.025 A 
ATOM     11  C   UNL A   1      27.860  27.087  23.672  1.00  0.00     0.002 A 
ATOM     12  C   UNL A   1      28.554  28.112  23.021  1.00  0.00     0.014 A 
BRANCH   8  13
ATOM     13  C   UNL A   1      30.751  25.409  25.425  1.00  0.00     0.134 A 
ATOM     14  C   UNL A   1      32.732  24.652  26.101  1.00  0.00     0.128 A 
ATOM     15  C   UNL A   1      31.745  23.980  26.815  1.00  0.00     0.051 A 
ATOM     16  O   UNL A   1      32.101  25.553  25.268  1.00  0.00    -0.457 OA
ATOM     17  C   UNL A   1      30.492  24.420  26.349  1.00  0.00     0.051 A 
BRANCH  14  18
ATOM     18  C   UNL A   1      34.145  24.440  26.128  1.00  0.00     0.067 C 
ATOM     19  C   UNL A   1      34.714  23.520  25.324  1.00  0.00     0.063 C 
BRANCH  19  20
ATOM     20  C   UNL A   1      36.200  23.203  25.370  1.00  0.00     0.100 C 
ATOM     21  N   UNL A   1      37.433  22.941  25.408  1.00  0.00    -0.192 NA
ENDBRANCH  19  20
BRANCH  19  22
ATOM     22  C   UNL A   1      33.948  22.766  24.287  1.00  0.00    -0.007 A 
ATOM     23  C   UNL A   1      33.685  23.343  23.028  1.00  0.00     0.012 A 
ATOM     24  C   UNL A   1      33.443  21.485  24.562  1.00  0.00     0.012 A 
ATOM     25  C   UNL A   1      32.876  22.687  22.099  1.00  0.00     0.040 A 
ATOM     26  C   UNL A   1      32.650  20.823  23.621  1.00  0.00     0.040 A 
ATOM     27  C   UNL A   1      32.361  21.436  22.406  1.00  0.00     0.123 A 
ATOM     28  F   UNL A   1      31.570  20.814  21.523  1.00  0.00    -0.207 F 
ENDBRANCH  19  22
ENDBRANCH  14  18
ENDBRANCH   8  13
ENDBRANCH   4   7
ENDBRANCH   2   3
ENDBRANCH   1   2
BRANCH   1  29
ATOM     29  C   UNL A   1      34.064  28.475  25.738  1.00  0.00     0.023 C 
BRANCH  29  30
ATOM     30  C   UNL A   1      33.538  28.687  27.153  1.00  0.00     0.116 C 
BRANCH  30  31
ATOM     31  N   UNL A   1      33.589  30.069  27.610  1.00  0.00    -0.352 N 
ATOM     32  C   UNL A   1      34.633  30.779  28.160  1.00  0.00     0.251 C 
ATOM     33  H   UNL A   1      32.748  30.573  27.511  1.00  0.00     0.163 HD
ATOM     34  O   UNL A   1      34.462  31.932  28.533  1.00  0.00    -0.269 OA
BRANCH  32  35
ATOM     35  C   UNL A   1      35.951  30.131  28.346  1.00  0.00     0.039 A 
ATOM     36  C   UNL A   1      36.885  30.201  27.308  1.00  0.00     0.014 A 
ATOM     37  C   UNL A   1      36.282  29.494  29.544  1.00  0.00     0.014 A 
ATOM     38  C   UNL A   1      38.183  29.723  27.510  1.00  0.00     0.010 A 
ATOM     39  C   UNL A   1      37.596  29.093  29.772  1.00  0.00     0.010 A 
ATOM     40  C   UNL A   1      38.563  29.215  28.762  1.00  0.00    -0.014 A 
BRANCH  40  41
ATOM     41  C   UNL A   1      39.967  28.821  29.045  1.00  0.00     0.031 A 
ATOM     42  C   UNL A   1      40.904  29.788  29.716  1.00  0.00     0.074 A 
ATOM     43  C   UNL A   1      40.422  27.622  28.631  1.00  0.00     0.049 A 
ATOM     44  N   UNL A   1      42.185  29.667  29.956  1.00  0.00    -0.248 NA
ATOM     45  C   UNL A   1      40.330  31.073  30.148  1.00  0.00     0.031 C 
ATOM     46  C   UNL A   1      39.630  26.610  27.927  1.00  0.00     0.029 A 
ATOM     47  N   UNL A   1      41.669  27.054  28.730  1.00  0.00    -0.354 N 
ATOM     48  C   UNL A   1      42.571  30.861  30.552  1.00  0.00     0.074 A 
ATOM     49  C   UNL A   1      41.403  31.713  30.590  1.00  0.00     0.031 C 
ATOM     50  C   UNL A   1      40.403  25.540  27.677  1.00  0.00     0.029 A 
ATOM     51  C   UNL A   1      41.752  25.802  28.168  1.00  0.00     0.049 A 
ATOM     52  H   UNL A   1      42.431  27.502  29.163  1.00  0.00     0.167 HD
ATOM     53  C   UNL A   1      43.784  31.208  31.045  1.00  0.00     0.037 A 
ATOM     54  C   UNL A   1      42.800  24.964  28.055  1.00  0.00     0.037 A 
ATOM     55  C   UNL A   1      44.940  30.351  31.034  1.00  0.00     0.049 A 
ATOM     56  C   UNL A   1      44.136  25.376  28.609  1.00  0.00     0.074 A 
ATOM     57  C   UNL A   1      46.199  30.596  31.553  1.00  0.00     0.029 A 
ATOM     58  N   UNL A   1      44.975  29.081  30.482  1.00  0.00    -0.354 N 
ATOM     59  N   UNL A   1      44.471  26.487  29.219  1.00  0.00    -0.248 NA
ATOM     60  C   UNL A   1      45.239  24.415  28.463  1.00  0.00     0.031 C 
ATOM     61  C   UNL A   1      47.007  29.485  31.287  1.00  0.00     0.029 A 
ATOM     62  C   UNL A   1      46.237  28.534  30.638  1.00  0.00     0.049 A 
ATOM     63  H   UNL A   1      44.215  28.634  30.043  1.00  0.00     0.167 HD
ATOM     64  C   UNL A   1      45.811  26.345  29.556  1.00  0.00     0.074 A 
ATOM     65  C   UNL A   1      46.224  25.037  29.094  1.00  0.00     0.031 C 
ATOM     66  C   UNL A   1      46.627  27.222  30.189  1.00  0.00     0.037 A 
BRANCH  53  67
ATOM     67  C   UNL A   1      43.916  32.570  31.657  1.00  0.00     0.057 A 
ATOM     68  C   UNL A   1      43.691  32.786  33.022  1.00  0.00     0.134 A 
ATOM     69  C   UNL A   1      44.315  33.669  30.885  1.00  0.00     0.134 A 
ATOM     70  F   UNL A   1      43.294  31.778  33.813  1.00  0.00    -0.206 F 
ATOM     71  C   UNL A   1      43.838  34.050  33.596  1.00  0.00     0.040 A 
ATOM     72  C   UNL A   1      44.489  34.933  31.452  1.00  0.00     0.040 A 
ATOM     73  F   UNL A   1      44.552  33.530  29.572  1.00  0.00    -0.206 F 
ATOM     74  C   UNL A   1      44.246  35.127  32.810  1.00  0.00     0.006 A 
ENDBRANCH  53  67
BRANCH  54  75
ATOM     75  C   UNL A   1      42.634  23.639  27.406  1.00  0.00     0.057 A 
ATOM     76  C   UNL A   1      42.807  23.489  26.024  1.00  0.00     0.134 A 
ATOM     77  C   UNL A   1      42.271  22.503  28.137  1.00  0.00     0.134 A 
ATOM     78  F   UNL A   1      43.135  24.546  25.267  1.00  0.00    -0.206 F 
ATOM     79  C   UNL A   1      42.598  22.264  25.388  1.00  0.00     0.040 A 
ATOM     80  C   UNL A   1      42.082  21.265  27.518  1.00  0.00     0.040 A 
ATOM     81  F   UNL A   1      42.096  22.579  29.464  1.00  0.00    -0.206 F 
ATOM     82  C   UNL A   1      42.237  21.146  26.138  1.00  0.00     0.006 A 
ENDBRANCH  54  75
BRANCH  66  83
ATOM     83  C   UNL A   1      48.033  26.778  30.458  1.00  0.00     0.057 A 
ATOM     84  C   UNL A   1      48.370  26.042  31.600  1.00  0.00     0.134 A 
ATOM     85  C   UNL A   1      49.056  27.059  29.542  1.00  0.00     0.134 A 
ATOM     86  F   UNL A   1      47.438  25.753  32.521  1.00  0.00    -0.206 F 
ATOM     87  C   UNL A   1      49.679  25.618  31.833  1.00  0.00     0.040 A 
ATOM     88  C   UNL A   1      50.363  26.622  29.753  1.00  0.00     0.040 A 
ATOM     89  F   UNL A   1      48.797  27.754  28.425  1.00  0.00    -0.206 F 
ATOM     90  C   UNL A   1      50.679  25.903  30.904  1.00  0.00     0.006 A 
ENDBRANCH  66  83
ENDBRANCH  40  41
ENDBRANCH  32  35
ENDBRANCH  30  31
ENDBRANCH  29  30
ENDBRANCH   1  29
TORSDOF 15
ENDMDL
MODEL 2
REMARK VINA RESULT:     -12.3      1.655      2.510
REMARK SMILES N#C/C(=C/c1ccc(-c2cccc(C(=O)NCCCCNC(=O)c3ccc(-c4c5nc(c(-c6c(F)cccc6F)c6ccc([nH]6)c(-c6c(F)cccc6F)c6nc(c(-c7c(F)cccc7F)c7ccc4[nH]7)C=C6)C=C5)cc3)c2)o1)c1ccc(F)cc1
REMARK SMILES IDX 18 1 17 2 16 3 14 4 15 5 13 7 9 8 10 9 78 10 11 11 12 12
REMARK SMILES IDX 8 13 5 14 6 15 79 16 7 17 4 18 3 19 2 20 1 21 80 22 81 23
REMARK SMILES IDX 86 24 82 25 85 26 83 27 84 28 19 29 20 30 21 31 22 32 23 34
REMARK SMILES IDX 24 35 25 36 77 37 26 38 76 39 27 40 28 41 29 42 70 43 30 44
REMARK SMILES IDX 75 45 69 46 71 47 31 48 74 49 68 50 67 51 32 53 58 54 41 55
REMARK SMILES IDX 57 56 42 57 45 58 56 59 72 60 43 61 44 62 55 64 73 65 46 66
REMARK SMILES IDX 33 67 34 68 39 69 35 70 36 71 38 72 40 73 37 74 59 75 60 76
REMARK SMILES IDX 65 77 61 78 62 79 64 80 66 81 63 82 47 83 48 84 53 85 49 86
REMARK SMILES IDX 50 87 52 88 54 89 51 90
REMARK H PARENT 16 6 21 33 71 52 45 63
REMARK Flexibility Score: inf
ROOT
ATOM      1  C   UNL A   1      31.548  29.537  26.771  1.00  0.00     0.023 C 
ENDROOT
BRANCH   1   2
ATOM      2  C   UNL A   1      31.682  30.551  25.646  1.00  0.00     0.116 C 
BRANCH   2   3
ATOM      3  N   UNL A   1      30.603  30.545  24.666  1.00  0.00    -0.352 N 
ATOM      4  C   UNL A   1      30.338  29.677  23.620  1.00  0.00     0.251 C 
ATOM      5  O   UNL A   1      29.358  29.877  22.906  1.00  0.00    -0.269 OA
ATOM      6  H   UNL A   1      29.955  31.279  24.763  1.00  0.00     0.163 HD
BRANCH   4   7
ATOM      7  C   UNL A   1      31.252  28.548  23.304  1.00  0.00     0.040 A 
ATOM      8  C   UNL A   1      31.955  26.283  23.798  1.00  0.00     0.018 A 
ATOM      9  C   UNL A   1      33.198  26.547  23.218  1.00  0.00     0.012 A 
ATOM     10  C   UNL A   1      30.949  27.250  23.699  1.00  0.00     0.025 A 
ATOM     11  C   UNL A   1      33.440  27.787  22.615  1.00  0.00     0.002 A 
ATOM     12  C   UNL A   1      32.483  28.803  22.695  1.00  0.00     0.014 A 
BRANCH   8  13
ATOM     13  C   UNL A   1      31.693  25.137  24.659  1.00  0.00     0.134 A 
ATOM     14  C   UNL A   1      31.948  23.000  25.227  1.00  0.00     0.128 A 
ATOM     15  C   UNL A   1      31.491  23.694  26.343  1.00  0.00     0.051 A 
ATOM     16  O   UNL A   1      32.097  23.913  24.203  1.00  0.00    -0.457 OA
ATOM     17  C   UNL A   1      31.278  25.034  25.968  1.00  0.00     0.051 A 
BRANCH  14  18
ATOM     18  C   UNL A   1      32.169  21.596  25.086  1.00  0.00     0.067 C 
ATOM     19  C   UNL A   1      33.418  21.109  24.945  1.00  0.00     0.063 C 
BRANCH  19  20
ATOM     20  C   UNL A   1      33.698  19.633  24.715  1.00  0.00     0.100 C 
ATOM     21  N   UNL A   1      33.931  18.408  24.525  1.00  0.00    -0.192 NA
ENDBRANCH  19  20
BRANCH  19  22
ATOM     22  C   UNL A   1      34.637  21.966  25.048  1.00  0.00    -0.007 A 
ATOM     23  C   UNL A   1      35.421  22.239  23.909  1.00  0.00     0.012 A 
ATOM     24  C   UNL A   1      35.046  22.481  26.289  1.00  0.00     0.012 A 
ATOM     25  C   UNL A   1      36.620  22.946  24.020  1.00  0.00     0.040 A 
ATOM     26  C   UNL A   1      36.237  23.205  26.393  1.00  0.00     0.040 A 
ATOM     27  C   UNL A   1      37.019  23.417  25.263  1.00  0.00     0.123 A 
ATOM     28  F   UNL A   1      38.178  24.078  25.375  1.00  0.00    -0.207 F 
ENDBRANCH  19  22
ENDBRANCH  14  18
ENDBRANCH   8  13
ENDBRANCH   4   7
ENDBRANCH   2   3
ENDBRANCH   1   2
BRANCH   1  29
ATOM     29  C   UNL A   1      32.621  28.460  26.850  1.00  0.00     0.023 C 
BRANCH  29  30
ATOM     30  C   UNL A   1      34.021  28.929  27.225  1.00  0.00     0.116 C 
BRANCH  30  31
ATOM     31  N   UNL A   1      34.053  30.161  28.001  1.00  0.00    -0.352 N 
ATOM     32  C   UNL A   1      35.088  30.733  28.707  1.00  0.00     0.251 C 
ATOM     33  H   UNL A   1      33.205  30.661  28.026  1.00  0.00     0.163 HD
ATOM     34  O   UNL A   1      34.901  31.759  29.347  1.00  0.00    -0.269 OA
BRANCH  32  35
ATOM     35  C   UNL A   1      36.416  30.078  28.734  1.00  0.00     0.039 A 
ATOM     36  C   UNL A   1      37.240  30.187  27.609  1.00  0.00     0.014 A 
ATOM     37  C   UNL A   1      36.865  29.397  29.867  1.00  0.00     0.014 A 
ATOM     38  C   UNL A   1      38.549  29.703  27.660  1.00  0.00     0.010 A 
ATOM     39  C   UNL A   1      38.193  28.987  29.944  1.00  0.00     0.010 A 
ATOM     40  C   UNL A   1      39.053  29.148  28.847  1.00  0.00    -0.014 A 
BRANCH  40  41
ATOM     41  C   UNL A   1      40.478  28.743  28.971  1.00  0.00     0.031 A 
ATOM     42  C   UNL A   1      41.504  29.729  29.458  1.00  0.00     0.074 A 
ATOM     43  C   UNL A   1      40.861  27.514  28.573  1.00  0.00     0.049 A 
ATOM     44  N   UNL A   1      42.804  29.597  29.538  1.00  0.00    -0.248 NA
ATOM     45  C   UNL A   1      41.006  31.047  29.883  1.00  0.00     0.031 C 
ATOM     46  C   UNL A   1      39.973  26.479  28.037  1.00  0.00     0.029 A 
ATOM     47  N   UNL A   1      42.103  26.928  28.545  1.00  0.00    -0.354 N 
ATOM     48  C   UNL A   1      43.278  30.815  30.008  1.00  0.00     0.074 A 
ATOM     49  C   UNL A   1      42.134  31.690  30.146  1.00  0.00     0.031 C 
ATOM     50  C   UNL A   1      40.695  25.382  27.753  1.00  0.00     0.029 A 
ATOM     51  C   UNL A   1      42.099  25.645  28.052  1.00  0.00     0.049 A 
ATOM     52  H   UNL A   1      42.920  27.386  28.849  1.00  0.00     0.167 HD
ATOM     53  C   UNL A   1      44.548  31.166  30.321  1.00  0.00     0.037 A 
ATOM     54  C   UNL A   1      43.113  24.782  27.855  1.00  0.00     0.037 A 
ATOM     55  C   UNL A   1      45.683  30.288  30.213  1.00  0.00     0.049 A 
ATOM     56  C   UNL A   1      44.514  25.200  28.208  1.00  0.00     0.074 A 
ATOM     57  C   UNL A   1      47.001  30.538  30.551  1.00  0.00     0.029 A 
ATOM     58  N   UNL A   1      45.631  28.988  29.736  1.00  0.00    -0.354 N 
ATOM     59  N   UNL A   1      44.938  26.337  28.703  1.00  0.00    -0.248 NA
ATOM     60  C   UNL A   1      45.578  24.211  27.979  1.00  0.00     0.031 C 
ATOM     61  C   UNL A   1      47.755  29.398  30.250  1.00  0.00     0.029 A 
ATOM     62  C   UNL A   1      46.897  28.427  29.761  1.00  0.00     0.049 A 
ATOM     63  H   UNL A   1      44.816  28.532  29.426  1.00  0.00     0.167 HD
ATOM     64  C   UNL A   1      46.308  26.189  28.873  1.00  0.00     0.074 A 
ATOM     65  C   UNL A   1      46.643  24.849  28.441  1.00  0.00     0.031 C 
ATOM     66  C   UNL A   1      47.210  27.084  29.344  1.00  0.00     0.037 A 
BRANCH  53  67
ATOM     67  C   UNL A   1      44.774  32.559  30.829  1.00  0.00     0.057 A 
ATOM     68  C   UNL A   1      45.051  33.621  29.959  1.00  0.00     0.134 A 
ATOM     69  C   UNL A   1      44.672  32.851  32.195  1.00  0.00     0.134 A 
ATOM     70  F   UNL A   1      45.175  33.404  28.640  1.00  0.00    -0.206 F 
ATOM     71  C   UNL A   1      45.237  34.921  30.430  1.00  0.00     0.040 A 
ATOM     72  C   UNL A   1      44.832  34.152  32.676  1.00  0.00     0.040 A 
ATOM     73  F   UNL A   1      44.404  31.880  33.081  1.00  0.00    -0.206 F 
ATOM     74  C   UNL A   1      45.120  35.191  31.793  1.00  0.00     0.006 A 
ENDBRANCH  53  67
BRANCH  54  75
ATOM     75  C   UNL A   1      42.850  23.426  27.312  1.00  0.00     0.057 A 
ATOM     76  C   UNL A   1      42.952  23.169  25.939  1.00  0.00     0.134 A 
ATOM     77  C   UNL A   1      42.460  22.366  28.138  1.00  0.00     0.134 A 
ATOM     78  F   UNL A   1      43.301  24.150  25.093  1.00  0.00    -0.206 F 
ATOM     79  C   UNL A   1      42.651  21.916  25.403  1.00  0.00     0.040 A 
ATOM     80  C   UNL A   1      42.180  21.100  27.620  1.00  0.00     0.040 A 
ATOM     81  F   UNL A   1      42.349  22.545  29.462  1.00  0.00    -0.206 F 
ATOM     82  C   UNL A   1      42.266  20.875  26.247  1.00  0.00     0.006 A 
ENDBRANCH  54  75
BRANCH  66  83
ATOM     83  C   UNL A   1      48.634  26.629  29.457  1.00  0.00     0.057 A 
ATOM     84  C   UNL A   1      49.571  26.875  28.446  1.00  0.00     0.134 A 
ATOM     85  C   UNL A   1      49.081  25.970  30.609  1.00  0.00     0.134 A 
ATOM     86  F   UNL A   1      49.200  27.491  27.312  1.00  0.00    -0.206 F 
ATOM     87  C   UNL A   1      50.898  26.463  28.567  1.00  0.00     0.040 A 
ATOM     88  C   UNL A   1      50.411  25.573  30.752  1.00  0.00     0.040 A 
ATOM     89  F   UNL A   1      48.235  25.711  31.617  1.00  0.00    -0.206 F 
ATOM     90  C   UNL A   1      51.323  25.816  29.726  1.00  0.00     0.006 A 
ENDBRANCH  66  83
ENDBRANCH  40  41
ENDBRANCH  32  35
ENDBRANCH  30  31
ENDBRANCH  29  30
ENDBRANCH   1  29
TORSDOF 15
ENDMDL
MODEL 3
REMARK VINA RESULT:     -12.2      4.371      7.712
REMARK SMILES N#C/C(=C/c1ccc(-c2cccc(C(=O)NCCCCNC(=O)c3ccc(-c4c5nc(c(-c6c(F)cccc6F)c6ccc([nH]6)c(-c6c(F)cccc6F)c6nc(c(-c7c(F)cccc7F)c7ccc4[nH]7)C=C6)C=C5)cc3)c2)o1)c1ccc(F)cc1
REMARK SMILES IDX 18 1 17 2 16 3 14 4 15 5 13 7 9 8 10 9 78 10 11 11 12 12
REMARK SMILES IDX 8 13 5 14 6 15 79 16 7 17 4 18 3 19 2 20 1 21 80 22 81 23
REMARK SMILES IDX 86 24 82 25 85 26 83 27 84 28 19 29 20 30 21 31 22 32 23 34
REMARK SMILES IDX 24 35 25 36 77 37 26 38 76 39 27 40 28 41 29 42 70 43 30 44
REMARK SMILES IDX 75 45 69 46 71 47 31 48 74 49 68 50 67 51 32 53 58 54 41 55
REMARK SMILES IDX 57 56 42 57 45 58 56 59 72 60 43 61 44 62 55 64 73 65 46 66
REMARK SMILES IDX 33 67 34 68 39 69 35 70 36 71 38 72 40 73 37 74 59 75 60 76
REMARK SMILES IDX 65 77 61 78 62 79 64 80 66 81 63 82 47 83 48 84 53 85 49 86
REMARK SMILES IDX 50 87 52 88 54 89 51 90
REMARK H PARENT 16 6 21 33 71 52 45 63
REMARK Flexibility Score: inf
ROOT
ATOM      1  C   UNL A   1      34.688  35.013  28.514  1.00  0.00     0.023 C 
ENDROOT
BRANCH   1   2
ATOM      2  C   UNL A   1      33.288  35.045  29.111  1.00  0.00     0.116 C 
BRANCH   2   3
ATOM      3  N   UNL A   1      32.957  36.249  29.863  1.00  0.00    -0.352 N 
ATOM      4  C   UNL A   1      33.192  36.580  31.187  1.00  0.00     0.251 C 
ATOM      5  O   UNL A   1      32.808  37.667  31.612  1.00  0.00    -0.269 OA
ATOM      6  H   UNL A   1      32.489  36.942  29.344  1.00  0.00     0.163 HD
BRANCH   4   7
ATOM      7  C   UNL A   1      33.839  35.619  32.119  1.00  0.00     0.040 A 
ATOM      8  C   UNL A   1      35.891  34.622  32.931  1.00  0.00     0.018 A 
ATOM      9  C   UNL A   1      35.168  33.522  33.396  1.00  0.00     0.012 A 
ATOM     10  C   UNL A   1      35.191  35.723  32.428  1.00  0.00     0.025 A 
ATOM     11  C   UNL A   1      33.772  33.505  33.288  1.00  0.00     0.002 A 
ATOM     12  C   UNL A   1      33.111  34.535  32.612  1.00  0.00     0.014 A 
BRANCH   8  13
ATOM     13  C   UNL A   1      37.339  34.625  32.769  1.00  0.00     0.134 A 
ATOM     14  C   UNL A   1      39.407  34.277  33.516  1.00  0.00     0.128 A 
ATOM     15  C   UNL A   1      39.448  34.309  32.125  1.00  0.00     0.051 A 
ATOM     16  O   UNL A   1      38.091  34.444  33.896  1.00  0.00    -0.457 OA
ATOM     17  C   UNL A   1      38.150  34.584  31.656  1.00  0.00     0.051 A 
BRANCH  14  18
ATOM     18  C   UNL A   1      40.498  34.170  34.432  1.00  0.00     0.067 C 
ATOM     19  C   UNL A   1      40.907  32.964  34.872  1.00  0.00     0.063 C 
BRANCH  19  20
ATOM     20  C   UNL A   1      42.011  32.802  35.904  1.00  0.00     0.100 C 
ATOM     21  N   UNL A   1      42.927  32.669  36.760  1.00  0.00    -0.192 NA
ENDBRANCH  19  20
BRANCH  19  22
ATOM     22  C   UNL A   1      40.346  31.680  34.354  1.00  0.00    -0.007 A 
ATOM     23  C   UNL A   1      41.192  30.702  33.793  1.00  0.00     0.012 A 
ATOM     24  C   UNL A   1      38.963  31.442  34.380  1.00  0.00     0.012 A 
ATOM     25  C   UNL A   1      40.662  29.551  33.207  1.00  0.00     0.040 A 
ATOM     26  C   UNL A   1      38.437  30.279  33.810  1.00  0.00     0.040 A 
ATOM     27  C   UNL A   1      39.288  29.354  33.216  1.00  0.00     0.123 A 
ATOM     28  F   UNL A   1      38.776  28.260  32.638  1.00  0.00    -0.207 F 
ENDBRANCH  19  22
ENDBRANCH  14  18
ENDBRANCH   8  13
ENDBRANCH   4   7
ENDBRANCH   2   3
ENDBRANCH   1   2
BRANCH   1  29
ATOM     29  C   UNL A   1      35.637  33.955  29.059  1.00  0.00     0.023 C 
BRANCH  29  30
ATOM     30  C   UNL A   1      34.992  32.771  29.770  1.00  0.00     0.116 C 
BRANCH  30  31
ATOM     31  N   UNL A   1      34.150  31.945  28.915  1.00  0.00    -0.352 N 
ATOM     32  C   UNL A   1      34.436  30.758  28.278  1.00  0.00     0.251 C 
ATOM     33  H   UNL A   1      33.239  32.288  28.770  1.00  0.00     0.163 HD
ATOM     34  O   UNL A   1      33.601  30.235  27.552  1.00  0.00    -0.269 OA
BRANCH  32  35
ATOM     35  C   UNL A   1      35.771  30.138  28.433  1.00  0.00     0.039 A 
ATOM     36  C   UNL A   1      36.647  30.151  27.342  1.00  0.00     0.014 A 
ATOM     37  C   UNL A   1      36.176  29.584  29.649  1.00  0.00     0.014 A 
ATOM     38  C   UNL A   1      37.960  29.702  27.504  1.00  0.00     0.010 A 
ATOM     39  C   UNL A   1      37.505  29.213  29.830  1.00  0.00     0.010 A 
ATOM     40  C   UNL A   1      38.415  29.280  28.763  1.00  0.00    -0.014 A 
BRANCH  40  41
ATOM     41  C   UNL A   1      39.838  28.921  28.993  1.00  0.00     0.031 A 
ATOM     42  C   UNL A   1      40.788  29.931  29.577  1.00  0.00     0.074 A 
ATOM     43  C   UNL A   1      40.294  27.713  28.607  1.00  0.00     0.049 A 
ATOM     44  N   UNL A   1      42.081  29.840  29.759  1.00  0.00    -0.248 NA
ATOM     45  C   UNL A   1      40.213  31.223  29.983  1.00  0.00     0.031 C 
ATOM     46  C   UNL A   1      39.488  26.659  27.985  1.00  0.00     0.029 A 
ATOM     47  N   UNL A   1      41.554  27.170  28.670  1.00  0.00    -0.354 N 
ATOM     48  C   UNL A   1      42.474  31.065  30.285  1.00  0.00     0.074 A 
ATOM     49  C   UNL A   1      41.293  31.899  30.345  1.00  0.00     0.031 C 
ATOM     50  C   UNL A   1      40.267  25.593  27.743  1.00  0.00     0.029 A 
ATOM     51  C   UNL A   1      41.633  25.897  28.157  1.00  0.00     0.049 A 
ATOM     52  H   UNL A   1      42.328  27.648  29.045  1.00  0.00     0.167 HD
ATOM     53  C   UNL A   1      43.703  31.451  30.704  1.00  0.00     0.037 A 
ATOM     54  C   UNL A   1      42.689  25.071  28.027  1.00  0.00     0.037 A 
ATOM     55  C   UNL A   1      44.872  30.614  30.672  1.00  0.00     0.049 A 
ATOM     56  C   UNL A   1      44.042  25.528  28.498  1.00  0.00     0.074 A 
ATOM     57  C   UNL A   1      46.150  30.901  31.118  1.00  0.00     0.029 A 
ATOM     58  N   UNL A   1      44.903  29.322  30.172  1.00  0.00    -0.354 N 
ATOM     59  N   UNL A   1      44.386  26.669  29.044  1.00  0.00    -0.248 NA
ATOM     60  C   UNL A   1      45.154  24.580  28.339  1.00  0.00     0.031 C 
ATOM     61  C   UNL A   1      46.964  29.793  30.860  1.00  0.00     0.029 A 
ATOM     62  C   UNL A   1      46.181  28.802  30.289  1.00  0.00     0.049 A 
ATOM     63  H   UNL A   1      44.132  28.845  29.790  1.00  0.00     0.167 HD
ATOM     64  C   UNL A   1      45.743  26.563  29.321  1.00  0.00     0.074 A 
ATOM     65  C   UNL A   1      46.157  25.244  28.894  1.00  0.00     0.031 C 
ATOM     66  C   UNL A   1      46.572  27.479  29.876  1.00  0.00     0.037 A 
BRANCH  53  67
ATOM     67  C   UNL A   1      43.840  32.841  31.251  1.00  0.00     0.057 A 
ATOM     68  C   UNL A   1      43.962  33.079  32.626  1.00  0.00     0.134 A 
ATOM     69  C   UNL A   1      43.894  33.948  30.395  1.00  0.00     0.134 A 
ATOM     70  F   UNL A   1      43.904  32.062  33.499  1.00  0.00    -0.206 F 
ATOM     71  C   UNL A   1      44.113  34.370  33.133  1.00  0.00     0.040 A 
ATOM     72  C   UNL A   1      44.070  35.243  30.888  1.00  0.00     0.040 A 
ATOM     73  F   UNL A   1      43.788  33.789  29.067  1.00  0.00    -0.206 F 
ATOM     74  C   UNL A   1      44.176  35.457  32.261  1.00  0.00     0.006 A 
ENDBRANCH  53  67
BRANCH  54  75
ATOM     75  C   UNL A   1      42.517  23.717  27.443  1.00  0.00     0.057 A 
ATOM     76  C   UNL A   1      42.307  22.602  28.264  1.00  0.00     0.134 A 
ATOM     77  C   UNL A   1      42.589  23.498  26.063  1.00  0.00     0.134 A 
ATOM     78  F   UNL A   1      42.249  22.746  29.596  1.00  0.00    -0.206 F 
ATOM     79  C   UNL A   1      42.202  21.314  27.736  1.00  0.00     0.040 A 
ATOM     80  C   UNL A   1      42.461  22.219  25.519  1.00  0.00     0.040 A 
ATOM     81  F   UNL A   1      42.782  24.525  25.223  1.00  0.00    -0.206 F 
ATOM     82  C   UNL A   1      42.276  21.121  26.358  1.00  0.00     0.006 A 
ENDBRANCH  54  75
BRANCH  66  83
ATOM     83  C   UNL A   1      47.998  27.070  30.095  1.00  0.00     0.057 A 
ATOM     84  C   UNL A   1      48.403  26.387  31.248  1.00  0.00     0.134 A 
ATOM     85  C   UNL A   1      48.970  27.329  29.120  1.00  0.00     0.134 A 
ATOM     86  F   UNL A   1      47.521  26.121  32.224  1.00  0.00    -0.206 F 
ATOM     87  C   UNL A   1      49.729  25.994  31.435  1.00  0.00     0.040 A 
ATOM     88  C   UNL A   1      50.294  26.922  29.285  1.00  0.00     0.040 A 
ATOM     89  F   UNL A   1      48.646  27.973  27.989  1.00  0.00    -0.206 F 
ATOM     90  C   UNL A   1      50.678  26.257  30.447  1.00  0.00     0.006 A 
ENDBRANCH  66  83
ENDBRANCH  40  41
ENDBRANCH  32  35
ENDBRANCH  30  31
ENDBRANCH  29  30
ENDBRANCH   1  29
TORSDOF 15
ENDMDL
