MODEL 1
REMARK VINA RESULT:     -12.9      0.000      0.000
REMARK SMILES C[NH+]1CCN(C(=O)c2ccc3c(c2)N(CC(=O)NCCCCNC(=O)c2ccc(-c4c5nc(c(-c6c(F)cccc6F)c6ccc([nH]6)c(-c6c(F)cccc6F)c6nc(c(-c7c(F)cccc7F)c7ccc4[nH]7)C=C6)C=C5)cc2)C(=O)CO3)CC1
REMARK SMILES IDX 20 1 19 2 18 3 16 4 17 5 15 7 14 8 8 9 9 10 13 11 10 12
REMARK SMILES IDX 12 13 11 14 83 15 80 16 82 17 81 18 6 19 1 20 2 21 3 22
REMARK SMILES IDX 85 23 4 25 84 26 5 27 7 28 21 29 22 30 23 31 24 32 25 34
REMARK SMILES IDX 26 35 27 36 79 37 28 38 78 39 29 40 30 41 31 42 72 43 32 44
REMARK SMILES IDX 77 45 71 46 73 47 33 48 76 49 70 50 69 51 34 53 60 54 43 55
REMARK SMILES IDX 59 56 44 57 47 58 58 59 74 60 45 61 46 62 57 64 75 65 48 66
REMARK SMILES IDX 35 67 36 68 41 69 37 70 38 71 40 72 42 73 39 74 61 75 62 76
REMARK SMILES IDX 67 77 63 78 64 79 66 80 68 81 65 82 49 83 50 84 55 85 51 86
REMARK SMILES IDX 52 87 54 88 56 89 53 90
REMARK H PARENT 18 6 2 24 23 33 73 52 47 63
REMARK Flexibility Score: inf
ROOT
ATOM      1  C   UNL A   1      40.549  21.081  26.888  1.00  0.00     0.023 C 
ENDROOT
BRANCH   1   2
ATOM      2  C   UNL A   1      39.381  21.283  25.924  1.00  0.00     0.116 C 
BRANCH   2   3
ATOM      3  N   UNL A   1      38.612  22.468  26.240  1.00  0.00    -0.355 N 
ATOM      4  C   UNL A   1      37.548  23.003  25.576  1.00  0.00     0.240 C 
ATOM      5  O   UNL A   1      36.973  23.959  26.103  1.00  0.00    -0.273 OA
ATOM      6  H   UNL A   1      38.896  22.955  27.046  1.00  0.00     0.163 HD
BRANCH   4   7
ATOM      7  C   UNL A   1      37.027  22.401  24.264  1.00  0.00     0.225 C 
BRANCH   7   8
ATOM      8  N   UNL A   1      35.669  21.859  24.333  1.00  0.00    -0.296 N 
ATOM      9  C   UNL A   1      33.526  24.666  23.073  1.00  0.00     0.042 A 
ATOM     10  C   UNL A   1      32.304  24.011  22.904  1.00  0.00     0.018 A 
ATOM     11  C   UNL A   1      34.635  23.986  23.595  1.00  0.00     0.044 A 
ATOM     12  C   UNL A   1      32.202  22.660  23.220  1.00  0.00     0.049 A 
ATOM     13  C   UNL A   1      34.546  22.620  23.897  1.00  0.00     0.087 A 
ATOM     14  C   UNL A   1      33.311  21.975  23.721  1.00  0.00     0.143 A 
ATOM     15  O   UNL A   1      33.119  20.639  23.943  1.00  0.00    -0.482 OA
ATOM     16  C   UNL A   1      35.484  20.570  24.814  1.00  0.00     0.265 C 
ATOM     17  C   UNL A   1      34.039  20.095  24.868  1.00  0.00     0.330 C 
ATOM     18  O   UNL A   1      36.400  19.857  25.226  1.00  0.00    -0.270 OA
BRANCH   9  19
ATOM     19  C   UNL A   1      33.600  26.107  22.750  1.00  0.00     0.254 C 
ATOM     20  C   UNL A   1      31.987  29.902  26.536  1.00  0.00     0.332 C 
ATOM     21  N   UNL A   1      32.917  29.087  25.756  1.00  0.00    -0.334 N 
ATOM     22  C   UNL A   1      32.742  29.343  24.308  1.00  0.00     0.283 C 
ATOM     23  C   UNL A   1      32.691  27.652  26.027  1.00  0.00     0.283 C 
ATOM     24  H   UNL A   1      33.867  29.340  26.028  1.00  0.00     0.347 HD
ATOM     25  C   UNL A   1      33.661  28.463  23.438  1.00  0.00     0.181 C 
ATOM     26  C   UNL A   1      33.650  26.762  25.214  1.00  0.00     0.181 C 
ATOM     27  N   UNL A   1      33.553  27.042  23.776  1.00  0.00    -0.327 N 
ATOM     28  O   UNL A   1      33.720  26.403  21.562  1.00  0.00    -0.269 OA
ENDBRANCH   9  19
ENDBRANCH   7   8
ENDBRANCH   4   7
ENDBRANCH   2   3
ENDBRANCH   1   2
BRANCH   1  29
ATOM     29  C   UNL A   1      41.918  20.937  26.215  1.00  0.00     0.023 C 
BRANCH  29  30
ATOM     30  C   UNL A   1      42.998  21.889  26.716  1.00  0.00     0.116 C 
BRANCH  30  31
ATOM     31  N   UNL A   1      43.714  22.565  25.646  1.00  0.00    -0.352 N 
ATOM     32  C   UNL A   1      43.849  23.913  25.415  1.00  0.00     0.251 C 
ATOM     33  H   UNL A   1      44.162  21.976  24.997  1.00  0.00     0.163 HD
ATOM     34  O   UNL A   1      44.399  24.314  24.394  1.00  0.00    -0.269 OA
BRANCH  32  35
ATOM     35  C   UNL A   1      43.293  24.882  26.383  1.00  0.00     0.039 A 
ATOM     36  C   UNL A   1      42.179  24.511  27.141  1.00  0.00     0.014 A 
ATOM     37  C   UNL A   1      43.877  26.139  26.558  1.00  0.00     0.014 A 
ATOM     38  C   UNL A   1      41.696  25.374  28.128  1.00  0.00     0.010 A 
ATOM     39  C   UNL A   1      43.440  26.965  27.589  1.00  0.00     0.010 A 
ATOM     40  C   UNL A   1      42.348  26.590  28.386  1.00  0.00    -0.014 A 
BRANCH  40  41
ATOM     41  C   UNL A   1      41.910  27.480  29.490  1.00  0.00     0.031 A 
ATOM     42  C   UNL A   1      42.611  27.439  30.819  1.00  0.00     0.074 A 
ATOM     43  C   UNL A   1      40.839  28.279  29.318  1.00  0.00     0.049 A 
ATOM     44  N   UNL A   1      42.331  28.086  31.923  1.00  0.00    -0.248 NA
ATOM     45  C   UNL A   1      43.764  26.531  30.929  1.00  0.00     0.031 C 
ATOM     46  C   UNL A   1      40.047  28.381  28.091  1.00  0.00     0.029 A 
ATOM     47  N   UNL A   1      40.226  29.151  30.182  1.00  0.00    -0.354 N 
ATOM     48  C   UNL A   1      43.264  27.656  32.858  1.00  0.00     0.074 A 
ATOM     49  C   UNL A   1      44.080  26.651  32.210  1.00  0.00     0.031 C 
ATOM     50  C   UNL A   1      39.072  29.286  28.271  1.00  0.00     0.029 A 
ATOM     51  C   UNL A   1      39.143  29.798  29.636  1.00  0.00     0.049 A 
ATOM     52  H   UNL A   1      40.533  29.299  31.106  1.00  0.00     0.167 HD
ATOM     53  C   UNL A   1      43.441  28.077  34.132  1.00  0.00     0.037 A 
ATOM     54  C   UNL A   1      38.302  30.699  30.177  1.00  0.00     0.037 A 
ATOM     55  C   UNL A   1      42.639  29.088  34.771  1.00  0.00     0.049 A 
ATOM     56  C   UNL A   1      38.503  31.131  31.602  1.00  0.00     0.074 A 
ATOM     57  C   UNL A   1      42.769  29.618  36.043  1.00  0.00     0.029 A 
ATOM     58  N   UNL A   1      41.554  29.721  34.184  1.00  0.00    -0.354 N 
ATOM     59  N   UNL A   1      39.424  30.760  32.458  1.00  0.00    -0.248 NA
ATOM     60  C   UNL A   1      37.547  32.112  32.137  1.00  0.00     0.031 C 
ATOM     61  C   UNL A   1      41.737  30.540  36.241  1.00  0.00     0.029 A 
ATOM     62  C   UNL A   1      40.992  30.620  35.075  1.00  0.00     0.049 A 
ATOM     63  H   UNL A   1      41.230  29.555  33.269  1.00  0.00     0.167 HD
ATOM     64  C   UNL A   1      39.180  31.483  33.618  1.00  0.00     0.074 A 
ATOM     65  C   UNL A   1      38.029  32.321  33.354  1.00  0.00     0.031 C 
ATOM     66  C   UNL A   1      39.851  31.454  34.796  1.00  0.00     0.037 A 
BRANCH  53  67
ATOM     67  C   UNL A   1      44.553  27.441  34.918  1.00  0.00     0.057 A 
ATOM     68  C   UNL A   1      45.849  27.972  34.922  1.00  0.00     0.134 A 
ATOM     69  C   UNL A   1      44.321  26.295  35.689  1.00  0.00     0.134 A 
ATOM     70  F   UNL A   1      46.141  29.060  34.194  1.00  0.00    -0.206 F 
ATOM     71  C   UNL A   1      46.884  27.367  35.639  1.00  0.00     0.040 A 
ATOM     72  C   UNL A   1      45.341  25.699  36.432  1.00  0.00     0.040 A 
ATOM     73  F   UNL A   1      43.102  25.738  35.735  1.00  0.00    -0.206 F 
ATOM     74  C   UNL A   1      46.629  26.230  36.401  1.00  0.00     0.006 A 
ENDBRANCH  53  67
BRANCH  54  75
ATOM     75  C   UNL A   1      37.208  31.278  29.358  1.00  0.00     0.057 A 
ATOM     76  C   UNL A   1      37.312  32.573  28.835  1.00  0.00     0.134 A 
ATOM     77  C   UNL A   1      36.038  30.562  29.081  1.00  0.00     0.134 A 
ATOM     78  F   UNL A   1      38.402  33.314  29.082  1.00  0.00    -0.206 F 
ATOM     79  C   UNL A   1      36.286  33.142  28.081  1.00  0.00     0.040 A 
ATOM     80  C   UNL A   1      35.013  31.110  28.307  1.00  0.00     0.040 A 
ATOM     81  F   UNL A   1      35.880  29.314  29.547  1.00  0.00    -0.206 F 
ATOM     82  C   UNL A   1      35.133  32.406  27.811  1.00  0.00     0.006 A 
ENDBRANCH  54  75
BRANCH  66  83
ATOM     83  C   UNL A   1      39.379  32.384  35.876  1.00  0.00     0.057 A 
ATOM     84  C   UNL A   1      38.407  32.004  36.810  1.00  0.00     0.134 A 
ATOM     85  C   UNL A   1      39.933  33.665  36.003  1.00  0.00     0.134 A 
ATOM     86  F   UNL A   1      37.827  30.797  36.734  1.00  0.00    -0.206 F 
ATOM     87  C   UNL A   1      37.988  32.872  37.819  1.00  0.00     0.040 A 
ATOM     88  C   UNL A   1      39.541  34.532  37.023  1.00  0.00     0.040 A 
ATOM     89  F   UNL A   1      40.874  34.089  35.145  1.00  0.00    -0.206 F 
ATOM     90  C   UNL A   1      38.560  34.138  37.931  1.00  0.00     0.006 A 
ENDBRANCH  66  83
ENDBRANCH  40  41
ENDBRANCH  32  35
ENDBRANCH  30  31
ENDBRANCH  29  30
ENDBRANCH   1  29
TORSDOF 13
ENDMDL
MODEL 2
REMARK VINA RESULT:     -12.7      1.401      6.295
REMARK SMILES C[NH+]1CCN(C(=O)c2ccc3c(c2)N(CC(=O)NCCCCNC(=O)c2ccc(-c4c5nc(c(-c6c(F)cccc6F)c6ccc([nH]6)c(-c6c(F)cccc6F)c6nc(c(-c7c(F)cccc7F)c7ccc4[nH]7)C=C6)C=C5)cc2)C(=O)CO3)CC1
REMARK SMILES IDX 20 1 19 2 18 3 16 4 17 5 15 7 14 8 8 9 9 10 13 11 10 12
REMARK SMILES IDX 12 13 11 14 83 15 80 16 82 17 81 18 6 19 1 20 2 21 3 22
REMARK SMILES IDX 85 23 4 25 84 26 5 27 7 28 21 29 22 30 23 31 24 32 25 34
REMARK SMILES IDX 26 35 27 36 79 37 28 38 78 39 29 40 30 41 31 42 72 43 32 44
REMARK SMILES IDX 77 45 71 46 73 47 33 48 76 49 70 50 69 51 34 53 60 54 43 55
REMARK SMILES IDX 59 56 44 57 47 58 58 59 74 60 45 61 46 62 57 64 75 65 48 66
REMARK SMILES IDX 35 67 36 68 41 69 37 70 38 71 40 72 42 73 39 74 61 75 62 76
REMARK SMILES IDX 67 77 63 78 64 79 66 80 68 81 65 82 49 83 50 84 55 85 51 86
REMARK SMILES IDX 52 87 54 88 56 89 53 90
REMARK H PARENT 18 6 2 24 23 33 73 52 47 63
REMARK Flexibility Score: inf
ROOT
ATOM      1  C   UNL A   1      40.419  21.423  27.291  1.00  0.00     0.023 C 
ENDROOT
BRANCH   1   2
ATOM      2  C   UNL A   1      39.473  21.671  26.117  1.00  0.00     0.116 C 
BRANCH   2   3
ATOM      3  N   UNL A   1      38.588  22.792  26.358  1.00  0.00    -0.355 N 
ATOM      4  C   UNL A   1      37.503  23.200  25.640  1.00  0.00     0.240 C 
ATOM      5  O   UNL A   1      36.825  24.119  26.109  1.00  0.00    -0.273 OA
ATOM      6  H   UNL A   1      38.800  23.336  27.151  1.00  0.00     0.163 HD
BRANCH   4   7
ATOM      7  C   UNL A   1      37.083  22.500  24.340  1.00  0.00     0.225 C 
BRANCH   7   8
ATOM      8  N   UNL A   1      35.741  21.918  24.362  1.00  0.00    -0.296 N 
ATOM      9  C   UNL A   1      33.558  24.666  23.042  1.00  0.00     0.042 A 
ATOM     10  C   UNL A   1      32.363  23.977  22.829  1.00  0.00     0.018 A 
ATOM     11  C   UNL A   1      34.669  24.017  23.598  1.00  0.00     0.044 A 
ATOM     12  C   UNL A   1      32.291  22.622  23.137  1.00  0.00     0.049 A 
ATOM     13  C   UNL A   1      34.611  22.647  23.892  1.00  0.00     0.087 A 
ATOM     14  C   UNL A   1      33.402  21.967  23.671  1.00  0.00     0.143 A 
ATOM     15  O   UNL A   1      33.242  20.625  23.882  1.00  0.00    -0.482 OA
ATOM     16  C   UNL A   1      35.578  20.621  24.831  1.00  0.00     0.265 C 
ATOM     17  C   UNL A   1      34.147  20.103  24.835  1.00  0.00     0.330 C 
ATOM     18  O   UNL A   1      36.501  19.934  25.270  1.00  0.00    -0.270 OA
BRANCH   9  19
ATOM     19  C   UNL A   1      33.600  26.111  22.727  1.00  0.00     0.254 C 
ATOM     20  C   UNL A   1      32.069  29.855  26.597  1.00  0.00     0.332 C 
ATOM     21  N   UNL A   1      32.983  29.059  25.778  1.00  0.00    -0.334 N 
ATOM     22  C   UNL A   1      32.752  29.322  24.339  1.00  0.00     0.283 C 
ATOM     23  C   UNL A   1      32.786  27.619  26.046  1.00  0.00     0.283 C 
ATOM     24  H   UNL A   1      33.938  29.324  26.019  1.00  0.00     0.347 HD
ATOM     25  C   UNL A   1      33.653  28.463  23.431  1.00  0.00     0.181 C 
ATOM     26  C   UNL A   1      33.729  26.749  25.194  1.00  0.00     0.181 C 
ATOM     27  N   UNL A   1      33.577  27.038  23.761  1.00  0.00    -0.327 N 
ATOM     28  O   UNL A   1      33.675  26.417  21.539  1.00  0.00    -0.269 OA
ENDBRANCH   9  19
ENDBRANCH   7   8
ENDBRANCH   4   7
ENDBRANCH   2   3
ENDBRANCH   1   2
BRANCH   1  29
ATOM     29  C   UNL A   1      41.874  21.831  27.038  1.00  0.00     0.023 C 
BRANCH  29  30
ATOM     30  C   UNL A   1      42.189  23.305  27.259  1.00  0.00     0.116 C 
BRANCH  30  31
ATOM     31  N   UNL A   1      41.939  24.131  26.089  1.00  0.00    -0.352 N 
ATOM     32  C   UNL A   1      41.540  25.445  26.030  1.00  0.00     0.251 C 
ATOM     33  H   UNL A   1      42.072  23.688  25.220  1.00  0.00     0.163 HD
ATOM     34  O   UNL A   1      41.266  25.961  24.950  1.00  0.00    -0.269 OA
BRANCH  32  35
ATOM     35  C   UNL A   1      41.404  26.227  27.277  1.00  0.00     0.039 A 
ATOM     36  C   UNL A   1      42.326  27.244  27.537  1.00  0.00     0.014 A 
ATOM     37  C   UNL A   1      40.363  25.973  28.173  1.00  0.00     0.014 A 
ATOM     38  C   UNL A   1      42.159  28.056  28.662  1.00  0.00     0.010 A 
ATOM     39  C   UNL A   1      40.158  26.827  29.253  1.00  0.00     0.010 A 
ATOM     40  C   UNL A   1      41.052  27.879  29.506  1.00  0.00    -0.014 A 
BRANCH  40  41
ATOM     41  C   UNL A   1      40.804  28.788  30.653  1.00  0.00     0.031 A 
ATOM     42  C   UNL A   1      39.723  29.829  30.574  1.00  0.00     0.074 A 
ATOM     43  C   UNL A   1      41.593  28.717  31.742  1.00  0.00     0.049 A 
ATOM     44  N   UNL A   1      39.403  30.757  31.440  1.00  0.00    -0.248 NA
ATOM     45  C   UNL A   1      38.913  29.847  29.346  1.00  0.00     0.031 C 
ATOM     46  C   UNL A   1      42.702  27.779  31.926  1.00  0.00     0.029 A 
ATOM     47  N   UNL A   1      41.591  29.458  32.898  1.00  0.00    -0.354 N 
ATOM     48  C   UNL A   1      38.365  31.474  30.860  1.00  0.00     0.074 A 
ATOM     49  C   UNL A   1      38.148  30.910  29.544  1.00  0.00     0.031 C 
ATOM     50  C   UNL A   1      43.253  27.980  33.133  1.00  0.00     0.029 A 
ATOM     51  C   UNL A   1      42.566  29.086  33.792  1.00  0.00     0.049 A 
ATOM     52  H   UNL A   1      40.951  30.186  33.069  1.00  0.00     0.167 HD
ATOM     53  C   UNL A   1      37.640  32.490  31.384  1.00  0.00     0.037 A 
ATOM     54  C   UNL A   1      42.873  29.585  35.005  1.00  0.00     0.037 A 
ATOM     55  C   UNL A   1      37.846  33.039  32.698  1.00  0.00     0.049 A 
ATOM     56  C   UNL A   1      42.071  30.731  35.553  1.00  0.00     0.074 A 
ATOM     57  C   UNL A   1      37.134  34.038  33.339  1.00  0.00     0.029 A 
ATOM     58  N   UNL A   1      38.842  32.634  33.575  1.00  0.00    -0.354 N 
ATOM     59  N   UNL A   1      41.054  31.362  35.018  1.00  0.00    -0.248 NA
ATOM     60  C   UNL A   1      42.459  31.235  36.879  1.00  0.00     0.031 C 
ATOM     61  C   UNL A   1      37.726  34.267  34.586  1.00  0.00     0.029 A 
ATOM     62  C   UNL A   1      38.776  33.378  34.742  1.00  0.00     0.049 A 
ATOM     63  H   UNL A   1      39.499  31.923  33.394  1.00  0.00     0.167 HD
ATOM     64  C   UNL A   1      40.661  32.312  35.951  1.00  0.00     0.074 A 
ATOM     65  C   UNL A   1      41.544  32.170  37.090  1.00  0.00     0.031 C 
ATOM     66  C   UNL A   1      39.657  33.220  35.871  1.00  0.00     0.037 A 
BRANCH  53  67
ATOM     67  C   UNL A   1      36.553  33.072  30.526  1.00  0.00     0.057 A 
ATOM     68  C   UNL A   1      36.837  33.952  29.473  1.00  0.00     0.134 A 
ATOM     69  C   UNL A   1      35.211  32.738  30.744  1.00  0.00     0.134 A 
ATOM     70  F   UNL A   1      38.101  34.324  29.219  1.00  0.00    -0.206 F 
ATOM     71  C   UNL A   1      35.822  34.505  28.689  1.00  0.00     0.040 A 
ATOM     72  C   UNL A   1      34.190  33.262  29.949  1.00  0.00     0.040 A 
ATOM     73  F   UNL A   1      34.868  31.896  31.731  1.00  0.00    -0.206 F 
ATOM     74  C   UNL A   1      34.494  34.156  28.923  1.00  0.00     0.006 A 
ENDBRANCH  53  67
BRANCH  54  75
ATOM     75  C   UNL A   1      43.972  28.982  35.798  1.00  0.00     0.057 A 
ATOM     76  C   UNL A   1      43.729  27.902  36.655  1.00  0.00     0.134 A 
ATOM     77  C   UNL A   1      45.283  29.467  35.726  1.00  0.00     0.134 A 
ATOM     78  F   UNL A   1      42.490  27.406  36.781  1.00  0.00    -0.206 F 
ATOM     79  C   UNL A   1      44.746  27.336  37.425  1.00  0.00     0.040 A 
ATOM     80  C   UNL A   1      46.315  28.894  36.472  1.00  0.00     0.040 A 
ATOM     81  F   UNL A   1      45.583  30.495  34.918  1.00  0.00    -0.206 F 
ATOM     82  C   UNL A   1      46.045  27.830  37.330  1.00  0.00     0.006 A 
ENDBRANCH  54  75
BRANCH  66  83
ATOM     83  C   UNL A   1      39.437  34.105  37.063  1.00  0.00     0.057 A 
ATOM     84  C   UNL A   1      38.749  33.661  38.199  1.00  0.00     0.134 A 
ATOM     85  C   UNL A   1      39.954  35.408  37.087  1.00  0.00     0.134 A 
ATOM     86  F   UNL A   1      38.218  32.429  38.234  1.00  0.00    -0.206 F 
ATOM     87  C   UNL A   1      38.564  34.487  39.308  1.00  0.00     0.040 A 
ATOM     88  C   UNL A   1      39.798  36.234  38.200  1.00  0.00     0.040 A 
ATOM     89  F   UNL A   1      40.628  35.892  36.033  1.00  0.00    -0.206 F 
ATOM     90  C   UNL A   1      39.095  35.776  39.313  1.00  0.00     0.006 A 
ENDBRANCH  66  83
ENDBRANCH  40  41
ENDBRANCH  32  35
ENDBRANCH  30  31
ENDBRANCH  29  30
ENDBRANCH   1  29
TORSDOF 13
ENDMDL
MODEL 3
REMARK VINA RESULT:     -12.6      2.699      3.713
REMARK SMILES C[NH+]1CCN(C(=O)c2ccc3c(c2)N(CC(=O)NCCCCNC(=O)c2ccc(-c4c5nc(c(-c6c(F)cccc6F)c6ccc([nH]6)c(-c6c(F)cccc6F)c6nc(c(-c7c(F)cccc7F)c7ccc4[nH]7)C=C6)C=C5)cc2)C(=O)CO3)CC1
REMARK SMILES IDX 20 1 19 2 18 3 16 4 17 5 15 7 14 8 8 9 9 10 13 11 10 12
REMARK SMILES IDX 12 13 11 14 83 15 80 16 82 17 81 18 6 19 1 20 2 21 3 22
REMARK SMILES IDX 85 23 4 25 84 26 5 27 7 28 21 29 22 30 23 31 24 32 25 34
REMARK SMILES IDX 26 35 27 36 79 37 28 38 78 39 29 40 30 41 31 42 72 43 32 44
REMARK SMILES IDX 77 45 71 46 73 47 33 48 76 49 70 50 69 51 34 53 60 54 43 55
REMARK SMILES IDX 59 56 44 57 47 58 58 59 74 60 45 61 46 62 57 64 75 65 48 66
REMARK SMILES IDX 35 67 36 68 41 69 37 70 38 71 40 72 42 73 39 74 61 75 62 76
REMARK SMILES IDX 67 77 63 78 64 79 66 80 68 81 65 82 49 83 50 84 55 85 51 86
REMARK SMILES IDX 52 87 54 88 56 89 53 90
REMARK H PARENT 18 6 2 24 23 33 73 52 47 63
REMARK Flexibility Score: inf
ROOT
ATOM      1  C   UNL A   1      35.265  21.988  26.053  1.00  0.00     0.023 C 
ENDROOT
BRANCH   1   2
ATOM      2  C   UNL A   1      34.111  21.743  27.024  1.00  0.00     0.116 C 
BRANCH   2   3
ATOM      3  N   UNL A   1      33.423  22.967  27.374  1.00  0.00    -0.355 N 
ATOM      4  C   UNL A   1      32.166  23.373  27.037  1.00  0.00     0.240 C 
ATOM      5  O   UNL A   1      31.746  24.411  27.556  1.00  0.00    -0.273 OA
ATOM      6  H   UNL A   1      33.934  23.595  27.933  1.00  0.00     0.163 HD
BRANCH   4   7
ATOM      7  C   UNL A   1      31.267  22.538  26.114  1.00  0.00     0.225 C 
BRANCH   7   8
ATOM      8  N   UNL A   1      31.710  22.473  24.720  1.00  0.00    -0.296 N 
ATOM      9  C   UNL A   1      31.547  26.038  23.569  1.00  0.00     0.042 A 
ATOM     10  C   UNL A   1      32.228  25.955  22.353  1.00  0.00     0.018 A 
ATOM     11  C   UNL A   1      31.319  24.890  24.340  1.00  0.00     0.044 A 
ATOM     12  C   UNL A   1      32.717  24.725  21.925  1.00  0.00     0.049 A 
ATOM     13  C   UNL A   1      31.826  23.650  23.926  1.00  0.00     0.087 A 
ATOM     14  C   UNL A   1      32.510  23.583  22.701  1.00  0.00     0.143 A 
ATOM     15  O   UNL A   1      33.082  22.439  22.218  1.00  0.00    -0.482 OA
ATOM     16  C   UNL A   1      32.042  21.239  24.178  1.00  0.00     0.265 C 
ATOM     17  C   UNL A   1      32.475  21.263  22.719  1.00  0.00     0.330 C 
ATOM     18  O   UNL A   1      31.952  20.177  24.794  1.00  0.00    -0.270 OA
BRANCH   9  19
ATOM     19  C   UNL A   1      31.018  27.354  23.988  1.00  0.00     0.254 C 
ATOM     20  C   UNL A   1      34.017  30.602  27.423  1.00  0.00     0.332 C 
ATOM     21  N   UNL A   1      33.461  30.134  26.154  1.00  0.00    -0.334 N 
ATOM     22  C   UNL A   1      31.981  30.149  26.200  1.00  0.00     0.283 C 
ATOM     23  C   UNL A   1      33.923  28.758  25.869  1.00  0.00     0.283 C 
ATOM     24  H   UNL A   1      33.780  30.760  25.415  1.00  0.00     0.347 HD
ATOM     25  C   UNL A   1      31.345  29.609  24.904  1.00  0.00     0.181 C 
ATOM     26  C   UNL A   1      33.349  28.230  24.542  1.00  0.00     0.181 C 
ATOM     27  N   UNL A   1      31.882  28.299  24.525  1.00  0.00    -0.327 N 
ATOM     28  O   UNL A   1      29.817  27.548  23.815  1.00  0.00    -0.269 OA
ENDBRANCH   9  19
ENDBRANCH   7   8
ENDBRANCH   4   7
ENDBRANCH   2   3
ENDBRANCH   1   2
BRANCH   1  29
ATOM     29  C   UNL A   1      35.871  23.394  26.121  1.00  0.00     0.023 C 
BRANCH  29  30
ATOM     30  C   UNL A   1      37.064  23.639  25.204  1.00  0.00     0.116 C 
BRANCH  30  31
ATOM     31  N   UNL A   1      38.180  22.742  25.457  1.00  0.00    -0.352 N 
ATOM     32  C   UNL A   1      39.343  22.987  26.149  1.00  0.00     0.251 C 
ATOM     33  H   UNL A   1      38.092  21.838  25.081  1.00  0.00     0.163 HD
ATOM     34  O   UNL A   1      40.237  22.146  26.174  1.00  0.00    -0.269 OA
BRANCH  32  35
ATOM     35  C   UNL A   1      39.530  24.284  26.832  1.00  0.00     0.039 A 
ATOM     36  C   UNL A   1      39.012  24.448  28.119  1.00  0.00     0.014 A 
ATOM     37  C   UNL A   1      40.231  25.325  26.217  1.00  0.00     0.014 A 
ATOM     38  C   UNL A   1      39.260  25.631  28.819  1.00  0.00     0.010 A 
ATOM     39  C   UNL A   1      40.537  26.473  26.942  1.00  0.00     0.010 A 
ATOM     40  C   UNL A   1      40.058  26.636  28.251  1.00  0.00    -0.014 A 
BRANCH  40  41
ATOM     41  C   UNL A   1      40.412  27.861  29.011  1.00  0.00     0.031 A 
ATOM     42  C   UNL A   1      41.753  27.976  29.680  1.00  0.00     0.074 A 
ATOM     43  C   UNL A   1      39.502  28.844  29.151  1.00  0.00     0.049 A 
ATOM     44  N   UNL A   1      42.217  28.932  30.444  1.00  0.00    -0.248 NA
ATOM     45  C   UNL A   1      42.685  26.854  29.487  1.00  0.00     0.031 C 
ATOM     46  C   UNL A   1      38.152  28.837  28.585  1.00  0.00     0.029 A 
ATOM     47  N   UNL A   1      39.573  30.038  29.825  1.00  0.00    -0.354 N 
ATOM     48  C   UNL A   1      43.487  28.524  30.831  1.00  0.00     0.074 A 
ATOM     49  C   UNL A   1      43.697  27.208  30.265  1.00  0.00     0.031 C 
ATOM     50  C   UNL A   1      37.533  29.983  28.910  1.00  0.00     0.029 A 
ATOM     51  C   UNL A   1      38.424  30.788  29.739  1.00  0.00     0.049 A 
ATOM     52  H   UNL A   1      40.371  30.330  30.322  1.00  0.00     0.167 HD
ATOM     53  C   UNL A   1      44.405  29.193  31.567  1.00  0.00     0.037 A 
ATOM     54  C   UNL A   1      38.123  31.987  30.273  1.00  0.00     0.037 A 
ATOM     55  C   UNL A   1      44.201  30.509  32.116  1.00  0.00     0.049 A 
ATOM     56  C   UNL A   1      39.149  32.698  31.109  1.00  0.00     0.074 A 
ATOM     57  C   UNL A   1      45.087  31.291  32.836  1.00  0.00     0.029 A 
ATOM     58  N   UNL A   1      43.025  31.236  32.005  1.00  0.00    -0.354 N 
ATOM     59  N   UNL A   1      40.368  32.327  31.419  1.00  0.00    -0.248 NA
ATOM     60  C   UNL A   1      38.758  34.000  31.670  1.00  0.00     0.031 C 
ATOM     61  C   UNL A   1      44.432  32.473  33.198  1.00  0.00     0.029 A 
ATOM     62  C   UNL A   1      43.155  32.448  32.662  1.00  0.00     0.049 A 
ATOM     63  H   UNL A   1      42.217  30.934  31.530  1.00  0.00     0.167 HD
ATOM     64  C   UNL A   1      40.899  33.359  32.180  1.00  0.00     0.074 A 
ATOM     65  C   UNL A   1      39.873  34.376  32.279  1.00  0.00     0.031 C 
ATOM     66  C   UNL A   1      42.128  33.455  32.746  1.00  0.00     0.037 A 
BRANCH  53  67
ATOM     67  C   UNL A   1      45.717  28.507  31.818  1.00  0.00     0.057 A 
ATOM     68  C   UNL A   1      46.803  28.653  30.945  1.00  0.00     0.134 A 
ATOM     69  C   UNL A   1      45.902  27.704  32.951  1.00  0.00     0.134 A 
ATOM     70  F   UNL A   1      46.689  29.397  29.835  1.00  0.00    -0.206 F 
ATOM     71  C   UNL A   1      48.016  27.999  31.172  1.00  0.00     0.040 A 
ATOM     72  C   UNL A   1      47.119  27.068  33.203  1.00  0.00     0.040 A 
ATOM     73  F   UNL A   1      44.906  27.526  33.831  1.00  0.00    -0.206 F 
ATOM     74  C   UNL A   1      48.178  27.208  32.307  1.00  0.00     0.006 A 
ENDBRANCH  53  67
BRANCH  54  75
ATOM     75  C   UNL A   1      36.801  32.607  30.008  1.00  0.00     0.057 A 
ATOM     76  C   UNL A   1      35.698  32.318  30.819  1.00  0.00     0.134 A 
ATOM     77  C   UNL A   1      36.606  33.494  28.943  1.00  0.00     0.134 A 
ATOM     78  F   UNL A   1      35.820  31.461  31.843  1.00  0.00    -0.206 F 
ATOM     79  C   UNL A   1      34.443  32.875  30.572  1.00  0.00     0.040 A 
ATOM     80  C   UNL A   1      35.361  34.078  28.699  1.00  0.00     0.040 A 
ATOM     81  F   UNL A   1      37.625  33.817  28.133  1.00  0.00    -0.206 F 
ATOM     82  C   UNL A   1      34.274  33.762  29.511  1.00  0.00     0.006 A 
ENDBRANCH  54  75
BRANCH  66  83
ATOM     83  C   UNL A   1      42.442  34.720  33.490  1.00  0.00     0.057 A 
ATOM     84  C   UNL A   1      42.216  34.847  34.866  1.00  0.00     0.134 A 
ATOM     85  C   UNL A   1      43.015  35.812  32.824  1.00  0.00     0.134 A 
ATOM     86  F   UNL A   1      41.657  33.843  35.558  1.00  0.00    -0.206 F 
ATOM     87  C   UNL A   1      42.527  36.023  35.550  1.00  0.00     0.040 A 
ATOM     88  C   UNL A   1      43.355  36.983  33.502  1.00  0.00     0.040 A 
ATOM     89  F   UNL A   1      43.265  35.753  31.507  1.00  0.00    -0.206 F 
ATOM     90  C   UNL A   1      43.105  37.093  34.868  1.00  0.00     0.006 A 
ENDBRANCH  66  83
ENDBRANCH  40  41
ENDBRANCH  32  35
ENDBRANCH  30  31
ENDBRANCH  29  30
ENDBRANCH   1  29
TORSDOF 13
ENDMDL
