MODEL 1
REMARK VINA RESULT:     -12.1      0.000      0.000
REMARK SMILES Cc1cc(Nc2ccc(C(=O)NCCCCNC(=O)c3ccc(-c4c5nc(c(-c6c(F)cccc6F)c6ccc([nH]6)c(-c6c(F)cccc6F)c6nc(c(-c7c(F)cccc7F)c7ccc4[nH]7)C=C6)C=C5)cc3)cc2)nc(C(C)C)n1
REMARK SMILES IDX 14 1 13 2 12 3 10 4 11 5 9 7 6 8 7 9 75 10 8 11 74 12 5 13
REMARK SMILES IDX 4 15 1 16 2 17 3 18 81 19 77 20 76 21 78 22 79 23 80 24
REMARK SMILES IDX 15 25 16 26 17 27 18 28 19 30 20 31 21 32 73 33 22 34 72 35
REMARK SMILES IDX 23 36 24 37 25 38 66 39 26 40 71 41 65 42 67 43 27 44 70 45
REMARK SMILES IDX 64 46 63 47 28 49 54 50 37 51 53 52 38 53 41 54 52 55 68 56
REMARK SMILES IDX 39 57 40 58 51 60 69 61 42 62 29 63 30 64 35 65 31 66 32 67
REMARK SMILES IDX 34 68 36 69 33 70 55 71 56 72 61 73 57 74 58 75 60 76 62 77
REMARK SMILES IDX 59 78 43 79 44 80 49 81 45 82 46 83 48 84 50 85 47 86
REMARK H PARENT 12 6 5 14 17 29 67 48 41 59
REMARK Flexibility Score: inf
ROOT
ATOM      1  C   UNL A   1      36.830  21.090  24.629  1.00  0.00     0.023 C 
ENDROOT
BRANCH   1   2
ATOM      2  C   UNL A   1      35.576  21.105  25.509  1.00  0.00     0.116 C 
BRANCH   2   3
ATOM      3  N   UNL A   1      34.672  20.039  25.120  1.00  0.00    -0.352 N 
ATOM      4  C   UNL A   1      33.372  20.058  24.675  1.00  0.00     0.251 C 
ATOM      5  O   UNL A   1      32.849  18.980  24.392  1.00  0.00    -0.269 OA
ATOM      6  H   UNL A   1      35.060  19.137  25.188  1.00  0.00     0.163 HD
BRANCH   4   7
ATOM      7  C   UNL A   1      32.600  21.316  24.466  1.00  0.00     0.039 A 
ATOM      8  C   UNL A   1      30.992  23.622  24.190  1.00  0.00     0.040 A 
ATOM      9  C   UNL A   1      31.021  22.923  25.399  1.00  0.00     0.027 A 
ATOM     10  C   UNL A   1      31.795  23.178  23.139  1.00  0.00     0.027 A 
ATOM     11  C   UNL A   1      31.813  21.774  25.534  1.00  0.00     0.016 A 
ATOM     12  C   UNL A   1      32.627  22.068  23.292  1.00  0.00     0.016 A 
BRANCH   8  13
ATOM     13  N   UNL A   1      30.140  24.719  24.006  1.00  0.00    -0.340 N 
ATOM     14  H   UNL A   1      29.224  24.525  23.698  1.00  0.00     0.168 HD
BRANCH  13  15
ATOM     15  C   UNL A   1      30.468  26.072  24.218  1.00  0.00     0.134 A 
ATOM     16  C   UNL A   1      29.929  29.416  22.603  1.00  0.00     0.067 C 
ATOM     17  C   UNL A   1      30.346  28.331  23.549  1.00  0.00     0.043 A 
ATOM     18  C   UNL A   1      30.040  27.009  23.296  1.00  0.00     0.070 A 
ATOM     19  N   UNL A   1      31.046  28.712  24.633  1.00  0.00    -0.238 NA
ATOM     20  C   UNL A   1      31.427  27.742  25.484  1.00  0.00     0.133 A 
ATOM     21  N   UNL A   1      31.148  26.438  25.320  1.00  0.00    -0.216 NA
BRANCH  20  22
ATOM     22  C   UNL A   1      32.271  28.128  26.679  1.00  0.00     0.051 C 
ATOM     23  C   UNL A   1      33.748  27.838  26.409  1.00  0.00     0.016 C 
ATOM     24  C   UNL A   1      32.063  29.591  27.065  1.00  0.00     0.016 C 
ENDBRANCH  20  22
ENDBRANCH  13  15
ENDBRANCH   8  13
ENDBRANCH   4   7
ENDBRANCH   2   3
ENDBRANCH   1   2
BRANCH   1  25
ATOM     25  C   UNL A   1      37.799  19.948  24.941  1.00  0.00     0.023 C 
BRANCH  25  26
ATOM     26  C   UNL A   1      39.004  20.345  25.788  1.00  0.00     0.116 C 
BRANCH  26  27
ATOM     27  N   UNL A   1      40.080  19.368  25.746  1.00  0.00    -0.352 N 
ATOM     28  C   UNL A   1      41.407  19.536  26.068  1.00  0.00     0.251 C 
ATOM     29  H   UNL A   1      39.824  18.465  25.446  1.00  0.00     0.163 HD
ATOM     30  O   UNL A   1      42.211  18.641  25.879  1.00  0.00    -0.269 OA
BRANCH  28  31
ATOM     31  C   UNL A   1      41.855  20.838  26.610  1.00  0.00     0.039 A 
ATOM     32  C   UNL A   1      42.349  21.796  25.722  1.00  0.00     0.014 A 
ATOM     33  C   UNL A   1      41.760  21.118  27.975  1.00  0.00     0.014 A 
ATOM     34  C   UNL A   1      42.687  23.065  26.195  1.00  0.00     0.010 A 
ATOM     35  C   UNL A   1      42.035  22.402  28.435  1.00  0.00     0.010 A 
ATOM     36  C   UNL A   1      42.497  23.388  27.550  1.00  0.00    -0.014 A 
BRANCH  36  37
ATOM     37  C   UNL A   1      42.772  24.754  28.057  1.00  0.00     0.031 A 
ATOM     38  C   UNL A   1      44.159  25.133  28.490  1.00  0.00     0.074 A 
ATOM     39  C   UNL A   1      41.757  25.629  28.192  1.00  0.00     0.049 A 
ATOM     40  N   UNL A   1      44.581  26.248  29.029  1.00  0.00    -0.248 NA
ATOM     41  C   UNL A   1      45.206  24.113  28.318  1.00  0.00     0.031 C 
ATOM     42  C   UNL A   1      40.357  25.361  27.857  1.00  0.00     0.029 A 
ATOM     43  N   UNL A   1      41.745  26.918  28.662  1.00  0.00    -0.354 N 
ATOM     44  C   UNL A   1      45.936  26.061  29.271  1.00  0.00     0.074 A 
ATOM     45  C   UNL A   1      46.255  24.708  28.870  1.00  0.00     0.031 C 
ATOM     46  C   UNL A   1      39.626  26.456  28.118  1.00  0.00     0.029 A 
ATOM     47  C   UNL A   1      40.497  27.490  28.669  1.00  0.00     0.049 A 
ATOM     48  H   UNL A   1      42.555  27.388  28.966  1.00  0.00     0.167 HD
ATOM     49  C   UNL A   1      46.837  26.945  29.759  1.00  0.00     0.037 A 
ATOM     50  C   UNL A   1      40.098  28.708  29.080  1.00  0.00     0.037 A 
ATOM     51  C   UNL A   1      46.523  28.296  30.139  1.00  0.00     0.049 A 
ATOM     52  C   UNL A   1      41.119  29.673  29.614  1.00  0.00     0.074 A 
ATOM     53  C   UNL A   1      47.375  29.285  30.600  1.00  0.00     0.029 A 
ATOM     54  N   UNL A   1      45.251  28.851  30.099  1.00  0.00    -0.354 N 
ATOM     55  N   UNL A   1      42.409  29.505  29.779  1.00  0.00    -0.248 NA
ATOM     56  C   UNL A   1      40.632  31.001  30.013  1.00  0.00     0.031 C 
ATOM     57  C   UNL A   1      46.614  30.427  30.872  1.00  0.00     0.029 A 
ATOM     58  C   UNL A   1      45.294  30.162  30.541  1.00  0.00     0.049 A 
ATOM     59  H   UNL A   1      44.439  28.380  29.803  1.00  0.00     0.167 HD
ATOM     60  C   UNL A   1      42.890  30.709  30.275  1.00  0.00     0.074 A 
ATOM     61  C   UNL A   1      41.756  31.604  30.370  1.00  0.00     0.031 C 
ATOM     62  C   UNL A   1      44.157  31.042  30.622  1.00  0.00     0.037 A 
BRANCH  49  63
ATOM     63  C   UNL A   1      48.256  26.475  29.899  1.00  0.00     0.057 A 
ATOM     64  C   UNL A   1      48.716  25.866  31.073  1.00  0.00     0.134 A 
ATOM     65  C   UNL A   1      49.164  26.610  28.841  1.00  0.00     0.134 A 
ATOM     66  F   UNL A   1      47.901  25.720  32.128  1.00  0.00    -0.206 F 
ATOM     67  C   UNL A   1      50.036  25.430  31.201  1.00  0.00     0.040 A 
ATOM     68  C   UNL A   1      50.479  26.154  28.948  1.00  0.00     0.040 A 
ATOM     69  F   UNL A   1      48.787  27.180  27.687  1.00  0.00    -0.206 F 
ATOM     70  C   UNL A   1      50.920  25.568  30.132  1.00  0.00     0.006 A 
ENDBRANCH  49  63
BRANCH  50  71
ATOM     71  C   UNL A   1      38.668  29.093  28.982  1.00  0.00     0.057 A 
ATOM     72  C   UNL A   1      37.814  28.988  30.086  1.00  0.00     0.134 A 
ATOM     73  C   UNL A   1      38.121  29.570  27.785  1.00  0.00     0.134 A 
ATOM     74  F   UNL A   1      38.278  28.520  31.254  1.00  0.00    -0.206 F 
ATOM     75  C   UNL A   1      36.462  29.322  29.999  1.00  0.00     0.040 A 
ATOM     76  C   UNL A   1      36.776  29.932  27.690  1.00  0.00     0.040 A 
ATOM     77  F   UNL A   1      38.890  29.703  26.694  1.00  0.00    -0.206 F 
ATOM     78  C   UNL A   1      35.941  29.800  28.798  1.00  0.00     0.006 A 
ENDBRANCH  50  71
BRANCH  62  79
ATOM     79  C   UNL A   1      44.388  32.443  31.106  1.00  0.00     0.057 A 
ATOM     80  C   UNL A   1      44.346  32.770  32.467  1.00  0.00     0.134 A 
ATOM     81  C   UNL A   1      44.693  33.468  30.202  1.00  0.00     0.134 A 
ATOM     82  F   UNL A   1      44.046  31.836  33.381  1.00  0.00    -0.206 F 
ATOM     83  C   UNL A   1      44.581  34.072  32.910  1.00  0.00     0.040 A 
ATOM     84  C   UNL A   1      44.954  34.768  30.634  1.00  0.00     0.040 A 
ATOM     85  F   UNL A   1      44.756  33.218  28.884  1.00  0.00    -0.206 F 
ATOM     86  C   UNL A   1      44.892  35.075  31.992  1.00  0.00     0.006 A 
ENDBRANCH  62  79
ENDBRANCH  36  37
ENDBRANCH  28  31
ENDBRANCH  26  27
ENDBRANCH  25  26
ENDBRANCH   1  25
TORSDOF 14
ENDMDL
MODEL 2
REMARK VINA RESULT:     -11.9      2.653      7.873
REMARK SMILES Cc1cc(Nc2ccc(C(=O)NCCCCNC(=O)c3ccc(-c4c5nc(c(-c6c(F)cccc6F)c6ccc([nH]6)c(-c6c(F)cccc6F)c6nc(c(-c7c(F)cccc7F)c7ccc4[nH]7)C=C6)C=C5)cc3)cc2)nc(C(C)C)n1
REMARK SMILES IDX 14 1 13 2 12 3 10 4 11 5 9 7 6 8 7 9 75 10 8 11 74 12 5 13
REMARK SMILES IDX 4 15 1 16 2 17 3 18 81 19 77 20 76 21 78 22 79 23 80 24
REMARK SMILES IDX 15 25 16 26 17 27 18 28 19 30 20 31 21 32 73 33 22 34 72 35
REMARK SMILES IDX 23 36 24 37 25 38 66 39 26 40 71 41 65 42 67 43 27 44 70 45
REMARK SMILES IDX 64 46 63 47 28 49 54 50 37 51 53 52 38 53 41 54 52 55 68 56
REMARK SMILES IDX 39 57 40 58 51 60 69 61 42 62 29 63 30 64 35 65 31 66 32 67
REMARK SMILES IDX 34 68 36 69 33 70 55 71 56 72 61 73 57 74 58 75 60 76 62 77
REMARK SMILES IDX 59 78 43 79 44 80 49 81 45 82 46 83 48 84 50 85 47 86
REMARK H PARENT 12 6 5 14 17 29 67 48 41 59
REMARK Flexibility Score: inf
ROOT
ATOM      1  C   UNL A   1      32.838  29.250  25.086  1.00  0.00     0.023 C 
ENDROOT
BRANCH   1   2
ATOM      2  C   UNL A   1      33.031  29.207  23.567  1.00  0.00     0.116 C 
BRANCH   2   3
ATOM      3  N   UNL A   1      31.752  29.308  22.890  1.00  0.00    -0.352 N 
ATOM      4  C   UNL A   1      30.881  28.349  22.432  1.00  0.00     0.251 C 
ATOM      5  O   UNL A   1      29.837  28.732  21.904  1.00  0.00    -0.269 OA
ATOM      6  H   UNL A   1      31.454  30.232  22.729  1.00  0.00     0.163 HD
BRANCH   4   7
ATOM      7  C   UNL A   1      31.117  26.887  22.599  1.00  0.00     0.039 A 
ATOM      8  C   UNL A   1      31.599  24.106  22.716  1.00  0.00     0.040 A 
ATOM      9  C   UNL A   1      32.324  24.912  21.834  1.00  0.00     0.027 A 
ATOM     10  C   UNL A   1      30.661  24.707  23.555  1.00  0.00     0.027 A 
ATOM     11  C   UNL A   1      32.079  26.291  21.770  1.00  0.00     0.016 A 
ATOM     12  C   UNL A   1      30.458  26.087  23.533  1.00  0.00     0.016 A 
BRANCH   8  13
ATOM     13  N   UNL A   1      31.764  22.715  22.731  1.00  0.00    -0.340 N 
ATOM     14  H   UNL A   1      31.181  22.190  22.135  1.00  0.00     0.168 HD
BRANCH  13  15
ATOM     15  C   UNL A   1      32.684  21.995  23.518  1.00  0.00     0.134 A 
ATOM     16  C   UNL A   1      32.853  18.815  25.501  1.00  0.00     0.067 C 
ATOM     17  C   UNL A   1      33.207  20.107  24.832  1.00  0.00     0.043 A 
ATOM     18  C   UNL A   1      32.274  20.808  24.097  1.00  0.00     0.070 A 
ATOM     19  N   UNL A   1      34.466  20.551  25.007  1.00  0.00    -0.238 NA
ATOM     20  C   UNL A   1      34.789  21.714  24.413  1.00  0.00     0.133 A 
ATOM     21  N   UNL A   1      33.945  22.442  23.662  1.00  0.00    -0.216 NA
BRANCH  20  22
ATOM     22  C   UNL A   1      36.176  22.275  24.642  1.00  0.00     0.051 C 
ATOM     23  C   UNL A   1      36.696  22.954  23.374  1.00  0.00     0.016 C 
ATOM     24  C   UNL A   1      36.204  23.237  25.828  1.00  0.00     0.016 C 
ENDBRANCH  20  22
ENDBRANCH  13  15
ENDBRANCH   8  13
ENDBRANCH   4   7
ENDBRANCH   2   3
ENDBRANCH   1   2
BRANCH   1  25
ATOM     25  C   UNL A   1      33.912  28.498  25.875  1.00  0.00     0.023 C 
BRANCH  25  26
ATOM     26  C   UNL A   1      33.812  28.641  27.389  1.00  0.00     0.116 C 
BRANCH  26  27
ATOM     27  N   UNL A   1      33.772  30.025  27.831  1.00  0.00    -0.352 N 
ATOM     28  C   UNL A   1      34.771  30.771  28.414  1.00  0.00     0.251 C 
ATOM     29  H   UNL A   1      32.916  30.492  27.695  1.00  0.00     0.163 HD
ATOM     30  O   UNL A   1      34.548  31.895  28.827  1.00  0.00    -0.269 OA
BRANCH  28  31
ATOM     31  C   UNL A   1      36.114  30.172  28.574  1.00  0.00     0.039 A 
ATOM     32  C   UNL A   1      37.005  30.233  27.500  1.00  0.00     0.014 A 
ATOM     33  C   UNL A   1      36.498  29.582  29.781  1.00  0.00     0.014 A 
ATOM     34  C   UNL A   1      38.309  29.761  27.658  1.00  0.00     0.010 A 
ATOM     35  C   UNL A   1      37.816  29.171  29.958  1.00  0.00     0.010 A 
ATOM     36  C   UNL A   1      38.734  29.261  28.900  1.00  0.00    -0.014 A 
BRANCH  36  37
ATOM     37  C   UNL A   1      40.137  28.831  29.114  1.00  0.00     0.031 A 
ATOM     38  C   UNL A   1      41.132  29.778  29.722  1.00  0.00     0.074 A 
ATOM     39  C   UNL A   1      40.529  27.612  28.695  1.00  0.00     0.049 A 
ATOM     40  N   UNL A   1      42.415  29.615  29.917  1.00  0.00    -0.248 NA
ATOM     41  C   UNL A   1      40.621  31.093  30.140  1.00  0.00     0.031 C 
ATOM     42  C   UNL A   1      39.669  26.623  28.042  1.00  0.00     0.029 A 
ATOM     43  N   UNL A   1      41.758  27.004  28.744  1.00  0.00    -0.354 N 
ATOM     44  C   UNL A   1      42.867  30.806  30.470  1.00  0.00     0.074 A 
ATOM     45  C   UNL A   1      41.732  31.702  30.529  1.00  0.00     0.031 C 
ATOM     46  C   UNL A   1      40.394  25.528  27.765  1.00  0.00     0.029 A 
ATOM     47  C   UNL A   1      41.773  25.748  28.189  1.00  0.00     0.049 A 
ATOM     48  H   UNL A   1      42.554  27.428  29.139  1.00  0.00     0.167 HD
ATOM     49  C   UNL A   1      44.108  31.116  30.912  1.00  0.00     0.037 A 
ATOM     50  C   UNL A   1      42.785  24.875  28.034  1.00  0.00     0.037 A 
ATOM     51  C   UNL A   1      45.230  30.217  30.871  1.00  0.00     0.049 A 
ATOM     52  C   UNL A   1      44.154  25.241  28.537  1.00  0.00     0.074 A 
ATOM     53  C   UNL A   1      46.518  30.421  31.338  1.00  0.00     0.029 A 
ATOM     54  N   UNL A   1      45.197  28.939  30.332  1.00  0.00    -0.354 N 
ATOM     55  N   UNL A   1      44.553  26.348  29.114  1.00  0.00    -0.248 NA
ATOM     56  C   UNL A   1      45.212  24.234  28.373  1.00  0.00     0.031 C 
ATOM     57  C   UNL A   1      47.273  29.279  31.049  1.00  0.00     0.029 A 
ATOM     58  C   UNL A   1      46.445  28.348  30.441  1.00  0.00     0.049 A 
ATOM     59  H   UNL A   1      44.405  28.516  29.930  1.00  0.00     0.167 HD
ATOM     60  C   UNL A   1      45.898  26.162  29.406  1.00  0.00     0.074 A 
ATOM     61  C   UNL A   1      46.243  24.830  28.954  1.00  0.00     0.031 C 
ATOM     62  C   UNL A   1      46.769  27.018  29.994  1.00  0.00     0.037 A 
BRANCH  49  63
ATOM     63  C   UNL A   1      44.311  32.487  31.489  1.00  0.00     0.057 A 
ATOM     64  C   UNL A   1      44.691  33.572  30.690  1.00  0.00     0.134 A 
ATOM     65  C   UNL A   1      44.099  32.730  32.852  1.00  0.00     0.134 A 
ATOM     66  F   UNL A   1      44.922  33.403  29.379  1.00  0.00    -0.206 F 
ATOM     67  C   UNL A   1      44.879  34.847  31.228  1.00  0.00     0.040 A 
ATOM     68  C   UNL A   1      44.259  34.005  33.398  1.00  0.00     0.040 A 
ATOM     69  F   UNL A   1      43.730  31.736  33.673  1.00  0.00    -0.206 F 
ATOM     70  C   UNL A   1      44.656  35.066  32.587  1.00  0.00     0.006 A 
ENDBRANCH  49  63
BRANCH  50  71
ATOM     71  C   UNL A   1      42.540  23.559  27.392  1.00  0.00     0.057 A 
ATOM     72  C   UNL A   1      42.156  22.447  28.148  1.00  0.00     0.134 A 
ATOM     73  C   UNL A   1      42.689  23.382  26.011  1.00  0.00     0.134 A 
ATOM     74  F   UNL A   1      42.015  22.552  29.478  1.00  0.00    -0.206 F 
ATOM     75  C   UNL A   1      41.948  21.199  27.559  1.00  0.00     0.040 A 
ATOM     76  C   UNL A   1      42.461  22.146  25.406  1.00  0.00     0.040 A 
ATOM     77  F   UNL A   1      43.047  24.412  25.231  1.00  0.00    -0.206 F 
ATOM     78  C   UNL A   1      42.096  21.047  26.182  1.00  0.00     0.006 A 
ENDBRANCH  50  71
BRANCH  62  79
ATOM     79  C   UNL A   1      48.169  26.528  30.209  1.00  0.00     0.057 A 
ATOM     80  C   UNL A   1      49.177  26.730  29.258  1.00  0.00     0.134 A 
ATOM     81  C   UNL A   1      48.523  25.881  31.400  1.00  0.00     0.134 A 
ATOM     82  F   UNL A   1      48.900  27.331  28.091  1.00  0.00    -0.206 F 
ATOM     83  C   UNL A   1      50.483  26.287  29.475  1.00  0.00     0.040 A 
ATOM     84  C   UNL A   1      49.829  25.456  31.639  1.00  0.00     0.040 A 
ATOM     85  F   UNL A   1      47.605  25.665  32.356  1.00  0.00    -0.206 F 
ATOM     86  C   UNL A   1      50.813  25.653  30.672  1.00  0.00     0.006 A 
ENDBRANCH  62  79
ENDBRANCH  36  37
ENDBRANCH  28  31
ENDBRANCH  26  27
ENDBRANCH  25  26
ENDBRANCH   1  25
TORSDOF 14
ENDMDL
MODEL 3
REMARK VINA RESULT:     -11.9      1.645      6.393
REMARK SMILES Cc1cc(Nc2ccc(C(=O)NCCCCNC(=O)c3ccc(-c4c5nc(c(-c6c(F)cccc6F)c6ccc([nH]6)c(-c6c(F)cccc6F)c6nc(c(-c7c(F)cccc7F)c7ccc4[nH]7)C=C6)C=C5)cc3)cc2)nc(C(C)C)n1
REMARK SMILES IDX 14 1 13 2 12 3 10 4 11 5 9 7 6 8 7 9 75 10 8 11 74 12 5 13
REMARK SMILES IDX 4 15 1 16 2 17 3 18 81 19 77 20 76 21 78 22 79 23 80 24
REMARK SMILES IDX 15 25 16 26 17 27 18 28 19 30 20 31 21 32 73 33 22 34 72 35
REMARK SMILES IDX 23 36 24 37 25 38 66 39 26 40 71 41 65 42 67 43 27 44 70 45
REMARK SMILES IDX 64 46 63 47 28 49 54 50 37 51 53 52 38 53 41 54 52 55 68 56
REMARK SMILES IDX 39 57 40 58 51 60 69 61 42 62 29 63 30 64 35 65 31 66 32 67
REMARK SMILES IDX 34 68 36 69 33 70 55 71 56 72 61 73 57 74 58 75 60 76 62 77
REMARK SMILES IDX 59 78 43 79 44 80 49 81 45 82 46 83 48 84 50 85 47 86
REMARK H PARENT 12 6 5 14 17 29 67 48 41 59
REMARK Flexibility Score: inf
ROOT
ATOM      1  C   UNL A   1      37.161  21.327  24.747  1.00  0.00     0.023 C 
ENDROOT
BRANCH   1   2
ATOM      2  C   UNL A   1      35.797  21.272  25.440  1.00  0.00     0.116 C 
BRANCH   2   3
ATOM      3  N   UNL A   1      35.052  20.107  25.002  1.00  0.00    -0.352 N 
ATOM      4  C   UNL A   1      33.740  19.947  24.626  1.00  0.00     0.251 C 
ATOM      5  O   UNL A   1      33.380  18.824  24.272  1.00  0.00    -0.269 OA
ATOM      6  H   UNL A   1      35.584  19.279  24.968  1.00  0.00     0.163 HD
BRANCH   4   7
ATOM      7  C   UNL A   1      32.765  21.072  24.572  1.00  0.00     0.039 A 
ATOM      8  C   UNL A   1      31.041  23.299  24.343  1.00  0.00     0.040 A 
ATOM      9  C   UNL A   1      31.776  22.858  23.239  1.00  0.00     0.027 A 
ATOM     10  C   UNL A   1      31.152  22.599  25.544  1.00  0.00     0.027 A 
ATOM     11  C   UNL A   1      32.637  21.758  23.355  1.00  0.00     0.016 A 
ATOM     12  C   UNL A   1      31.965  21.469  25.644  1.00  0.00     0.016 A 
BRANCH   8  13
ATOM     13  N   UNL A   1      30.245  24.450  24.272  1.00  0.00    -0.340 N 
ATOM     14  H   UNL A   1      29.278  24.316  24.143  1.00  0.00     0.168 HD
BRANCH  13  15
ATOM     15  C   UNL A   1      30.697  25.781  24.368  1.00  0.00     0.134 A 
ATOM     16  C   UNL A   1      30.617  28.961  22.379  1.00  0.00     0.067 C 
ATOM     17  C   UNL A   1      30.854  27.953  23.462  1.00  0.00     0.043 A 
ATOM     18  C   UNL A   1      30.431  26.647  23.324  1.00  0.00     0.070 A 
ATOM     19  N   UNL A   1      31.517  28.383  24.551  1.00  0.00    -0.238 NA
ATOM     20  C   UNL A   1      31.738  27.480  25.525  1.00  0.00     0.133 A 
ATOM     21  N   UNL A   1      31.336  26.199  25.476  1.00  0.00    -0.216 NA
BRANCH  20  22
ATOM     22  C   UNL A   1      32.535  27.913  26.736  1.00  0.00     0.051 C 
ATOM     23  C   UNL A   1      34.031  27.915  26.420  1.00  0.00     0.016 C 
ATOM     24  C   UNL A   1      32.083  29.280  27.247  1.00  0.00     0.016 C 
ENDBRANCH  20  22
ENDBRANCH  13  15
ENDBRANCH   8  13
ENDBRANCH   4   7
ENDBRANCH   2   3
ENDBRANCH   1   2
BRANCH   1  25
ATOM     25  C   UNL A   1      38.028  20.086  24.973  1.00  0.00     0.023 C 
BRANCH  25  26
ATOM     26  C   UNL A   1      39.193  20.286  25.935  1.00  0.00     0.116 C 
BRANCH  26  27
ATOM     27  N   UNL A   1      40.151  19.192  25.909  1.00  0.00    -0.352 N 
ATOM     28  C   UNL A   1      41.515  19.240  26.083  1.00  0.00     0.251 C 
ATOM     29  H   UNL A   1      39.772  18.298  25.746  1.00  0.00     0.163 HD
ATOM     30  O   UNL A   1      42.197  18.242  25.928  1.00  0.00    -0.269 OA
BRANCH  28  31
ATOM     31  C   UNL A   1      42.151  20.532  26.420  1.00  0.00     0.039 A 
ATOM     32  C   UNL A   1      42.591  21.352  25.378  1.00  0.00     0.014 A 
ATOM     33  C   UNL A   1      42.286  20.941  27.749  1.00  0.00     0.014 A 
ATOM     34  C   UNL A   1      43.106  22.616  25.667  1.00  0.00     0.010 A 
ATOM     35  C   UNL A   1      42.738  22.227  28.032  1.00  0.00     0.010 A 
ATOM     36  C   UNL A   1      43.149  23.077  26.993  1.00  0.00    -0.014 A 
BRANCH  36  37
ATOM     37  C   UNL A   1      43.615  24.448  27.314  1.00  0.00     0.031 A 
ATOM     38  C   UNL A   1      42.632  25.497  27.747  1.00  0.00     0.074 A 
ATOM     39  C   UNL A   1      44.914  24.763  27.149  1.00  0.00     0.049 A 
ATOM     40  N   UNL A   1      42.832  26.765  27.996  1.00  0.00    -0.248 NA
ATOM     41  C   UNL A   1      41.231  25.070  27.891  1.00  0.00     0.031 C 
ATOM     42  C   UNL A   1      45.956  23.846  26.682  1.00  0.00     0.029 A 
ATOM     43  N   UNL A   1      45.577  25.949  27.339  1.00  0.00    -0.354 N 
ATOM     44  C   UNL A   1      41.587  27.289  28.316  1.00  0.00     0.074 A 
ATOM     45  C   UNL A   1      40.628  26.215  28.177  1.00  0.00     0.031 C 
ATOM     46  C   UNL A   1      47.128  24.500  26.638  1.00  0.00     0.029 A 
ATOM     47  C   UNL A   1      46.915  25.886  27.039  1.00  0.00     0.049 A 
ATOM     48  H   UNL A   1      45.133  26.768  27.660  1.00  0.00     0.167 HD
ATOM     49  C   UNL A   1      41.274  28.545  28.714  1.00  0.00     0.037 A 
ATOM     50  C   UNL A   1      47.862  26.842  27.077  1.00  0.00     0.037 A 
ATOM     51  C   UNL A   1      42.232  29.607  28.871  1.00  0.00     0.049 A 
ATOM     52  C   UNL A   1      47.492  28.227  27.526  1.00  0.00     0.074 A 
ATOM     53  C   UNL A   1      42.022  30.901  29.315  1.00  0.00     0.029 A 
ATOM     54  N   UNL A   1      43.586  29.495  28.590  1.00  0.00    -0.354 N 
ATOM     55  N   UNL A   1      46.320  28.693  27.886  1.00  0.00    -0.248 NA
ATOM     56  C   UNL A   1      48.575  29.218  27.582  1.00  0.00     0.031 C 
ATOM     57  C   UNL A   1      43.243  31.583  29.269  1.00  0.00     0.029 A 
ATOM     58  C   UNL A   1      44.221  30.700  28.837  1.00  0.00     0.049 A 
ATOM     59  H   UNL A   1      44.029  28.679  28.262  1.00  0.00     0.167 HD
ATOM     60  C   UNL A   1      46.529  30.020  28.234  1.00  0.00     0.074 A 
ATOM     61  C   UNL A   1      47.942  30.281  28.057  1.00  0.00     0.031 C 
ATOM     62  C   UNL A   1      45.630  30.940  28.662  1.00  0.00     0.037 A 
BRANCH  49  63
ATOM     63  C   UNL A   1      39.833  28.832  29.018  1.00  0.00     0.057 A 
ATOM     64  C   UNL A   1      38.932  29.214  28.016  1.00  0.00     0.134 A 
ATOM     65  C   UNL A   1      39.334  28.700  30.320  1.00  0.00     0.134 A 
ATOM     66  F   UNL A   1      39.350  29.372  26.751  1.00  0.00    -0.206 F 
ATOM     67  C   UNL A   1      37.592  29.481  28.301  1.00  0.00     0.040 A 
ATOM     68  C   UNL A   1      37.990  28.938  30.613  1.00  0.00     0.040 A 
ATOM     69  F   UNL A   1      40.142  28.333  31.326  1.00  0.00    -0.206 F 
ATOM     70  C   UNL A   1      37.117  29.336  29.603  1.00  0.00     0.006 A 
ENDBRANCH  49  63
BRANCH  50  71
ATOM     71  C   UNL A   1      49.260  26.516  26.697  1.00  0.00     0.057 A 
ATOM     72  C   UNL A   1      49.697  26.639  25.374  1.00  0.00     0.134 A 
ATOM     73  C   UNL A   1      50.189  26.071  27.645  1.00  0.00     0.134 A 
ATOM     74  F   UNL A   1      48.847  27.044  24.418  1.00  0.00    -0.206 F 
ATOM     75  C   UNL A   1      51.002  26.311  25.001  1.00  0.00     0.040 A 
ATOM     76  C   UNL A   1      51.503  25.762  27.291  1.00  0.00     0.040 A 
ATOM     77  F   UNL A   1      49.834  25.941  28.932  1.00  0.00    -0.206 F 
ATOM     78  C   UNL A   1      51.910  25.875  25.963  1.00  0.00     0.006 A 
ENDBRANCH  50  71
BRANCH  62  79
ATOM     79  C   UNL A   1      46.155  32.305  28.997  1.00  0.00     0.057 A 
ATOM     80  C   UNL A   1      46.632  32.619  30.275  1.00  0.00     0.134 A 
ATOM     81  C   UNL A   1      46.218  33.304  28.018  1.00  0.00     0.134 A 
ATOM     82  F   UNL A   1      46.586  31.710  31.261  1.00  0.00    -0.206 F 
ATOM     83  C   UNL A   1      47.136  33.886  30.573  1.00  0.00     0.040 A 
ATOM     84  C   UNL A   1      46.743  34.566  28.296  1.00  0.00     0.040 A 
ATOM     85  F   UNL A   1      45.784  33.063  26.770  1.00  0.00    -0.206 F 
ATOM     86  C   UNL A   1      47.198  34.862  29.579  1.00  0.00     0.006 A 
ENDBRANCH  62  79
ENDBRANCH  36  37
ENDBRANCH  28  31
ENDBRANCH  26  27
ENDBRANCH  25  26
ENDBRANCH   1  25
TORSDOF 14
ENDMDL
