MODEL 1
REMARK VINA RESULT:     -14.8      0.000      0.000
REMARK SMILES Cc1ccccc1NC(=S)NN1C(=O)CS[C@H]1c1ccccc1C(=O)NCCCCNC(=O)c1ccc(-c2c3nc(c(-c4c(F)cccc4F)c4ccc([nH]4)c(-c4c(F)cccc4F)c4nc(c(-c5c(F)cccc5F)c5ccc2[nH]5)C=C4)C=C3)cc1
REMARK SMILES IDX 27 1 26 2 24 3 25 4 23 6 18 7 19 8 20 9 22 10 21 11 17 12
REMARK SMILES IDX 12 13 13 14 14 15 15 16 16 17 11 18 9 20 10 21 8 22 7 24
REMARK SMILES IDX 1 25 2 26 3 27 4 28 6 29 5 30 28 31 29 32 30 33 31 34 32 35
REMARK SMILES IDX 33 37 34 38 35 39 87 40 36 41 86 42 37 43 38 44 39 45 80 46
REMARK SMILES IDX 40 47 85 48 79 49 81 50 41 51 84 52 78 53 77 54 42 56 68 57
REMARK SMILES IDX 51 58 67 59 52 60 55 61 66 62 82 63 53 64 54 65 65 67 83 68
REMARK SMILES IDX 56 69 43 70 44 71 49 72 45 73 46 74 48 75 50 76 47 77 69 78
REMARK SMILES IDX 70 79 75 80 71 81 72 82 74 83 76 84 73 85 57 86 58 87 63 88
REMARK SMILES IDX 59 89 60 90 62 91 64 92 61 93
REMARK H PARENT 26 5 11 19 8 23 31 36 81 55 55 66
REMARK Flexibility Score: inf
ROOT
ATOM      1  C   UNL A   1      37.612  23.689  26.247  1.00  0.00     0.116 C 
ENDROOT
BRANCH   1   2
ATOM      2  N   UNL A   1      37.337  23.771  24.602  1.00  0.00    -0.352 N 
ATOM      3  C   UNL A   1      36.689  22.880  23.798  1.00  0.00     0.251 C 
ATOM      4  O   UNL A   1      36.719  22.960  22.578  1.00  0.00    -0.269 OA
ATOM      5  H   UNL A   1      37.693  24.571  24.150  1.00  0.00     0.163 HD
BRANCH   3   6
ATOM      6  C   UNL A   1      35.875  21.889  24.500  1.00  0.00     0.046 A 
ATOM      7  C   UNL A   1      34.499  22.088  24.702  1.00  0.00    -0.001 A 
ATOM      8  C   UNL A   1      33.727  20.916  24.830  1.00  0.00     0.007 A 
ATOM      9  C   UNL A   1      34.324  19.643  24.837  1.00  0.00     0.000 A 
ATOM     10  C   UNL A   1      36.491  20.636  24.637  1.00  0.00     0.014 A 
ATOM     11  C   UNL A   1      35.708  19.506  24.804  1.00  0.00     0.001 A 
BRANCH   7  12
ATOM     12  C   UNL A   1      33.826  23.500  24.633  1.00  0.00     0.197 C 
ATOM     13  N   UNL A   1      32.451  23.711  23.441  1.00  0.00    -0.236 N 
ATOM     14  C   UNL A   1      30.815  23.726  24.056  1.00  0.00     0.252 C 
ATOM     15  O   UNL A   1      30.442  24.274  23.119  1.00  0.00    -0.272 OA
ATOM     16  C   UNL A   1      30.655  23.836  26.089  1.00  0.00     0.174 C 
ATOM     17  S   UNL A   1      32.927  23.728  26.808  1.00  0.00    -0.120 SA
BRANCH  13  18
ATOM     18  N   UNL A   1      32.505  24.083  21.917  1.00  0.00    -0.270 N 
ATOM     19  H   UNL A   1      32.503  23.322  21.292  1.00  0.00     0.191 HD
BRANCH  18  20
ATOM     20  C   UNL A   1      32.558  25.410  21.300  1.00  0.00     0.189 C 
ATOM     21  S   UNL A   1      32.474  25.436  19.605  1.00  0.00    -0.039 S 
BRANCH  20  22
ATOM     22  N   UNL A   1      32.668  26.737  21.912  1.00  0.00    -0.331 N 
ATOM     23  H   UNL A   1      32.938  27.451  21.289  1.00  0.00     0.169 HD
BRANCH  22  24
ATOM     24  C   UNL A   1      32.424  27.234  23.435  1.00  0.00     0.043 A 
ATOM     25  C   UNL A   1      29.993  28.102  22.741  1.00  0.00     0.046 C 
ATOM     26  C   UNL A   1      31.216  28.481  23.526  1.00  0.00    -0.028 A 
ATOM     27  C   UNL A   1      31.218  29.716  24.833  1.00  0.00     0.005 A 
ATOM     28  C   UNL A   1      32.427  29.667  26.178  1.00  0.00     0.000 A 
ATOM     29  C   UNL A   1      33.688  27.142  24.813  1.00  0.00     0.026 A 
ATOM     30  C   UNL A   1      33.743  28.417  26.131  1.00  0.00     0.002 A 
ENDBRANCH  22  24
ENDBRANCH  20  22
ENDBRANCH  18  20
ENDBRANCH  13  18
ENDBRANCH   7  12
ENDBRANCH   3   6
ENDBRANCH   1   2
BRANCH   1  31
ATOM     31  C   UNL A   1      39.594  23.781  27.258  1.00  0.00     0.023 C 
BRANCH  31  32
ATOM     32  C   UNL A   1      41.180  22.552  27.566  1.00  0.00     0.023 C 
BRANCH  32  33
ATOM     33  C   UNL A   1      42.735  21.171  26.803  1.00  0.00     0.116 C 
BRANCH  33  34
ATOM     34  N   UNL A   1      43.870  21.336  25.558  1.00  0.00    -0.352 N 
ATOM     35  C   UNL A   1      44.111  22.536  24.892  1.00  0.00     0.251 C 
ATOM     36  H   UNL A   1      44.387  20.542  25.291  1.00  0.00     0.163 HD
ATOM     37  O   UNL A   1      43.538  22.931  23.894  1.00  0.00    -0.269 OA
BRANCH  35  38
ATOM     38  C   UNL A   1      45.266  23.260  25.499  1.00  0.00     0.039 A 
ATOM     39  C   UNL A   1      45.484  22.990  26.858  1.00  0.00     0.014 A 
ATOM     40  C   UNL A   1      45.329  24.563  25.010  1.00  0.00     0.014 A 
ATOM     41  C   UNL A   1      45.424  24.042  27.763  1.00  0.00     0.010 A 
ATOM     42  C   UNL A   1      45.053  25.567  25.907  1.00  0.00     0.010 A 
ATOM     43  C   UNL A   1      45.069  25.297  27.282  1.00  0.00    -0.014 A 
BRANCH  43  44
ATOM     44  C   UNL A   1      44.894  26.473  28.108  1.00  0.00     0.031 A 
ATOM     45  C   UNL A   1      43.513  26.999  28.139  1.00  0.00     0.074 A 
ATOM     46  C   UNL A   1      45.893  26.987  28.862  1.00  0.00     0.049 A 
ATOM     47  N   UNL A   1      43.200  28.168  28.560  1.00  0.00    -0.248 NA
ATOM     48  C   UNL A   1      42.360  26.255  27.614  1.00  0.00     0.031 C 
ATOM     49  C   UNL A   1      45.784  27.999  29.911  1.00  0.00     0.029 A 
ATOM     50  N   UNL A   1      47.277  26.853  28.662  1.00  0.00    -0.354 N 
ATOM     51  C   UNL A   1      41.831  28.206  28.655  1.00  0.00     0.074 A 
ATOM     52  C   UNL A   1      41.352  27.061  27.941  1.00  0.00     0.031 C 
ATOM     53  C   UNL A   1      46.967  28.625  30.038  1.00  0.00     0.029 A 
ATOM     54  C   UNL A   1      47.828  28.121  28.984  1.00  0.00     0.049 A 
ATOM     55  H   UNL A   1      47.763  26.050  28.362  1.00  0.00     0.167 HD
ATOM     56  C   UNL A   1      41.282  29.138  29.471  1.00  0.00     0.037 A 
ATOM     57  C   UNL A   1      48.413  28.894  28.022  1.00  0.00     0.037 A 
ATOM     58  C   UNL A   1      42.265  30.181  29.753  1.00  0.00     0.049 A 
ATOM     59  C   UNL A   1      47.680  30.196  27.781  1.00  0.00     0.074 A 
ATOM     60  C   UNL A   1      43.061  30.469  30.845  1.00  0.00     0.029 A 
ATOM     61  N   UNL A   1      42.810  30.875  28.672  1.00  0.00    -0.354 N 
ATOM     62  N   UNL A   1      46.443  30.410  28.147  1.00  0.00    -0.248 NA
ATOM     63  C   UNL A   1      48.277  31.360  27.135  1.00  0.00     0.031 C 
ATOM     64  C   UNL A   1      44.177  31.222  30.373  1.00  0.00     0.029 A 
ATOM     65  C   UNL A   1      44.022  31.444  29.013  1.00  0.00     0.049 A 
ATOM     66  H   UNL A   1      42.387  30.949  27.787  1.00  0.00     0.167 HD
ATOM     67  C   UNL A   1      46.067  31.679  27.787  1.00  0.00     0.074 A 
ATOM     68  C   UNL A   1      47.258  32.237  27.172  1.00  0.00     0.031 C 
ATOM     69  C   UNL A   1      44.808  32.163  28.014  1.00  0.00     0.037 A 
BRANCH  56  70
ATOM     70  C   UNL A   1      39.944  28.986  30.148  1.00  0.00     0.057 A 
ATOM     71  C   UNL A   1      38.777  29.401  29.485  1.00  0.00     0.134 A 
ATOM     72  C   UNL A   1      39.740  28.585  31.488  1.00  0.00     0.134 A 
ATOM     73  F   UNL A   1      38.819  29.842  28.219  1.00  0.00    -0.206 F 
ATOM     74  C   UNL A   1      37.517  29.410  30.100  1.00  0.00     0.040 A 
ATOM     75  C   UNL A   1      38.480  28.539  32.096  1.00  0.00     0.040 A 
ATOM     76  F   UNL A   1      40.749  28.282  32.313  1.00  0.00    -0.206 F 
ATOM     77  C   UNL A   1      37.360  28.965  31.405  1.00  0.00     0.006 A 
ENDBRANCH  56  70
BRANCH  57  78
ATOM     78  C   UNL A   1      49.135  28.067  27.014  1.00  0.00     0.057 A 
ATOM     79  C   UNL A   1      50.365  27.501  27.408  1.00  0.00     0.134 A 
ATOM     80  C   UNL A   1      48.452  27.432  25.973  1.00  0.00     0.134 A 
ATOM     81  F   UNL A   1      51.081  28.070  28.390  1.00  0.00    -0.206 F 
ATOM     82  C   UNL A   1      50.800  26.265  26.920  1.00  0.00     0.040 A 
ATOM     83  C   UNL A   1      48.889  26.198  25.469  1.00  0.00     0.040 A 
ATOM     84  F   UNL A   1      47.280  27.911  25.535  1.00  0.00    -0.206 F 
ATOM     85  C   UNL A   1      50.031  25.585  25.983  1.00  0.00     0.006 A 
ENDBRANCH  57  78
BRANCH  69  86
ATOM     86  C   UNL A   1      44.213  33.397  27.362  1.00  0.00     0.057 A 
ATOM     87  C   UNL A   1      43.929  33.515  25.992  1.00  0.00     0.134 A 
ATOM     88  C   UNL A   1      43.749  34.474  28.154  1.00  0.00     0.134 A 
ATOM     89  F   UNL A   1      44.189  32.524  25.130  1.00  0.00    -0.206 F 
ATOM     90  C   UNL A   1      43.300  34.643  25.445  1.00  0.00     0.040 A 
ATOM     91  C   UNL A   1      43.059  35.569  27.629  1.00  0.00     0.040 A 
ATOM     92  F   UNL A   1      43.917  34.498  29.485  1.00  0.00    -0.206 F 
ATOM     93  C   UNL A   1      42.850  35.668  26.263  1.00  0.00     0.006 A 
ENDBRANCH  69  86
ENDBRANCH  43  44
ENDBRANCH  35  38
ENDBRANCH  33  34
ENDBRANCH  32  33
ENDBRANCH  31  32
ENDBRANCH   1  31
TORSDOF 16
ENDMDL
MODEL 2
REMARK VINA RESULT:     -14.5      3.753      8.393
REMARK SMILES Cc1ccccc1NC(=S)NN1C(=O)CS[C@H]1c1ccccc1C(=O)NCCCCNC(=O)c1ccc(-c2c3nc(c(-c4c(F)cccc4F)c4ccc([nH]4)c(-c4c(F)cccc4F)c4nc(c(-c5c(F)cccc5F)c5ccc2[nH]5)C=C4)C=C3)cc1
REMARK SMILES IDX 27 1 26 2 24 3 25 4 23 6 18 7 19 8 20 9 22 10 21 11 17 12
REMARK SMILES IDX 12 13 13 14 14 15 15 16 16 17 11 18 9 20 10 21 8 22 7 24
REMARK SMILES IDX 1 25 2 26 3 27 4 28 6 29 5 30 28 31 29 32 30 33 31 34 32 35
REMARK SMILES IDX 33 37 34 38 35 39 87 40 36 41 86 42 37 43 38 44 39 45 80 46
REMARK SMILES IDX 40 47 85 48 79 49 81 50 41 51 84 52 78 53 77 54 42 56 68 57
REMARK SMILES IDX 51 58 67 59 52 60 55 61 66 62 82 63 53 64 54 65 65 67 83 68
REMARK SMILES IDX 56 69 43 70 44 71 49 72 45 73 46 74 48 75 50 76 47 77 69 78
REMARK SMILES IDX 70 79 75 80 71 81 72 82 74 83 76 84 73 85 57 86 58 87 63 88
REMARK SMILES IDX 59 89 60 90 62 91 64 92 61 93
REMARK H PARENT 26 5 11 19 8 23 31 36 81 55 55 66
REMARK Flexibility Score: inf
ROOT
ATOM      1  C   UNL A   1      32.119  26.351  26.535  1.00  0.00     0.116 C 
ENDROOT
BRANCH   1   2
ATOM      2  N   UNL A   1      31.265  24.930  26.738  1.00  0.00    -0.352 N 
ATOM      3  C   UNL A   1      31.544  23.688  26.251  1.00  0.00     0.251 C 
ATOM      4  O   UNL A   1      30.740  22.768  26.311  1.00  0.00    -0.269 OA
ATOM      5  H   UNL A   1      30.448  25.000  27.284  1.00  0.00     0.163 HD
BRANCH   3   6
ATOM      6  C   UNL A   1      32.905  23.510  25.749  1.00  0.00     0.046 A 
ATOM      7  C   UNL A   1      33.248  23.866  24.433  1.00  0.00    -0.001 A 
ATOM      8  C   UNL A   1      34.598  24.213  24.229  1.00  0.00     0.007 A 
ATOM      9  C   UNL A   1      35.544  24.121  25.266  1.00  0.00     0.000 A 
ATOM     10  C   UNL A   1      33.862  23.290  26.752  1.00  0.00     0.014 A 
ATOM     11  C   UNL A   1      35.189  23.601  26.507  1.00  0.00     0.001 A 
BRANCH   7  12
ATOM     12  C   UNL A   1      32.187  24.029  23.294  1.00  0.00     0.197 C 
ATOM     13  N   UNL A   1      32.566  25.232  21.966  1.00  0.00    -0.236 N 
ATOM     14  C   UNL A   1      33.112  24.618  20.422  1.00  0.00     0.252 C 
ATOM     15  O   UNL A   1      32.798  25.589  19.897  1.00  0.00    -0.272 OA
ATOM     16  C   UNL A   1      32.943  22.597  20.185  1.00  0.00     0.174 C 
ATOM     17  S   UNL A   1      32.169  21.873  22.322  1.00  0.00    -0.120 SA
BRANCH  13  18
ATOM     18  N   UNL A   1      32.296  26.777  21.916  1.00  0.00    -0.270 N 
ATOM     19  H   UNL A   1      31.776  27.094  21.143  1.00  0.00     0.191 HD
BRANCH  18  20
ATOM     20  C   UNL A   1      32.715  27.810  22.867  1.00  0.00     0.189 C 
ATOM     21  S   UNL A   1      34.255  28.470  22.601  1.00  0.00    -0.039 S 
BRANCH  20  22
ATOM     22  N   UNL A   1      32.012  28.378  24.020  1.00  0.00    -0.331 N 
ATOM     23  H   UNL A   1      32.526  28.357  24.860  1.00  0.00     0.169 HD
BRANCH  22  24
ATOM     24  C   UNL A   1      30.537  29.036  24.155  1.00  0.00     0.043 A 
ATOM     25  C   UNL A   1      29.456  26.596  24.004  1.00  0.00     0.046 C 
ATOM     26  C   UNL A   1      29.303  28.002  23.500  1.00  0.00    -0.028 A 
ATOM     27  C   UNL A   1      27.768  28.658  22.830  1.00  0.00     0.005 A 
ATOM     28  C   UNL A   1      27.389  30.426  22.889  1.00  0.00     0.000 A 
ATOM     29  C   UNL A   1      30.182  30.871  24.244  1.00  0.00     0.026 A 
ATOM     30  C   UNL A   1      28.646  31.572  23.524  1.00  0.00     0.002 A 
ENDBRANCH  22  24
ENDBRANCH  20  22
ENDBRANCH  18  20
ENDBRANCH  13  18
ENDBRANCH   7  12
ENDBRANCH   3   6
ENDBRANCH   1   2
BRANCH   1  31
ATOM     31  C   UNL A   1      31.676  28.305  27.506  1.00  0.00     0.023 C 
BRANCH  31  32
ATOM     32  C   UNL A   1      32.212  30.250  27.279  1.00  0.00     0.023 C 
BRANCH  32  33
ATOM     33  C   UNL A   1      33.610  31.928  27.650  1.00  0.00     0.116 C 
BRANCH  33  34
ATOM     34  N   UNL A   1      35.283  31.959  27.906  1.00  0.00    -0.352 N 
ATOM     35  C   UNL A   1      35.893  31.470  29.059  1.00  0.00     0.251 C 
ATOM     36  H   UNL A   1      35.854  32.344  27.202  1.00  0.00     0.163 HD
ATOM     37  O   UNL A   1      36.119  32.102  30.075  1.00  0.00    -0.269 OA
BRANCH  35  38
ATOM     38  C   UNL A   1      36.353  30.065  28.864  1.00  0.00     0.039 A 
ATOM     39  C   UNL A   1      36.643  29.368  30.046  1.00  0.00     0.014 A 
ATOM     40  C   UNL A   1      37.198  29.983  27.759  1.00  0.00     0.014 A 
ATOM     41  C   UNL A   1      37.931  28.881  30.230  1.00  0.00     0.010 A 
ATOM     42  C   UNL A   1      38.518  29.701  28.020  1.00  0.00     0.010 A 
ATOM     43  C   UNL A   1      38.887  29.180  29.267  1.00  0.00    -0.014 A 
BRANCH  43  44
ATOM     44  C   UNL A   1      40.283  28.807  29.352  1.00  0.00     0.031 A 
ATOM     45  C   UNL A   1      40.576  27.429  28.907  1.00  0.00     0.074 A 
ATOM     46  C   UNL A   1      41.248  29.681  29.719  1.00  0.00     0.049 A 
ATOM     47  N   UNL A   1      41.668  26.808  29.163  1.00  0.00    -0.248 NA
ATOM     48  C   UNL A   1      39.605  26.597  28.182  1.00  0.00     0.031 C 
ATOM     49  C   UNL A   1      42.695  29.506  29.607  1.00  0.00     0.029 A 
ATOM     50  N   UNL A   1      41.106  30.841  30.499  1.00  0.00    -0.354 N 
ATOM     51  C   UNL A   1      41.669  25.667  28.400  1.00  0.00     0.074 A 
ATOM     52  C   UNL A   1      40.330  25.512  27.916  1.00  0.00     0.031 C 
ATOM     53  C   UNL A   1      43.301  30.283  30.522  1.00  0.00     0.029 A 
ATOM     54  C   UNL A   1      42.254  30.876  31.333  1.00  0.00     0.049 A 
ATOM     55  H   UNL A   1      40.367  31.492  30.473  1.00  0.00     0.167 HD
ATOM     56  C   UNL A   1      42.863  25.078  28.151  1.00  0.00     0.037 A 
ATOM     57  C   UNL A   1      42.140  30.727  32.687  1.00  0.00     0.037 A 
ATOM     58  C   UNL A   1      43.855  25.560  29.108  1.00  0.00     0.049 A 
ATOM     59  C   UNL A   1      42.820  29.479  33.204  1.00  0.00     0.074 A 
ATOM     60  C   UNL A   1      44.893  26.469  29.028  1.00  0.00     0.029 A 
ATOM     61  N   UNL A   1      43.599  25.371  30.467  1.00  0.00    -0.354 N 
ATOM     62  N   UNL A   1      43.147  28.464  32.448  1.00  0.00    -0.248 NA
ATOM     63  C   UNL A   1      43.204  29.278  34.598  1.00  0.00     0.031 C 
ATOM     64  C   UNL A   1      45.152  26.938  30.350  1.00  0.00     0.029 A 
ATOM     65  C   UNL A   1      44.320  26.266  31.233  1.00  0.00     0.049 A 
ATOM     66  H   UNL A   1      42.986  24.692  30.829  1.00  0.00     0.167 HD
ATOM     67  C   UNL A   1      43.743  27.491  33.210  1.00  0.00     0.074 A 
ATOM     68  C   UNL A   1      43.770  28.059  34.546  1.00  0.00     0.031 C 
ATOM     69  C   UNL A   1      44.156  26.298  32.685  1.00  0.00     0.037 A 
BRANCH  56  70
ATOM     70  C   UNL A   1      43.152  24.234  26.936  1.00  0.00     0.057 A 
ATOM     71  C   UNL A   1      42.758  22.886  26.914  1.00  0.00     0.134 A 
ATOM     72  C   UNL A   1      43.934  24.630  25.826  1.00  0.00     0.134 A 
ATOM     73  F   UNL A   1      42.042  22.357  27.917  1.00  0.00    -0.206 F 
ATOM     74  C   UNL A   1      43.106  22.010  25.876  1.00  0.00     0.040 A 
ATOM     75  C   UNL A   1      44.242  23.779  24.758  1.00  0.00     0.040 A 
ATOM     76  F   UNL A   1      44.505  25.836  25.738  1.00  0.00    -0.206 F 
ATOM     77  C   UNL A   1      43.839  22.457  24.785  1.00  0.00     0.006 A 
ENDBRANCH  56  70
BRANCH  57  78
ATOM     78  C   UNL A   1      40.892  31.355  33.206  1.00  0.00     0.057 A 
ATOM     79  C   UNL A   1      40.853  32.764  33.255  1.00  0.00     0.134 A 
ATOM     80  C   UNL A   1      39.664  30.691  33.143  1.00  0.00     0.134 A 
ATOM     81  F   UNL A   1      41.995  33.464  33.334  1.00  0.00    -0.206 F 
ATOM     82  C   UNL A   1      39.666  33.478  33.061  1.00  0.00     0.040 A 
ATOM     83  C   UNL A   1      38.468  31.400  32.961  1.00  0.00     0.040 A 
ATOM     84  F   UNL A   1      39.615  29.353  33.100  1.00  0.00    -0.206 F 
ATOM     85  C   UNL A   1      38.474  32.792  32.862  1.00  0.00     0.006 A 
ENDBRANCH  57  78
BRANCH  69  86
ATOM     86  C   UNL A   1      44.503  25.060  33.488  1.00  0.00     0.057 A 
ATOM     87  C   UNL A   1      45.781  24.480  33.543  1.00  0.00     0.134 A 
ATOM     88  C   UNL A   1      43.562  24.497  34.383  1.00  0.00     0.134 A 
ATOM     89  F   UNL A   1      46.813  24.980  32.853  1.00  0.00    -0.206 F 
ATOM     90  C   UNL A   1      46.079  23.384  34.367  1.00  0.00     0.040 A 
ATOM     91  C   UNL A   1      43.868  23.452  35.259  1.00  0.00     0.040 A 
ATOM     92  F   UNL A   1      42.306  24.959  34.472  1.00  0.00    -0.206 F 
ATOM     93  C   UNL A   1      45.127  22.875  35.238  1.00  0.00     0.006 A 
ENDBRANCH  69  86
ENDBRANCH  43  44
ENDBRANCH  35  38
ENDBRANCH  33  34
ENDBRANCH  32  33
ENDBRANCH  31  32
ENDBRANCH   1  31
TORSDOF 16
ENDMDL
MODEL 3
REMARK VINA RESULT:     -14.3      2.793      5.399
REMARK SMILES Cc1ccccc1NC(=S)NN1C(=O)CS[C@H]1c1ccccc1C(=O)NCCCCNC(=O)c1ccc(-c2c3nc(c(-c4c(F)cccc4F)c4ccc([nH]4)c(-c4c(F)cccc4F)c4nc(c(-c5c(F)cccc5F)c5ccc2[nH]5)C=C4)C=C3)cc1
REMARK SMILES IDX 27 1 26 2 24 3 25 4 23 6 18 7 19 8 20 9 22 10 21 11 17 12
REMARK SMILES IDX 12 13 13 14 14 15 15 16 16 17 11 18 9 20 10 21 8 22 7 24
REMARK SMILES IDX 1 25 2 26 3 27 4 28 6 29 5 30 28 31 29 32 30 33 31 34 32 35
REMARK SMILES IDX 33 37 34 38 35 39 87 40 36 41 86 42 37 43 38 44 39 45 80 46
REMARK SMILES IDX 40 47 85 48 79 49 81 50 41 51 84 52 78 53 77 54 42 56 68 57
REMARK SMILES IDX 51 58 67 59 52 60 55 61 66 62 82 63 53 64 54 65 65 67 83 68
REMARK SMILES IDX 56 69 43 70 44 71 49 72 45 73 46 74 48 75 50 76 47 77 69 78
REMARK SMILES IDX 70 79 75 80 71 81 72 82 74 83 76 84 73 85 57 86 58 87 63 88
REMARK SMILES IDX 59 89 60 90 62 91 64 92 61 93
REMARK H PARENT 26 5 11 19 8 23 31 36 81 55 55 66
REMARK Flexibility Score: inf
ROOT
ATOM      1  C   UNL A   1      34.824  24.455  23.677  1.00  0.00     0.116 C 
ENDROOT
BRANCH   1   2
ATOM      2  N   UNL A   1      33.945  25.187  22.461  1.00  0.00    -0.352 N 
ATOM      3  C   UNL A   1      32.955  26.119  22.563  1.00  0.00     0.251 C 
ATOM      4  O   UNL A   1      32.257  26.436  21.610  1.00  0.00    -0.269 OA
ATOM      5  H   UNL A   1      34.173  24.907  21.544  1.00  0.00     0.163 HD
BRANCH   3   6
ATOM      6  C   UNL A   1      32.857  26.780  23.863  1.00  0.00     0.046 A 
ATOM      7  C   UNL A   1      32.219  26.159  24.950  1.00  0.00    -0.001 A 
ATOM      8  C   UNL A   1      32.664  26.557  26.226  1.00  0.00     0.007 A 
ATOM      9  C   UNL A   1      33.625  27.572  26.383  1.00  0.00     0.000 A 
ATOM     10  C   UNL A   1      33.716  27.880  24.012  1.00  0.00     0.014 A 
ATOM     11  C   UNL A   1      34.103  28.276  25.281  1.00  0.00     0.001 A 
BRANCH   7  12
ATOM     12  C   UNL A   1      31.196  24.986  24.777  1.00  0.00     0.197 C 
ATOM     13  N   UNL A   1      30.859  23.948  26.248  1.00  0.00    -0.236 N 
ATOM     14  C   UNL A   1      29.365  24.203  27.118  1.00  0.00     0.252 C 
ATOM     15  O   UNL A   1      29.425  23.154  27.578  1.00  0.00    -0.272 OA
ATOM     16  C   UNL A   1      28.014  25.416  26.184  1.00  0.00     0.174 C 
ATOM     17  S   UNL A   1      29.202  26.142  24.247  1.00  0.00    -0.120 SA
BRANCH  13  18
ATOM     18  N   UNL A   1      31.633  22.688  26.773  1.00  0.00    -0.270 N 
ATOM     19  H   UNL A   1      31.226  22.228  27.543  1.00  0.00     0.191 HD
BRANCH  18  20
ATOM     20  C   UNL A   1      32.880  22.106  26.273  1.00  0.00     0.189 C 
ATOM     21  S   UNL A   1      33.997  21.633  27.460  1.00  0.00    -0.039 S 
BRANCH  20  22
ATOM     22  N   UNL A   1      33.326  21.855  24.900  1.00  0.00    -0.331 N 
ATOM     23  H   UNL A   1      33.383  22.662  24.337  1.00  0.00     0.169 HD
BRANCH  22  24
ATOM     24  C   UNL A   1      33.741  20.483  24.145  1.00  0.00     0.043 A 
ATOM     25  C   UNL A   1      31.958  21.020  22.228  1.00  0.00     0.046 C 
ATOM     26  C   UNL A   1      32.479  19.911  23.096  1.00  0.00    -0.028 A 
ATOM     27  C   UNL A   1      32.280  18.166  22.708  1.00  0.00     0.005 A 
ATOM     28  C   UNL A   1      33.445  16.923  23.319  1.00  0.00     0.000 A 
ATOM     29  C   UNL A   1      34.974  19.231  24.790  1.00  0.00     0.026 A 
ATOM     30  C   UNL A   1      34.767  17.440  24.451  1.00  0.00     0.002 A 
ENDBRANCH  22  24
ENDBRANCH  20  22
ENDBRANCH  18  20
ENDBRANCH  13  18
ENDBRANCH   7  12
ENDBRANCH   3   6
ENDBRANCH   1   2
BRANCH   1  31
ATOM     31  C   UNL A   1      36.415  22.919  23.413  1.00  0.00     0.023 C 
BRANCH  31  32
ATOM     32  C   UNL A   1      37.538  21.704  24.589  1.00  0.00     0.023 C 
BRANCH  32  33
ATOM     33  C   UNL A   1      39.195  21.393  26.025  1.00  0.00     0.116 C 
BRANCH  33  34
ATOM     34  N   UNL A   1      39.905  22.429  27.161  1.00  0.00    -0.352 N 
ATOM     35  C   UNL A   1      40.759  23.476  26.817  1.00  0.00     0.251 C 
ATOM     36  H   UNL A   1      39.705  22.283  28.113  1.00  0.00     0.163 HD
ATOM     37  O   UNL A   1      41.969  23.407  26.702  1.00  0.00    -0.269 OA
BRANCH  35  38
ATOM     38  C   UNL A   1      40.009  24.760  26.709  1.00  0.00     0.039 A 
ATOM     39  C   UNL A   1      40.742  25.829  26.174  1.00  0.00     0.014 A 
ATOM     40  C   UNL A   1      39.195  24.940  27.825  1.00  0.00     0.014 A 
ATOM     41  C   UNL A   1      40.923  26.966  26.952  1.00  0.00     0.010 A 
ATOM     42  C   UNL A   1      39.545  25.957  28.681  1.00  0.00     0.010 A 
ATOM     43  C   UNL A   1      40.434  26.952  28.253  1.00  0.00    -0.014 A 
BRANCH  43  44
ATOM     44  C   UNL A   1      40.606  28.027  29.207  1.00  0.00     0.031 A 
ATOM     45  C   UNL A   1      39.641  29.136  29.058  1.00  0.00     0.074 A 
ATOM     46  C   UNL A   1      41.515  27.973  30.207  1.00  0.00     0.049 A 
ATOM     47  N   UNL A   1      39.788  30.292  29.592  1.00  0.00    -0.248 NA
ATOM     48  C   UNL A   1      38.441  29.047  28.215  1.00  0.00     0.031 C 
ATOM     49  C   UNL A   1      41.618  28.861  31.363  1.00  0.00     0.029 A 
ATOM     50  N   UNL A   1      42.698  27.217  30.254  1.00  0.00    -0.354 N 
ATOM     51  C   UNL A   1      38.600  30.962  29.432  1.00  0.00     0.074 A 
ATOM     52  C   UNL A   1      37.850  30.214  28.468  1.00  0.00     0.031 C 
ATOM     53  C   UNL A   1      42.887  28.853  31.809  1.00  0.00     0.029 A 
ATOM     54  C   UNL A   1      43.659  28.061  30.870  1.00  0.00     0.049 A 
ATOM     55  H   UNL A   1      42.833  26.298  29.928  1.00  0.00     0.167 HD
ATOM     56  C   UNL A   1      38.344  31.998  30.266  1.00  0.00     0.037 A 
ATOM     57  C   UNL A   1      44.740  28.519  30.170  1.00  0.00     0.037 A 
ATOM     58  C   UNL A   1      39.587  32.443  30.890  1.00  0.00     0.049 A 
ATOM     59  C   UNL A   1      44.742  30.023  30.004  1.00  0.00     0.074 A 
ATOM     60  C   UNL A   1      40.140  32.267  32.144  1.00  0.00     0.029 A 
ATOM     61  N   UNL A   1      40.626  32.856  30.055  1.00  0.00    -0.354 N 
ATOM     62  N   UNL A   1      43.682  30.772  30.159  1.00  0.00    -0.248 NA
ATOM     63  C   UNL A   1      45.930  30.804  29.674  1.00  0.00     0.031 C 
ATOM     64  C   UNL A   1      41.551  32.433  32.015  1.00  0.00     0.029 A 
ATOM     65  C   UNL A   1      41.843  32.773  30.703  1.00  0.00     0.049 A 
ATOM     66  H   UNL A   1      40.507  33.166  29.128  1.00  0.00     0.167 HD
ATOM     67  C   UNL A   1      44.008  32.086  29.939  1.00  0.00     0.074 A 
ATOM     68  C   UNL A   1      45.432  32.053  29.656  1.00  0.00     0.031 C 
ATOM     69  C   UNL A   1      43.082  33.091  29.997  1.00  0.00     0.037 A 
BRANCH  56  70
ATOM     70  C   UNL A   1      36.959  32.455  30.645  1.00  0.00     0.057 A 
ATOM     71  C   UNL A   1      36.438  33.634  30.087  1.00  0.00     0.134 A 
ATOM     72  C   UNL A   1      36.148  31.880  31.649  1.00  0.00     0.134 A 
ATOM     73  F   UNL A   1      37.112  34.313  29.146  1.00  0.00    -0.206 F 
ATOM     74  C   UNL A   1      35.214  34.188  30.488  1.00  0.00     0.040 A 
ATOM     75  C   UNL A   1      34.900  32.393  32.021  1.00  0.00     0.040 A 
ATOM     76  F   UNL A   1      36.539  30.830  32.381  1.00  0.00    -0.206 F 
ATOM     77  C   UNL A   1      34.431  33.561  31.449  1.00  0.00     0.006 A 
ENDBRANCH  56  70
BRANCH  57  78
ATOM     78  C   UNL A   1      45.237  27.504  29.199  1.00  0.00     0.057 A 
ATOM     79  C   UNL A   1      45.931  26.396  29.726  1.00  0.00     0.134 A 
ATOM     80  C   UNL A   1      44.632  27.335  27.951  1.00  0.00     0.134 A 
ATOM     81  F   UNL A   1      46.550  26.494  30.913  1.00  0.00    -0.206 F 
ATOM     82  C   UNL A   1      45.866  25.131  29.131  1.00  0.00     0.040 A 
ATOM     83  C   UNL A   1      44.573  26.073  27.341  1.00  0.00     0.040 A 
ATOM     84  F   UNL A   1      43.959  28.343  27.378  1.00  0.00    -0.206 F 
ATOM     85  C   UNL A   1      45.140  24.959  27.959  1.00  0.00     0.006 A 
ENDBRANCH  57  78
BRANCH  69  86
ATOM     86  C   UNL A   1      43.273  34.492  29.448  1.00  0.00     0.057 A 
ATOM     87  C   UNL A   1      43.316  35.655  30.233  1.00  0.00     0.134 A 
ATOM     88  C   UNL A   1      43.587  34.692  28.083  1.00  0.00     0.134 A 
ATOM     89  F   UNL A   1      43.168  35.615  31.563  1.00  0.00    -0.206 F 
ATOM     90  C   UNL A   1      43.580  36.922  29.693  1.00  0.00     0.040 A 
ATOM     91  C   UNL A   1      43.920  35.939  27.548  1.00  0.00     0.040 A 
ATOM     92  F   UNL A   1      43.616  33.675  27.208  1.00  0.00    -0.206 F 
ATOM     93  C   UNL A   1      43.897  37.067  28.350  1.00  0.00     0.006 A 
ENDBRANCH  69  86
ENDBRANCH  43  44
ENDBRANCH  35  38
ENDBRANCH  33  34
ENDBRANCH  32  33
ENDBRANCH  31  32
ENDBRANCH   1  31
TORSDOF 16
ENDMDL
