MODEL 1
REMARK VINA RESULT:     -11.7      0.000      0.000
REMARK SMILES CCOC(=O)c1c(NC(=O)[C@H]2CCCC[C@@H]2C(=O)NCCCCNC(=O)c2ccc(-c3c4nc(c(-c5c(F)cccc5F)c5ccc([nH]5)c(-c5c(F)cccc5F)c5nc(c(-c6c(F)cccc6F)c6ccc3[nH]6)C=C5)C=C4)cc2)sc2c1CC[C@H](C)C2
REMARK SMILES IDX 20 1 19 2 17 3 18 4 16 6 11 7 12 8 13 9 15 10 14 11 9 12
REMARK SMILES IDX 8 13 10 15 7 16 6 17 83 18 81 19 82 20 84 21 88 22 85 23
REMARK SMILES IDX 86 24 87 25 4 26 5 27 3 28 2 29 1 30 21 31 22 32 23 33 24 34
REMARK SMILES IDX 25 35 26 37 27 38 28 39 80 40 29 41 79 42 30 43 31 44 32 45
REMARK SMILES IDX 73 46 33 47 78 48 72 49 74 50 34 51 77 52 71 53 70 54 35 56
REMARK SMILES IDX 61 57 44 58 60 59 45 60 48 61 59 62 75 63 46 64 47 65 58 67
REMARK SMILES IDX 76 68 49 69 36 70 37 71 42 72 38 73 39 74 41 75 43 76 40 77
REMARK SMILES IDX 62 78 63 79 68 80 64 81 65 82 67 83 69 84 66 85 50 86 51 87
REMARK SMILES IDX 56 88 52 89 53 90 55 91 57 92 54 93
REMARK H PARENT 19 5 8 14 24 36 74 55 48 66
REMARK Flexibility Score: inf
ROOT
ATOM      1  C   UNL A   1      34.020  29.755  27.341  1.00  0.00     0.116 C 
ENDROOT
BRANCH   1   2
ATOM      2  N   UNL A   1      34.337  29.243  26.020  1.00  0.00    -0.356 N 
ATOM      3  C   UNL A   1      33.623  28.458  25.166  1.00  0.00     0.223 C 
ATOM      4  O   UNL A   1      34.104  28.285  24.044  1.00  0.00    -0.275 OA
ATOM      5  H   UNL A   1      35.222  29.509  25.683  1.00  0.00     0.163 HD
BRANCH   3   6
ATOM      6  C   UNL A   1      32.295  27.822  25.581  1.00  0.00     0.091 C 
ATOM      7  C   UNL A   1      32.131  26.442  24.886  1.00  0.00     0.091 C 
ATOM      8  C   UNL A   1      31.581  26.512  23.453  1.00  0.00     0.014 C 
ATOM      9  C   UNL A   1      30.409  27.465  23.289  1.00  0.00     0.001 C 
ATOM     10  C   UNL A   1      31.137  28.788  25.299  1.00  0.00     0.014 C 
ATOM     11  C   UNL A   1      30.745  28.847  23.825  1.00  0.00     0.001 C 
BRANCH   7  12
ATOM     12  C   UNL A   1      31.376  25.446  25.756  1.00  0.00     0.228 C 
ATOM     13  N   UNL A   1      31.841  24.191  26.012  1.00  0.00    -0.317 N 
ATOM     14  H   UNL A   1      31.256  23.669  26.606  1.00  0.00     0.170 HD
ATOM     15  O   UNL A   1      30.276  25.741  26.240  1.00  0.00    -0.274 OA
BRANCH  13  16
ATOM     16  C   UNL A   1      32.965  23.505  25.606  1.00  0.00     0.110 A 
ATOM     17  C   UNL A   1      33.307  22.327  24.959  1.00  0.00     0.098 A 
ATOM     18  C   UNL A   1      34.714  22.035  25.171  1.00  0.00    -0.017 A 
ATOM     19  S   UNL A   1      34.351  24.385  26.108  1.00  0.00    -0.122 S 
ATOM     20  C   UNL A   1      35.373  23.077  25.787  1.00  0.00     0.011 A 
ATOM     21  C   UNL A   1      35.438  20.789  24.735  1.00  0.00     0.038 C 
ATOM     22  C   UNL A   1      36.827  23.091  26.146  1.00  0.00     0.050 C 
ATOM     23  C   UNL A   1      36.865  20.705  25.306  1.00  0.00     0.008 C 
ATOM     24  C   UNL A   1      37.587  22.067  25.277  1.00  0.00    -0.009 C 
ATOM     25  C   UNL A   1      39.034  21.930  25.745  1.00  0.00     0.008 C 
BRANCH  17  26
ATOM     26  C   UNL A   1      32.424  21.433  24.213  1.00  0.00     0.341 C 
ATOM     27  O   UNL A   1      32.249  21.538  23.009  1.00  0.00    -0.246 OA
BRANCH  26  28
ATOM     28  O   UNL A   1      31.821  20.496  25.006  1.00  0.00    -0.462 OA
BRANCH  28  29
ATOM     29  C   UNL A   1      32.491  19.229  25.130  1.00  0.00     0.230 C 
ATOM     30  C   UNL A   1      32.485  18.374  23.878  1.00  0.00     0.049 C 
ENDBRANCH  28  29
ENDBRANCH  26  28
ENDBRANCH  17  26
ENDBRANCH  13  16
ENDBRANCH   7  12
ENDBRANCH   3   6
ENDBRANCH   1   2
BRANCH   1  31
ATOM     31  C   UNL A   1      34.149  31.280  27.447  1.00  0.00     0.023 C 
BRANCH  31  32
ATOM     32  C   UNL A   1      32.876  32.075  27.780  1.00  0.00     0.023 C 
BRANCH  32  33
ATOM     33  C   UNL A   1      32.803  33.489  27.215  1.00  0.00     0.116 C 
BRANCH  33  34
ATOM     34  N   UNL A   1      32.446  34.497  28.206  1.00  0.00    -0.352 N 
ATOM     35  C   UNL A   1      33.049  34.743  29.425  1.00  0.00     0.251 C 
ATOM     36  H   UNL A   1      31.681  35.073  27.979  1.00  0.00     0.163 HD
ATOM     37  O   UNL A   1      32.456  35.358  30.305  1.00  0.00    -0.269 OA
BRANCH  35  38
ATOM     38  C   UNL A   1      34.415  34.242  29.668  1.00  0.00     0.039 A 
ATOM     39  C   UNL A   1      34.682  33.377  30.734  1.00  0.00     0.014 A 
ATOM     40  C   UNL A   1      35.432  34.621  28.797  1.00  0.00     0.014 A 
ATOM     41  C   UNL A   1      35.956  32.821  30.854  1.00  0.00     0.010 A 
ATOM     42  C   UNL A   1      36.647  33.977  28.840  1.00  0.00     0.010 A 
ATOM     43  C   UNL A   1      36.933  33.101  29.887  1.00  0.00    -0.014 A 
BRANCH  43  44
ATOM     44  C   UNL A   1      38.214  32.389  29.899  1.00  0.00     0.031 A 
ATOM     45  C   UNL A   1      38.207  31.023  29.295  1.00  0.00     0.074 A 
ATOM     46  C   UNL A   1      39.390  32.985  30.190  1.00  0.00     0.049 A 
ATOM     47  N   UNL A   1      38.524  29.900  29.852  1.00  0.00    -0.248 NA
ATOM     48  C   UNL A   1      37.722  30.882  27.912  1.00  0.00     0.031 C 
ATOM     49  C   UNL A   1      39.639  34.402  30.480  1.00  0.00     0.029 A 
ATOM     50  N   UNL A   1      40.648  32.460  30.158  1.00  0.00    -0.354 N 
ATOM     51  C   UNL A   1      38.459  28.933  28.849  1.00  0.00     0.074 A 
ATOM     52  C   UNL A   1      37.824  29.566  27.722  1.00  0.00     0.031 C 
ATOM     53  C   UNL A   1      40.958  34.663  30.355  1.00  0.00     0.029 A 
ATOM     54  C   UNL A   1      41.661  33.409  30.153  1.00  0.00     0.049 A 
ATOM     55  H   UNL A   1      40.822  31.491  30.140  1.00  0.00     0.167 HD
ATOM     56  C   UNL A   1      39.130  27.750  28.951  1.00  0.00     0.037 A 
ATOM     57  C   UNL A   1      42.985  33.195  29.968  1.00  0.00     0.037 A 
ATOM     58  C   UNL A   1      39.518  27.482  30.312  1.00  0.00     0.049 A 
ATOM     59  C   UNL A   1      43.250  31.764  30.234  1.00  0.00     0.074 A 
ATOM     60  C   UNL A   1      38.850  27.351  31.514  1.00  0.00     0.029 A 
ATOM     61  N   UNL A   1      40.840  27.636  30.647  1.00  0.00    -0.354 N 
ATOM     62  N   UNL A   1      43.184  31.214  31.414  1.00  0.00    -0.248 NA
ATOM     63  C   UNL A   1      43.205  30.841  29.113  1.00  0.00     0.031 C 
ATOM     64  C   UNL A   1      39.717  27.939  32.484  1.00  0.00     0.029 A 
ATOM     65  C   UNL A   1      40.876  28.342  31.820  1.00  0.00     0.049 A 
ATOM     66  H   UNL A   1      41.615  27.304  30.140  1.00  0.00     0.167 HD
ATOM     67  C   UNL A   1      42.647  29.958  31.183  1.00  0.00     0.074 A 
ATOM     68  C   UNL A   1      42.801  29.738  29.748  1.00  0.00     0.031 C 
ATOM     69  C   UNL A   1      41.874  29.339  32.125  1.00  0.00     0.037 A 
BRANCH  56  70
ATOM     70  C   UNL A   1      39.761  27.016  27.787  1.00  0.00     0.057 A 
ATOM     71  C   UNL A   1      39.671  25.610  27.730  1.00  0.00     0.134 A 
ATOM     72  C   UNL A   1      40.703  27.584  26.906  1.00  0.00     0.134 A 
ATOM     73  F   UNL A   1      38.818  24.941  28.520  1.00  0.00    -0.206 F 
ATOM     74  C   UNL A   1      40.520  24.830  26.933  1.00  0.00     0.040 A 
ATOM     75  C   UNL A   1      41.517  26.817  26.066  1.00  0.00     0.040 A 
ATOM     76  F   UNL A   1      40.961  28.896  26.878  1.00  0.00    -0.206 F 
ATOM     77  C   UNL A   1      41.455  25.434  26.104  1.00  0.00     0.006 A 
ENDBRANCH  56  70
BRANCH  57  78
ATOM     78  C   UNL A   1      44.000  34.089  29.376  1.00  0.00     0.057 A 
ATOM     79  C   UNL A   1      44.082  34.277  27.989  1.00  0.00     0.134 A 
ATOM     80  C   UNL A   1      44.738  34.988  30.167  1.00  0.00     0.134 A 
ATOM     81  F   UNL A   1      43.387  33.491  27.154  1.00  0.00    -0.206 F 
ATOM     82  C   UNL A   1      44.832  35.314  27.422  1.00  0.00     0.040 A 
ATOM     83  C   UNL A   1      45.497  36.023  29.612  1.00  0.00     0.040 A 
ATOM     84  F   UNL A   1      44.676  34.943  31.505  1.00  0.00    -0.206 F 
ATOM     85  C   UNL A   1      45.533  36.200  28.235  1.00  0.00     0.006 A 
ENDBRANCH  57  78
BRANCH  69  86
ATOM     86  C   UNL A   1      41.867  29.909  33.515  1.00  0.00     0.057 A 
ATOM     87  C   UNL A   1      41.003  30.924  33.949  1.00  0.00     0.134 A 
ATOM     88  C   UNL A   1      42.680  29.315  34.489  1.00  0.00     0.134 A 
ATOM     89  F   UNL A   1      40.112  31.481  33.121  1.00  0.00    -0.206 F 
ATOM     90  C   UNL A   1      40.987  31.365  35.277  1.00  0.00     0.040 A 
ATOM     91  C   UNL A   1      42.648  29.721  35.824  1.00  0.00     0.040 A 
ATOM     92  F   UNL A   1      43.491  28.297  34.162  1.00  0.00    -0.206 F 
ATOM     93  C   UNL A   1      41.810  30.759  36.220  1.00  0.00     0.006 A 
ENDBRANCH  69  86
ENDBRANCH  43  44
ENDBRANCH  35  38
ENDBRANCH  33  34
ENDBRANCH  32  33
ENDBRANCH  31  32
ENDBRANCH   1  31
TORSDOF 16
ENDMDL
MODEL 2
REMARK VINA RESULT:     -11.7      2.814      6.654
REMARK SMILES CCOC(=O)c1c(NC(=O)[C@H]2CCCC[C@@H]2C(=O)NCCCCNC(=O)c2ccc(-c3c4nc(c(-c5c(F)cccc5F)c5ccc([nH]5)c(-c5c(F)cccc5F)c5nc(c(-c6c(F)cccc6F)c6ccc3[nH]6)C=C5)C=C4)cc2)sc2c1CC[C@H](C)C2
REMARK SMILES IDX 20 1 19 2 17 3 18 4 16 6 11 7 12 8 13 9 15 10 14 11 9 12
REMARK SMILES IDX 8 13 10 15 7 16 6 17 83 18 81 19 82 20 84 21 88 22 85 23
REMARK SMILES IDX 86 24 87 25 4 26 5 27 3 28 2 29 1 30 21 31 22 32 23 33 24 34
REMARK SMILES IDX 25 35 26 37 27 38 28 39 80 40 29 41 79 42 30 43 31 44 32 45
REMARK SMILES IDX 73 46 33 47 78 48 72 49 74 50 34 51 77 52 71 53 70 54 35 56
REMARK SMILES IDX 61 57 44 58 60 59 45 60 48 61 59 62 75 63 46 64 47 65 58 67
REMARK SMILES IDX 76 68 49 69 36 70 37 71 42 72 38 73 39 74 41 75 43 76 40 77
REMARK SMILES IDX 62 78 63 79 68 80 64 81 65 82 67 83 69 84 66 85 50 86 51 87
REMARK SMILES IDX 56 88 52 89 53 90 55 91 57 92 54 93
REMARK H PARENT 19 5 8 14 24 36 74 55 48 66
REMARK Flexibility Score: inf
ROOT
ATOM      1  C   UNL A   1      34.075  29.175  26.510  1.00  0.00     0.116 C 
ENDROOT
BRANCH   1   2
ATOM      2  N   UNL A   1      34.029  29.304  25.065  1.00  0.00    -0.356 N 
ATOM      3  C   UNL A   1      33.056  28.991  24.165  1.00  0.00     0.223 C 
ATOM      4  O   UNL A   1      33.254  29.334  22.998  1.00  0.00    -0.275 OA
ATOM      5  H   UNL A   1      34.844  29.685  24.666  1.00  0.00     0.163 HD
BRANCH   3   6
ATOM      6  C   UNL A   1      31.785  28.249  24.584  1.00  0.00     0.091 C 
ATOM      7  C   UNL A   1      31.437  27.164  23.527  1.00  0.00     0.091 C 
ATOM      8  C   UNL A   1      30.659  27.687  22.311  1.00  0.00     0.014 C 
ATOM      9  C   UNL A   1      29.527  28.637  22.664  1.00  0.00     0.001 C 
ATOM     10  C   UNL A   1      30.648  29.249  24.829  1.00  0.00     0.014 C 
ATOM     11  C   UNL A   1      30.018  29.775  23.542  1.00  0.00     0.001 C 
BRANCH   7  12
ATOM     12  C   UNL A   1      30.788  25.938  24.156  1.00  0.00     0.228 C 
ATOM     13  N   UNL A   1      31.489  24.811  24.465  1.00  0.00    -0.317 N 
ATOM     14  H   UNL A   1      30.940  24.110  24.884  1.00  0.00     0.170 HD
ATOM     15  O   UNL A   1      29.571  25.914  24.378  1.00  0.00    -0.274 OA
BRANCH  13  16
ATOM     16  C   UNL A   1      32.811  24.455  24.308  1.00  0.00     0.110 A 
ATOM     17  C   UNL A   1      33.625  23.787  23.405  1.00  0.00     0.098 A 
ATOM     18  C   UNL A   1      34.892  23.453  24.033  1.00  0.00    -0.017 A 
ATOM     19  S   UNL A   1      33.682  24.973  25.694  1.00  0.00    -0.122 S 
ATOM     20  C   UNL A   1      35.027  24.039  25.273  1.00  0.00     0.011 A 
ATOM     21  C   UNL A   1      35.993  22.627  23.425  1.00  0.00     0.038 C 
ATOM     22  C   UNL A   1      36.213  23.892  26.176  1.00  0.00     0.050 C 
ATOM     23  C   UNL A   1      37.102  22.285  24.436  1.00  0.00     0.008 C 
ATOM     24  C   UNL A   1      37.448  23.479  25.348  1.00  0.00    -0.009 C 
ATOM     25  C   UNL A   1      38.624  23.146  26.263  1.00  0.00     0.008 C 
BRANCH  17  26
ATOM     26  C   UNL A   1      33.299  23.392  22.037  1.00  0.00     0.341 C 
ATOM     27  O   UNL A   1      33.360  24.170  21.097  1.00  0.00    -0.246 OA
BRANCH  26  28
ATOM     28  O   UNL A   1      32.913  22.084  21.938  1.00  0.00    -0.462 OA
BRANCH  28  29
ATOM     29  C   UNL A   1      31.987  21.608  22.931  1.00  0.00     0.230 C 
ATOM     30  C   UNL A   1      32.430  20.369  23.682  1.00  0.00     0.049 C 
ENDBRANCH  28  29
ENDBRANCH  26  28
ENDBRANCH  17  26
ENDBRANCH  13  16
ENDBRANCH   7  12
ENDBRANCH   3   6
ENDBRANCH   1   2
BRANCH   1  31
ATOM     31  C   UNL A   1      33.117  30.128  27.236  1.00  0.00     0.023 C 
BRANCH  31  32
ATOM     32  C   UNL A   1      33.653  31.521  27.607  1.00  0.00     0.023 C 
BRANCH  32  33
ATOM     33  C   UNL A   1      35.012  31.553  28.297  1.00  0.00     0.116 C 
BRANCH  33  34
ATOM     34  N   UNL A   1      34.948  31.970  29.693  1.00  0.00    -0.352 N 
ATOM     35  C   UNL A   1      35.688  31.494  30.759  1.00  0.00     0.251 C 
ATOM     36  H   UNL A   1      34.297  32.679  29.902  1.00  0.00     0.163 HD
ATOM     37  O   UNL A   1      35.306  31.661  31.912  1.00  0.00    -0.269 OA
BRANCH  35  38
ATOM     38  C   UNL A   1      36.941  30.761  30.496  1.00  0.00     0.039 A 
ATOM     39  C   UNL A   1      38.123  31.447  30.198  1.00  0.00     0.014 A 
ATOM     40  C   UNL A   1      36.934  29.372  30.582  1.00  0.00     0.014 A 
ATOM     41  C   UNL A   1      39.314  30.729  30.085  1.00  0.00     0.010 A 
ATOM     42  C   UNL A   1      38.124  28.681  30.598  1.00  0.00     0.010 A 
ATOM     43  C   UNL A   1      39.318  29.345  30.315  1.00  0.00    -0.014 A 
BRANCH  43  44
ATOM     44  C   UNL A   1      40.582  28.607  30.376  1.00  0.00     0.031 A 
ATOM     45  C   UNL A   1      41.227  28.528  31.721  1.00  0.00     0.074 A 
ATOM     46  C   UNL A   1      41.034  27.826  29.371  1.00  0.00     0.049 A 
ATOM     47  N   UNL A   1      42.405  28.932  32.069  1.00  0.00    -0.248 NA
ATOM     48  C   UNL A   1      40.432  27.987  32.836  1.00  0.00     0.031 C 
ATOM     49  C   UNL A   1      40.371  27.513  28.100  1.00  0.00     0.029 A 
ATOM     50  N   UNL A   1      42.142  27.032  29.335  1.00  0.00    -0.354 N 
ATOM     51  C   UNL A   1      42.578  28.537  33.396  1.00  0.00     0.074 A 
ATOM     52  C   UNL A   1      41.287  28.093  33.855  1.00  0.00     0.031 C 
ATOM     53  C   UNL A   1      40.955  26.432  27.541  1.00  0.00     0.029 A 
ATOM     54  C   UNL A   1      42.132  26.088  28.317  1.00  0.00     0.049 A 
ATOM     55  H   UNL A   1      42.884  27.121  29.975  1.00  0.00     0.167 HD
ATOM     56  C   UNL A   1      43.819  28.401  33.945  1.00  0.00     0.037 A 
ATOM     57  C   UNL A   1      43.010  25.074  28.130  1.00  0.00     0.037 A 
ATOM     58  C   UNL A   1      44.816  29.091  33.167  1.00  0.00     0.049 A 
ATOM     59  C   UNL A   1      44.236  25.393  28.894  1.00  0.00     0.074 A 
ATOM     60  C   UNL A   1      45.005  30.395  32.750  1.00  0.00     0.029 A 
ATOM     61  N   UNL A   1      45.669  28.338  32.400  1.00  0.00    -0.354 N 
ATOM     62  N   UNL A   1      45.063  26.351  28.584  1.00  0.00    -0.248 NA
ATOM     63  C   UNL A   1      44.342  24.895  30.255  1.00  0.00     0.031 C 
ATOM     64  C   UNL A   1      45.562  30.285  31.440  1.00  0.00     0.029 A 
ATOM     65  C   UNL A   1      45.724  28.927  31.166  1.00  0.00     0.049 A 
ATOM     66  H   UNL A   1      46.150  27.526  32.684  1.00  0.00     0.167 HD
ATOM     67  C   UNL A   1      45.469  26.870  29.802  1.00  0.00     0.074 A 
ATOM     68  C   UNL A   1      45.096  25.859  30.788  1.00  0.00     0.031 C 
ATOM     69  C   UNL A   1      45.806  28.188  29.929  1.00  0.00     0.037 A 
BRANCH  56  70
ATOM     70  C   UNL A   1      44.197  27.349  34.967  1.00  0.00     0.057 A 
ATOM     71  C   UNL A   1      44.923  27.734  36.113  1.00  0.00     0.134 A 
ATOM     72  C   UNL A   1      44.160  25.961  34.729  1.00  0.00     0.134 A 
ATOM     73  F   UNL A   1      45.042  29.026  36.452  1.00  0.00    -0.206 F 
ATOM     74  C   UNL A   1      45.633  26.817  36.900  1.00  0.00     0.040 A 
ATOM     75  C   UNL A   1      44.821  25.033  35.541  1.00  0.00     0.040 A 
ATOM     76  F   UNL A   1      43.571  25.432  33.652  1.00  0.00    -0.206 F 
ATOM     77  C   UNL A   1      45.592  25.461  36.608  1.00  0.00     0.006 A 
ENDBRANCH  56  70
BRANCH  57  78
ATOM     78  C   UNL A   1      42.787  23.751  27.511  1.00  0.00     0.057 A 
ATOM     79  C   UNL A   1      42.219  22.696  28.237  1.00  0.00     0.134 A 
ATOM     80  C   UNL A   1      42.876  23.568  26.120  1.00  0.00     0.134 A 
ATOM     81  F   UNL A   1      42.061  22.792  29.565  1.00  0.00    -0.206 F 
ATOM     82  C   UNL A   1      41.742  21.537  27.614  1.00  0.00     0.040 A 
ATOM     83  C   UNL A   1      42.411  22.412  25.486  1.00  0.00     0.040 A 
ATOM     84  F   UNL A   1      43.338  24.542  25.322  1.00  0.00    -0.206 F 
ATOM     85  C   UNL A   1      41.825  21.396  26.232  1.00  0.00     0.006 A 
ENDBRANCH  57  78
BRANCH  69  86
ATOM     86  C   UNL A   1      46.017  28.984  28.671  1.00  0.00     0.057 A 
ATOM     87  C   UNL A   1      45.001  29.670  27.989  1.00  0.00     0.134 A 
ATOM     88  C   UNL A   1      47.324  29.172  28.206  1.00  0.00     0.134 A 
ATOM     89  F   UNL A   1      43.733  29.642  28.418  1.00  0.00    -0.206 F 
ATOM     90  C   UNL A   1      45.266  30.459  26.865  1.00  0.00     0.040 A 
ATOM     91  C   UNL A   1      47.607  29.985  27.107  1.00  0.00     0.040 A 
ATOM     92  F   UNL A   1      48.356  28.596  28.843  1.00  0.00    -0.206 F 
ATOM     93  C   UNL A   1      46.575  30.621  26.424  1.00  0.00     0.006 A 
ENDBRANCH  69  86
ENDBRANCH  43  44
ENDBRANCH  35  38
ENDBRANCH  33  34
ENDBRANCH  32  33
ENDBRANCH  31  32
ENDBRANCH   1  31
TORSDOF 16
ENDMDL
MODEL 3
REMARK VINA RESULT:     -11.7      2.180      5.943
REMARK SMILES CCOC(=O)c1c(NC(=O)[C@H]2CCCC[C@@H]2C(=O)NCCCCNC(=O)c2ccc(-c3c4nc(c(-c5c(F)cccc5F)c5ccc([nH]5)c(-c5c(F)cccc5F)c5nc(c(-c6c(F)cccc6F)c6ccc3[nH]6)C=C5)C=C4)cc2)sc2c1CC[C@H](C)C2
REMARK SMILES IDX 20 1 19 2 17 3 18 4 16 6 11 7 12 8 13 9 15 10 14 11 9 12
REMARK SMILES IDX 8 13 10 15 7 16 6 17 83 18 81 19 82 20 84 21 88 22 85 23
REMARK SMILES IDX 86 24 87 25 4 26 5 27 3 28 2 29 1 30 21 31 22 32 23 33 24 34
REMARK SMILES IDX 25 35 26 37 27 38 28 39 80 40 29 41 79 42 30 43 31 44 32 45
REMARK SMILES IDX 73 46 33 47 78 48 72 49 74 50 34 51 77 52 71 53 70 54 35 56
REMARK SMILES IDX 61 57 44 58 60 59 45 60 48 61 59 62 75 63 46 64 47 65 58 67
REMARK SMILES IDX 76 68 49 69 36 70 37 71 42 72 38 73 39 74 41 75 43 76 40 77
REMARK SMILES IDX 62 78 63 79 68 80 64 81 65 82 67 83 69 84 66 85 50 86 51 87
REMARK SMILES IDX 56 88 52 89 53 90 55 91 57 92 54 93
REMARK H PARENT 19 5 8 14 24 36 74 55 48 66
REMARK Flexibility Score: inf
ROOT
ATOM      1  C   UNL A   1      34.301  28.934  26.659  1.00  0.00     0.116 C 
ENDROOT
BRANCH   1   2
ATOM      2  N   UNL A   1      34.304  28.901  25.208  1.00  0.00    -0.356 N 
ATOM      3  C   UNL A   1      33.328  28.576  24.315  1.00  0.00     0.223 C 
ATOM      4  O   UNL A   1      33.586  28.763  23.124  1.00  0.00    -0.275 OA
ATOM      5  H   UNL A   1      35.161  29.157  24.798  1.00  0.00     0.163 HD
BRANCH   3   6
ATOM      6  C   UNL A   1      31.983  28.005  24.769  1.00  0.00     0.091 C 
ATOM      7  C   UNL A   1      31.671  26.702  23.982  1.00  0.00     0.091 C 
ATOM      8  C   UNL A   1      31.041  26.928  22.600  1.00  0.00     0.014 C 
ATOM      9  C   UNL A   1      29.938  27.973  22.589  1.00  0.00     0.001 C 
ATOM     10  C   UNL A   1      30.888  29.072  24.641  1.00  0.00     0.014 C 
ATOM     11  C   UNL A   1      30.411  29.279  23.205  1.00  0.00     0.001 C 
BRANCH   7  12
ATOM     12  C   UNL A   1      30.898  25.695  24.822  1.00  0.00     0.228 C 
ATOM     13  N   UNL A   1      31.431  24.507  25.225  1.00  0.00    -0.317 N 
ATOM     14  H   UNL A   1      30.820  23.970  25.779  1.00  0.00     0.170 HD
ATOM     15  O   UNL A   1      29.722  25.913  25.141  1.00  0.00    -0.274 OA
BRANCH  13  16
ATOM     16  C   UNL A   1      32.653  23.907  25.014  1.00  0.00     0.110 A 
ATOM     17  C   UNL A   1      33.180  22.751  24.457  1.00  0.00     0.098 A 
ATOM     18  C   UNL A   1      34.555  22.574  24.890  1.00  0.00    -0.017 A 
ATOM     19  S   UNL A   1      33.874  24.900  25.702  1.00  0.00    -0.122 S 
ATOM     20  C   UNL A   1      35.030  23.673  25.574  1.00  0.00     0.011 A 
ATOM     21  C   UNL A   1      35.431  21.384  24.602  1.00  0.00     0.038 C 
ATOM     22  C   UNL A   1      36.405  23.807  26.151  1.00  0.00     0.050 C 
ATOM     23  C   UNL A   1      36.753  21.420  25.388  1.00  0.00     0.008 C 
ATOM     24  C   UNL A   1      37.366  22.835  25.435  1.00  0.00    -0.009 C 
ATOM     25  C   UNL A   1      38.729  22.818  26.124  1.00  0.00     0.008 C 
BRANCH  17  26
ATOM     26  C   UNL A   1      32.494  21.781  23.607  1.00  0.00     0.341 C 
ATOM     27  O   UNL A   1      32.322  21.962  22.411  1.00  0.00    -0.246 OA
BRANCH  26  28
ATOM     28  O   UNL A   1      32.065  20.679  24.295  1.00  0.00    -0.462 OA
BRANCH  28  29
ATOM     29  C   UNL A   1      32.529  19.403  23.818  1.00  0.00     0.230 C 
ATOM     30  C   UNL A   1      33.083  18.482  24.886  1.00  0.00     0.049 C 
ENDBRANCH  28  29
ENDBRANCH  26  28
ENDBRANCH  17  26
ENDBRANCH  13  16
ENDBRANCH   7  12
ENDBRANCH   3   6
ENDBRANCH   1   2
BRANCH   1  31
ATOM     31  C   UNL A   1      34.828  30.253  27.237  1.00  0.00     0.023 C 
BRANCH  31  32
ATOM     32  C   UNL A   1      33.789  31.306  27.657  1.00  0.00     0.023 C 
BRANCH  32  33
ATOM     33  C   UNL A   1      34.345  32.654  28.101  1.00  0.00     0.116 C 
BRANCH  33  34
ATOM     34  N   UNL A   1      34.210  32.898  29.533  1.00  0.00    -0.352 N 
ATOM     35  C   UNL A   1      34.911  32.307  30.567  1.00  0.00     0.251 C 
ATOM     36  H   UNL A   1      33.537  33.567  29.794  1.00  0.00     0.163 HD
ATOM     37  O   UNL A   1      34.474  32.328  31.713  1.00  0.00    -0.269 OA
BRANCH  35  38
ATOM     38  C   UNL A   1      36.188  31.629  30.277  1.00  0.00     0.039 A 
ATOM     39  C   UNL A   1      37.331  32.365  29.948  1.00  0.00     0.014 A 
ATOM     40  C   UNL A   1      36.245  30.242  30.368  1.00  0.00     0.014 A 
ATOM     41  C   UNL A   1      38.550  31.699  29.810  1.00  0.00     0.010 A 
ATOM     42  C   UNL A   1      37.464  29.604  30.358  1.00  0.00     0.010 A 
ATOM     43  C   UNL A   1      38.620  30.318  30.044  1.00  0.00    -0.014 A 
BRANCH  43  44
ATOM     44  C   UNL A   1      39.917  29.637  30.078  1.00  0.00     0.031 A 
ATOM     45  C   UNL A   1      40.530  29.468  31.430  1.00  0.00     0.074 A 
ATOM     46  C   UNL A   1      40.432  28.971  29.022  1.00  0.00     0.049 A 
ATOM     47  N   UNL A   1      41.677  29.893  31.847  1.00  0.00    -0.248 NA
ATOM     48  C   UNL A   1      39.734  28.792  32.468  1.00  0.00     0.031 C 
ATOM     49  C   UNL A   1      39.819  28.743  27.709  1.00  0.00     0.029 A 
ATOM     50  N   UNL A   1      41.579  28.235  28.949  1.00  0.00    -0.354 N 
ATOM     51  C   UNL A   1      41.836  29.389  33.139  1.00  0.00     0.074 A 
ATOM     52  C   UNL A   1      40.557  28.847  33.517  1.00  0.00     0.031 C 
ATOM     53  C   UNL A   1      40.469  27.744  27.074  1.00  0.00     0.029 A 
ATOM     54  C   UNL A   1      41.641  27.387  27.852  1.00  0.00     0.049 A 
ATOM     55  H   UNL A   1      42.299  28.301  29.617  1.00  0.00     0.167 HD
ATOM     56  C   UNL A   1      43.067  29.262  33.711  1.00  0.00     0.037 A 
ATOM     57  C   UNL A   1      42.571  26.435  27.603  1.00  0.00     0.037 A 
ATOM     58  C   UNL A   1      44.049  30.064  33.027  1.00  0.00     0.049 A 
ATOM     59  C   UNL A   1      43.760  26.741  28.429  1.00  0.00     0.074 A 
ATOM     60  C   UNL A   1      44.185  31.407  32.733  1.00  0.00     0.029 A 
ATOM     61  N   UNL A   1      44.957  29.423  32.223  1.00  0.00    -0.354 N 
ATOM     62  N   UNL A   1      44.548  27.760  28.229  1.00  0.00    -0.248 NA
ATOM     63  C   UNL A   1      43.855  26.128  29.743  1.00  0.00     0.031 C 
ATOM     64  C   UNL A   1      44.780  31.442  31.435  1.00  0.00     0.029 A 
ATOM     65  C   UNL A   1      45.015  30.123  31.047  1.00  0.00     0.049 A 
ATOM     66  H   UNL A   1      45.470  28.613  32.447  1.00  0.00     0.167 HD
ATOM     67  C   UNL A   1      44.896  28.187  29.500  1.00  0.00     0.074 A 
ATOM     68  C   UNL A   1      44.547  27.075  30.381  1.00  0.00     0.031 C 
ATOM     69  C   UNL A   1      45.165  29.502  29.753  1.00  0.00     0.037 A 
BRANCH  56  70
ATOM     70  C   UNL A   1      43.470  28.142  34.647  1.00  0.00     0.057 A 
ATOM     71  C   UNL A   1      44.074  28.460  35.880  1.00  0.00     0.134 A 
ATOM     72  C   UNL A   1      43.579  26.789  34.266  1.00  0.00     0.134 A 
ATOM     73  F   UNL A   1      44.048  29.713  36.358  1.00  0.00    -0.206 F 
ATOM     74  C   UNL A   1      44.810  27.527  36.623  1.00  0.00     0.040 A 
ATOM     75  C   UNL A   1      44.266  25.838  35.028  1.00  0.00     0.040 A 
ATOM     76  F   UNL A   1      43.119  26.332  33.097  1.00  0.00    -0.206 F 
ATOM     77  C   UNL A   1      44.917  26.213  36.192  1.00  0.00     0.006 A 
ENDBRANCH  56  70
BRANCH  57  78
ATOM     78  C   UNL A   1      42.430  25.165  26.863  1.00  0.00     0.057 A 
ATOM     79  C   UNL A   1      43.002  24.996  25.595  1.00  0.00     0.134 A 
ATOM     80  C   UNL A   1      41.962  23.998  27.492  1.00  0.00     0.134 A 
ATOM     81  F   UNL A   1      43.507  26.045  24.931  1.00  0.00    -0.206 F 
ATOM     82  C   UNL A   1      43.127  23.735  24.998  1.00  0.00     0.040 A 
ATOM     83  C   UNL A   1      42.074  22.734  26.903  1.00  0.00     0.040 A 
ATOM     84  F   UNL A   1      41.461  24.035  28.735  1.00  0.00    -0.206 F 
ATOM     85  C   UNL A   1      42.673  22.597  25.657  1.00  0.00     0.006 A 
ENDBRANCH  57  78
BRANCH  69  86
ATOM     86  C   UNL A   1      45.369  30.416  28.577  1.00  0.00     0.057 A 
ATOM     87  C   UNL A   1      44.335  31.092  27.912  1.00  0.00     0.134 A 
ATOM     88  C   UNL A   1      46.678  30.727  28.188  1.00  0.00     0.134 A 
ATOM     89  F   UNL A   1      43.058  30.945  28.281  1.00  0.00    -0.206 F 
ATOM     90  C   UNL A   1      44.589  31.991  26.871  1.00  0.00     0.040 A 
ATOM     91  C   UNL A   1      46.946  31.649  27.175  1.00  0.00     0.040 A 
ATOM     92  F   UNL A   1      47.721  30.166  28.818  1.00  0.00    -0.206 F 
ATOM     93  C   UNL A   1      45.900  32.275  26.503  1.00  0.00     0.006 A 
ENDBRANCH  69  86
ENDBRANCH  43  44
ENDBRANCH  35  38
ENDBRANCH  33  34
ENDBRANCH  32  33
ENDBRANCH  31  32
ENDBRANCH   1  31
TORSDOF 16
ENDMDL
