MODEL 1
REMARK VINA RESULT:     -11.1      0.000      0.000
REMARK SMILES C[C@H]1[NH2+]CC[C@@H]1C(=O)N[C@@H](CC(=O)NCCCCNC(=O)c1ccc(-c2c3nc(c(-c4c(F)cccc4F)c4ccc([nH]4)c(-c4c(F)cccc4F)c4nc(c(-c5c(F)cccc5F)c5ccc2[nH]5)C=C4)C=C3)cc1)c1cccs1
REMARK SMILES IDX 16 1 15 2 14 3 12 4 13 5 11 7 10 8 9 9 7 10 8 11 6 13 1 14
REMARK SMILES IDX 2 15 3 16 4 17 5 20 76 21 77 22 80 23 78 24 79 25 17 26
REMARK SMILES IDX 18 27 19 28 20 29 21 31 22 32 23 33 75 34 24 35 74 36 25 37
REMARK SMILES IDX 26 38 27 39 68 40 28 41 73 42 67 43 69 44 29 45 72 46 66 47
REMARK SMILES IDX 65 48 30 50 56 51 39 52 55 53 40 54 43 55 54 56 70 57 41 58
REMARK SMILES IDX 42 59 53 61 71 62 44 63 31 64 32 65 37 66 33 67 34 68 36 69
REMARK SMILES IDX 38 70 35 71 57 72 58 73 63 74 59 75 60 76 62 77 64 78 61 79
REMARK SMILES IDX 45 80 46 81 51 82 47 83 48 84 50 85 52 86 49 87
REMARK H PARENT 14 6 9 12 3 18 3 19 19 30 69 49 43 60
REMARK Flexibility Score: inf
ROOT
ATOM      1  C   UNL A   1      39.090  22.459  26.209  1.00  0.00     0.023 C 
ENDROOT
BRANCH   1   2
ATOM      2  C   UNL A   1      37.742  23.175  26.088  1.00  0.00     0.116 C 
BRANCH   2   3
ATOM      3  N   UNL A   1      37.359  23.360  24.701  1.00  0.00    -0.356 N 
ATOM      4  C   UNL A   1      36.477  22.666  23.929  1.00  0.00     0.222 C 
ATOM      5  O   UNL A   1      36.298  23.055  22.773  1.00  0.00    -0.275 OA
ATOM      6  H   UNL A   1      37.808  24.108  24.245  1.00  0.00     0.163 HD
BRANCH   4   7
ATOM      7  C   UNL A   1      35.700  21.482  24.475  1.00  0.00     0.130 C 
BRANCH   7   8
ATOM      8  C   UNL A   1      34.478  21.779  25.360  1.00  0.00     0.131 C 
BRANCH   8   9
ATOM      9  N   UNL A   1      33.950  20.581  25.986  1.00  0.00    -0.348 N 
ATOM     10  C   UNL A   1      33.398  19.431  25.547  1.00  0.00     0.229 C 
ATOM     11  O   UNL A   1      32.568  18.919  26.305  1.00  0.00    -0.275 OA
ATOM     12  H   UNL A   1      34.010  20.616  26.967  1.00  0.00     0.164 HD
BRANCH  10  13
ATOM     13  C   UNL A   1      33.744  18.823  24.197  1.00  0.00     0.142 C 
ATOM     14  C   UNL A   1      32.379  18.099  22.158  1.00  0.00     0.076 C 
ATOM     15  C   UNL A   1      32.515  18.035  23.679  1.00  0.00     0.192 C 
ATOM     16  N   UNL A   1      32.709  16.630  24.104  1.00  0.00    -0.343 N 
ATOM     17  C   UNL A   1      34.016  16.527  24.748  1.00  0.00     0.261 C 
ATOM     18  H   UNL A   1      32.674  16.015  23.292  1.00  0.00     0.346 HD
ATOM     19  H   UNL A   1      31.973  16.351  24.753  1.00  0.00     0.346 HD
ATOM     20  C   UNL A   1      34.796  17.725  24.251  1.00  0.00     0.081 C 
ENDBRANCH  10  13
ENDBRANCH   8   9
BRANCH   8  21
ATOM     21  C   UNL A   1      33.327  22.458  24.648  1.00  0.00     0.027 A 
ATOM     22  C   UNL A   1      32.917  22.291  23.337  1.00  0.00     0.017 A 
ATOM     23  S   UNL A   1      32.368  23.662  25.430  1.00  0.00    -0.147 S 
ATOM     24  C   UNL A   1      31.838  23.154  22.982  1.00  0.00     0.012 A 
ATOM     25  C   UNL A   1      31.441  23.949  24.031  1.00  0.00     0.065 A 
ENDBRANCH   8  21
ENDBRANCH   7   8
ENDBRANCH   4   7
ENDBRANCH   2   3
ENDBRANCH   1   2
BRANCH   1  26
ATOM     26  C   UNL A   1      39.168  21.082  25.574  1.00  0.00     0.023 C 
BRANCH  26  27
ATOM     27  C   UNL A   1      39.732  20.011  26.480  1.00  0.00     0.116 C 
BRANCH  27  28
ATOM     28  N   UNL A   1      40.848  19.278  25.900  1.00  0.00    -0.352 N 
ATOM     29  C   UNL A   1      42.159  19.684  25.782  1.00  0.00     0.251 C 
ATOM     30  H   UNL A   1      40.641  18.382  25.548  1.00  0.00     0.163 HD
ATOM     31  O   UNL A   1      42.986  19.007  25.199  1.00  0.00    -0.269 OA
BRANCH  29  32
ATOM     32  C   UNL A   1      42.528  20.997  26.349  1.00  0.00     0.039 A 
ATOM     33  C   UNL A   1      42.818  22.051  25.482  1.00  0.00     0.014 A 
ATOM     34  C   UNL A   1      42.485  21.196  27.731  1.00  0.00     0.014 A 
ATOM     35  C   UNL A   1      43.005  23.330  26.006  1.00  0.00     0.010 A 
ATOM     36  C   UNL A   1      42.559  22.484  28.235  1.00  0.00     0.010 A 
ATOM     37  C   UNL A   1      42.844  23.560  27.382  1.00  0.00    -0.014 A 
BRANCH  37  38
ATOM     38  C   UNL A   1      43.036  24.904  27.974  1.00  0.00     0.031 A 
ATOM     39  C   UNL A   1      44.410  25.310  28.430  1.00  0.00     0.074 A 
ATOM     40  C   UNL A   1      41.980  25.717  28.168  1.00  0.00     0.049 A 
ATOM     41  N   UNL A   1      44.786  26.383  29.075  1.00  0.00    -0.248 NA
ATOM     42  C   UNL A   1      45.502  24.359  28.162  1.00  0.00     0.031 C 
ATOM     43  C   UNL A   1      40.591  25.410  27.820  1.00  0.00     0.029 A 
ATOM     44  N   UNL A   1      41.915  26.972  28.718  1.00  0.00    -0.354 N 
ATOM     45  C   UNL A   1      46.144  26.217  29.316  1.00  0.00     0.074 A 
ATOM     46  C   UNL A   1      46.513  24.915  28.809  1.00  0.00     0.031 C 
ATOM     47  C   UNL A   1      39.816  26.462  28.134  1.00  0.00     0.029 A 
ATOM     48  C   UNL A   1      40.647  27.500  28.736  1.00  0.00     0.049 A 
ATOM     49  H   UNL A   1      42.702  27.449  29.065  1.00  0.00     0.167 HD
ATOM     50  C   UNL A   1      47.015  27.087  29.875  1.00  0.00     0.037 A 
ATOM     51  C   UNL A   1      40.212  28.692  29.187  1.00  0.00     0.037 A 
ATOM     52  C   UNL A   1      46.655  28.403  30.323  1.00  0.00     0.049 A 
ATOM     53  C   UNL A   1      41.207  29.658  29.769  1.00  0.00     0.074 A 
ATOM     54  C   UNL A   1      47.467  29.389  30.853  1.00  0.00     0.029 A 
ATOM     55  N   UNL A   1      45.369  28.922  30.276  1.00  0.00    -0.354 N 
ATOM     56  N   UNL A   1      42.498  29.511  29.944  1.00  0.00    -0.248 NA
ATOM     57  C   UNL A   1      40.686  30.960  30.210  1.00  0.00     0.031 C 
ATOM     58  C   UNL A   1      46.668  30.499  31.146  1.00  0.00     0.029 A 
ATOM     59  C   UNL A   1      45.366  30.215  30.766  1.00  0.00     0.049 A 
ATOM     60  H   UNL A   1      44.577  28.442  29.941  1.00  0.00     0.167 HD
ATOM     61  C   UNL A   1      42.949  30.710  30.478  1.00  0.00     0.074 A 
ATOM     62  C   UNL A   1      41.795  31.577  30.592  1.00  0.00     0.031 C 
ATOM     63  C   UNL A   1      44.205  31.064  30.844  1.00  0.00     0.037 A 
BRANCH  50  64
ATOM     64  C   UNL A   1      48.442  26.643  30.008  1.00  0.00     0.057 A 
ATOM     65  C   UNL A   1      49.398  26.927  29.024  1.00  0.00     0.134 A 
ATOM     66  C   UNL A   1      48.868  25.929  31.135  1.00  0.00     0.134 A 
ATOM     67  F   UNL A   1      49.049  27.590  27.910  1.00  0.00    -0.206 F 
ATOM     68  C   UNL A   1      50.718  26.492  29.139  1.00  0.00     0.040 A 
ATOM     69  C   UNL A   1      50.194  25.514  31.277  1.00  0.00     0.040 A 
ATOM     70  F   UNL A   1      48.005  25.625  32.116  1.00  0.00    -0.206 F 
ATOM     71  C   UNL A   1      51.121  25.789  30.273  1.00  0.00     0.006 A 
ENDBRANCH  50  64
BRANCH  51  72
ATOM     72  C   UNL A   1      38.779  29.060  29.066  1.00  0.00     0.057 A 
ATOM     73  C   UNL A   1      38.255  29.517  27.850  1.00  0.00     0.134 A 
ATOM     74  C   UNL A   1      37.905  28.985  30.156  1.00  0.00     0.134 A 
ATOM     75  F   UNL A   1      39.048  29.629  26.775  1.00  0.00    -0.206 F 
ATOM     76  C   UNL A   1      36.921  29.909  27.728  1.00  0.00     0.040 A 
ATOM     77  C   UNL A   1      36.562  29.351  30.043  1.00  0.00     0.040 A 
ATOM     78  F   UNL A   1      38.343  28.546  31.346  1.00  0.00    -0.206 F 
ATOM     79  C   UNL A   1      36.070  29.823  28.828  1.00  0.00     0.006 A 
ENDBRANCH  51  72
BRANCH  63  80
ATOM     80  C   UNL A   1      44.404  32.461  31.348  1.00  0.00     0.057 A 
ATOM     81  C   UNL A   1      44.333  32.772  32.711  1.00  0.00     0.134 A 
ATOM     82  C   UNL A   1      44.716  33.498  30.459  1.00  0.00     0.134 A 
ATOM     83  F   UNL A   1      44.027  31.825  33.609  1.00  0.00    -0.206 F 
ATOM     84  C   UNL A   1      44.547  34.071  33.172  1.00  0.00     0.040 A 
ATOM     85  C   UNL A   1      44.956  34.796  30.910  1.00  0.00     0.040 A 
ATOM     86  F   UNL A   1      44.807  33.261  29.141  1.00  0.00    -0.206 F 
ATOM     87  C   UNL A   1      44.866  35.086  32.269  1.00  0.00     0.006 A 
ENDBRANCH  63  80
ENDBRANCH  37  38
ENDBRANCH  29  32
ENDBRANCH  27  28
ENDBRANCH  26  27
ENDBRANCH   1  26
TORSDOF 15
ENDMDL
MODEL 2
REMARK VINA RESULT:     -11.0      3.227      7.943
REMARK SMILES C[C@H]1[NH2+]CC[C@@H]1C(=O)N[C@@H](CC(=O)NCCCCNC(=O)c1ccc(-c2c3nc(c(-c4c(F)cccc4F)c4ccc([nH]4)c(-c4c(F)cccc4F)c4nc(c(-c5c(F)cccc5F)c5ccc2[nH]5)C=C4)C=C3)cc1)c1cccs1
REMARK SMILES IDX 16 1 15 2 14 3 12 4 13 5 11 7 10 8 9 9 7 10 8 11 6 13 1 14
REMARK SMILES IDX 2 15 3 16 4 17 5 20 76 21 77 22 80 23 78 24 79 25 17 26
REMARK SMILES IDX 18 27 19 28 20 29 21 31 22 32 23 33 75 34 24 35 74 36 25 37
REMARK SMILES IDX 26 38 27 39 68 40 28 41 73 42 67 43 69 44 29 45 72 46 66 47
REMARK SMILES IDX 65 48 30 50 56 51 39 52 55 53 40 54 43 55 54 56 70 57 41 58
REMARK SMILES IDX 42 59 53 61 71 62 44 63 31 64 32 65 37 66 33 67 34 68 36 69
REMARK SMILES IDX 38 70 35 71 57 72 58 73 63 74 59 75 60 76 62 77 64 78 61 79
REMARK SMILES IDX 45 80 46 81 51 82 47 83 48 84 50 85 52 86 49 87
REMARK H PARENT 14 6 9 12 3 18 3 19 19 30 69 49 43 60
REMARK Flexibility Score: inf
ROOT
ATOM      1  C   UNL A   1      31.463  28.118  26.482  1.00  0.00     0.023 C 
ENDROOT
BRANCH   1   2
ATOM      2  C   UNL A   1      30.851  26.932  25.731  1.00  0.00     0.116 C 
BRANCH   2   3
ATOM      3  N   UNL A   1      30.644  25.796  26.609  1.00  0.00    -0.356 N 
ATOM      4  C   UNL A   1      30.701  24.460  26.352  1.00  0.00     0.222 C 
ATOM      5  O   UNL A   1      30.522  23.686  27.295  1.00  0.00    -0.275 OA
ATOM      6  H   UNL A   1      30.428  26.028  27.541  1.00  0.00     0.163 HD
BRANCH   4   7
ATOM      7  C   UNL A   1      31.020  23.927  24.966  1.00  0.00     0.130 C 
BRANCH   7   8
ATOM      8  C   UNL A   1      32.497  23.877  24.544  1.00  0.00     0.131 C 
BRANCH   8   9
ATOM      9  N   UNL A   1      33.393  23.848  25.685  1.00  0.00    -0.348 N 
ATOM     10  C   UNL A   1      34.463  23.112  26.049  1.00  0.00     0.229 C 
ATOM     11  O   UNL A   1      34.612  22.958  27.265  1.00  0.00    -0.275 OA
ATOM     12  H   UNL A   1      33.164  24.531  26.356  1.00  0.00     0.164 HD
BRANCH  10  13
ATOM     13  C   UNL A   1      35.404  22.483  25.032  1.00  0.00     0.142 C 
ATOM     14  C   UNL A   1      36.744  20.306  24.943  1.00  0.00     0.076 C 
ATOM     15  C   UNL A   1      36.373  21.532  25.777  1.00  0.00     0.192 C 
ATOM     16  N   UNL A   1      37.590  22.322  26.073  1.00  0.00    -0.343 N 
ATOM     17  C   UNL A   1      37.435  23.640  25.462  1.00  0.00     0.261 C 
ATOM     18  H   UNL A   1      38.409  21.855  25.683  1.00  0.00     0.346 HD
ATOM     19  H   UNL A   1      37.718  22.413  27.081  1.00  0.00     0.346 HD
ATOM     20  C   UNL A   1      36.381  23.457  24.391  1.00  0.00     0.081 C 
ENDBRANCH  10  13
ENDBRANCH   8   9
BRANCH   8  21
ATOM     21  C   UNL A   1      32.943  25.015  23.651  1.00  0.00     0.027 A 
ATOM     22  C   UNL A   1      33.798  26.058  23.962  1.00  0.00     0.017 A 
ATOM     23  S   UNL A   1      32.334  25.194  22.046  1.00  0.00    -0.147 S 
ATOM     24  C   UNL A   1      33.936  26.995  22.895  1.00  0.00     0.012 A 
ATOM     25  C   UNL A   1      33.194  26.642  21.793  1.00  0.00     0.065 A 
ENDBRANCH   8  21
ENDBRANCH   7   8
ENDBRANCH   4   7
ENDBRANCH   2   3
ENDBRANCH   1   2
BRANCH   1  26
ATOM     26  C   UNL A   1      32.917  27.965  26.890  1.00  0.00     0.023 C 
BRANCH  26  27
ATOM     27  C   UNL A   1      33.851  28.968  26.250  1.00  0.00     0.116 C 
BRANCH  27  28
ATOM     28  N   UNL A   1      33.724  30.315  26.785  1.00  0.00    -0.352 N 
ATOM     29  C   UNL A   1      34.567  30.962  27.661  1.00  0.00     0.251 C 
ATOM     30  H   UNL A   1      32.939  30.828  26.485  1.00  0.00     0.163 HD
ATOM     31  O   UNL A   1      34.305  32.067  28.100  1.00  0.00    -0.269 OA
BRANCH  29  32
ATOM     32  C   UNL A   1      35.790  30.254  28.092  1.00  0.00     0.039 A 
ATOM     33  C   UNL A   1      36.944  30.362  27.317  1.00  0.00     0.014 A 
ATOM     34  C   UNL A   1      35.806  29.572  29.311  1.00  0.00     0.014 A 
ATOM     35  C   UNL A   1      38.141  29.835  27.801  1.00  0.00     0.010 A 
ATOM     36  C   UNL A   1      37.015  29.151  29.839  1.00  0.00     0.010 A 
ATOM     37  C   UNL A   1      38.190  29.256  29.079  1.00  0.00    -0.014 A 
BRANCH  37  38
ATOM     38  C   UNL A   1      39.442  28.684  29.627  1.00  0.00     0.031 A 
ATOM     39  C   UNL A   1      40.057  29.311  30.848  1.00  0.00     0.074 A 
ATOM     40  C   UNL A   1      40.056  27.666  28.996  1.00  0.00     0.049 A 
ATOM     41  N   UNL A   1      41.200  29.051  31.426  1.00  0.00    -0.248 NA
ATOM     42  C   UNL A   1      39.304  30.410  31.476  1.00  0.00     0.031 C 
ATOM     43  C   UNL A   1      39.586  27.012  27.772  1.00  0.00     0.029 A 
ATOM     44  N   UNL A   1      41.221  27.006  29.297  1.00  0.00    -0.354 N 
ATOM     45  C   UNL A   1      41.313  29.973  32.460  1.00  0.00     0.074 A 
ATOM     46  C   UNL A   1      40.160  30.840  32.388  1.00  0.00     0.031 C 
ATOM     47  C   UNL A   1      40.437  26.025  27.446  1.00  0.00     0.029 A 
ATOM     48  C   UNL A   1      41.527  25.998  28.416  1.00  0.00     0.049 A 
ATOM     49  H   UNL A   1      41.783  27.233  30.072  1.00  0.00     0.167 HD
ATOM     50  C   UNL A   1      42.274  30.066  33.408  1.00  0.00     0.037 A 
ATOM     51  C   UNL A   1      42.572  25.149  28.401  1.00  0.00     0.037 A 
ATOM     52  C   UNL A   1      43.387  29.164  33.509  1.00  0.00     0.049 A 
ATOM     53  C   UNL A   1      43.606  25.247  29.489  1.00  0.00     0.074 A 
ATOM     54  C   UNL A   1      44.388  29.130  34.463  1.00  0.00     0.029 A 
ATOM     55  N   UNL A   1      43.634  28.121  32.628  1.00  0.00    -0.354 N 
ATOM     56  N   UNL A   1      43.675  26.090  30.491  1.00  0.00    -0.248 NA
ATOM     57  C   UNL A   1      44.704  24.271  29.448  1.00  0.00     0.031 C 
ATOM     58  C   UNL A   1      45.254  28.079  34.146  1.00  0.00     0.029 A 
ATOM     59  C   UNL A   1      44.771  27.438  33.016  1.00  0.00     0.049 A 
ATOM     60  H   UNL A   1      43.080  27.901  31.844  1.00  0.00     0.167 HD
ATOM     61  C   UNL A   1      44.799  25.724  31.219  1.00  0.00     0.074 A 
ATOM     62  C   UNL A   1      45.377  24.578  30.548  1.00  0.00     0.031 C 
ATOM     63  C   UNL A   1      45.309  26.284  32.343  1.00  0.00     0.037 A 
BRANCH  50  64
ATOM     64  C   UNL A   1      42.141  31.168  34.416  1.00  0.00     0.057 A 
ATOM     65  C   UNL A   1      41.427  30.994  35.609  1.00  0.00     0.134 A 
ATOM     66  C   UNL A   1      42.738  32.416  34.197  1.00  0.00     0.134 A 
ATOM     67  F   UNL A   1      40.813  29.829  35.869  1.00  0.00    -0.206 F 
ATOM     68  C   UNL A   1      41.285  32.028  36.534  1.00  0.00     0.040 A 
ATOM     69  C   UNL A   1      42.629  33.450  35.129  1.00  0.00     0.040 A 
ATOM     70  F   UNL A   1      43.437  32.650  33.077  1.00  0.00    -0.206 F 
ATOM     71  C   UNL A   1      41.894  33.260  36.298  1.00  0.00     0.006 A 
ENDBRANCH  50  64
BRANCH  51  72
ATOM     72  C   UNL A   1      42.671  24.103  27.352  1.00  0.00     0.057 A 
ATOM     73  C   UNL A   1      42.191  22.808  27.581  1.00  0.00     0.134 A 
ATOM     74  C   UNL A   1      43.261  24.361  26.109  1.00  0.00     0.134 A 
ATOM     75  F   UNL A   1      41.632  22.495  28.759  1.00  0.00    -0.206 F 
ATOM     76  C   UNL A   1      42.315  21.800  26.623  1.00  0.00     0.040 A 
ATOM     77  C   UNL A   1      43.370  23.369  25.133  1.00  0.00     0.040 A 
ATOM     78  F   UNL A   1      43.733  25.584  25.824  1.00  0.00    -0.206 F 
ATOM     79  C   UNL A   1      42.904  22.082  25.392  1.00  0.00     0.006 A 
ENDBRANCH  51  72
BRANCH  63  80
ATOM     80  C   UNL A   1      46.519  25.635  32.943  1.00  0.00     0.057 A 
ATOM     81  C   UNL A   1      46.415  24.627  33.908  1.00  0.00     0.134 A 
ATOM     82  C   UNL A   1      47.802  25.994  32.512  1.00  0.00     0.134 A 
ATOM     83  F   UNL A   1      45.214  24.248  34.369  1.00  0.00    -0.206 F 
ATOM     84  C   UNL A   1      47.548  24.010  34.440  1.00  0.00     0.040 A 
ATOM     85  C   UNL A   1      48.942  25.369  33.018  1.00  0.00     0.040 A 
ATOM     86  F   UNL A   1      47.968  26.948  31.582  1.00  0.00    -0.206 F 
ATOM     87  C   UNL A   1      48.816  24.378  33.989  1.00  0.00     0.006 A 
ENDBRANCH  63  80
ENDBRANCH  37  38
ENDBRANCH  29  32
ENDBRANCH  27  28
ENDBRANCH  26  27
ENDBRANCH   1  26
TORSDOF 15
ENDMDL
MODEL 3
REMARK VINA RESULT:     -10.9      4.911      9.551
REMARK SMILES C[C@H]1[NH2+]CC[C@@H]1C(=O)N[C@@H](CC(=O)NCCCCNC(=O)c1ccc(-c2c3nc(c(-c4c(F)cccc4F)c4ccc([nH]4)c(-c4c(F)cccc4F)c4nc(c(-c5c(F)cccc5F)c5ccc2[nH]5)C=C4)C=C3)cc1)c1cccs1
REMARK SMILES IDX 16 1 15 2 14 3 12 4 13 5 11 7 10 8 9 9 7 10 8 11 6 13 1 14
REMARK SMILES IDX 2 15 3 16 4 17 5 20 76 21 77 22 80 23 78 24 79 25 17 26
REMARK SMILES IDX 18 27 19 28 20 29 21 31 22 32 23 33 75 34 24 35 74 36 25 37
REMARK SMILES IDX 26 38 27 39 68 40 28 41 73 42 67 43 69 44 29 45 72 46 66 47
REMARK SMILES IDX 65 48 30 50 56 51 39 52 55 53 40 54 43 55 54 56 70 57 41 58
REMARK SMILES IDX 42 59 53 61 71 62 44 63 31 64 32 65 37 66 33 67 34 68 36 69
REMARK SMILES IDX 38 70 35 71 57 72 58 73 63 74 59 75 60 76 62 77 64 78 61 79
REMARK SMILES IDX 45 80 46 81 51 82 47 83 48 84 50 85 52 86 49 87
REMARK H PARENT 14 6 9 12 3 18 3 19 19 30 69 49 43 60
REMARK Flexibility Score: inf
ROOT
ATOM      1  C   UNL A   1      32.078  30.582  27.059  1.00  0.00     0.023 C 
ENDROOT
BRANCH   1   2
ATOM      2  C   UNL A   1      31.787  29.624  25.900  1.00  0.00     0.116 C 
BRANCH   2   3
ATOM      3  N   UNL A   1      33.010  29.162  25.271  1.00  0.00    -0.356 N 
ATOM      4  C   UNL A   1      33.277  28.873  23.967  1.00  0.00     0.222 C 
ATOM      5  O   UNL A   1      34.426  28.532  23.679  1.00  0.00    -0.275 OA
ATOM      6  H   UNL A   1      33.768  29.038  25.885  1.00  0.00     0.163 HD
BRANCH   4   7
ATOM      7  C   UNL A   1      32.218  29.008  22.888  1.00  0.00     0.130 C 
BRANCH   7   8
ATOM      8  C   UNL A   1      31.048  28.012  22.908  1.00  0.00     0.131 C 
BRANCH   8   9
ATOM      9  N   UNL A   1      31.167  27.004  21.871  1.00  0.00    -0.348 N 
ATOM     10  C   UNL A   1      31.971  25.944  21.649  1.00  0.00     0.229 C 
ATOM     11  O   UNL A   1      32.181  25.677  20.462  1.00  0.00    -0.275 OA
ATOM     12  H   UNL A   1      30.501  27.122  21.157  1.00  0.00     0.164 HD
BRANCH  10  13
ATOM     13  C   UNL A   1      32.608  25.152  22.781  1.00  0.00     0.142 C 
ATOM     14  C   UNL A   1      34.209  23.160  22.891  1.00  0.00     0.076 C 
ATOM     15  C   UNL A   1      32.935  23.729  22.266  1.00  0.00     0.192 C 
ATOM     16  N   UNL A   1      31.779  22.876  22.626  1.00  0.00    -0.343 N 
ATOM     17  C   UNL A   1      30.845  23.684  23.405  1.00  0.00     0.261 C 
ATOM     18  H   UNL A   1      32.095  22.081  23.182  1.00  0.00     0.346 HD
ATOM     19  H   UNL A   1      31.324  22.522  21.785  1.00  0.00     0.346 HD
ATOM     20  C   UNL A   1      31.668  24.838  23.936  1.00  0.00     0.081 C 
ENDBRANCH  10  13
ENDBRANCH   8   9
BRANCH   8  21
ATOM     21  C   UNL A   1      29.676  28.638  22.770  1.00  0.00     0.027 A 
ATOM     22  C   UNL A   1      28.456  28.114  23.160  1.00  0.00     0.017 A 
ATOM     23  S   UNL A   1      29.455  30.161  21.987  1.00  0.00    -0.147 S 
ATOM     24  C   UNL A   1      27.357  28.951  22.805  1.00  0.00     0.012 A 
ATOM     25  C   UNL A   1      27.762  30.098  22.164  1.00  0.00     0.065 A 
ENDBRANCH   8  21
ENDBRANCH   7   8
ENDBRANCH   4   7
ENDBRANCH   2   3
ENDBRANCH   1   2
BRANCH   1  26
ATOM     26  C   UNL A   1      31.536  31.992  26.905  1.00  0.00     0.023 C 
BRANCH  26  27
ATOM     27  C   UNL A   1      32.602  33.054  26.746  1.00  0.00     0.116 C 
BRANCH  27  28
ATOM     28  N   UNL A   1      32.389  34.229  27.579  1.00  0.00    -0.352 N 
ATOM     29  C   UNL A   1      33.112  34.629  28.680  1.00  0.00     0.251 C 
ATOM     30  H   UNL A   1      31.635  34.809  27.324  1.00  0.00     0.163 HD
ATOM     31  O   UNL A   1      32.781  35.595  29.344  1.00  0.00    -0.269 OA
BRANCH  29  32
ATOM     32  C   UNL A   1      34.288  33.822  29.064  1.00  0.00     0.039 A 
ATOM     33  C   UNL A   1      35.565  34.325  28.816  1.00  0.00     0.014 A 
ATOM     34  C   UNL A   1      34.112  32.622  29.756  1.00  0.00     0.014 A 
ATOM     35  C   UNL A   1      36.674  33.647  29.322  1.00  0.00     0.010 A 
ATOM     36  C   UNL A   1      35.204  32.014  30.353  1.00  0.00     0.010 A 
ATOM     37  C   UNL A   1      36.498  32.506  30.122  1.00  0.00    -0.014 A 
BRANCH  37  38
ATOM     38  C   UNL A   1      37.651  31.759  30.676  1.00  0.00     0.031 A 
ATOM     39  C   UNL A   1      38.104  32.054  32.079  1.00  0.00     0.074 A 
ATOM     40  C   UNL A   1      38.325  30.883  29.907  1.00  0.00     0.049 A 
ATOM     41  N   UNL A   1      39.151  31.608  32.723  1.00  0.00    -0.248 NA
ATOM     42  C   UNL A   1      37.294  33.016  32.846  1.00  0.00     0.031 C 
ATOM     43  C   UNL A   1      38.014  30.555  28.514  1.00  0.00     0.029 A 
ATOM     44  N   UNL A   1      39.423  30.112  30.192  1.00  0.00    -0.354 N 
ATOM     45  C   UNL A   1      39.139  32.260  33.950  1.00  0.00     0.074 A 
ATOM     46  C   UNL A   1      38.024  33.178  33.936  1.00  0.00     0.031 C 
ATOM     47  C   UNL A   1      38.881  29.627  28.076  1.00  0.00     0.029 A 
ATOM     48  C   UNL A   1      39.827  29.320  29.145  1.00  0.00     0.049 A 
ATOM     49  H   UNL A   1      39.877  30.124  31.065  1.00  0.00     0.167 HD
ATOM     50  C   UNL A   1      39.962  32.081  35.009  1.00  0.00     0.037 A 
ATOM     51  C   UNL A   1      40.846  28.444  29.065  1.00  0.00     0.037 A 
ATOM     52  C   UNL A   1      41.032  31.123  35.038  1.00  0.00     0.049 A 
ATOM     53  C   UNL A   1      41.723  28.235  30.270  1.00  0.00     0.074 A 
ATOM     54  C   UNL A   1      41.891  30.818  36.077  1.00  0.00     0.029 A 
ATOM     55  N   UNL A   1      41.376  30.301  33.975  1.00  0.00    -0.354 N 
ATOM     56  N   UNL A   1      41.670  28.819  31.443  1.00  0.00    -0.248 NA
ATOM     57  C   UNL A   1      42.796  27.238  30.142  1.00  0.00     0.031 C 
ATOM     58  C   UNL A   1      42.771  29.825  35.636  1.00  0.00     0.029 A 
ATOM     59  C   UNL A   1      42.435  29.488  34.334  1.00  0.00     0.049 A 
ATOM     60  H   UNL A   1      40.932  30.296  33.096  1.00  0.00     0.167 HD
ATOM     61  C   UNL A   1      42.675  28.236  32.203  1.00  0.00     0.074 A 
ATOM     62  C   UNL A   1      43.317  27.247  31.361  1.00  0.00     0.031 C 
ATOM     63  C   UNL A   1      43.037  28.494  33.483  1.00  0.00     0.037 A 
BRANCH  50  64
ATOM     64  C   UNL A   1      39.713  32.926  36.223  1.00  0.00     0.057 A 
ATOM     65  C   UNL A   1      38.774  32.561  37.196  1.00  0.00     0.134 A 
ATOM     66  C   UNL A   1      40.426  34.115  36.426  1.00  0.00     0.134 A 
ATOM     67  F   UNL A   1      38.044  31.444  37.050  1.00  0.00    -0.206 F 
ATOM     68  C   UNL A   1      38.529  33.361  38.312  1.00  0.00     0.040 A 
ATOM     69  C   UNL A   1      40.211  34.909  37.555  1.00  0.00     0.040 A 
ATOM     70  F   UNL A   1      41.341  34.522  35.535  1.00  0.00    -0.206 F 
ATOM     71  C   UNL A   1      39.254  34.536  38.497  1.00  0.00     0.006 A 
ENDBRANCH  50  64
BRANCH  51  72
ATOM     72  C   UNL A   1      41.068  27.665  27.821  1.00  0.00     0.057 A 
ATOM     73  C   UNL A   1      40.499  26.396  27.657  1.00  0.00     0.134 A 
ATOM     74  C   UNL A   1      41.864  28.154  26.779  1.00  0.00     0.134 A 
ATOM     75  F   UNL A   1      39.743  25.867  28.629  1.00  0.00    -0.206 F 
ATOM     76  C   UNL A   1      40.732  25.631  26.514  1.00  0.00     0.040 A 
ATOM     77  C   UNL A   1      42.085  27.410  25.618  1.00  0.00     0.040 A 
ATOM     78  F   UNL A   1      42.429  29.367  26.870  1.00  0.00    -0.206 F 
ATOM     79  C   UNL A   1      41.525  26.141  25.488  1.00  0.00     0.006 A 
ENDBRANCH  51  72
BRANCH  63  80
ATOM     80  C   UNL A   1      44.139  27.662  34.065  1.00  0.00     0.057 A 
ATOM     81  C   UNL A   1      45.475  28.080  34.037  1.00  0.00     0.134 A 
ATOM     82  C   UNL A   1      43.850  26.449  34.701  1.00  0.00     0.134 A 
ATOM     83  F   UNL A   1      45.816  29.227  33.432  1.00  0.00    -0.206 F 
ATOM     84  C   UNL A   1      46.489  27.309  34.607  1.00  0.00     0.040 A 
ATOM     85  C   UNL A   1      44.851  25.681  35.296  1.00  0.00     0.040 A 
ATOM     86  F   UNL A   1      42.587  25.999  34.769  1.00  0.00    -0.206 F 
ATOM     87  C   UNL A   1      46.176  26.109  35.244  1.00  0.00     0.006 A 
ENDBRANCH  63  80
ENDBRANCH  37  38
ENDBRANCH  29  32
ENDBRANCH  27  28
ENDBRANCH  26  27
ENDBRANCH   1  26
TORSDOF 15
ENDMDL
