MODEL 1
REMARK VINA RESULT:     -11.4      0.000      0.000
REMARK SMILES C[NH2+][C@]1(C(=O)NCCCCNC(=O)c2ccc(-c3c4nc(c(-c5c(F)cccc5F)c5ccc([nH]5)c(-c5c(F)cccc5F)c5nc(c(-c6c(F)cccc6F)c6ccc3[nH]6)C=C5)C=C4)cc2)CCC[C@@H]([N@H+]2CC[C@@H](C)C2)C1
REMARK SMILES IDX 9 1 8 2 7 3 6 4 4 5 5 6 3 8 68 9 78 10 69 11 71 12 70 13
REMARK SMILES IDX 2 14 1 15 72 18 73 19 77 20 74 22 75 23 76 24 10 25 11 26
REMARK SMILES IDX 12 27 13 29 14 30 15 31 67 32 16 33 66 34 17 35 18 36 19 37
REMARK SMILES IDX 60 38 20 39 65 40 59 41 61 42 21 43 64 44 58 45 57 46 22 48
REMARK SMILES IDX 48 49 31 50 47 51 32 52 35 53 46 54 62 55 33 56 34 57 45 59
REMARK SMILES IDX 63 60 36 61 23 62 24 63 29 64 25 65 26 66 28 67 30 68 27 69
REMARK SMILES IDX 49 70 50 71 55 72 51 73 52 74 54 75 56 76 53 77 37 78 38 79
REMARK SMILES IDX 43 80 39 81 40 82 42 83 44 84 41 85
REMARK H PARENT 6 7 2 16 2 17 72 21 11 28 61 47 35 58
REMARK Flexibility Score: inf
ROOT
ATOM      1  C   UNL A   1      38.996  21.194  25.527  1.00  0.00     0.023 C 
ENDROOT
BRANCH   1   2
ATOM      2  C   UNL A   1      38.890  22.572  26.175  1.00  0.00     0.023 C 
BRANCH   2   3
ATOM      3  C   UNL A   1      37.624  23.336  25.804  1.00  0.00     0.116 C 
BRANCH   3   4
ATOM      4  N   UNL A   1      37.360  23.258  24.375  1.00  0.00    -0.351 N 
ATOM      5  C   UNL A   1      36.236  22.941  23.668  1.00  0.00     0.281 C 
ATOM      6  O   UNL A   1      36.338  23.027  22.438  1.00  0.00    -0.268 OA
ATOM      7  H   UNL A   1      38.139  23.473  23.813  1.00  0.00     0.163 HD
BRANCH   5   8
ATOM      8  C   UNL A   1      34.864  22.610  24.362  1.00  0.00     0.181 C 
ATOM      9  C   UNL A   1      33.646  22.802  23.435  1.00  0.00     0.079 C 
ATOM     10  C   UNL A   1      35.004  21.149  24.852  1.00  0.00     0.144 C 
ATOM     11  C   UNL A   1      32.373  22.171  23.991  1.00  0.00     0.013 C 
ATOM     12  C   UNL A   1      33.714  20.417  25.251  1.00  0.00     0.190 C 
ATOM     13  C   UNL A   1      32.573  20.679  24.250  1.00  0.00     0.065 C 
BRANCH   8  14
ATOM     14  N   UNL A   1      34.726  23.428  25.612  1.00  0.00    -0.336 N 
ATOM     15  C   UNL A   1      34.250  24.794  25.413  1.00  0.00     0.331 C 
ATOM     16  H   UNL A   1      34.068  22.952  26.229  1.00  0.00     0.346 HD
ATOM     17  H   UNL A   1      35.664  23.509  26.004  1.00  0.00     0.346 HD
ENDBRANCH   8  14
BRANCH  12  18
ATOM     18  N   UNL A   1      33.924  18.966  25.460  1.00  0.00    -0.332 N 
ATOM     19  C   UNL A   1      32.737  18.161  25.770  1.00  0.00     0.262 C 
ATOM     20  C   UNL A   1      34.679  18.291  24.398  1.00  0.00     0.265 C 
ATOM     21  H   UNL A   1      34.489  19.005  26.309  1.00  0.00     0.348 HD
ATOM     22  C   UNL A   1      32.899  16.843  25.019  1.00  0.00     0.070 C 
ATOM     23  C   UNL A   1      33.782  17.190  23.829  1.00  0.00     0.047 C 
ATOM     24  C   UNL A   1      32.960  17.615  22.611  1.00  0.00     0.014 C 
ENDBRANCH  12  18
ENDBRANCH   5   8
ENDBRANCH   3   4
ENDBRANCH   2   3
ENDBRANCH   1   2
BRANCH   1  25
ATOM     25  C   UNL A   1      39.399  20.068  26.473  1.00  0.00     0.116 C 
BRANCH  25  26
ATOM     26  N   UNL A   1      40.522  19.284  25.981  1.00  0.00    -0.352 N 
ATOM     27  C   UNL A   1      41.846  19.641  25.884  1.00  0.00     0.251 C 
ATOM     28  H   UNL A   1      40.304  18.375  25.674  1.00  0.00     0.163 HD
ATOM     29  O   UNL A   1      42.650  18.908  25.326  1.00  0.00    -0.269 OA
BRANCH  27  30
ATOM     30  C   UNL A   1      42.282  20.942  26.434  1.00  0.00     0.039 A 
ATOM     31  C   UNL A   1      42.694  21.942  25.552  1.00  0.00     0.014 A 
ATOM     32  C   UNL A   1      42.243  21.181  27.810  1.00  0.00     0.014 A 
ATOM     33  C   UNL A   1      42.998  23.212  26.045  1.00  0.00     0.010 A 
ATOM     34  C   UNL A   1      42.471  22.465  28.291  1.00  0.00     0.010 A 
ATOM     35  C   UNL A   1      42.849  23.493  27.414  1.00  0.00    -0.014 A 
BRANCH  35  36
ATOM     36  C   UNL A   1      43.079  24.859  27.948  1.00  0.00     0.031 A 
ATOM     37  C   UNL A   1      44.461  25.287  28.354  1.00  0.00     0.074 A 
ATOM     38  C   UNL A   1      42.033  25.687  28.131  1.00  0.00     0.049 A 
ATOM     39  N   UNL A   1      44.851  26.405  28.908  1.00  0.00    -0.248 NA
ATOM     40  C   UNL A   1      45.545  24.315  28.132  1.00  0.00     0.031 C 
ATOM     41  C   UNL A   1      40.637  25.374  27.820  1.00  0.00     0.029 A 
ATOM     42  N   UNL A   1      41.982  26.964  28.632  1.00  0.00    -0.354 N 
ATOM     43  C   UNL A   1      46.218  26.269  29.112  1.00  0.00     0.074 A 
ATOM     44  C   UNL A   1      46.581  24.938  28.674  1.00  0.00     0.031 C 
ATOM     45  C   UNL A   1      39.871  26.438  28.111  1.00  0.00     0.029 A 
ATOM     46  C   UNL A   1      40.715  27.493  28.665  1.00  0.00     0.049 A 
ATOM     47  H   UNL A   1      42.778  27.455  28.938  1.00  0.00     0.167 HD
ATOM     48  C   UNL A   1      47.097  27.179  29.596  1.00  0.00     0.037 A 
ATOM     49  C   UNL A   1      40.281  28.692  29.097  1.00  0.00     0.037 A 
ATOM     50  C   UNL A   1      46.737  28.509  30.009  1.00  0.00     0.049 A 
ATOM     51  C   UNL A   1      41.275  29.681  29.641  1.00  0.00     0.074 A 
ATOM     52  C   UNL A   1      47.562  29.523  30.465  1.00  0.00     0.029 A 
ATOM     53  N   UNL A   1      45.445  29.012  30.015  1.00  0.00    -0.354 N 
ATOM     54  N   UNL A   1      42.573  29.560  29.773  1.00  0.00    -0.248 NA
ATOM     55  C   UNL A   1      40.742  30.974  30.094  1.00  0.00     0.031 C 
ATOM     56  C   UNL A   1      46.763  30.625  30.785  1.00  0.00     0.029 A 
ATOM     57  C   UNL A   1      45.447  30.315  30.484  1.00  0.00     0.049 A 
ATOM     58  H   UNL A   1      44.644  28.516  29.729  1.00  0.00     0.167 HD
ATOM     59  C   UNL A   1      43.017  30.768  30.293  1.00  0.00     0.074 A 
ATOM     60  C   UNL A   1      41.850  31.613  30.442  1.00  0.00     0.031 C 
ATOM     61  C   UNL A   1      44.278  31.146  30.617  1.00  0.00     0.037 A 
BRANCH  48  62
ATOM     62  C   UNL A   1      48.535  26.763  29.695  1.00  0.00     0.057 A 
ATOM     63  C   UNL A   1      49.442  26.993  28.652  1.00  0.00     0.134 A 
ATOM     64  C   UNL A   1      49.027  26.154  30.856  1.00  0.00     0.134 A 
ATOM     65  F   UNL A   1      49.032  27.560  27.507  1.00  0.00    -0.206 F 
ATOM     66  C   UNL A   1      50.780  26.608  28.750  1.00  0.00     0.040 A 
ATOM     67  C   UNL A   1      50.370  25.789  30.976  1.00  0.00     0.040 A 
ATOM     68  F   UNL A   1      48.214  25.909  31.894  1.00  0.00    -0.206 F 
ATOM     69  C   UNL A   1      51.249  26.011  29.918  1.00  0.00     0.006 A 
ENDBRANCH  48  62
BRANCH  49  70
ATOM     70  C   UNL A   1      38.840  29.040  29.009  1.00  0.00     0.057 A 
ATOM     71  C   UNL A   1      38.283  29.498  27.809  1.00  0.00     0.134 A 
ATOM     72  C   UNL A   1      37.989  28.932  30.115  1.00  0.00     0.134 A 
ATOM     73  F   UNL A   1      39.053  29.639  26.719  1.00  0.00    -0.206 F 
ATOM     74  C   UNL A   1      36.938  29.857  27.716  1.00  0.00     0.040 A 
ATOM     75  C   UNL A   1      36.637  29.265  30.031  1.00  0.00     0.040 A 
ATOM     76  F   UNL A   1      38.460  28.493  31.292  1.00  0.00    -0.206 F 
ATOM     77  C   UNL A   1      36.109  29.736  28.830  1.00  0.00     0.006 A 
ENDBRANCH  49  70
BRANCH  61  78
ATOM     78  C   UNL A   1      44.467  32.544  31.127  1.00  0.00     0.057 A 
ATOM     79  C   UNL A   1      44.633  33.631  30.260  1.00  0.00     0.134 A 
ATOM     80  C   UNL A   1      44.441  32.809  32.502  1.00  0.00     0.134 A 
ATOM     81  F   UNL A   1      44.679  33.442  28.933  1.00  0.00    -0.206 F 
ATOM     82  C   UNL A   1      44.789  34.931  30.745  1.00  0.00     0.040 A 
ATOM     83  C   UNL A   1      44.570  34.107  32.997  1.00  0.00     0.040 A 
ATOM     84  F   UNL A   1      44.277  31.813  33.386  1.00  0.00    -0.206 F 
ATOM     85  C   UNL A   1      44.751  35.172  32.117  1.00  0.00     0.006 A 
ENDBRANCH  61  78
ENDBRANCH  35  36
ENDBRANCH  27  30
ENDBRANCH  25  26
ENDBRANCH   1  25
TORSDOF 13
ENDMDL
MODEL 2
REMARK VINA RESULT:     -11.2      1.630      2.367
REMARK SMILES C[NH2+][C@]1(C(=O)NCCCCNC(=O)c2ccc(-c3c4nc(c(-c5c(F)cccc5F)c5ccc([nH]5)c(-c5c(F)cccc5F)c5nc(c(-c6c(F)cccc6F)c6ccc3[nH]6)C=C5)C=C4)cc2)CCC[C@@H]([N@H+]2CC[C@@H](C)C2)C1
REMARK SMILES IDX 9 1 8 2 7 3 6 4 4 5 5 6 3 8 68 9 78 10 69 11 71 12 70 13
REMARK SMILES IDX 2 14 1 15 72 18 73 19 77 20 74 22 75 23 76 24 10 25 11 26
REMARK SMILES IDX 12 27 13 29 14 30 15 31 67 32 16 33 66 34 17 35 18 36 19 37
REMARK SMILES IDX 60 38 20 39 65 40 59 41 61 42 21 43 64 44 58 45 57 46 22 48
REMARK SMILES IDX 48 49 31 50 47 51 32 52 35 53 46 54 62 55 33 56 34 57 45 59
REMARK SMILES IDX 63 60 36 61 23 62 24 63 29 64 25 65 26 66 28 67 30 68 27 69
REMARK SMILES IDX 49 70 50 71 55 72 51 73 52 74 54 75 56 76 53 77 37 78 38 79
REMARK SMILES IDX 43 80 39 81 40 82 42 83 44 84 41 85
REMARK H PARENT 6 7 2 16 2 17 72 21 11 28 61 47 35 58
REMARK Flexibility Score: inf
ROOT
ATOM      1  C   UNL A   1      38.501  20.211  25.010  1.00  0.00     0.023 C 
ENDROOT
BRANCH   1   2
ATOM      2  C   UNL A   1      37.676  21.495  24.977  1.00  0.00     0.023 C 
BRANCH   2   3
ATOM      3  C   UNL A   1      36.169  21.264  25.000  1.00  0.00     0.116 C 
BRANCH   3   4
ATOM      4  N   UNL A   1      35.588  21.688  26.264  1.00  0.00    -0.351 N 
ATOM      5  C   UNL A   1      34.297  21.897  26.654  1.00  0.00     0.281 C 
ATOM      6  O   UNL A   1      34.141  22.208  27.841  1.00  0.00    -0.268 OA
ATOM      7  H   UNL A   1      36.252  21.859  26.971  1.00  0.00     0.163 HD
BRANCH   5   8
ATOM      8  C   UNL A   1      33.073  21.639  25.701  1.00  0.00     0.181 C 
ATOM      9  C   UNL A   1      33.184  22.372  24.348  1.00  0.00     0.079 C 
ATOM     10  C   UNL A   1      33.012  20.102  25.531  1.00  0.00     0.144 C 
ATOM     11  C   UNL A   1      32.183  21.865  23.314  1.00  0.00     0.013 C 
ATOM     12  C   UNL A   1      32.153  19.558  24.380  1.00  0.00     0.190 C 
ATOM     13  C   UNL A   1      32.352  20.365  23.084  1.00  0.00     0.065 C 
BRANCH   8  14
ATOM     14  N   UNL A   1      31.801  22.003  26.410  1.00  0.00    -0.336 N 
ATOM     15  C   UNL A   1      31.419  23.409  26.320  1.00  0.00     0.331 C 
ATOM     16  H   UNL A   1      31.047  21.445  26.010  1.00  0.00     0.346 HD
ATOM     17  H   UNL A   1      31.965  21.816  27.399  1.00  0.00     0.346 HD
ENDBRANCH   8  14
BRANCH  12  18
ATOM     18  N   UNL A   1      32.361  18.110  24.150  1.00  0.00    -0.332 N 
ATOM     19  C   UNL A   1      32.918  17.716  22.851  1.00  0.00     0.262 C 
ATOM     20  C   UNL A   1      33.110  17.417  25.206  1.00  0.00     0.265 C 
ATOM     21  H   UNL A   1      31.388  17.802  24.164  1.00  0.00     0.348 HD
ATOM     22  C   UNL A   1      33.895  16.578  23.126  1.00  0.00     0.070 C 
ATOM     23  C   UNL A   1      34.354  16.808  24.559  1.00  0.00     0.047 C 
ATOM     24  C   UNL A   1      35.597  17.697  24.626  1.00  0.00     0.014 C 
ENDBRANCH  12  18
ENDBRANCH   5   8
ENDBRANCH   3   4
ENDBRANCH   2   3
ENDBRANCH   1   2
BRANCH   1  25
ATOM     25  C   UNL A   1      39.381  20.045  26.244  1.00  0.00     0.116 C 
BRANCH  25  26
ATOM     26  N   UNL A   1      40.447  19.072  26.058  1.00  0.00    -0.352 N 
ATOM     27  C   UNL A   1      41.807  19.272  26.060  1.00  0.00     0.251 C 
ATOM     28  H   UNL A   1      40.154  18.144  25.909  1.00  0.00     0.163 HD
ATOM     29  O   UNL A   1      42.570  18.365  25.759  1.00  0.00    -0.269 OA
BRANCH  27  30
ATOM     30  C   UNL A   1      42.336  20.610  26.396  1.00  0.00     0.039 A 
ATOM     31  C   UNL A   1      42.673  21.482  25.359  1.00  0.00     0.014 A 
ATOM     32  C   UNL A   1      42.459  21.011  27.729  1.00  0.00     0.014 A 
ATOM     33  C   UNL A   1      43.064  22.787  25.659  1.00  0.00     0.010 A 
ATOM     34  C   UNL A   1      42.775  22.333  28.023  1.00  0.00     0.010 A 
ATOM     35  C   UNL A   1      43.079  23.234  26.991  1.00  0.00    -0.014 A 
BRANCH  35  36
ATOM     36  C   UNL A   1      43.403  24.643  27.327  1.00  0.00     0.031 A 
ATOM     37  C   UNL A   1      44.829  25.115  27.298  1.00  0.00     0.074 A 
ATOM     38  C   UNL A   1      42.422  25.477  27.723  1.00  0.00     0.049 A 
ATOM     39  N   UNL A   1      45.321  26.280  27.629  1.00  0.00    -0.248 NA
ATOM     40  C   UNL A   1      45.840  24.136  26.865  1.00  0.00     0.031 C 
ATOM     41  C   UNL A   1      41.005  25.127  27.837  1.00  0.00     0.029 A 
ATOM     42  N   UNL A   1      42.471  26.792  28.112  1.00  0.00    -0.354 N 
ATOM     43  C   UNL A   1      46.695  26.173  27.457  1.00  0.00     0.074 A 
ATOM     44  C   UNL A   1      46.965  24.812  27.047  1.00  0.00     0.031 C 
ATOM     45  C   UNL A   1      40.316  26.207  28.240  1.00  0.00     0.029 A 
ATOM     46  C   UNL A   1      41.245  27.312  28.450  1.00  0.00     0.049 A 
ATOM     47  H   UNL A   1      43.305  27.314  28.144  1.00  0.00     0.167 HD
ATOM     48  C   UNL A   1      47.644  27.128  27.603  1.00  0.00     0.037 A 
ATOM     49  C   UNL A   1      40.910  28.542  28.886  1.00  0.00     0.037 A 
ATOM     50  C   UNL A   1      47.371  28.487  27.988  1.00  0.00     0.049 A 
ATOM     51  C   UNL A   1      41.984  29.581  29.050  1.00  0.00     0.074 A 
ATOM     52  C   UNL A   1      48.257  29.543  28.114  1.00  0.00     0.029 A 
ATOM     53  N   UNL A   1      46.115  28.979  28.310  1.00  0.00    -0.354 N 
ATOM     54  N   UNL A   1      43.271  29.482  28.827  1.00  0.00    -0.248 NA
ATOM     55  C   UNL A   1      41.556  30.905  29.525  1.00  0.00     0.031 C 
ATOM     56  C   UNL A   1      47.543  30.663  28.551  1.00  0.00     0.029 A 
ATOM     57  C   UNL A   1      46.205  30.318  28.652  1.00  0.00     0.049 A 
ATOM     58  H   UNL A   1      45.282  28.454  28.298  1.00  0.00     0.167 HD
ATOM     59  C   UNL A   1      43.803  30.735  29.103  1.00  0.00     0.074 A 
ATOM     60  C   UNL A   1      42.696  31.581  29.499  1.00  0.00     0.031 C 
ATOM     61  C   UNL A   1      45.092  31.148  29.034  1.00  0.00     0.037 A 
BRANCH  48  62
ATOM     62  C   UNL A   1      49.067  26.733  27.334  1.00  0.00     0.057 A 
ATOM     63  C   UNL A   1      49.623  26.811  26.050  1.00  0.00     0.134 A 
ATOM     64  C   UNL A   1      49.899  26.300  28.373  1.00  0.00     0.134 A 
ATOM     65  F   UNL A   1      48.876  27.206  25.008  1.00  0.00    -0.206 F 
ATOM     66  C   UNL A   1      50.948  26.446  25.805  1.00  0.00     0.040 A 
ATOM     67  C   UNL A   1      51.234  25.959  28.145  1.00  0.00     0.040 A 
ATOM     68  F   UNL A   1      49.432  26.207  29.627  1.00  0.00    -0.206 F 
ATOM     69  C   UNL A   1      51.760  26.026  26.856  1.00  0.00     0.006 A 
ENDBRANCH  48  62
BRANCH  49  70
ATOM     70  C   UNL A   1      39.491  28.869  29.171  1.00  0.00     0.057 A 
ATOM     71  C   UNL A   1      38.948  28.668  30.446  1.00  0.00     0.134 A 
ATOM     72  C   UNL A   1      38.642  29.380  28.182  1.00  0.00     0.134 A 
ATOM     73  F   UNL A   1      39.708  28.164  31.429  1.00  0.00    -0.206 F 
ATOM     74  C   UNL A   1      37.608  28.943  30.723  1.00  0.00     0.040 A 
ATOM     75  C   UNL A   1      37.306  29.682  28.451  1.00  0.00     0.040 A 
ATOM     76  F   UNL A   1      39.102  29.603  26.942  1.00  0.00    -0.206 F 
ATOM     77  C   UNL A   1      36.784  29.457  29.724  1.00  0.00     0.006 A 
ENDBRANCH  49  70
BRANCH  61  78
ATOM     78  C   UNL A   1      45.370  32.587  29.356  1.00  0.00     0.057 A 
ATOM     79  C   UNL A   1      45.724  33.002  30.646  1.00  0.00     0.134 A 
ATOM     80  C   UNL A   1      45.321  33.562  28.352  1.00  0.00     0.134 A 
ATOM     81  F   UNL A   1      45.776  32.118  31.653  1.00  0.00    -0.206 F 
ATOM     82  C   UNL A   1      45.999  34.340  30.930  1.00  0.00     0.040 A 
ATOM     83  C   UNL A   1      45.618  34.899  28.618  1.00  0.00     0.040 A 
ATOM     84  F   UNL A   1      44.995  33.230  27.093  1.00  0.00    -0.206 F 
ATOM     85  C   UNL A   1      45.954  35.292  29.913  1.00  0.00     0.006 A 
ENDBRANCH  61  78
ENDBRANCH  35  36
ENDBRANCH  27  30
ENDBRANCH  25  26
ENDBRANCH   1  25
TORSDOF 13
ENDMDL
MODEL 3
REMARK VINA RESULT:     -11.2      2.335      7.343
REMARK SMILES C[NH2+][C@]1(C(=O)NCCCCNC(=O)c2ccc(-c3c4nc(c(-c5c(F)cccc5F)c5ccc([nH]5)c(-c5c(F)cccc5F)c5nc(c(-c6c(F)cccc6F)c6ccc3[nH]6)C=C5)C=C4)cc2)CCC[C@@H]([N@H+]2CC[C@@H](C)C2)C1
REMARK SMILES IDX 9 1 8 2 7 3 6 4 4 5 5 6 3 8 68 9 78 10 69 11 71 12 70 13
REMARK SMILES IDX 2 14 1 15 72 18 73 19 77 20 74 22 75 23 76 24 10 25 11 26
REMARK SMILES IDX 12 27 13 29 14 30 15 31 67 32 16 33 66 34 17 35 18 36 19 37
REMARK SMILES IDX 60 38 20 39 65 40 59 41 61 42 21 43 64 44 58 45 57 46 22 48
REMARK SMILES IDX 48 49 31 50 47 51 32 52 35 53 46 54 62 55 33 56 34 57 45 59
REMARK SMILES IDX 63 60 36 61 23 62 24 63 29 64 25 65 26 66 28 67 30 68 27 69
REMARK SMILES IDX 49 70 50 71 55 72 51 73 52 74 54 75 56 76 53 77 37 78 38 79
REMARK SMILES IDX 43 80 39 81 40 82 42 83 44 84 41 85
REMARK H PARENT 6 7 2 16 2 17 72 21 11 28 61 47 35 58
REMARK Flexibility Score: inf
ROOT
ATOM      1  C   UNL A   1      32.530  28.455  26.378  1.00  0.00     0.023 C 
ENDROOT
BRANCH   1   2
ATOM      2  C   UNL A   1      31.686  27.265  26.828  1.00  0.00     0.023 C 
BRANCH   2   3
ATOM      3  C   UNL A   1      31.963  25.981  26.054  1.00  0.00     0.116 C 
BRANCH   3   4
ATOM      4  N   UNL A   1      31.594  24.808  26.830  1.00  0.00    -0.351 N 
ATOM      5  C   UNL A   1      31.996  23.504  26.765  1.00  0.00     0.281 C 
ATOM      6  O   UNL A   1      31.518  22.755  27.626  1.00  0.00    -0.268 OA
ATOM      7  H   UNL A   1      30.929  24.986  27.533  1.00  0.00     0.163 HD
BRANCH   5   8
ATOM      8  C   UNL A   1      33.087  23.004  25.749  1.00  0.00     0.181 C 
ATOM      9  C   UNL A   1      34.515  23.462  26.109  1.00  0.00     0.079 C 
ATOM     10  C   UNL A   1      32.950  21.463  25.738  1.00  0.00     0.144 C 
ATOM     11  C   UNL A   1      35.592  22.712  25.329  1.00  0.00     0.013 C 
ATOM     12  C   UNL A   1      34.105  20.661  25.121  1.00  0.00     0.190 C 
ATOM     13  C   UNL A   1      35.478  21.206  25.556  1.00  0.00     0.065 C 
BRANCH   8  14
ATOM     14  N   UNL A   1      32.714  23.437  24.361  1.00  0.00    -0.336 N 
ATOM     15  C   UNL A   1      31.474  22.865  23.842  1.00  0.00     0.331 C 
ATOM     16  H   UNL A   1      32.616  24.452  24.363  1.00  0.00     0.346 HD
ATOM     17  H   UNL A   1      33.458  23.101  23.750  1.00  0.00     0.346 HD
ENDBRANCH   8  14
BRANCH  12  18
ATOM     18  N   UNL A   1      33.994  19.208  25.385  1.00  0.00    -0.332 N 
ATOM     19  C   UNL A   1      32.676  18.704  25.786  1.00  0.00     0.262 C 
ATOM     20  C   UNL A   1      34.517  18.344  24.320  1.00  0.00     0.265 C 
ATOM     21  H   UNL A   1      34.600  19.145  26.204  1.00  0.00     0.348 HD
ATOM     22  C   UNL A   1      32.495  17.360  25.088  1.00  0.00     0.070 C 
ATOM     23  C   UNL A   1      33.365  17.458  23.844  1.00  0.00     0.047 C 
ATOM     24  C   UNL A   1      32.594  18.018  22.647  1.00  0.00     0.014 C 
ENDBRANCH  12  18
ENDBRANCH   5   8
ENDBRANCH   3   4
ENDBRANCH   2   3
ENDBRANCH   1   2
BRANCH   1  25
ATOM     25  C   UNL A   1      33.726  28.769  27.270  1.00  0.00     0.116 C 
BRANCH  25  26
ATOM     26  N   UNL A   1      33.704  30.125  27.797  1.00  0.00    -0.352 N 
ATOM     27  C   UNL A   1      34.699  30.810  28.455  1.00  0.00     0.251 C 
ATOM     28  H   UNL A   1      32.863  30.619  27.666  1.00  0.00     0.163 HD
ATOM     29  O   UNL A   1      34.476  31.906  28.950  1.00  0.00    -0.269 OA
BRANCH  27  30
ATOM     30  C   UNL A   1      36.033  30.190  28.587  1.00  0.00     0.039 A 
ATOM     31  C   UNL A   1      36.902  30.221  27.496  1.00  0.00     0.014 A 
ATOM     32  C   UNL A   1      36.433  29.617  29.798  1.00  0.00     0.014 A 
ATOM     33  C   UNL A   1      38.205  29.743  27.642  1.00  0.00     0.010 A 
ATOM     34  C   UNL A   1      37.752  29.212  29.964  1.00  0.00     0.010 A 
ATOM     35  C   UNL A   1      38.652  29.272  28.888  1.00  0.00    -0.014 A 
BRANCH  35  36
ATOM     36  C   UNL A   1      40.058  28.843  29.090  1.00  0.00     0.031 A 
ATOM     37  C   UNL A   1      41.054  29.790  29.699  1.00  0.00     0.074 A 
ATOM     38  C   UNL A   1      40.453  27.629  28.664  1.00  0.00     0.049 A 
ATOM     39  N   UNL A   1      42.338  29.630  29.888  1.00  0.00    -0.248 NA
ATOM     40  C   UNL A   1      40.542  31.102  30.127  1.00  0.00     0.031 C 
ATOM     41  C   UNL A   1      39.593  26.636  28.016  1.00  0.00     0.029 A 
ATOM     42  N   UNL A   1      41.684  27.024  28.704  1.00  0.00    -0.354 N 
ATOM     43  C   UNL A   1      42.789  30.820  30.443  1.00  0.00     0.074 A 
ATOM     44  C   UNL A   1      41.653  31.714  30.509  1.00  0.00     0.031 C 
ATOM     45  C   UNL A   1      40.316  25.537  27.744  1.00  0.00     0.029 A 
ATOM     46  C   UNL A   1      41.697  25.761  28.163  1.00  0.00     0.049 A 
ATOM     47  H   UNL A   1      42.483  27.454  29.086  1.00  0.00     0.167 HD
ATOM     48  C   UNL A   1      44.032  31.133  30.882  1.00  0.00     0.037 A 
ATOM     49  C   UNL A   1      42.708  24.885  28.016  1.00  0.00     0.037 A 
ATOM     50  C   UNL A   1      45.154  30.234  30.838  1.00  0.00     0.049 A 
ATOM     51  C   UNL A   1      44.082  25.261  28.502  1.00  0.00     0.074 A 
ATOM     52  C   UNL A   1      46.441  30.438  31.305  1.00  0.00     0.029 A 
ATOM     53  N   UNL A   1      45.123  28.959  30.294  1.00  0.00    -0.354 N 
ATOM     54  N   UNL A   1      44.480  26.367  29.079  1.00  0.00    -0.248 NA
ATOM     55  C   UNL A   1      45.144  24.262  28.318  1.00  0.00     0.031 C 
ATOM     56  C   UNL A   1      47.199  29.301  31.007  1.00  0.00     0.029 A 
ATOM     57  C   UNL A   1      46.373  28.371  30.397  1.00  0.00     0.049 A 
ATOM     58  H   UNL A   1      44.331  28.534  29.893  1.00  0.00     0.167 HD
ATOM     59  C   UNL A   1      45.829  26.188  29.355  1.00  0.00     0.074 A 
ATOM     60  C   UNL A   1      46.177  24.860  28.892  1.00  0.00     0.031 C 
ATOM     61  C   UNL A   1      46.701  27.045  29.940  1.00  0.00     0.037 A 
BRANCH  48  62
ATOM     62  C   UNL A   1      44.235  32.503  31.459  1.00  0.00     0.057 A 
ATOM     63  C   UNL A   1      44.064  32.761  32.826  1.00  0.00     0.134 A 
ATOM     64  C   UNL A   1      44.635  33.571  30.645  1.00  0.00     0.134 A 
ATOM     65  F   UNL A   1      43.669  31.785  33.657  1.00  0.00    -0.206 F 
ATOM     66  C   UNL A   1      44.258  34.037  33.358  1.00  0.00     0.040 A 
ATOM     67  C   UNL A   1      44.859  34.845  31.171  1.00  0.00     0.040 A 
ATOM     68  F   UNL A   1      44.822  33.392  29.329  1.00  0.00    -0.206 F 
ATOM     69  C   UNL A   1      44.664  35.081  32.530  1.00  0.00     0.006 A 
ENDBRANCH  48  62
BRANCH  49  70
ATOM     70  C   UNL A   1      42.459  23.555  27.407  1.00  0.00     0.057 A 
ATOM     71  C   UNL A   1      42.587  23.360  26.026  1.00  0.00     0.134 A 
ATOM     72  C   UNL A   1      42.081  22.452  28.181  1.00  0.00     0.134 A 
ATOM     73  F   UNL A   1      42.930  24.385  25.231  1.00  0.00    -0.206 F 
ATOM     74  C   UNL A   1      42.328  22.124  25.434  1.00  0.00     0.040 A 
ATOM     75  C   UNL A   1      41.842  21.203  27.605  1.00  0.00     0.040 A 
ATOM     76  F   UNL A   1      41.948  22.571  29.511  1.00  0.00    -0.206 F 
ATOM     77  C   UNL A   1      41.958  21.039  26.226  1.00  0.00     0.006 A 
ENDBRANCH  49  70
BRANCH  61  78
ATOM     78  C   UNL A   1      48.105  26.559  30.149  1.00  0.00     0.057 A 
ATOM     79  C   UNL A   1      48.483  25.864  31.305  1.00  0.00     0.134 A 
ATOM     80  C   UNL A   1      49.080  26.757  29.163  1.00  0.00     0.134 A 
ATOM     81  F   UNL A   1      47.599  25.654  32.291  1.00  0.00    -0.206 F 
ATOM     82  C   UNL A   1      49.788  25.400  31.481  1.00  0.00     0.040 A 
ATOM     83  C   UNL A   1      50.381  26.276  29.317  1.00  0.00     0.040 A 
ATOM     84  F   UNL A   1      48.781  27.409  28.029  1.00  0.00    -0.206 F 
ATOM     85  C   UNL A   1      50.738  25.599  30.482  1.00  0.00     0.006 A 
ENDBRANCH  61  78
ENDBRANCH  35  36
ENDBRANCH  27  30
ENDBRANCH  25  26
ENDBRANCH   1  25
TORSDOF 13
ENDMDL
