MODEL 1
REMARK VINA RESULT:     -11.9      0.000      0.000
REMARK SMILES O=C(COc1ccc(F)cc1)Nc1sccc1C(=O)NCCCCNC(=O)c1ccc(-c2c3nc(c(-c4c(F)cccc4F)c4ccc([nH]4)c(-c4c(F)cccc4F)c4nc(c(-c5c(F)cccc5F)c5ccc2[nH]5)C=C4)C=C3)cc1
REMARK SMILES IDX 21 1 20 2 18 3 19 4 17 6 13 7 14 8 15 9 16 10 12 11 1 12
REMARK SMILES IDX 2 13 3 15 4 16 5 17 6 18 11 19 7 20 10 21 8 22 9 23 22 24
REMARK SMILES IDX 23 25 24 26 25 27 26 28 27 30 28 31 29 32 81 33 30 34 80 35
REMARK SMILES IDX 31 36 32 37 33 38 74 39 34 40 79 41 73 42 75 43 35 44 78 45
REMARK SMILES IDX 72 46 71 47 36 49 62 50 45 51 61 52 46 53 49 54 60 55 76 56
REMARK SMILES IDX 47 57 48 58 59 60 77 61 50 62 37 63 38 64 43 65 39 66 40 67
REMARK SMILES IDX 42 68 44 69 41 70 63 71 64 72 69 73 65 74 66 75 68 76 70 77
REMARK SMILES IDX 67 78 51 79 52 80 57 81 53 82 54 83 56 84 58 85 55 86
REMARK H PARENT 20 5 12 14 25 29 75 48 49 59
REMARK Flexibility Score: inf
ROOT
ATOM      1  C   UNL A   1      33.793  28.888  26.886  1.00  0.00     0.116 C 
ENDROOT
BRANCH   1   2
ATOM      2  N   UNL A   1      34.150  28.953  25.487  1.00  0.00    -0.352 N 
ATOM      3  C   UNL A   1      33.920  28.043  24.476  1.00  0.00     0.254 C 
ATOM      4  O   UNL A   1      34.378  28.305  23.363  1.00  0.00    -0.269 OA
ATOM      5  H   UNL A   1      34.628  29.769  25.213  1.00  0.00     0.163 HD
BRANCH   3   6
ATOM      6  C   UNL A   1      33.305  26.743  24.750  1.00  0.00     0.074 A 
ATOM      7  C   UNL A   1      31.971  26.380  24.768  1.00  0.00     0.108 A 
ATOM      8  S   UNL A   1      31.712  24.800  25.367  1.00  0.00    -0.126 S 
ATOM      9  C   UNL A   1      33.381  24.460  25.361  1.00  0.00     0.068 A 
ATOM     10  C   UNL A   1      34.115  25.572  25.019  1.00  0.00     0.028 A 
BRANCH   7  11
ATOM     11  N   UNL A   1      30.779  26.975  24.432  1.00  0.00    -0.314 N 
ATOM     12  O   UNL A   1      31.033  27.051  22.120  1.00  0.00    -0.271 OA
ATOM     13  C   UNL A   1      30.414  27.319  23.145  1.00  0.00     0.262 C 
ATOM     14  H   UNL A   1      30.143  27.169  25.157  1.00  0.00     0.170 HD
BRANCH  13  15
ATOM     15  C   UNL A   1      29.166  28.200  23.120  1.00  0.00     0.329 C 
BRANCH  15  16
ATOM     16  O   UNL A   1      29.381  29.469  23.739  1.00  0.00    -0.484 OA
BRANCH  16  17
ATOM     17  C   UNL A   1      28.916  30.460  22.922  1.00  0.00     0.120 A 
ATOM     18  C   UNL A   1      28.470  30.145  21.639  1.00  0.00     0.049 A 
ATOM     19  C   UNL A   1      28.882  31.769  23.402  1.00  0.00     0.049 A 
ATOM     20  C   UNL A   1      28.026  31.166  20.804  1.00  0.00     0.043 A 
ATOM     21  C   UNL A   1      28.436  32.788  22.563  1.00  0.00     0.043 A 
ATOM     22  C   UNL A   1      28.018  32.478  21.271  1.00  0.00     0.123 A 
ATOM     23  F   UNL A   1      27.598  33.458  20.463  1.00  0.00    -0.207 F 
ENDBRANCH  16  17
ENDBRANCH  15  16
ENDBRANCH  13  15
ENDBRANCH   7  11
ENDBRANCH   3   6
ENDBRANCH   1   2
BRANCH   1  24
ATOM     24  C   UNL A   1      32.444  29.509  27.234  1.00  0.00     0.023 C 
BRANCH  24  25
ATOM     25  C   UNL A   1      32.248  30.977  26.841  1.00  0.00     0.023 C 
BRANCH  25  26
ATOM     26  C   UNL A   1      33.200  32.004  27.454  1.00  0.00     0.116 C 
BRANCH  26  27
ATOM     27  N   UNL A   1      32.619  33.325  27.654  1.00  0.00    -0.352 N 
ATOM     28  C   UNL A   1      33.074  34.407  28.375  1.00  0.00     0.251 C 
ATOM     29  H   UNL A   1      31.759  33.468  27.199  1.00  0.00     0.163 HD
ATOM     30  O   UNL A   1      32.432  35.453  28.375  1.00  0.00    -0.269 OA
BRANCH  28  31
ATOM     31  C   UNL A   1      34.278  34.287  29.226  1.00  0.00     0.039 A 
ATOM     32  C   UNL A   1      34.108  33.860  30.547  1.00  0.00     0.014 A 
ATOM     33  C   UNL A   1      35.560  34.501  28.719  1.00  0.00     0.014 A 
ATOM     34  C   UNL A   1      35.221  33.496  31.307  1.00  0.00     0.010 A 
ATOM     35  C   UNL A   1      36.667  34.075  29.452  1.00  0.00     0.010 A 
ATOM     36  C   UNL A   1      36.500  33.518  30.729  1.00  0.00    -0.014 A 
BRANCH  36  37
ATOM     37  C   UNL A   1      37.648  32.841  31.386  1.00  0.00     0.031 A 
ATOM     38  C   UNL A   1      38.292  31.637  30.772  1.00  0.00     0.074 A 
ATOM     39  C   UNL A   1      38.046  33.270  32.601  1.00  0.00     0.049 A 
ATOM     40  N   UNL A   1      39.227  30.863  31.264  1.00  0.00    -0.248 NA
ATOM     41  C   UNL A   1      37.818  31.242  29.439  1.00  0.00     0.031 C 
ATOM     42  C   UNL A   1      37.480  34.413  33.323  1.00  0.00     0.029 A 
ATOM     43  N   UNL A   1      39.012  32.791  33.450  1.00  0.00    -0.354 N 
ATOM     44  C   UNL A   1      39.450  29.887  30.305  1.00  0.00     0.074 A 
ATOM     45  C   UNL A   1      38.524  30.142  29.220  1.00  0.00     0.031 C 
ATOM     46  C   UNL A   1      38.131  34.567  34.486  1.00  0.00     0.029 A 
ATOM     47  C   UNL A   1      39.122  33.504  34.620  1.00  0.00     0.049 A 
ATOM     48  H   UNL A   1      39.575  32.011  33.241  1.00  0.00     0.167 HD
ATOM     49  C   UNL A   1      40.355  28.880  30.320  1.00  0.00     0.037 A 
ATOM     50  C   UNL A   1      39.918  33.320  35.688  1.00  0.00     0.037 A 
ATOM     51  C   UNL A   1      41.280  28.631  31.395  1.00  0.00     0.049 A 
ATOM     52  C   UNL A   1      40.866  32.157  35.713  1.00  0.00     0.074 A 
ATOM     53  C   UNL A   1      42.269  27.666  31.474  1.00  0.00     0.029 A 
ATOM     54  N   UNL A   1      41.323  29.347  32.582  1.00  0.00    -0.354 N 
ATOM     55  N   UNL A   1      41.087  31.260  34.785  1.00  0.00    -0.248 NA
ATOM     56  C   UNL A   1      41.658  31.970  36.936  1.00  0.00     0.031 C 
ATOM     57  C   UNL A   1      42.886  27.773  32.725  1.00  0.00     0.029 A 
ATOM     58  C   UNL A   1      42.303  28.827  33.411  1.00  0.00     0.049 A 
ATOM     59  H   UNL A   1      40.743  30.110  32.802  1.00  0.00     0.167 HD
ATOM     60  C   UNL A   1      42.049  30.406  35.306  1.00  0.00     0.074 A 
ATOM     61  C   UNL A   1      42.376  30.897  36.629  1.00  0.00     0.031 C 
ATOM     62  C   UNL A   1      42.611  29.314  34.732  1.00  0.00     0.037 A 
BRANCH  49  63
ATOM     63  C   UNL A   1      40.393  27.975  29.127  1.00  0.00     0.057 A 
ATOM     64  C   UNL A   1      41.176  28.289  28.010  1.00  0.00     0.134 A 
ATOM     65  C   UNL A   1      39.628  26.802  29.073  1.00  0.00     0.134 A 
ATOM     66  F   UNL A   1      41.926  29.400  27.995  1.00  0.00    -0.206 F 
ATOM     67  C   UNL A   1      41.198  27.467  26.881  1.00  0.00     0.040 A 
ATOM     68  C   UNL A   1      39.658  25.961  27.960  1.00  0.00     0.040 A 
ATOM     69  F   UNL A   1      38.864  26.441  30.116  1.00  0.00    -0.206 F 
ATOM     70  C   UNL A   1      40.443  26.297  26.857  1.00  0.00     0.006 A 
ENDBRANCH  49  63
BRANCH  50  71
ATOM     71  C   UNL A   1      39.857  34.280  36.816  1.00  0.00     0.057 A 
ATOM     72  C   UNL A   1      39.012  34.076  37.913  1.00  0.00     0.134 A 
ATOM     73  C   UNL A   1      40.611  35.458  36.789  1.00  0.00     0.134 A 
ATOM     74  F   UNL A   1      38.260  32.969  37.992  1.00  0.00    -0.206 F 
ATOM     75  C   UNL A   1      38.903  35.022  38.934  1.00  0.00     0.040 A 
ATOM     76  C   UNL A   1      40.524  36.405  37.809  1.00  0.00     0.040 A 
ATOM     77  F   UNL A   1      41.448  35.699  35.769  1.00  0.00    -0.206 F 
ATOM     78  C   UNL A   1      39.660  36.191  38.883  1.00  0.00     0.006 A 
ENDBRANCH  50  71
BRANCH  62  79
ATOM     79  C   UNL A   1      43.637  28.567  35.526  1.00  0.00     0.057 A 
ATOM     80  C   UNL A   1      43.254  27.572  36.434  1.00  0.00     0.134 A 
ATOM     81  C   UNL A   1      44.996  28.893  35.451  1.00  0.00     0.134 A 
ATOM     82  F   UNL A   1      41.966  27.219  36.555  1.00  0.00    -0.206 F 
ATOM     83  C   UNL A   1      44.189  26.938  37.254  1.00  0.00     0.040 A 
ATOM     84  C   UNL A   1      45.941  28.254  36.254  1.00  0.00     0.040 A 
ATOM     85  F   UNL A   1      45.424  29.828  34.590  1.00  0.00    -0.206 F 
ATOM     86  C   UNL A   1      45.537  27.281  37.167  1.00  0.00     0.006 A 
ENDBRANCH  62  79
ENDBRANCH  36  37
ENDBRANCH  28  31
ENDBRANCH  26  27
ENDBRANCH  25  26
ENDBRANCH  24  25
ENDBRANCH   1  24
TORSDOF 15
ENDMDL
MODEL 2
REMARK VINA RESULT:     -11.8      0.993      6.326
REMARK SMILES O=C(COc1ccc(F)cc1)Nc1sccc1C(=O)NCCCCNC(=O)c1ccc(-c2c3nc(c(-c4c(F)cccc4F)c4ccc([nH]4)c(-c4c(F)cccc4F)c4nc(c(-c5c(F)cccc5F)c5ccc2[nH]5)C=C4)C=C3)cc1
REMARK SMILES IDX 21 1 20 2 18 3 19 4 17 6 13 7 14 8 15 9 16 10 12 11 1 12
REMARK SMILES IDX 2 13 3 15 4 16 5 17 6 18 11 19 7 20 10 21 8 22 9 23 22 24
REMARK SMILES IDX 23 25 24 26 25 27 26 28 27 30 28 31 29 32 81 33 30 34 80 35
REMARK SMILES IDX 31 36 32 37 33 38 74 39 34 40 79 41 73 42 75 43 35 44 78 45
REMARK SMILES IDX 72 46 71 47 36 49 62 50 45 51 61 52 46 53 49 54 60 55 76 56
REMARK SMILES IDX 47 57 48 58 59 60 77 61 50 62 37 63 38 64 43 65 39 66 40 67
REMARK SMILES IDX 42 68 44 69 41 70 63 71 64 72 69 73 65 74 66 75 68 76 70 77
REMARK SMILES IDX 67 78 51 79 52 80 57 81 53 82 54 83 56 84 58 85 55 86
REMARK H PARENT 20 5 12 14 25 29 75 48 49 59
REMARK Flexibility Score: inf
ROOT
ATOM      1  C   UNL A   1      33.695  28.897  26.721  1.00  0.00     0.116 C 
ENDROOT
BRANCH   1   2
ATOM      2  N   UNL A   1      34.043  29.055  25.327  1.00  0.00    -0.352 N 
ATOM      3  C   UNL A   1      33.835  28.199  24.265  1.00  0.00     0.254 C 
ATOM      4  O   UNL A   1      34.278  28.539  23.168  1.00  0.00    -0.269 OA
ATOM      5  H   UNL A   1      34.494  29.900  25.100  1.00  0.00     0.163 HD
BRANCH   3   6
ATOM      6  C   UNL A   1      33.261  26.866  24.465  1.00  0.00     0.074 A 
ATOM      7  C   UNL A   1      31.939  26.463  24.471  1.00  0.00     0.108 A 
ATOM      8  S   UNL A   1      31.732  24.843  24.976  1.00  0.00    -0.126 S 
ATOM      9  C   UNL A   1      33.410  24.554  24.938  1.00  0.00     0.068 A 
ATOM     10  C   UNL A   1      34.108  25.706  24.657  1.00  0.00     0.028 A 
BRANCH   7  11
ATOM     11  N   UNL A   1      30.727  27.041  24.180  1.00  0.00    -0.314 N 
ATOM     12  O   UNL A   1      30.977  27.310  21.883  1.00  0.00    -0.271 OA
ATOM     13  C   UNL A   1      30.350  27.473  22.924  1.00  0.00     0.262 C 
ATOM     14  H   UNL A   1      30.084  27.154  24.916  1.00  0.00     0.170 HD
BRANCH  13  15
ATOM     15  C   UNL A   1      29.071  28.309  22.966  1.00  0.00     0.329 C 
BRANCH  15  16
ATOM     16  O   UNL A   1      29.258  29.559  23.631  1.00  0.00    -0.484 OA
BRANCH  16  17
ATOM     17  C   UNL A   1      28.830  30.574  22.823  1.00  0.00     0.120 A 
ATOM     18  C   UNL A   1      28.858  31.887  23.292  1.00  0.00     0.049 A 
ATOM     19  C   UNL A   1      28.391  30.271  21.536  1.00  0.00     0.049 A 
ATOM     20  C   UNL A   1      28.392  32.910  22.471  1.00  0.00     0.043 A 
ATOM     21  C   UNL A   1      27.926  31.299  20.718  1.00  0.00     0.043 A 
ATOM     22  C   UNL A   1      27.925  32.607  21.195  1.00  0.00     0.123 A 
ATOM     23  F   UNL A   1      27.471  33.592  20.412  1.00  0.00    -0.207 F 
ENDBRANCH  16  17
ENDBRANCH  15  16
ENDBRANCH  13  15
ENDBRANCH   7  11
ENDBRANCH   3   6
ENDBRANCH   1   2
BRANCH   1  24
ATOM     24  C   UNL A   1      32.316  29.425  27.102  1.00  0.00     0.023 C 
BRANCH  24  25
ATOM     25  C   UNL A   1      32.070  30.919  26.873  1.00  0.00     0.023 C 
BRANCH  25  26
ATOM     26  C   UNL A   1      33.167  31.890  27.312  1.00  0.00     0.116 C 
BRANCH  26  27
ATOM     27  N   UNL A   1      32.698  33.237  27.613  1.00  0.00    -0.352 N 
ATOM     28  C   UNL A   1      33.235  34.214  28.421  1.00  0.00     0.251 C 
ATOM     29  H   UNL A   1      31.860  33.489  27.165  1.00  0.00     0.163 HD
ATOM     30  O   UNL A   1      32.686  35.310  28.499  1.00  0.00    -0.269 OA
BRANCH  28  31
ATOM     31  C   UNL A   1      34.414  33.924  29.267  1.00  0.00     0.039 A 
ATOM     32  C   UNL A   1      34.200  33.273  30.486  1.00  0.00     0.014 A 
ATOM     33  C   UNL A   1      35.712  34.203  28.839  1.00  0.00     0.014 A 
ATOM     34  C   UNL A   1      35.287  32.760  31.196  1.00  0.00     0.010 A 
ATOM     35  C   UNL A   1      36.792  33.633  29.512  1.00  0.00     0.010 A 
ATOM     36  C   UNL A   1      36.582  32.861  30.665  1.00  0.00    -0.014 A 
BRANCH  36  37
ATOM     37  C   UNL A   1      37.702  32.058  31.220  1.00  0.00     0.031 A 
ATOM     38  C   UNL A   1      38.316  32.395  32.543  1.00  0.00     0.074 A 
ATOM     39  C   UNL A   1      38.227  31.070  30.467  1.00  0.00     0.049 A 
ATOM     40  N   UNL A   1      39.367  31.869  33.120  1.00  0.00    -0.248 NA
ATOM     41  C   UNL A   1      37.678  33.471  33.313  1.00  0.00     0.031 C 
ATOM     42  C   UNL A   1      37.740  30.660  29.147  1.00  0.00     0.029 A 
ATOM     43  N   UNL A   1      39.291  30.234  30.698  1.00  0.00    -0.354 N 
ATOM     44  C   UNL A   1      39.520  32.552  34.317  1.00  0.00     0.074 A 
ATOM     45  C   UNL A   1      38.479  33.558  34.365  1.00  0.00     0.031 C 
ATOM     46  C   UNL A   1      38.480  29.633  28.702  1.00  0.00     0.029 A 
ATOM     47  C   UNL A   1      39.526  29.345  29.677  1.00  0.00     0.049 A 
ATOM     48  H   UNL A   1      39.835  30.268  31.518  1.00  0.00     0.167 HD
ATOM     49  C   UNL A   1      40.435  32.347  35.294  1.00  0.00     0.037 A 
ATOM     50  C   UNL A   1      40.483  28.410  29.531  1.00  0.00     0.037 A 
ATOM     51  C   UNL A   1      41.465  31.342  35.250  1.00  0.00     0.049 A 
ATOM     52  C   UNL A   1      41.527  28.247  30.595  1.00  0.00     0.074 A 
ATOM     53  C   UNL A   1      42.404  31.027  36.217  1.00  0.00     0.029 A 
ATOM     54  N   UNL A   1      41.698  30.497  34.175  1.00  0.00    -0.354 N 
ATOM     55  N   UNL A   1      41.641  28.880  31.736  1.00  0.00    -0.248 NA
ATOM     56  C   UNL A   1      42.585  27.258  30.345  1.00  0.00     0.031 C 
ATOM     57  C   UNL A   1      43.229  30.017  35.714  1.00  0.00     0.029 A 
ATOM     58  C   UNL A   1      42.783  29.679  34.446  1.00  0.00     0.049 A 
ATOM     59  H   UNL A   1      41.171  30.480  33.345  1.00  0.00     0.167 HD
ATOM     60  C   UNL A   1      42.775  28.361  32.346  1.00  0.00     0.074 A 
ATOM     61  C   UNL A   1      43.311  27.355  31.451  1.00  0.00     0.031 C 
ATOM     62  C   UNL A   1      43.317  28.691  33.543  1.00  0.00     0.037 A 
BRANCH  49  63
ATOM     63  C   UNL A   1      40.354  33.227  36.504  1.00  0.00     0.057 A 
ATOM     64  C   UNL A   1      39.446  32.952  37.534  1.00  0.00     0.134 A 
ATOM     65  C   UNL A   1      41.157  34.368  36.635  1.00  0.00     0.134 A 
ATOM     66  F   UNL A   1      38.645  31.880  37.468  1.00  0.00    -0.206 F 
ATOM     67  C   UNL A   1      39.342  33.780  38.653  1.00  0.00     0.040 A 
ATOM     68  C   UNL A   1      41.077  35.191  37.758  1.00  0.00     0.040 A 
ATOM     69  F   UNL A   1      42.052  34.680  35.685  1.00  0.00    -0.206 F 
ATOM     70  C   UNL A   1      40.164  34.900  38.770  1.00  0.00     0.006 A 
ENDBRANCH  49  63
BRANCH  50  71
ATOM     71  C   UNL A   1      40.477  27.545  28.326  1.00  0.00     0.057 A 
ATOM     72  C   UNL A   1      39.822  26.308  28.311  1.00  0.00     0.134 A 
ATOM     73  C   UNL A   1      41.178  27.923  27.177  1.00  0.00     0.134 A 
ATOM     74  F   UNL A   1      39.139  25.890  29.386  1.00  0.00    -0.206 F 
ATOM     75  C   UNL A   1      39.885  25.465  27.200  1.00  0.00     0.040 A 
ATOM     76  C   UNL A   1      41.237  27.098  26.053  1.00  0.00     0.040 A 
ATOM     77  F   UNL A   1      41.811  29.104  27.131  1.00  0.00    -0.206 F 
ATOM     78  C   UNL A   1      40.595  25.859  26.067  1.00  0.00     0.006 A 
ENDBRANCH  50  71
BRANCH  62  79
ATOM     79  C   UNL A   1      44.557  27.965  33.963  1.00  0.00     0.057 A 
ATOM     80  C   UNL A   1      45.824  28.462  33.633  1.00  0.00     0.134 A 
ATOM     81  C   UNL A   1      44.493  26.731  34.620  1.00  0.00     0.134 A 
ATOM     82  F   UNL A   1      45.952  29.636  32.998  1.00  0.00    -0.206 F 
ATOM     83  C   UNL A   1      46.986  27.746  33.928  1.00  0.00     0.040 A 
ATOM     84  C   UNL A   1      45.647  26.014  34.935  1.00  0.00     0.040 A 
ATOM     85  F   UNL A   1      43.308  26.211  34.973  1.00  0.00    -0.206 F 
ATOM     86  C   UNL A   1      46.898  26.517  34.579  1.00  0.00     0.006 A 
ENDBRANCH  62  79
ENDBRANCH  36  37
ENDBRANCH  28  31
ENDBRANCH  26  27
ENDBRANCH  25  26
ENDBRANCH  24  25
ENDBRANCH   1  24
TORSDOF 15
ENDMDL
MODEL 3
REMARK VINA RESULT:     -11.7      2.687      4.700
REMARK SMILES O=C(COc1ccc(F)cc1)Nc1sccc1C(=O)NCCCCNC(=O)c1ccc(-c2c3nc(c(-c4c(F)cccc4F)c4ccc([nH]4)c(-c4c(F)cccc4F)c4nc(c(-c5c(F)cccc5F)c5ccc2[nH]5)C=C4)C=C3)cc1
REMARK SMILES IDX 21 1 20 2 18 3 19 4 17 6 13 7 14 8 15 9 16 10 12 11 1 12
REMARK SMILES IDX 2 13 3 15 4 16 5 17 6 18 11 19 7 20 10 21 8 22 9 23 22 24
REMARK SMILES IDX 23 25 24 26 25 27 26 28 27 30 28 31 29 32 81 33 30 34 80 35
REMARK SMILES IDX 31 36 32 37 33 38 74 39 34 40 79 41 73 42 75 43 35 44 78 45
REMARK SMILES IDX 72 46 71 47 36 49 62 50 45 51 61 52 46 53 49 54 60 55 76 56
REMARK SMILES IDX 47 57 48 58 59 60 77 61 50 62 37 63 38 64 43 65 39 66 40 67
REMARK SMILES IDX 42 68 44 69 41 70 63 71 64 72 69 73 65 74 66 75 68 76 70 77
REMARK SMILES IDX 67 78 51 79 52 80 57 81 53 82 54 83 56 84 58 85 55 86
REMARK H PARENT 20 5 12 14 25 29 75 48 49 59
REMARK Flexibility Score: inf
ROOT
ATOM      1  C   UNL A   1      32.584  29.745  25.822  1.00  0.00     0.116 C 
ENDROOT
BRANCH   1   2
ATOM      2  N   UNL A   1      33.202  29.567  24.526  1.00  0.00    -0.352 N 
ATOM      3  C   UNL A   1      32.882  28.689  23.512  1.00  0.00     0.254 C 
ATOM      4  O   UNL A   1      33.603  28.691  22.513  1.00  0.00    -0.269 OA
ATOM      5  H   UNL A   1      33.964  30.162  24.340  1.00  0.00     0.163 HD
BRANCH   3   6
ATOM      6  C   UNL A   1      31.835  27.680  23.681  1.00  0.00     0.074 A 
ATOM      7  C   UNL A   1      31.935  26.304  23.764  1.00  0.00     0.108 A 
ATOM      8  S   UNL A   1      30.419  25.516  23.727  1.00  0.00    -0.126 S 
ATOM      9  C   UNL A   1      29.581  26.991  23.873  1.00  0.00     0.068 A 
ATOM     10  C   UNL A   1      30.444  28.061  23.834  1.00  0.00     0.028 A 
BRANCH   7  11
ATOM     11  N   UNL A   1      32.957  25.391  23.862  1.00  0.00    -0.314 N 
ATOM     12  O   UNL A   1      33.775  25.504  21.687  1.00  0.00    -0.271 OA
ATOM     13  C   UNL A   1      33.769  25.014  22.811  1.00  0.00     0.262 C 
ATOM     14  H   UNL A   1      33.121  24.979  24.740  1.00  0.00     0.170 HD
BRANCH  13  15
ATOM     15  C   UNL A   1      34.626  23.796  23.158  1.00  0.00     0.329 C 
BRANCH  15  16
ATOM     16  O   UNL A   1      34.577  23.473  24.549  1.00  0.00    -0.484 OA
BRANCH  16  17
ATOM     17  C   UNL A   1      35.812  23.065  24.967  1.00  0.00     0.120 A 
ATOM     18  C   UNL A   1      36.228  21.758  24.715  1.00  0.00     0.049 A 
ATOM     19  C   UNL A   1      36.637  23.977  25.623  1.00  0.00     0.049 A 
ATOM     20  C   UNL A   1      37.476  21.344  25.171  1.00  0.00     0.043 A 
ATOM     21  C   UNL A   1      37.885  23.558  26.078  1.00  0.00     0.043 A 
ATOM     22  C   UNL A   1      38.291  22.245  25.852  1.00  0.00     0.123 A 
ATOM     23  F   UNL A   1      39.486  21.840  26.297  1.00  0.00    -0.207 F 
ENDBRANCH  16  17
ENDBRANCH  15  16
ENDBRANCH  13  15
ENDBRANCH   7  11
ENDBRANCH   3   6
ENDBRANCH   1   2
BRANCH   1  24
ATOM     24  C   UNL A   1      31.363  30.658  25.829  1.00  0.00     0.023 C 
BRANCH  24  25
ATOM     25  C   UNL A   1      31.361  31.786  26.866  1.00  0.00     0.023 C 
BRANCH  25  26
ATOM     26  C   UNL A   1      32.161  33.047  26.538  1.00  0.00     0.116 C 
BRANCH  26  27
ATOM     27  N   UNL A   1      32.163  34.054  27.592  1.00  0.00    -0.352 N 
ATOM     28  C   UNL A   1      33.112  34.355  28.544  1.00  0.00     0.251 C 
ATOM     29  H   UNL A   1      31.353  34.610  27.630  1.00  0.00     0.163 HD
ATOM     30  O   UNL A   1      32.921  35.285  29.322  1.00  0.00    -0.269 OA
BRANCH  28  31
ATOM     31  C   UNL A   1      34.316  33.508  28.696  1.00  0.00     0.039 A 
ATOM     32  C   UNL A   1      35.566  34.106  28.506  1.00  0.00     0.014 A 
ATOM     33  C   UNL A   1      34.230  32.177  29.105  1.00  0.00     0.014 A 
ATOM     34  C   UNL A   1      36.724  33.421  28.878  1.00  0.00     0.010 A 
ATOM     35  C   UNL A   1      35.379  31.518  29.539  1.00  0.00     0.010 A 
ATOM     36  C   UNL A   1      36.628  32.157  29.480  1.00  0.00    -0.014 A 
BRANCH  36  37
ATOM     37  C   UNL A   1      37.792  31.549  30.174  1.00  0.00     0.031 A 
ATOM     38  C   UNL A   1      38.646  30.520  29.499  1.00  0.00     0.074 A 
ATOM     39  C   UNL A   1      38.018  31.868  31.464  1.00  0.00     0.049 A 
ATOM     40  N   UNL A   1      39.628  29.811  29.997  1.00  0.00    -0.248 NA
ATOM     41  C   UNL A   1      38.351  30.239  28.088  1.00  0.00     0.031 C 
ATOM     42  C   UNL A   1      37.241  32.834  32.246  1.00  0.00     0.029 A 
ATOM     43  N   UNL A   1      38.960  31.409  32.351  1.00  0.00    -0.354 N 
ATOM     44  C   UNL A   1      40.065  28.997  28.963  1.00  0.00     0.074 A 
ATOM     45  C   UNL A   1      39.215  29.270  27.822  1.00  0.00     0.031 C 
ATOM     46  C   UNL A   1      37.757  32.919  33.482  1.00  0.00     0.029 A 
ATOM     47  C   UNL A   1      38.866  31.978  33.599  1.00  0.00     0.049 A 
ATOM     48  H   UNL A   1      39.639  30.736  32.116  1.00  0.00     0.167 HD
ATOM     49  C   UNL A   1      41.093  28.116  28.960  1.00  0.00     0.037 A 
ATOM     50  C   UNL A   1      39.581  31.760  34.718  1.00  0.00     0.037 A 
ATOM     51  C   UNL A   1      41.942  27.849  30.092  1.00  0.00     0.049 A 
ATOM     52  C   UNL A   1      40.670  30.729  34.712  1.00  0.00     0.074 A 
ATOM     53  C   UNL A   1      43.040  27.010  30.166  1.00  0.00     0.029 A 
ATOM     54  N   UNL A   1      41.781  28.410  31.350  1.00  0.00    -0.354 N 
ATOM     55  N   UNL A   1      41.092  29.989  33.717  1.00  0.00    -0.248 NA
ATOM     56  C   UNL A   1      41.367  30.489  35.983  1.00  0.00     0.031 C 
ATOM     57  C   UNL A   1      43.522  27.035  31.479  1.00  0.00     0.029 A 
ATOM     58  C   UNL A   1      42.744  27.915  32.214  1.00  0.00     0.049 A 
ATOM     59  H   UNL A   1      41.087  29.063  31.592  1.00  0.00     0.167 HD
ATOM     60  C   UNL A   1      42.110  29.201  34.237  1.00  0.00     0.074 A 
ATOM     61  C   UNL A   1      42.248  29.559  35.634  1.00  0.00     0.031 C 
ATOM     62  C   UNL A   1      42.863  28.267  33.606  1.00  0.00     0.037 A 
BRANCH  49  63
ATOM     63  C   UNL A   1      41.359  27.378  27.684  1.00  0.00     0.057 A 
ATOM     64  C   UNL A   1      40.815  26.107  27.461  1.00  0.00     0.134 A 
ATOM     65  C   UNL A   1      42.180  27.915  26.684  1.00  0.00     0.134 A 
ATOM     66  F   UNL A   1      40.025  25.533  28.380  1.00  0.00    -0.206 F 
ATOM     67  C   UNL A   1      41.077  25.398  26.288  1.00  0.00     0.040 A 
ATOM     68  C   UNL A   1      42.433  27.226  25.498  1.00  0.00     0.040 A 
ATOM     69  F   UNL A   1      42.724  29.133  26.835  1.00  0.00    -0.206 F 
ATOM     70  C   UNL A   1      41.883  25.960  25.299  1.00  0.00     0.006 A 
ENDBRANCH  49  63
BRANCH  50  71
ATOM     71  C   UNL A   1      39.290  32.557  35.934  1.00  0.00     0.057 A 
ATOM     72  C   UNL A   1      38.374  32.122  36.898  1.00  0.00     0.134 A 
ATOM     73  C   UNL A   1      39.890  33.806  36.126  1.00  0.00     0.134 A 
ATOM     74  F   UNL A   1      37.762  30.937  36.765  1.00  0.00    -0.206 F 
ATOM     75  C   UNL A   1      38.047  32.913  38.002  1.00  0.00     0.040 A 
ATOM     76  C   UNL A   1      39.585  34.600  37.231  1.00  0.00     0.040 A 
ATOM     77  F   UNL A   1      40.786  34.266  35.241  1.00  0.00    -0.206 F 
ATOM     78  C   UNL A   1      38.653  34.157  38.170  1.00  0.00     0.006 A 
ENDBRANCH  50  71
BRANCH  62  79
ATOM     79  C   UNL A   1      43.904  27.558  34.415  1.00  0.00     0.057 A 
ATOM     80  C   UNL A   1      43.607  26.357  35.071  1.00  0.00     0.134 A 
ATOM     81  C   UNL A   1      45.176  28.110  34.612  1.00  0.00     0.134 A 
ATOM     82  F   UNL A   1      42.404  25.781  34.926  1.00  0.00    -0.206 F 
ATOM     83  C   UNL A   1      44.534  25.737  35.910  1.00  0.00     0.040 A 
ATOM     84  C   UNL A   1      46.116  27.491  35.435  1.00  0.00     0.040 A 
ATOM     85  F   UNL A   1      45.523  29.251  33.999  1.00  0.00    -0.206 F 
ATOM     86  C   UNL A   1      45.793  26.306  36.095  1.00  0.00     0.006 A 
ENDBRANCH  62  79
ENDBRANCH  36  37
ENDBRANCH  28  31
ENDBRANCH  26  27
ENDBRANCH  25  26
ENDBRANCH  24  25
ENDBRANCH   1  24
TORSDOF 15
ENDMDL
