MODEL 1
REMARK VINA RESULT:     -12.1      0.000      0.000
REMARK SMILES N#CCC[NH+]1CC[NH+]([C@@H](C(=O)NCCCCNC(=O)c2ccc(-c3c4nc(c(-c5c(F)cccc5F)c5ccc([nH]5)c(-c5c(F)cccc5F)c5nc(c(-c6c(F)cccc6F)c6ccc3[nH]6)C=C5)C=C4)cc2)c2c[nH]c3cc(Cl)ccc23)CC1
REMARK SMILES IDX 13 1 12 2 10 3 11 4 9 6 8 7 5 8 6 9 85 10 7 12 84 13 4 15
REMARK SMILES IDX 3 16 2 17 1 18 74 19 75 20 83 21 76 22 77 23 82 24 78 26
REMARK SMILES IDX 81 27 79 28 80 29 14 30 15 31 16 32 17 33 18 34 19 36 20 37
REMARK SMILES IDX 21 38 73 39 22 40 72 41 23 42 24 43 25 44 66 45 26 46 71 47
REMARK SMILES IDX 65 48 67 49 27 50 70 51 64 52 63 53 28 55 54 56 37 57 53 58
REMARK SMILES IDX 38 59 41 60 52 61 68 62 39 63 40 64 51 66 69 67 42 68 29 69
REMARK SMILES IDX 30 70 35 71 31 72 32 73 34 74 36 75 33 76 55 77 56 78 61 79
REMARK SMILES IDX 57 80 58 81 60 82 62 83 59 84 43 85 44 86 49 87 45 88 46 89
REMARK SMILES IDX 48 90 50 91 47 92
REMARK H PARENT 12 5 5 11 8 14 76 25 17 35 67 54 41 65
REMARK Flexibility Score: inf
ROOT
ATOM      1  C   UNL A   1      36.577  22.182  24.609  1.00  0.00     0.116 C 
ENDROOT
BRANCH   1   2
ATOM      2  N   UNL A   1      35.699  22.592  23.489  1.00  0.00    -0.351 N 
ATOM      3  C   UNL A   1      34.430  23.098  23.266  1.00  0.00     0.283 C 
ATOM      4  O   UNL A   1      34.305  23.551  22.116  1.00  0.00    -0.268 OA
ATOM      5  H   UNL A   1      36.165  22.463  22.632  1.00  0.00     0.163 HD
BRANCH   3   6
ATOM      6  C   UNL A   1      33.229  23.196  24.295  1.00  0.00     0.308 C 
BRANCH   6   7
ATOM      7  N   UNL A   1      33.354  24.148  25.486  1.00  0.00    -0.312 N 
ATOM      8  N   UNL A   1      31.996  26.665  24.593  1.00  0.00    -0.325 N 
ATOM      9  C   UNL A   1      33.244  26.119  24.065  1.00  0.00     0.324 C 
ATOM     10  C   UNL A   1      31.320  25.673  25.418  1.00  0.00     0.324 C 
ATOM     11  H   UNL A   1      31.449  26.892  23.762  1.00  0.00     0.348 HD
ATOM     12  C   UNL A   1      34.018  25.419  25.176  1.00  0.00     0.325 C 
ATOM     13  C   UNL A   1      32.126  24.565  26.154  1.00  0.00     0.325 C 
ATOM     14  H   UNL A   1      33.896  23.538  26.100  1.00  0.00     0.349 HD
BRANCH   8  15
ATOM     15  C   UNL A   1      32.104  27.904  25.317  1.00  0.00     0.278 C 
BRANCH  15  16
ATOM     16  C   UNL A   1      31.406  28.977  24.574  1.00  0.00     0.181 C 
BRANCH  16  17
ATOM     17  C   UNL A   1      30.789  28.549  23.252  1.00  0.00     0.068 C 
ATOM     18  N   UNL A   1      30.277  28.195  22.156  1.00  0.00    -0.198 NA
ENDBRANCH  16  17
ENDBRANCH  15  16
ENDBRANCH   8  15
ENDBRANCH   6   7
BRANCH   6  19
ATOM     19  C   UNL A   1      32.702  21.815  24.942  1.00  0.00     0.044 A 
ATOM     20  C   UNL A   1      32.829  21.582  26.311  1.00  0.00     0.094 A 
ATOM     21  C   UNL A   1      32.526  20.459  24.378  1.00  0.00     0.009 A 
ATOM     22  N   UNL A   1      33.274  20.291  26.468  1.00  0.00    -0.361 N 
ATOM     23  C   UNL A   1      33.174  19.602  25.284  1.00  0.00     0.047 A 
ATOM     24  C   UNL A   1      32.144  19.875  23.142  1.00  0.00     0.012 A 
ATOM     25  H   UNL A   1      33.615  19.914  27.310  1.00  0.00     0.166 HD
ATOM     26  C   UNL A   1      33.694  18.342  24.927  1.00  0.00     0.047 A 
ATOM     27  C   UNL A   1      32.544  18.560  22.812  1.00  0.00     0.021 A 
ATOM     28  C   UNL A   1      33.374  17.843  23.665  1.00  0.00     0.043 A 
ATOM     29  Cl  UNL A   1      34.044  16.336  23.159  1.00  0.00    -0.084 Cl
ENDBRANCH   6  19
ENDBRANCH   3   6
ENDBRANCH   1   2
BRANCH   1  30
ATOM     30  C   UNL A   1      36.583  20.687  25.128  1.00  0.00     0.023 C 
BRANCH  30  31
ATOM     31  C   UNL A   1      37.836  19.806  24.917  1.00  0.00     0.023 C 
BRANCH  31  32
ATOM     32  C   UNL A   1      39.047  20.151  25.756  1.00  0.00     0.116 C 
BRANCH  32  33
ATOM     33  N   UNL A   1      40.072  19.119  25.805  1.00  0.00    -0.352 N 
ATOM     34  C   UNL A   1      41.423  19.261  26.067  1.00  0.00     0.251 C 
ATOM     35  H   UNL A   1      39.762  18.201  25.630  1.00  0.00     0.163 HD
ATOM     36  O   UNL A   1      42.164  18.290  25.982  1.00  0.00    -0.269 OA
BRANCH  34  37
ATOM     37  C   UNL A   1      41.988  20.596  26.407  1.00  0.00     0.039 A 
ATOM     38  C   UNL A   1      42.303  21.492  25.379  1.00  0.00     0.014 A 
ATOM     39  C   UNL A   1      42.204  20.977  27.732  1.00  0.00     0.014 A 
ATOM     40  C   UNL A   1      42.775  22.772  25.689  1.00  0.00     0.010 A 
ATOM     41  C   UNL A   1      42.543  22.284  28.042  1.00  0.00     0.010 A 
ATOM     42  C   UNL A   1      42.869  23.187  27.026  1.00  0.00    -0.014 A 
BRANCH  42  43
ATOM     43  C   UNL A   1      43.366  24.530  27.407  1.00  0.00     0.031 A 
ATOM     44  C   UNL A   1      42.388  25.579  27.865  1.00  0.00     0.074 A 
ATOM     45  C   UNL A   1      44.669  24.830  27.254  1.00  0.00     0.049 A 
ATOM     46  N   UNL A   1      42.594  26.838  28.154  1.00  0.00    -0.248 NA
ATOM     47  C   UNL A   1      40.977  25.169  27.969  1.00  0.00     0.031 C 
ATOM     48  C   UNL A   1      45.695  23.918  26.745  1.00  0.00     0.029 A 
ATOM     49  N   UNL A   1      45.350  25.994  27.500  1.00  0.00    -0.354 N 
ATOM     50  C   UNL A   1      41.342  27.369  28.441  1.00  0.00     0.074 A 
ATOM     51  C   UNL A   1      40.375  26.319  28.225  1.00  0.00     0.031 C 
ATOM     52  C   UNL A   1      46.881  24.547  26.747  1.00  0.00     0.029 A 
ATOM     53  C   UNL A   1      46.694  25.913  27.222  1.00  0.00     0.049 A 
ATOM     54  H   UNL A   1      44.919  26.810  27.841  1.00  0.00     0.167 HD
ATOM     55  C   UNL A   1      41.030  28.612  28.879  1.00  0.00     0.037 A 
ATOM     56  C   UNL A   1      47.661  26.841  27.343  1.00  0.00     0.037 A 
ATOM     57  C   UNL A   1      42.008  29.634  29.133  1.00  0.00     0.049 A 
ATOM     58  C   UNL A   1      47.300  28.202  27.868  1.00  0.00     0.074 A 
ATOM     59  C   UNL A   1      41.818  30.901  29.654  1.00  0.00     0.029 A 
ATOM     60  N   UNL A   1      43.366  29.500  28.884  1.00  0.00    -0.354 N 
ATOM     61  N   UNL A   1      46.124  28.668  28.215  1.00  0.00    -0.248 NA
ATOM     62  C   UNL A   1      48.399  29.163  28.026  1.00  0.00     0.031 C 
ATOM     63  C   UNL A   1      43.059  31.548  29.684  1.00  0.00     0.029 A 
ATOM     64  C   UNL A   1      44.026  30.668  29.225  1.00  0.00     0.049 A 
ATOM     65  H   UNL A   1      43.797  28.693  28.520  1.00  0.00     0.167 HD
ATOM     66  C   UNL A   1      46.342  29.967  28.654  1.00  0.00     0.074 A 
ATOM     67  C   UNL A   1      47.767  30.207  28.544  1.00  0.00     0.031 C 
ATOM     68  C   UNL A   1      45.447  30.879  29.106  1.00  0.00     0.037 A 
BRANCH  55  69
ATOM     69  C   UNL A   1      39.579  28.916  29.115  1.00  0.00     0.057 A 
ATOM     70  C   UNL A   1      38.744  29.395  28.094  1.00  0.00     0.134 A 
ATOM     71  C   UNL A   1      39.003  28.730  30.379  1.00  0.00     0.134 A 
ATOM     72  F   UNL A   1      39.233  29.611  26.863  1.00  0.00    -0.206 F 
ATOM     73  C   UNL A   1      37.406  29.714  28.330  1.00  0.00     0.040 A 
ATOM     74  C   UNL A   1      37.657  29.017  30.619  1.00  0.00     0.040 A 
ATOM     75  F   UNL A   1      39.740  28.271  31.402  1.00  0.00    -0.206 F 
ATOM     76  C   UNL A   1      36.858  29.521  29.595  1.00  0.00     0.006 A 
ENDBRANCH  55  69
BRANCH  56  77
ATOM     77  C   UNL A   1      49.063  26.492  27.005  1.00  0.00     0.057 A 
ATOM     78  C   UNL A   1      49.916  25.928  27.962  1.00  0.00     0.134 A 
ATOM     79  C   UNL A   1      49.579  26.686  25.718  1.00  0.00     0.134 A 
ATOM     80  F   UNL A   1      49.484  25.729  29.215  1.00  0.00    -0.206 F 
ATOM     81  C   UNL A   1      51.233  25.579  27.654  1.00  0.00     0.040 A 
ATOM     82  C   UNL A   1      50.886  26.322  25.390  1.00  0.00     0.040 A 
ATOM     83  F   UNL A   1      48.809  27.213  24.754  1.00  0.00    -0.206 F 
ATOM     84  C   UNL A   1      51.718  25.770  26.362  1.00  0.00     0.006 A 
ENDBRANCH  56  77
BRANCH  68  85
ATOM     85  C   UNL A   1      45.989  32.209  29.538  1.00  0.00     0.057 A 
ATOM     86  C   UNL A   1      46.436  32.432  30.846  1.00  0.00     0.134 A 
ATOM     87  C   UNL A   1      46.103  33.263  28.623  1.00  0.00     0.134 A 
ATOM     88  F   UNL A   1      46.343  31.466  31.772  1.00  0.00    -0.206 F 
ATOM     89  C   UNL A   1      46.960  33.666  31.234  1.00  0.00     0.040 A 
ATOM     90  C   UNL A   1      46.649  34.491  28.991  1.00  0.00     0.040 A 
ATOM     91  F   UNL A   1      45.702  33.108  27.352  1.00  0.00    -0.206 F 
ATOM     92  C   UNL A   1      47.074  34.698  30.303  1.00  0.00     0.006 A 
ENDBRANCH  68  85
ENDBRANCH  42  43
ENDBRANCH  34  37
ENDBRANCH  32  33
ENDBRANCH  31  32
ENDBRANCH  30  31
ENDBRANCH   1  30
TORSDOF 16
ENDMDL
MODEL 2
REMARK VINA RESULT:     -12.1      1.450      6.130
REMARK SMILES N#CCC[NH+]1CC[NH+]([C@@H](C(=O)NCCCCNC(=O)c2ccc(-c3c4nc(c(-c5c(F)cccc5F)c5ccc([nH]5)c(-c5c(F)cccc5F)c5nc(c(-c6c(F)cccc6F)c6ccc3[nH]6)C=C5)C=C4)cc2)c2c[nH]c3cc(Cl)ccc23)CC1
REMARK SMILES IDX 13 1 12 2 10 3 11 4 9 6 8 7 5 8 6 9 85 10 7 12 84 13 4 15
REMARK SMILES IDX 3 16 2 17 1 18 74 19 75 20 83 21 76 22 77 23 82 24 78 26
REMARK SMILES IDX 81 27 79 28 80 29 14 30 15 31 16 32 17 33 18 34 19 36 20 37
REMARK SMILES IDX 21 38 73 39 22 40 72 41 23 42 24 43 25 44 66 45 26 46 71 47
REMARK SMILES IDX 65 48 67 49 27 50 70 51 64 52 63 53 28 55 54 56 37 57 53 58
REMARK SMILES IDX 38 59 41 60 52 61 68 62 39 63 40 64 51 66 69 67 42 68 29 69
REMARK SMILES IDX 30 70 35 71 31 72 32 73 34 74 36 75 33 76 55 77 56 78 61 79
REMARK SMILES IDX 57 80 58 81 60 82 62 83 59 84 43 85 44 86 49 87 45 88 46 89
REMARK SMILES IDX 48 90 50 91 47 92
REMARK H PARENT 12 5 5 11 8 14 76 25 17 35 67 54 41 65
REMARK Flexibility Score: inf
ROOT
ATOM      1  C   UNL A   1      36.531  21.950  24.775  1.00  0.00     0.116 C 
ENDROOT
BRANCH   1   2
ATOM      2  N   UNL A   1      35.753  22.520  23.650  1.00  0.00    -0.351 N 
ATOM      3  C   UNL A   1      34.544  23.148  23.407  1.00  0.00     0.283 C 
ATOM      4  O   UNL A   1      34.521  23.700  22.294  1.00  0.00    -0.268 OA
ATOM      5  H   UNL A   1      36.256  22.421  22.810  1.00  0.00     0.163 HD
BRANCH   3   6
ATOM      6  C   UNL A   1      33.298  23.267  24.379  1.00  0.00     0.308 C 
BRANCH   6   7
ATOM      7  N   UNL A   1      33.373  24.237  25.560  1.00  0.00    -0.312 N 
ATOM      8  N   UNL A   1      32.021  26.726  24.584  1.00  0.00    -0.325 N 
ATOM      9  C   UNL A   1      33.292  26.185  24.107  1.00  0.00     0.324 C 
ATOM     10  C   UNL A   1      31.327  25.739  25.400  1.00  0.00     0.324 C 
ATOM     11  H   UNL A   1      31.500  26.935  23.732  1.00  0.00     0.348 HD
ATOM     12  C   UNL A   1      34.034  25.509  25.253  1.00  0.00     0.325 C 
ATOM     13  C   UNL A   1      32.119  24.651  26.179  1.00  0.00     0.325 C 
ATOM     14  H   UNL A   1      33.900  23.642  26.200  1.00  0.00     0.349 HD
BRANCH   8  15
ATOM     15  C   UNL A   1      32.092  27.977  25.293  1.00  0.00     0.278 C 
BRANCH  15  16
ATOM     16  C   UNL A   1      31.187  28.961  24.657  1.00  0.00     0.181 C 
BRANCH  16  17
ATOM     17  C   UNL A   1      30.682  28.574  23.277  1.00  0.00     0.068 C 
ATOM     18  N   UNL A   1      30.263  28.254  22.131  1.00  0.00    -0.198 NA
ENDBRANCH  16  17
ENDBRANCH  15  16
ENDBRANCH   8  15
ENDBRANCH   6   7
BRANCH   6  19
ATOM     19  C   UNL A   1      32.738  21.897  25.023  1.00  0.00     0.044 A 
ATOM     20  C   UNL A   1      32.861  21.658  26.391  1.00  0.00     0.094 A 
ATOM     21  C   UNL A   1      32.526  20.547  24.456  1.00  0.00     0.009 A 
ATOM     22  N   UNL A   1      33.274  20.355  26.544  1.00  0.00    -0.361 N 
ATOM     23  C   UNL A   1      33.154  19.672  25.359  1.00  0.00     0.047 A 
ATOM     24  C   UNL A   1      32.127  19.977  23.219  1.00  0.00     0.012 A 
ATOM     25  H   UNL A   1      33.607  19.967  27.385  1.00  0.00     0.166 HD
ATOM     26  C   UNL A   1      33.641  18.400  24.996  1.00  0.00     0.047 A 
ATOM     27  C   UNL A   1      32.493  18.653  22.885  1.00  0.00     0.021 A 
ATOM     28  C   UNL A   1      33.307  17.913  23.734  1.00  0.00     0.043 A 
ATOM     29  Cl  UNL A   1      33.937  16.391  23.223  1.00  0.00    -0.084 Cl
ENDBRANCH   6  19
ENDBRANCH   3   6
ENDBRANCH   1   2
BRANCH   1  30
ATOM     30  C   UNL A   1      36.614  20.385  24.989  1.00  0.00     0.023 C 
BRANCH  30  31
ATOM     31  C   UNL A   1      37.967  19.657  24.814  1.00  0.00     0.023 C 
BRANCH  31  32
ATOM     32  C   UNL A   1      39.081  20.080  25.747  1.00  0.00     0.116 C 
BRANCH  32  33
ATOM     33  N   UNL A   1      40.240  19.200  25.754  1.00  0.00    -0.352 N 
ATOM     34  C   UNL A   1      41.543  19.497  26.111  1.00  0.00     0.251 C 
ATOM     35  H   UNL A   1      40.075  18.272  25.468  1.00  0.00     0.163 HD
ATOM     36  O   UNL A   1      42.419  18.653  25.974  1.00  0.00    -0.269 OA
BRANCH  34  37
ATOM     37  C   UNL A   1      41.894  20.853  26.618  1.00  0.00     0.039 A 
ATOM     38  C   UNL A   1      42.316  21.838  25.717  1.00  0.00     0.014 A 
ATOM     39  C   UNL A   1      41.804  21.166  27.975  1.00  0.00     0.014 A 
ATOM     40  C   UNL A   1      42.587  23.132  26.174  1.00  0.00     0.010 A 
ATOM     41  C   UNL A   1      41.944  22.475  28.407  1.00  0.00     0.010 A 
ATOM     42  C   UNL A   1      42.373  23.466  27.520  1.00  0.00    -0.014 A 
BRANCH  42  43
ATOM     43  C   UNL A   1      42.649  24.821  28.054  1.00  0.00     0.031 A 
ATOM     44  C   UNL A   1      44.046  25.175  28.490  1.00  0.00     0.074 A 
ATOM     45  C   UNL A   1      41.636  25.690  28.231  1.00  0.00     0.049 A 
ATOM     46  N   UNL A   1      44.486  26.263  29.069  1.00  0.00    -0.248 NA
ATOM     47  C   UNL A   1      45.083  24.148  28.291  1.00  0.00     0.031 C 
ATOM     48  C   UNL A   1      40.230  25.429  27.916  1.00  0.00     0.029 A 
ATOM     49  N   UNL A   1      41.634  26.966  28.731  1.00  0.00    -0.354 N 
ATOM     50  C   UNL A   1      45.832  26.035  29.326  1.00  0.00     0.074 A 
ATOM     51  C   UNL A   1      46.123  24.684  28.906  1.00  0.00     0.031 C 
ATOM     52  C   UNL A   1      39.507  26.523  28.202  1.00  0.00     0.029 A 
ATOM     53  C   UNL A   1      40.389  27.547  28.750  1.00  0.00     0.049 A 
ATOM     54  H   UNL A   1      42.447  27.423  29.048  1.00  0.00     0.167 HD
ATOM     55  C   UNL A   1      46.753  26.888  29.834  1.00  0.00     0.037 A 
ATOM     56  C   UNL A   1      40.009  28.770  29.162  1.00  0.00     0.037 A 
ATOM     57  C   UNL A   1      46.459  28.245  30.207  1.00  0.00     0.049 A 
ATOM     58  C   UNL A   1      41.053  29.716  29.688  1.00  0.00     0.074 A 
ATOM     59  C   UNL A   1      47.326  29.225  30.656  1.00  0.00     0.029 A 
ATOM     60  N   UNL A   1      45.194  28.813  30.168  1.00  0.00    -0.354 N 
ATOM     61  N   UNL A   1      42.340  29.518  29.849  1.00  0.00    -0.248 NA
ATOM     62  C   UNL A   1      40.595  31.055  30.079  1.00  0.00     0.031 C 
ATOM     63  C   UNL A   1      46.577  30.375  30.926  1.00  0.00     0.029 A 
ATOM     64  C   UNL A   1      45.252  30.126  30.602  1.00  0.00     0.049 A 
ATOM     65  H   UNL A   1      44.375  28.351  29.874  1.00  0.00     0.167 HD
ATOM     66  C   UNL A   1      42.850  30.712  30.340  1.00  0.00     0.074 A 
ATOM     67  C   UNL A   1      41.735  31.633  30.432  1.00  0.00     0.031 C 
ATOM     68  C   UNL A   1      44.125  31.021  30.683  1.00  0.00     0.037 A 
BRANCH  55  69
ATOM     69  C   UNL A   1      48.153  26.373  30.003  1.00  0.00     0.057 A 
ATOM     70  C   UNL A   1      49.113  26.482  28.985  1.00  0.00     0.134 A 
ATOM     71  C   UNL A   1      48.552  25.757  31.196  1.00  0.00     0.134 A 
ATOM     72  F   UNL A   1      48.794  27.046  27.810  1.00  0.00    -0.206 F 
ATOM     73  C   UNL A   1      50.400  25.964  29.133  1.00  0.00     0.040 A 
ATOM     74  C   UNL A   1      49.847  25.263  31.367  1.00  0.00     0.040 A 
ATOM     75  F   UNL A   1      47.688  25.621  32.215  1.00  0.00    -0.206 F 
ATOM     76  C   UNL A   1      50.772  25.356  30.330  1.00  0.00     0.006 A 
ENDBRANCH  55  69
BRANCH  56  77
ATOM     77  C   UNL A   1      38.587  29.179  29.047  1.00  0.00     0.057 A 
ATOM     78  C   UNL A   1      37.729  29.120  30.152  1.00  0.00     0.134 A 
ATOM     79  C   UNL A   1      38.056  29.660  27.844  1.00  0.00     0.134 A 
ATOM     80  F   UNL A   1      38.176  28.655  31.327  1.00  0.00    -0.206 F 
ATOM     81  C   UNL A   1      36.393  29.516  30.063  1.00  0.00     0.040 A 
ATOM     82  C   UNL A   1      36.728  30.081  27.746  1.00  0.00     0.040 A 
ATOM     83  F   UNL A   1      38.829  29.750  26.752  1.00  0.00    -0.206 F 
ATOM     84  C   UNL A   1      35.892  30.005  28.859  1.00  0.00     0.006 A 
ENDBRANCH  56  77
BRANCH  68  85
ATOM     85  C   UNL A   1      44.382  32.417  31.165  1.00  0.00     0.057 A 
ATOM     86  C   UNL A   1      44.673  33.461  30.278  1.00  0.00     0.134 A 
ATOM     87  C   UNL A   1      44.293  32.728  32.528  1.00  0.00     0.134 A 
ATOM     88  F   UNL A   1      44.783  33.226  28.962  1.00  0.00    -0.206 F 
ATOM     89  C   UNL A   1      44.889  34.762  30.734  1.00  0.00     0.040 A 
ATOM     90  C   UNL A   1      44.480  34.029  32.992  1.00  0.00     0.040 A 
ATOM     91  F   UNL A   1      44.006  31.774  33.427  1.00  0.00    -0.206 F 
ATOM     92  C   UNL A   1      44.785  35.050  32.094  1.00  0.00     0.006 A 
ENDBRANCH  68  85
ENDBRANCH  42  43
ENDBRANCH  34  37
ENDBRANCH  32  33
ENDBRANCH  31  32
ENDBRANCH  30  31
ENDBRANCH   1  30
TORSDOF 16
ENDMDL
MODEL 3
REMARK VINA RESULT:     -12.0      5.176     10.442
REMARK SMILES N#CCC[NH+]1CC[NH+]([C@@H](C(=O)NCCCCNC(=O)c2ccc(-c3c4nc(c(-c5c(F)cccc5F)c5ccc([nH]5)c(-c5c(F)cccc5F)c5nc(c(-c6c(F)cccc6F)c6ccc3[nH]6)C=C5)C=C4)cc2)c2c[nH]c3cc(Cl)ccc23)CC1
REMARK SMILES IDX 13 1 12 2 10 3 11 4 9 6 8 7 5 8 6 9 85 10 7 12 84 13 4 15
REMARK SMILES IDX 3 16 2 17 1 18 74 19 75 20 83 21 76 22 77 23 82 24 78 26
REMARK SMILES IDX 81 27 79 28 80 29 14 30 15 31 16 32 17 33 18 34 19 36 20 37
REMARK SMILES IDX 21 38 73 39 22 40 72 41 23 42 24 43 25 44 66 45 26 46 71 47
REMARK SMILES IDX 65 48 67 49 27 50 70 51 64 52 63 53 28 55 54 56 37 57 53 58
REMARK SMILES IDX 38 59 41 60 52 61 68 62 39 63 40 64 51 66 69 67 42 68 29 69
REMARK SMILES IDX 30 70 35 71 31 72 32 73 34 74 36 75 33 76 55 77 56 78 61 79
REMARK SMILES IDX 57 80 58 81 60 82 62 83 59 84 43 85 44 86 49 87 45 88 46 89
REMARK SMILES IDX 48 90 50 91 47 92
REMARK H PARENT 12 5 5 11 8 14 76 25 17 35 67 54 41 65
REMARK Flexibility Score: inf
ROOT
ATOM      1  C   UNL A   1      32.205  29.257  26.295  1.00  0.00     0.116 C 
ENDROOT
BRANCH   1   2
ATOM      2  N   UNL A   1      31.458  27.992  26.483  1.00  0.00    -0.351 N 
ATOM      3  C   UNL A   1      31.297  26.756  25.882  1.00  0.00     0.283 C 
ATOM      4  O   UNL A   1      30.759  25.934  26.643  1.00  0.00    -0.268 OA
ATOM      5  H   UNL A   1      30.899  28.049  27.290  1.00  0.00     0.163 HD
BRANCH   3   6
ATOM      6  C   UNL A   1      31.760  26.312  24.433  1.00  0.00     0.308 C 
BRANCH   6   7
ATOM      7  N   UNL A   1      33.245  26.045  24.182  1.00  0.00    -0.312 N 
ATOM      8  N   UNL A   1      33.562  23.092  24.578  1.00  0.00    -0.325 N 
ATOM      9  C   UNL A   1      33.246  24.076  25.610  1.00  0.00     0.324 C 
ATOM     10  C   UNL A   1      33.415  23.683  23.255  1.00  0.00     0.324 C 
ATOM     11  H   UNL A   1      32.886  22.343  24.728  1.00  0.00     0.348 HD
ATOM     12  C   UNL A   1      33.938  25.398  25.301  1.00  0.00     0.325 C 
ATOM     13  C   UNL A   1      33.602  25.212  23.040  1.00  0.00     0.325 C 
ATOM     14  H   UNL A   1      33.538  27.009  24.017  1.00  0.00     0.349 HD
BRANCH   8  15
ATOM     15  C   UNL A   1      34.850  22.457  24.683  1.00  0.00     0.278 C 
BRANCH  15  16
ATOM     16  C   UNL A   1      34.691  21.105  25.264  1.00  0.00     0.181 C 
BRANCH  16  17
ATOM     17  C   UNL A   1      33.304  20.500  25.120  1.00  0.00     0.068 C 
ATOM     18  N   UNL A   1      32.154  19.998  25.000  1.00  0.00    -0.198 NA
ENDBRANCH  16  17
ENDBRANCH  15  16
ENDBRANCH   8  15
ENDBRANCH   6   7
BRANCH   6  19
ATOM     19  C   UNL A   1      31.310  27.252  23.200  1.00  0.00     0.044 A 
ATOM     20  C   UNL A   1      32.265  27.935  22.448  1.00  0.00     0.094 A 
ATOM     21  C   UNL A   1      30.060  27.990  22.919  1.00  0.00     0.009 A 
ATOM     22  N   UNL A   1      31.797  29.213  22.253  1.00  0.00    -0.361 N 
ATOM     23  C   UNL A   1      30.472  29.297  22.606  1.00  0.00     0.047 A 
ATOM     24  C   UNL A   1      28.666  27.815  23.125  1.00  0.00     0.012 A 
ATOM     25  H   UNL A   1      32.334  29.961  21.908  1.00  0.00     0.166 HD
ATOM     26  C   UNL A   1      29.651  30.430  22.767  1.00  0.00     0.047 A 
ATOM     27  C   UNL A   1      27.798  28.930  23.162  1.00  0.00     0.021 A 
ATOM     28  C   UNL A   1      28.305  30.219  23.064  1.00  0.00     0.043 A 
ATOM     29  Cl  UNL A   1      27.278  31.578  23.336  1.00  0.00    -0.084 Cl
ENDBRANCH   6  19
ENDBRANCH   3   6
ENDBRANCH   1   2
BRANCH   1  30
ATOM     30  C   UNL A   1      31.467  30.569  25.809  1.00  0.00     0.023 C 
BRANCH  30  31
ATOM     31  C   UNL A   1      31.358  31.785  26.758  1.00  0.00     0.023 C 
BRANCH  31  32
ATOM     32  C   UNL A   1      32.591  32.655  26.876  1.00  0.00     0.116 C 
BRANCH  32  33
ATOM     33  N   UNL A   1      32.361  33.965  27.467  1.00  0.00    -0.352 N 
ATOM     34  C   UNL A   1      33.048  34.573  28.503  1.00  0.00     0.251 C 
ATOM     35  H   UNL A   1      31.621  34.485  27.079  1.00  0.00     0.163 HD
ATOM     36  O   UNL A   1      32.663  35.652  28.936  1.00  0.00    -0.269 OA
BRANCH  34  37
ATOM     37  C   UNL A   1      34.225  33.903  29.122  1.00  0.00     0.039 A 
ATOM     38  C   UNL A   1      35.512  34.376  28.842  1.00  0.00     0.014 A 
ATOM     39  C   UNL A   1      34.071  32.815  29.981  1.00  0.00     0.014 A 
ATOM     40  C   UNL A   1      36.621  33.794  29.466  1.00  0.00     0.010 A 
ATOM     41  C   UNL A   1      35.151  32.326  30.699  1.00  0.00     0.010 A 
ATOM     42  C   UNL A   1      36.443  32.783  30.424  1.00  0.00    -0.014 A 
BRANCH  42  43
ATOM     43  C   UNL A   1      37.584  32.132  31.111  1.00  0.00     0.031 A 
ATOM     44  C   UNL A   1      38.354  31.049  30.402  1.00  0.00     0.074 A 
ATOM     45  C   UNL A   1      37.864  32.446  32.389  1.00  0.00     0.049 A 
ATOM     46  N   UNL A   1      39.321  30.288  30.849  1.00  0.00    -0.248 NA
ATOM     47  C   UNL A   1      37.954  30.749  29.017  1.00  0.00     0.031 C 
ATOM     48  C   UNL A   1      37.136  33.424  33.200  1.00  0.00     0.029 A 
ATOM     49  N   UNL A   1      38.829  31.964  33.234  1.00  0.00    -0.354 N 
ATOM     50  C   UNL A   1      39.616  29.409  29.815  1.00  0.00     0.074 A 
ATOM     51  C   UNL A   1      38.685  29.680  28.745  1.00  0.00     0.031 C 
ATOM     52  C   UNL A   1      37.701  33.492  34.416  1.00  0.00     0.029 A 
ATOM     53  C   UNL A   1      38.806  32.541  34.481  1.00  0.00     0.049 A 
ATOM     54  H   UNL A   1      39.477  31.270  32.974  1.00  0.00     0.167 HD
ATOM     55  C   UNL A   1      40.600  28.480  29.749  1.00  0.00     0.037 A 
ATOM     56  C   UNL A   1      39.592  32.326  35.552  1.00  0.00     0.037 A 
ATOM     57  C   UNL A   1      41.548  28.251  30.804  1.00  0.00     0.049 A 
ATOM     58  C   UNL A   1      40.702  31.318  35.445  1.00  0.00     0.074 A 
ATOM     59  C   UNL A   1      42.635  27.395  30.818  1.00  0.00     0.029 A 
ATOM     60  N   UNL A   1      41.521  28.888  32.036  1.00  0.00    -0.354 N 
ATOM     61  N   UNL A   1      41.025  30.549  34.432  1.00  0.00    -0.248 NA
ATOM     62  C   UNL A   1      41.561  31.153  36.624  1.00  0.00     0.031 C 
ATOM     63  C   UNL A   1      43.243  27.487  32.075  1.00  0.00     0.029 A 
ATOM     64  C   UNL A   1      42.562  28.433  32.827  1.00  0.00     0.049 A 
ATOM     65  H   UNL A   1      40.860  29.565  32.308  1.00  0.00     0.167 HD
ATOM     66  C   UNL A   1      42.137  29.826  34.842  1.00  0.00     0.074 A 
ATOM     67  C   UNL A   1      42.442  30.262  36.190  1.00  0.00     0.031 C 
ATOM     68  C   UNL A   1      42.843  28.886  34.166  1.00  0.00     0.037 A 
BRANCH  55  69
ATOM     69  C   UNL A   1      40.692  27.661  28.494  1.00  0.00     0.057 A 
ATOM     70  C   UNL A   1      41.455  28.075  27.392  1.00  0.00     0.134 A 
ATOM     71  C   UNL A   1      40.012  26.442  28.381  1.00  0.00     0.134 A 
ATOM     72  F   UNL A   1      42.119  29.240  27.425  1.00  0.00    -0.206 F 
ATOM     73  C   UNL A   1      41.504  27.329  26.213  1.00  0.00     0.040 A 
ATOM     74  C   UNL A   1      40.079  25.672  27.218  1.00  0.00     0.040 A 
ATOM     75  F   UNL A   1      39.267  25.980  29.397  1.00  0.00    -0.206 F 
ATOM     76  C   UNL A   1      40.818  26.120  26.126  1.00  0.00     0.006 A 
ENDBRANCH  55  69
BRANCH  56  77
ATOM     77  C   UNL A   1      39.382  33.113  36.791  1.00  0.00     0.057 A 
ATOM     78  C   UNL A   1      40.070  34.314  37.008  1.00  0.00     0.134 A 
ATOM     79  C   UNL A   1      38.475  32.705  37.777  1.00  0.00     0.134 A 
ATOM     80  F   UNL A   1      40.962  34.750  36.107  1.00  0.00    -0.206 F 
ATOM     81  C   UNL A   1      39.871  35.074  38.161  1.00  0.00     0.040 A 
ATOM     82  C   UNL A   1      38.249  33.466  38.925  1.00  0.00     0.040 A 
ATOM     83  F   UNL A   1      37.778  31.569  37.624  1.00  0.00    -0.206 F 
ATOM     84  C   UNL A   1      38.953  34.653  39.121  1.00  0.00     0.006 A 
ENDBRANCH  56  77
BRANCH  68  85
ATOM     85  C   UNL A   1      44.026  28.288  34.866  1.00  0.00     0.057 A 
ATOM     86  C   UNL A   1      43.920  27.106  35.610  1.00  0.00     0.134 A 
ATOM     87  C   UNL A   1      45.291  28.878  34.760  1.00  0.00     0.134 A 
ATOM     88  F   UNL A   1      42.734  26.499  35.760  1.00  0.00    -0.206 F 
ATOM     89  C   UNL A   1      45.031  26.543  36.242  1.00  0.00     0.040 A 
ATOM     90  C   UNL A   1      46.412  28.311  35.363  1.00  0.00     0.040 A 
ATOM     91  F   UNL A   1      45.459  30.005  34.052  1.00  0.00    -0.206 F 
ATOM     92  C   UNL A   1      46.283  27.143  36.112  1.00  0.00     0.006 A 
ENDBRANCH  68  85
ENDBRANCH  42  43
ENDBRANCH  34  37
ENDBRANCH  32  33
ENDBRANCH  31  32
ENDBRANCH  30  31
ENDBRANCH   1  30
TORSDOF 16
ENDMDL
