MODEL 1
REMARK VINA RESULT:     -11.0      0.000      0.000
REMARK SMILES CC(C)c1ncc(SC[C@H](O)CO)c(C(=O)NCCCCNC(=O)c2ccc(-c3c4nc(c(-c5c(F)cccc5F)c5ccc([nH]5)c(-c5c(F)cccc5F)c5nc(c(-c6c(F)cccc6F)c6ccc3[nH]6)C=C5)C=C4)cc2)n1
REMARK SMILES IDX 18 1 17 2 15 3 16 4 14 6 4 7 5 8 79 9 6 10 7 11 2 12 1 13
REMARK SMILES IDX 3 14 8 15 9 16 10 17 12 18 13 19 11 21 19 23 20 24 21 25
REMARK SMILES IDX 22 26 23 27 24 29 25 30 26 31 78 32 27 33 77 34 28 35 29 36
REMARK SMILES IDX 30 37 71 38 31 39 76 40 70 41 72 42 32 43 75 44 69 45 68 46
REMARK SMILES IDX 33 48 59 49 42 50 58 51 43 52 46 53 57 54 73 55 44 56 45 57
REMARK SMILES IDX 56 59 74 60 47 61 34 62 35 63 40 64 36 65 37 66 39 67 41 68
REMARK SMILES IDX 38 69 60 70 61 71 66 72 62 73 63 74 65 75 67 76 64 77 48 78
REMARK SMILES IDX 49 79 54 80 50 81 51 82 53 83 55 84 52 85
REMARK H PARENT 17 5 13 20 11 22 22 28 72 47 46 58
REMARK Flexibility Score: inf
ROOT
ATOM      1  C   UNL A   1      37.020  22.661  25.619  1.00  0.00     0.116 C 
ENDROOT
BRANCH   1   2
ATOM      2  N   UNL A   1      36.097  22.074  26.555  1.00  0.00    -0.351 N 
ATOM      3  C   UNL A   1      34.794  21.657  26.467  1.00  0.00     0.271 C 
ATOM      4  O   UNL A   1      34.278  21.364  27.553  1.00  0.00    -0.267 OA
ATOM      5  H   UNL A   1      36.485  21.944  27.451  1.00  0.00     0.163 HD
BRANCH   3   6
ATOM      6  C   UNL A   1      33.987  21.422  25.208  1.00  0.00     0.145 A 
ATOM      7  C   UNL A   1      32.969  19.619  24.119  1.00  0.00     0.131 A 
ATOM      8  N   UNL A   1      32.271  20.429  23.317  1.00  0.00    -0.240 NA
ATOM      9  N   UNL A   1      33.836  20.073  25.031  1.00  0.00    -0.226 NA
ATOM     10  C   UNL A   1      32.461  21.751  23.484  1.00  0.00     0.130 A 
ATOM     11  C   UNL A   1      33.320  22.340  24.404  1.00  0.00     0.057 A 
BRANCH   7  12
ATOM     12  C   UNL A   1      32.610  18.145  24.127  1.00  0.00     0.051 C 
ATOM     13  C   UNL A   1      33.275  17.395  22.971  1.00  0.00     0.016 C 
ATOM     14  C   UNL A   1      32.945  17.455  25.452  1.00  0.00     0.016 C 
ENDBRANCH   7  12
BRANCH  11  15
ATOM     15  S   UNL A   1      33.162  24.089  24.526  1.00  0.00    -0.119 SA
BRANCH  15  16
ATOM     16  C   UNL A   1      32.271  24.453  26.109  1.00  0.00     0.109 C 
BRANCH  16  17
ATOM     17  C   UNL A   1      31.183  23.640  26.833  1.00  0.00     0.150 C 
BRANCH  17  18
ATOM     18  C   UNL A   1      30.172  22.830  26.028  1.00  0.00     0.188 C 
BRANCH  18  19
ATOM     19  O   UNL A   1      29.321  22.127  26.942  1.00  0.00    -0.394 OA
ATOM     20  H   UNL A   1      28.501  21.874  26.491  1.00  0.00     0.210 HD
ENDBRANCH  18  19
ENDBRANCH  17  18
BRANCH  17  21
ATOM     21  O   UNL A   1      31.795  22.770  27.795  1.00  0.00    -0.390 OA
ATOM     22  H   UNL A   1      31.368  21.899  27.762  1.00  0.00     0.211 HD
ENDBRANCH  17  21
ENDBRANCH  16  17
ENDBRANCH  15  16
ENDBRANCH  11  15
ENDBRANCH   3   6
ENDBRANCH   1   2
BRANCH   1  23
ATOM     23  C   UNL A   1      37.357  21.637  24.530  1.00  0.00     0.023 C 
BRANCH  23  24
ATOM     24  C   UNL A   1      37.996  20.347  25.029  1.00  0.00     0.023 C 
BRANCH  24  25
ATOM     25  C   UNL A   1      39.284  20.540  25.816  1.00  0.00     0.116 C 
BRANCH  25  26
ATOM     26  N   UNL A   1      40.143  19.361  25.845  1.00  0.00    -0.352 N 
ATOM     27  C   UNL A   1      41.487  19.281  26.130  1.00  0.00     0.251 C 
ATOM     28  H   UNL A   1      39.701  18.508  25.630  1.00  0.00     0.163 HD
ATOM     29  O   UNL A   1      42.081  18.220  26.048  1.00  0.00    -0.269 OA
BRANCH  27  30
ATOM     30  C   UNL A   1      42.204  20.520  26.489  1.00  0.00     0.039 A 
ATOM     31  C   UNL A   1      42.750  21.301  25.468  1.00  0.00     0.014 A 
ATOM     32  C   UNL A   1      42.254  20.945  27.818  1.00  0.00     0.014 A 
ATOM     33  C   UNL A   1      43.270  22.557  25.773  1.00  0.00     0.010 A 
ATOM     34  C   UNL A   1      42.694  22.229  28.107  1.00  0.00     0.010 A 
ATOM     35  C   UNL A   1      43.202  23.048  27.087  1.00  0.00    -0.014 A 
BRANCH  35  36
ATOM     36  C   UNL A   1      43.654  24.419  27.425  1.00  0.00     0.031 A 
ATOM     37  C   UNL A   1      42.651  25.449  27.859  1.00  0.00     0.074 A 
ATOM     38  C   UNL A   1      44.948  24.756  27.255  1.00  0.00     0.049 A 
ATOM     39  N   UNL A   1      42.824  26.723  28.096  1.00  0.00    -0.248 NA
ATOM     40  C   UNL A   1      41.259  24.993  28.009  1.00  0.00     0.031 C 
ATOM     41  C   UNL A   1      46.005  23.861  26.778  1.00  0.00     0.029 A 
ATOM     42  N   UNL A   1      45.591  25.952  27.451  1.00  0.00    -0.354 N 
ATOM     43  C   UNL A   1      41.565  27.223  28.397  1.00  0.00     0.074 A 
ATOM     44  C   UNL A   1      40.628  26.130  28.262  1.00  0.00     0.031 C 
ATOM     45  C   UNL A   1      47.167  24.532  26.743  1.00  0.00     0.029 A 
ATOM     46  C   UNL A   1      46.933  25.911  27.160  1.00  0.00     0.049 A 
ATOM     47  H   UNL A   1      45.133  26.763  27.770  1.00  0.00     0.167 HD
ATOM     48  C   UNL A   1      41.222  28.477  28.776  1.00  0.00     0.037 A 
ATOM     49  C   UNL A   1      47.866  26.879  27.222  1.00  0.00     0.037 A 
ATOM     50  C   UNL A   1      42.162  29.549  28.953  1.00  0.00     0.049 A 
ATOM     51  C   UNL A   1      47.466  28.254  27.679  1.00  0.00     0.074 A 
ATOM     52  C   UNL A   1      41.928  30.836  29.404  1.00  0.00     0.029 A 
ATOM     53  N   UNL A   1      43.521  29.455  28.695  1.00  0.00    -0.354 N 
ATOM     54  N   UNL A   1      46.281  28.696  28.026  1.00  0.00    -0.248 NA
ATOM     55  C   UNL A   1      48.532  29.261  27.762  1.00  0.00     0.031 C 
ATOM     56  C   UNL A   1      43.142  31.531  29.392  1.00  0.00     0.029 A 
ATOM     57  C   UNL A   1      44.137  30.665  28.967  1.00  0.00     0.049 A 
ATOM     58  H   UNL A   1      43.980  28.649  28.366  1.00  0.00     0.167 HD
ATOM     59  C   UNL A   1      46.464  30.023  28.393  1.00  0.00     0.074 A 
ATOM     60  C   UNL A   1      47.875  30.310  28.238  1.00  0.00     0.031 C 
ATOM     61  C   UNL A   1      45.546  30.924  28.820  1.00  0.00     0.037 A 
BRANCH  48  62
ATOM     62  C   UNL A   1      39.770  28.744  29.040  1.00  0.00     0.057 A 
ATOM     63  C   UNL A   1      39.200  28.529  30.301  1.00  0.00     0.134 A 
ATOM     64  C   UNL A   1      38.940  29.243  28.029  1.00  0.00     0.134 A 
ATOM     65  F   UNL A   1      39.939  28.036  31.307  1.00  0.00    -0.206 F 
ATOM     66  C   UNL A   1      37.848  28.778  30.542  1.00  0.00     0.040 A 
ATOM     67  C   UNL A   1      37.592  29.519  28.266  1.00  0.00     0.040 A 
ATOM     68  F   UNL A   1      39.423  29.473  26.800  1.00  0.00    -0.206 F 
ATOM     69  C   UNL A   1      37.041  29.280  29.524  1.00  0.00     0.006 A 
ENDBRANCH  48  62
BRANCH  49  70
ATOM     70  C   UNL A   1      49.277  26.578  26.875  1.00  0.00     0.057 A 
ATOM     71  C   UNL A   1      49.764  26.808  25.584  1.00  0.00     0.134 A 
ATOM     72  C   UNL A   1      50.166  26.045  27.815  1.00  0.00     0.134 A 
ATOM     73  F   UNL A   1      48.953  27.302  24.636  1.00  0.00    -0.206 F 
ATOM     74  C   UNL A   1      51.078  26.501  25.232  1.00  0.00     0.040 A 
ATOM     75  C   UNL A   1      51.490  25.754  27.484  1.00  0.00     0.040 A 
ATOM     76  F   UNL A   1      49.762  25.808  29.072  1.00  0.00    -0.206 F 
ATOM     77  C   UNL A   1      51.948  25.974  26.186  1.00  0.00     0.006 A 
ENDBRANCH  49  70
BRANCH  61  78
ATOM     78  C   UNL A   1      46.045  32.288  29.186  1.00  0.00     0.057 A 
ATOM     79  C   UNL A   1      46.492  32.588  30.477  1.00  0.00     0.134 A 
ATOM     80  C   UNL A   1      46.122  33.299  28.219  1.00  0.00     0.134 A 
ATOM     81  F   UNL A   1      46.431  31.665  31.449  1.00  0.00    -0.206 F 
ATOM     82  C   UNL A   1      46.982  33.854  30.801  1.00  0.00     0.040 A 
ATOM     83  C   UNL A   1      46.632  34.561  28.525  1.00  0.00     0.040 A 
ATOM     84  F   UNL A   1      45.717  33.071  26.960  1.00  0.00    -0.206 F 
ATOM     85  C   UNL A   1      47.059  34.842  29.822  1.00  0.00     0.006 A 
ENDBRANCH  61  78
ENDBRANCH  35  36
ENDBRANCH  27  30
ENDBRANCH  25  26
ENDBRANCH  24  25
ENDBRANCH  23  24
ENDBRANCH   1  23
TORSDOF 18
ENDMDL
MODEL 2
REMARK VINA RESULT:     -10.7      2.082      6.965
REMARK SMILES CC(C)c1ncc(SC[C@H](O)CO)c(C(=O)NCCCCNC(=O)c2ccc(-c3c4nc(c(-c5c(F)cccc5F)c5ccc([nH]5)c(-c5c(F)cccc5F)c5nc(c(-c6c(F)cccc6F)c6ccc3[nH]6)C=C5)C=C4)cc2)n1
REMARK SMILES IDX 18 1 17 2 15 3 16 4 14 6 4 7 5 8 79 9 6 10 7 11 2 12 1 13
REMARK SMILES IDX 3 14 8 15 9 16 10 17 12 18 13 19 11 21 19 23 20 24 21 25
REMARK SMILES IDX 22 26 23 27 24 29 25 30 26 31 78 32 27 33 77 34 28 35 29 36
REMARK SMILES IDX 30 37 71 38 31 39 76 40 70 41 72 42 32 43 75 44 69 45 68 46
REMARK SMILES IDX 33 48 59 49 42 50 58 51 43 52 46 53 57 54 73 55 44 56 45 57
REMARK SMILES IDX 56 59 74 60 47 61 34 62 35 63 40 64 36 65 37 66 39 67 41 68
REMARK SMILES IDX 38 69 60 70 61 71 66 72 62 73 63 74 65 75 67 76 64 77 48 78
REMARK SMILES IDX 49 79 54 80 50 81 51 82 53 83 55 84 52 85
REMARK H PARENT 17 5 13 20 11 22 22 28 72 47 46 58
REMARK Flexibility Score: inf
ROOT
ATOM      1  C   UNL A   1      36.756  22.574  25.647  1.00  0.00     0.116 C 
ENDROOT
BRANCH   1   2
ATOM      2  N   UNL A   1      35.666  22.178  26.501  1.00  0.00    -0.351 N 
ATOM      3  C   UNL A   1      34.384  22.632  26.673  1.00  0.00     0.271 C 
ATOM      4  O   UNL A   1      33.796  22.140  27.645  1.00  0.00    -0.267 OA
ATOM      5  H   UNL A   1      35.891  21.419  27.088  1.00  0.00     0.163 HD
BRANCH   3   6
ATOM      6  C   UNL A   1      33.605  23.557  25.762  1.00  0.00     0.145 A 
ATOM      7  C   UNL A   1      33.386  25.860  25.416  1.00  0.00     0.131 A 
ATOM      8  N   UNL A   1      32.760  25.678  24.250  1.00  0.00    -0.240 NA
ATOM      9  N   UNL A   1      33.784  24.845  26.191  1.00  0.00    -0.226 NA
ATOM     10  C   UNL A   1      32.563  24.404  23.864  1.00  0.00     0.130 A 
ATOM     11  C   UNL A   1      32.943  23.271  24.573  1.00  0.00     0.057 A 
BRANCH   7  12
ATOM     12  C   UNL A   1      33.837  27.265  25.769  1.00  0.00     0.051 C 
ATOM     13  C   UNL A   1      33.828  28.185  24.546  1.00  0.00     0.016 C 
ATOM     14  C   UNL A   1      33.011  27.893  26.894  1.00  0.00     0.016 C 
ENDBRANCH   7  12
BRANCH  11  15
ATOM     15  S   UNL A   1      32.749  21.762  23.687  1.00  0.00    -0.119 SA
BRANCH  15  16
ATOM     16  C   UNL A   1      32.196  20.477  24.902  1.00  0.00     0.109 C 
BRANCH  16  17
ATOM     17  C   UNL A   1      32.926  19.217  25.399  1.00  0.00     0.150 C 
BRANCH  17  18
ATOM     18  C   UNL A   1      32.539  17.846  24.854  1.00  0.00     0.188 C 
BRANCH  18  19
ATOM     19  O   UNL A   1      32.251  17.976  23.457  1.00  0.00    -0.394 OA
ATOM     20  H   UNL A   1      32.638  17.229  22.976  1.00  0.00     0.210 HD
ENDBRANCH  18  19
ENDBRANCH  17  18
BRANCH  17  21
ATOM     21  O   UNL A   1      34.341  19.386  25.233  1.00  0.00    -0.390 OA
ATOM     22  H   UNL A   1      34.524  19.726  24.343  1.00  0.00     0.211 HD
ENDBRANCH  17  21
ENDBRANCH  16  17
ENDBRANCH  15  16
ENDBRANCH  11  15
ENDBRANCH   3   6
ENDBRANCH   1   2
BRANCH   1  23
ATOM     23  C   UNL A   1      36.942  21.527  24.544  1.00  0.00     0.023 C 
BRANCH  23  24
ATOM     24  C   UNL A   1      37.745  20.297  24.948  1.00  0.00     0.023 C 
BRANCH  24  25
ATOM     25  C   UNL A   1      38.997  20.595  25.760  1.00  0.00     0.116 C 
BRANCH  25  26
ATOM     26  N   UNL A   1      39.987  19.525  25.736  1.00  0.00    -0.352 N 
ATOM     27  C   UNL A   1      41.315  19.571  26.098  1.00  0.00     0.251 C 
ATOM     28  H   UNL A   1      39.663  18.651  25.416  1.00  0.00     0.163 HD
ATOM     29  O   UNL A   1      42.034  18.597  25.958  1.00  0.00    -0.269 OA
BRANCH  27  30
ATOM     30  C   UNL A   1      41.858  20.842  26.613  1.00  0.00     0.039 A 
ATOM     31  C   UNL A   1      42.322  21.794  25.703  1.00  0.00     0.014 A 
ATOM     32  C   UNL A   1      41.823  21.120  27.981  1.00  0.00     0.014 A 
ATOM     33  C   UNL A   1      42.670  23.064  26.160  1.00  0.00     0.010 A 
ATOM     34  C   UNL A   1      42.088  22.408  28.422  1.00  0.00     0.010 A 
ATOM     35  C   UNL A   1      42.509  23.393  27.516  1.00  0.00    -0.014 A 
BRANCH  35  36
ATOM     36  C   UNL A   1      42.775  24.763  28.015  1.00  0.00     0.031 A 
ATOM     37  C   UNL A   1      44.165  25.148  28.433  1.00  0.00     0.074 A 
ATOM     38  C   UNL A   1      41.751  25.626  28.174  1.00  0.00     0.049 A 
ATOM     39  N   UNL A   1      44.585  26.253  28.991  1.00  0.00    -0.248 NA
ATOM     40  C   UNL A   1      45.218  24.139  28.231  1.00  0.00     0.031 C 
ATOM     41  C   UNL A   1      40.348  25.347  27.864  1.00  0.00     0.029 A 
ATOM     42  N   UNL A   1      41.735  26.911  28.652  1.00  0.00    -0.354 N 
ATOM     43  C   UNL A   1      45.939  26.063  29.229  1.00  0.00     0.074 A 
ATOM     44  C   UNL A   1      46.262  24.719  28.805  1.00  0.00     0.031 C 
ATOM     45  C   UNL A   1      39.612  26.437  28.136  1.00  0.00     0.029 A 
ATOM     46  C   UNL A   1      40.484  27.477  28.672  1.00  0.00     0.049 A 
ATOM     47  H   UNL A   1      42.545  27.384  28.954  1.00  0.00     0.167 HD
ATOM     48  C   UNL A   1      46.839  26.939  29.734  1.00  0.00     0.037 A 
ATOM     49  C   UNL A   1      40.087  28.697  29.079  1.00  0.00     0.037 A 
ATOM     50  C   UNL A   1      46.523  28.289  30.112  1.00  0.00     0.049 A 
ATOM     51  C   UNL A   1      41.112  29.663  29.603  1.00  0.00     0.074 A 
ATOM     52  C   UNL A   1      47.376  29.279  30.566  1.00  0.00     0.029 A 
ATOM     53  N   UNL A   1      45.252  28.841  30.071  1.00  0.00    -0.354 N 
ATOM     54  N   UNL A   1      42.403  29.493  29.761  1.00  0.00    -0.248 NA
ATOM     55  C   UNL A   1      40.628  30.993  29.999  1.00  0.00     0.031 C 
ATOM     56  C   UNL A   1      46.616  30.424  30.827  1.00  0.00     0.029 A 
ATOM     57  C   UNL A   1      45.295  30.156  30.502  1.00  0.00     0.049 A 
ATOM     58  H   UNL A   1      44.439  28.369  29.781  1.00  0.00     0.167 HD
ATOM     59  C   UNL A   1      42.888  30.700  30.246  1.00  0.00     0.074 A 
ATOM     60  C   UNL A   1      41.756  31.597  30.348  1.00  0.00     0.031 C 
ATOM     61  C   UNL A   1      44.158  31.035  30.581  1.00  0.00     0.037 A 
BRANCH  48  62
ATOM     62  C   UNL A   1      48.252  26.462  29.888  1.00  0.00     0.057 A 
ATOM     63  C   UNL A   1      49.204  26.644  28.875  1.00  0.00     0.134 A 
ATOM     64  C   UNL A   1      48.672  25.837  31.067  1.00  0.00     0.134 A 
ATOM     65  F   UNL A   1      48.860  27.221  27.714  1.00  0.00    -0.206 F 
ATOM     66  C   UNL A   1      50.518  26.197  29.022  1.00  0.00     0.040 A 
ATOM     67  C   UNL A   1      49.990  25.410  31.235  1.00  0.00     0.040 A 
ATOM     68  F   UNL A   1      47.812  25.635  32.076  1.00  0.00    -0.206 F 
ATOM     69  C   UNL A   1      50.916  25.583  30.207  1.00  0.00     0.006 A 
ENDBRANCH  48  62
BRANCH  49  70
ATOM     70  C   UNL A   1      38.660  29.090  28.976  1.00  0.00     0.057 A 
ATOM     71  C   UNL A   1      37.809  29.003  30.083  1.00  0.00     0.134 A 
ATOM     72  C   UNL A   1      38.110  29.550  27.773  1.00  0.00     0.134 A 
ATOM     73  F   UNL A   1      38.276  28.553  31.258  1.00  0.00    -0.206 F 
ATOM     74  C   UNL A   1      36.458  29.337  29.996  1.00  0.00     0.040 A 
ATOM     75  C   UNL A   1      36.765  29.910  27.677  1.00  0.00     0.040 A 
ATOM     76  F   UNL A   1      38.875  29.664  26.678  1.00  0.00    -0.206 F 
ATOM     77  C   UNL A   1      35.932  29.796  28.789  1.00  0.00     0.006 A 
ENDBRANCH  49  70
BRANCH  61  78
ATOM     78  C   UNL A   1      44.394  32.439  31.047  1.00  0.00     0.057 A 
ATOM     79  C   UNL A   1      44.353  32.782  32.404  1.00  0.00     0.134 A 
ATOM     80  C   UNL A   1      44.712  33.449  30.130  1.00  0.00     0.134 A 
ATOM     81  F   UNL A   1      44.043  31.861  33.328  1.00  0.00    -0.206 F 
ATOM     82  C   UNL A   1      44.602  34.086  32.832  1.00  0.00     0.040 A 
ATOM     83  C   UNL A   1      44.986  34.752  30.547  1.00  0.00     0.040 A 
ATOM     84  F   UNL A   1      44.775  33.182  28.816  1.00  0.00    -0.206 F 
ATOM     85  C   UNL A   1      44.927  35.074  31.903  1.00  0.00     0.006 A 
ENDBRANCH  61  78
ENDBRANCH  35  36
ENDBRANCH  27  30
ENDBRANCH  25  26
ENDBRANCH  24  25
ENDBRANCH  23  24
ENDBRANCH   1  23
TORSDOF 18
ENDMDL
MODEL 3
REMARK VINA RESULT:     -10.7      1.571      6.926
REMARK SMILES CC(C)c1ncc(SC[C@H](O)CO)c(C(=O)NCCCCNC(=O)c2ccc(-c3c4nc(c(-c5c(F)cccc5F)c5ccc([nH]5)c(-c5c(F)cccc5F)c5nc(c(-c6c(F)cccc6F)c6ccc3[nH]6)C=C5)C=C4)cc2)n1
REMARK SMILES IDX 18 1 17 2 15 3 16 4 14 6 4 7 5 8 79 9 6 10 7 11 2 12 1 13
REMARK SMILES IDX 3 14 8 15 9 16 10 17 12 18 13 19 11 21 19 23 20 24 21 25
REMARK SMILES IDX 22 26 23 27 24 29 25 30 26 31 78 32 27 33 77 34 28 35 29 36
REMARK SMILES IDX 30 37 71 38 31 39 76 40 70 41 72 42 32 43 75 44 69 45 68 46
REMARK SMILES IDX 33 48 59 49 42 50 58 51 43 52 46 53 57 54 73 55 44 56 45 57
REMARK SMILES IDX 56 59 74 60 47 61 34 62 35 63 40 64 36 65 37 66 39 67 41 68
REMARK SMILES IDX 38 69 60 70 61 71 66 72 62 73 63 74 65 75 67 76 64 77 48 78
REMARK SMILES IDX 49 79 54 80 50 81 51 82 53 83 55 84 52 85
REMARK H PARENT 17 5 13 20 11 22 22 28 72 47 46 58
REMARK Flexibility Score: inf
ROOT
ATOM      1  C   UNL A   1      37.101  22.422  25.481  1.00  0.00     0.116 C 
ENDROOT
BRANCH   1   2
ATOM      2  N   UNL A   1      36.121  22.265  26.524  1.00  0.00    -0.351 N 
ATOM      3  C   UNL A   1      34.752  22.332  26.557  1.00  0.00     0.271 C 
ATOM      4  O   UNL A   1      34.269  22.314  27.696  1.00  0.00    -0.267 OA
ATOM      5  H   UNL A   1      36.520  22.066  27.403  1.00  0.00     0.163 HD
BRANCH   3   6
ATOM      6  C   UNL A   1      33.802  22.314  25.379  1.00  0.00     0.145 A 
ATOM      7  C   UNL A   1      33.322  23.660  23.526  1.00  0.00     0.131 A 
ATOM      8  N   UNL A   1      32.610  22.692  22.941  1.00  0.00    -0.240 NA
ATOM      9  N   UNL A   1      33.891  23.515  24.728  1.00  0.00    -0.226 NA
ATOM     10  C   UNL A   1      32.505  21.530  23.615  1.00  0.00     0.130 A 
ATOM     11  C   UNL A   1      33.062  21.258  24.858  1.00  0.00     0.057 A 
BRANCH   7  12
ATOM     12  C   UNL A   1      33.661  24.888  22.703  1.00  0.00     0.051 C 
ATOM     13  C   UNL A   1      32.736  25.028  21.491  1.00  0.00     0.016 C 
ATOM     14  C   UNL A   1      33.640  26.181  23.521  1.00  0.00     0.016 C 
ENDBRANCH   7  12
BRANCH  11  15
ATOM     15  S   UNL A   1      32.937  19.574  25.355  1.00  0.00    -0.119 SA
BRANCH  15  16
ATOM     16  C   UNL A   1      33.807  18.556  24.075  1.00  0.00     0.109 C 
BRANCH  16  17
ATOM     17  C   UNL A   1      34.197  17.068  24.102  1.00  0.00     0.150 C 
BRANCH  17  18
ATOM     18  C   UNL A   1      33.554  16.128  25.116  1.00  0.00     0.188 C 
BRANCH  18  19
ATOM     19  O   UNL A   1      34.460  15.047  25.372  1.00  0.00    -0.394 OA
ATOM     20  H   UNL A   1      34.079  14.458  26.042  1.00  0.00     0.210 HD
ENDBRANCH  18  19
ENDBRANCH  17  18
BRANCH  17  21
ATOM     21  O   UNL A   1      34.027  16.504  22.793  1.00  0.00    -0.390 OA
ATOM     22  H   UNL A   1      33.172  16.781  22.430  1.00  0.00     0.211 HD
ENDBRANCH  17  21
ENDBRANCH  16  17
ENDBRANCH  15  16
ENDBRANCH  11  15
ENDBRANCH   3   6
ENDBRANCH   1   2
BRANCH   1  23
ATOM     23  C   UNL A   1      37.039  21.214  24.541  1.00  0.00     0.023 C 
BRANCH  23  24
ATOM     24  C   UNL A   1      37.822  19.992  25.004  1.00  0.00     0.023 C 
BRANCH  24  25
ATOM     25  C   UNL A   1      39.104  20.309  25.760  1.00  0.00     0.116 C 
BRANCH  25  26
ATOM     26  N   UNL A   1      40.044  19.196  25.826  1.00  0.00    -0.352 N 
ATOM     27  C   UNL A   1      41.391  19.221  26.110  1.00  0.00     0.251 C 
ATOM     28  H   UNL A   1      39.664  18.307  25.642  1.00  0.00     0.163 HD
ATOM     29  O   UNL A   1      42.058  18.202  26.062  1.00  0.00    -0.269 OA
BRANCH  27  30
ATOM     30  C   UNL A   1      42.018  20.519  26.424  1.00  0.00     0.039 A 
ATOM     31  C   UNL A   1      42.372  21.367  25.373  1.00  0.00     0.014 A 
ATOM     32  C   UNL A   1      42.170  20.925  27.751  1.00  0.00     0.014 A 
ATOM     33  C   UNL A   1      42.798  22.664  25.656  1.00  0.00     0.010 A 
ATOM     34  C   UNL A   1      42.511  22.242  28.027  1.00  0.00     0.010 A 
ATOM     35  C   UNL A   1      42.824  23.124  26.982  1.00  0.00    -0.014 A 
BRANCH  35  36
ATOM     36  C   UNL A   1      43.175  24.527  27.307  1.00  0.00     0.031 A 
ATOM     37  C   UNL A   1      44.610  24.968  27.253  1.00  0.00     0.074 A 
ATOM     38  C   UNL A   1      42.217  25.374  27.735  1.00  0.00     0.049 A 
ATOM     39  N   UNL A   1      45.136  26.114  27.598  1.00  0.00    -0.248 NA
ATOM     40  C   UNL A   1      45.588  23.973  26.782  1.00  0.00     0.031 C 
ATOM     41  C   UNL A   1      40.799  25.044  27.890  1.00  0.00     0.029 A 
ATOM     42  N   UNL A   1      42.298  26.684  28.131  1.00  0.00    -0.354 N 
ATOM     43  C   UNL A   1      46.504  25.969  27.413  1.00  0.00     0.074 A 
ATOM     44  C   UNL A   1      46.734  24.610  26.974  1.00  0.00     0.031 C 
ATOM     45  C   UNL A   1      40.140  26.131  28.325  1.00  0.00     0.029 A 
ATOM     46  C   UNL A   1      41.092  27.220  28.512  1.00  0.00     0.049 A 
ATOM     47  H   UNL A   1      43.141  27.192  28.143  1.00  0.00     0.167 HD
ATOM     48  C   UNL A   1      47.480  26.894  27.569  1.00  0.00     0.037 A 
ATOM     49  C   UNL A   1      40.792  28.453  28.962  1.00  0.00     0.037 A 
ATOM     50  C   UNL A   1      47.243  28.256  27.961  1.00  0.00     0.049 A 
ATOM     51  C   UNL A   1      41.889  29.472  29.094  1.00  0.00     0.074 A 
ATOM     52  C   UNL A   1      48.154  29.291  28.079  1.00  0.00     0.029 A 
ATOM     53  N   UNL A   1      46.000  28.775  28.291  1.00  0.00    -0.354 N 
ATOM     54  N   UNL A   1      43.171  29.341  28.850  1.00  0.00    -0.248 NA
ATOM     55  C   UNL A   1      41.498  30.810  29.556  1.00  0.00     0.031 C 
ATOM     56  C   UNL A   1      47.466  30.431  28.508  1.00  0.00     0.029 A 
ATOM     57  C   UNL A   1      46.122  30.114  28.623  1.00  0.00     0.049 A 
ATOM     58  H   UNL A   1      45.157  28.268  28.291  1.00  0.00     0.167 HD
ATOM     59  C   UNL A   1      43.733  30.585  29.102  1.00  0.00     0.074 A 
ATOM     60  C   UNL A   1      42.653  31.460  29.507  1.00  0.00     0.031 C 
ATOM     61  C   UNL A   1      45.030  30.969  29.008  1.00  0.00     0.037 A 
BRANCH  48  62
ATOM     62  C   UNL A   1      48.890  26.460  27.299  1.00  0.00     0.057 A 
ATOM     63  C   UNL A   1      49.454  26.546  26.019  1.00  0.00     0.134 A 
ATOM     64  C   UNL A   1      49.700  25.975  28.332  1.00  0.00     0.134 A 
ATOM     65  F   UNL A   1      48.723  26.987  24.983  1.00  0.00    -0.206 F 
ATOM     66  C   UNL A   1      50.765  26.140  25.771  1.00  0.00     0.040 A 
ATOM     67  C   UNL A   1      51.021  25.590  28.100  1.00  0.00     0.040 A 
ATOM     68  F   UNL A   1      49.223  25.869  29.581  1.00  0.00    -0.206 F 
ATOM     69  C   UNL A   1      51.555  25.665  26.815  1.00  0.00     0.006 A 
ENDBRANCH  48  62
BRANCH  49  70
ATOM     70  C   UNL A   1      39.388  28.806  29.289  1.00  0.00     0.057 A 
ATOM     71  C   UNL A   1      38.882  28.618  30.580  1.00  0.00     0.134 A 
ATOM     72  C   UNL A   1      38.518  29.326  28.324  1.00  0.00     0.134 A 
ATOM     73  F   UNL A   1      39.665  28.106  31.542  1.00  0.00    -0.206 F 
ATOM     74  C   UNL A   1      37.556  28.914  30.897  1.00  0.00     0.040 A 
ATOM     75  C   UNL A   1      37.196  29.648  28.632  1.00  0.00     0.040 A 
ATOM     76  F   UNL A   1      38.945  29.537  27.070  1.00  0.00    -0.206 F 
ATOM     77  C   UNL A   1      36.708  29.434  29.920  1.00  0.00     0.006 A 
ENDBRANCH  49  70
BRANCH  61  78
ATOM     78  C   UNL A   1      45.342  32.403  29.310  1.00  0.00     0.057 A 
ATOM     79  C   UNL A   1      45.274  33.395  28.325  1.00  0.00     0.134 A 
ATOM     80  C   UNL A   1      45.668  32.801  30.613  1.00  0.00     0.134 A 
ATOM     81  F   UNL A   1      44.979  33.074  27.056  1.00  0.00    -0.206 F 
ATOM     82  C   UNL A   1      45.539  34.733  28.621  1.00  0.00     0.040 A 
ATOM     83  C   UNL A   1      45.911  34.138  30.927  1.00  0.00     0.040 A 
ATOM     84  F   UNL A   1      45.740  31.898  31.603  1.00  0.00    -0.206 F 
ATOM     85  C   UNL A   1      45.851  35.108  29.927  1.00  0.00     0.006 A 
ENDBRANCH  61  78
ENDBRANCH  35  36
ENDBRANCH  27  30
ENDBRANCH  25  26
ENDBRANCH  24  25
ENDBRANCH  23  24
ENDBRANCH   1  23
TORSDOF 18
ENDMDL
