MODEL 1
REMARK VINA RESULT:     -11.7      0.000      0.000
REMARK SMILES CC(=C/C(=O)NCCCCNC(=O)c1ccc(-c2c3nc(c(-c4c(F)cccc4F)c4ccc([nH]4)c(-c4c(F)cccc4F)c4nc(c(-c5c(F)cccc5F)c5ccc2[nH]5)C=C4)C=C3)cc1)/C=C/c1ccc2ccccc2c1
REMARK SMILES IDX 8 1 7 2 6 3 4 4 5 5 3 7 1 8 2 9 68 10 69 11 70 12 71 13
REMARK SMILES IDX 79 14 72 15 78 16 73 17 77 18 74 19 76 20 75 21 9 22 10 23
REMARK SMILES IDX 11 24 12 25 13 27 14 28 15 29 67 30 16 31 66 32 17 33 18 34
REMARK SMILES IDX 19 35 60 36 20 37 65 38 59 39 61 40 21 41 64 42 58 43 57 44
REMARK SMILES IDX 22 46 48 47 31 48 47 49 32 50 35 51 46 52 62 53 33 54 34 55
REMARK SMILES IDX 45 57 63 58 36 59 23 60 24 61 29 62 25 63 26 64 28 65 30 66
REMARK SMILES IDX 27 67 49 68 50 69 55 70 51 71 52 72 54 73 56 74 53 75 37 76
REMARK SMILES IDX 38 77 43 78 39 79 40 80 42 81 44 82 41 83
REMARK H PARENT 6 6 11 26 61 45 35 56
REMARK Flexibility Score: inf
ROOT
ATOM      1  C   UNL A   1      31.791  29.540  25.789  1.00  0.00     0.023 C 
ENDROOT
BRANCH   1   2
ATOM      2  C   UNL A   1      32.723  29.200  24.634  1.00  0.00     0.116 C 
BRANCH   2   3
ATOM      3  N   UNL A   1      32.051  28.909  23.384  1.00  0.00    -0.353 N 
ATOM      4  C   UNL A   1      30.971  28.121  23.135  1.00  0.00     0.244 C 
ATOM      5  O   UNL A   1      30.571  28.013  21.975  1.00  0.00    -0.270 OA
ATOM      6  H   UNL A   1      32.436  29.349  22.593  1.00  0.00     0.163 HD
BRANCH   4   7
ATOM      7  C   UNL A   1      30.334  27.281  24.183  1.00  0.00     0.074 C 
ATOM      8  C   UNL A   1      29.758  25.492  25.779  1.00  0.00     0.044 C 
ATOM      9  C   UNL A   1      30.669  26.098  24.737  1.00  0.00    -0.046 C 
BRANCH   9  10
ATOM     10  C   UNL A   1      31.856  25.338  24.362  1.00  0.00     0.004 C 
ATOM     11  C   UNL A   1      33.013  25.431  25.038  1.00  0.00     0.008 C 
BRANCH  11  12
ATOM     12  C   UNL A   1      34.081  24.421  25.025  1.00  0.00    -0.025 A 
ATOM     13  C   UNL A   1      33.794  23.229  24.345  1.00  0.00     0.009 A 
ATOM     14  C   UNL A   1      35.342  24.578  25.610  1.00  0.00     0.016 A 
ATOM     15  C   UNL A   1      34.737  22.210  24.251  1.00  0.00     0.009 A 
ATOM     16  C   UNL A   1      36.312  23.553  25.523  1.00  0.00    -0.018 A 
ATOM     17  C   UNL A   1      35.994  22.353  24.842  1.00  0.00    -0.018 A 
ATOM     18  C   UNL A   1      37.596  23.687  26.080  1.00  0.00     0.009 A 
ATOM     19  C   UNL A   1      36.946  21.328  24.749  1.00  0.00     0.009 A 
ATOM     20  C   UNL A   1      38.541  22.661  25.967  1.00  0.00     0.001 A 
ATOM     21  C   UNL A   1      38.215  21.482  25.304  1.00  0.00     0.001 A 
ENDBRANCH  11  12
ENDBRANCH   9  10
ENDBRANCH   4   7
ENDBRANCH   2   3
ENDBRANCH   1   2
BRANCH   1  22
ATOM     22  C   UNL A   1      32.306  30.597  26.767  1.00  0.00     0.023 C 
BRANCH  22  23
ATOM     23  C   UNL A   1      33.701  30.363  27.351  1.00  0.00     0.116 C 
BRANCH  23  24
ATOM     24  N   UNL A   1      34.073  31.349  28.352  1.00  0.00    -0.352 N 
ATOM     25  C   UNL A   1      35.083  31.342  29.283  1.00  0.00     0.251 C 
ATOM     26  H   UNL A   1      33.508  32.156  28.364  1.00  0.00     0.163 HD
ATOM     27  O   UNL A   1      34.988  32.066  30.269  1.00  0.00    -0.269 OA
BRANCH  25  28
ATOM     28  C   UNL A   1      36.240  30.421  29.174  1.00  0.00     0.039 A 
ATOM     29  C   UNL A   1      36.988  30.455  27.991  1.00  0.00     0.014 A 
ATOM     30  C   UNL A   1      36.634  29.573  30.210  1.00  0.00     0.014 A 
ATOM     31  C   UNL A   1      38.211  29.791  27.920  1.00  0.00     0.010 A 
ATOM     32  C   UNL A   1      37.900  28.994  30.182  1.00  0.00     0.010 A 
ATOM     33  C   UNL A   1      38.722  29.150  29.057  1.00  0.00    -0.014 A 
BRANCH  33  34
ATOM     34  C   UNL A   1      40.155  28.774  29.134  1.00  0.00     0.031 A 
ATOM     35  C   UNL A   1      41.190  29.762  29.577  1.00  0.00     0.074 A 
ATOM     36  C   UNL A   1      40.520  27.551  28.695  1.00  0.00     0.049 A 
ATOM     37  N   UNL A   1      42.492  29.634  29.603  1.00  0.00    -0.248 NA
ATOM     38  C   UNL A   1      40.704  31.079  30.016  1.00  0.00     0.031 C 
ATOM     39  C   UNL A   1      39.605  26.530  28.170  1.00  0.00     0.029 A 
ATOM     40  N   UNL A   1      41.753  26.957  28.608  1.00  0.00    -0.354 N 
ATOM     41  C   UNL A   1      42.982  30.855  30.042  1.00  0.00     0.074 A 
ATOM     42  C   UNL A   1      41.842  31.726  30.230  1.00  0.00     0.031 C 
ATOM     43  C   UNL A   1      40.303  25.430  27.854  1.00  0.00     0.029 A 
ATOM     44  C   UNL A   1      41.715  25.678  28.106  1.00  0.00     0.049 A 
ATOM     45  H   UNL A   1      42.586  27.406  28.878  1.00  0.00     0.167 HD
ATOM     46  C   UNL A   1      44.267  31.209  30.284  1.00  0.00     0.037 A 
ATOM     47  C   UNL A   1      42.709  24.803  27.872  1.00  0.00     0.037 A 
ATOM     48  C   UNL A   1      45.393  30.327  30.114  1.00  0.00     0.049 A 
ATOM     49  C   UNL A   1      44.120  25.211  28.180  1.00  0.00     0.074 A 
ATOM     50  C   UNL A   1      46.731  30.577  30.364  1.00  0.00     0.029 A 
ATOM     51  N   UNL A   1      45.307  29.021  29.657  1.00  0.00    -0.354 N 
ATOM     52  N   UNL A   1      44.563  26.353  28.646  1.00  0.00    -0.248 NA
ATOM     53  C   UNL A   1      45.168  24.211  27.935  1.00  0.00     0.031 C 
ATOM     54  C   UNL A   1      47.458  29.426  30.039  1.00  0.00     0.029 A 
ATOM     55  C   UNL A   1      46.569  28.451  29.617  1.00  0.00     0.049 A 
ATOM     56  H   UNL A   1      44.473  28.565  29.399  1.00  0.00     0.167 HD
ATOM     57  C   UNL A   1      45.935  26.202  28.778  1.00  0.00     0.074 A 
ATOM     58  C   UNL A   1      46.250  24.853  28.352  1.00  0.00     0.031 C 
ATOM     59  C   UNL A   1      46.853  27.098  29.211  1.00  0.00     0.037 A 
BRANCH  46  60
ATOM     60  C   UNL A   1      44.515  32.606  30.769  1.00  0.00     0.057 A 
ATOM     61  C   UNL A   1      44.800  33.651  29.880  1.00  0.00     0.134 A 
ATOM     62  C   UNL A   1      44.450  32.917  32.133  1.00  0.00     0.134 A 
ATOM     63  F   UNL A   1      44.892  33.415  28.563  1.00  0.00    -0.206 F 
ATOM     64  C   UNL A   1      45.038  34.950  30.331  1.00  0.00     0.040 A 
ATOM     65  C   UNL A   1      44.662  34.218  32.594  1.00  0.00     0.040 A 
ATOM     66  F   UNL A   1      44.177  31.965  33.037  1.00  0.00    -0.206 F 
ATOM     67  C   UNL A   1      44.962  35.237  31.693  1.00  0.00     0.006 A 
ENDBRANCH  46  60
BRANCH  47  68
ATOM     68  C   UNL A   1      42.403  23.446  27.353  1.00  0.00     0.057 A 
ATOM     69  C   UNL A   1      42.507  23.161  25.986  1.00  0.00     0.134 A 
ATOM     70  C   UNL A   1      42.006  22.406  28.201  1.00  0.00     0.134 A 
ATOM     71  F   UNL A   1      42.871  24.120  25.123  1.00  0.00    -0.206 F 
ATOM     72  C   UNL A   1      42.204  21.897  25.478  1.00  0.00     0.040 A 
ATOM     73  C   UNL A   1      41.721  21.131  27.709  1.00  0.00     0.040 A 
ATOM     74  F   UNL A   1      41.900  22.612  29.522  1.00  0.00    -0.206 F 
ATOM     75  C   UNL A   1      41.813  20.877  26.342  1.00  0.00     0.006 A 
ENDBRANCH  47  68
BRANCH  59  76
ATOM     76  C   UNL A   1      48.272  26.631  29.290  1.00  0.00     0.057 A 
ATOM     77  C   UNL A   1      48.788  26.031  30.445  1.00  0.00     0.134 A 
ATOM     78  C   UNL A   1      49.121  26.750  28.182  1.00  0.00     0.134 A 
ATOM     79  F   UNL A   1      48.028  25.904  31.543  1.00  0.00    -0.206 F 
ATOM     80  C   UNL A   1      50.107  25.580  30.501  1.00  0.00     0.040 A 
ATOM     81  C   UNL A   1      50.435  26.284  28.220  1.00  0.00     0.040 A 
ATOM     82  F   UNL A   1      48.683  27.312  27.046  1.00  0.00    -0.206 F 
ATOM     83  C   UNL A   1      50.932  25.700  29.384  1.00  0.00     0.006 A 
ENDBRANCH  59  76
ENDBRANCH  33  34
ENDBRANCH  25  28
ENDBRANCH  23  24
ENDBRANCH  22  23
ENDBRANCH   1  22
TORSDOF 13
ENDMDL
MODEL 2
REMARK VINA RESULT:     -11.5      0.919      1.715
REMARK SMILES CC(=C/C(=O)NCCCCNC(=O)c1ccc(-c2c3nc(c(-c4c(F)cccc4F)c4ccc([nH]4)c(-c4c(F)cccc4F)c4nc(c(-c5c(F)cccc5F)c5ccc2[nH]5)C=C4)C=C3)cc1)/C=C/c1ccc2ccccc2c1
REMARK SMILES IDX 8 1 7 2 6 3 4 4 5 5 3 7 1 8 2 9 68 10 69 11 70 12 71 13
REMARK SMILES IDX 79 14 72 15 78 16 73 17 77 18 74 19 76 20 75 21 9 22 10 23
REMARK SMILES IDX 11 24 12 25 13 27 14 28 15 29 67 30 16 31 66 32 17 33 18 34
REMARK SMILES IDX 19 35 60 36 20 37 65 38 59 39 61 40 21 41 64 42 58 43 57 44
REMARK SMILES IDX 22 46 48 47 31 48 47 49 32 50 35 51 46 52 62 53 33 54 34 55
REMARK SMILES IDX 45 57 63 58 36 59 23 60 24 61 29 62 25 63 26 64 28 65 30 66
REMARK SMILES IDX 27 67 49 68 50 69 55 70 51 71 52 72 54 73 56 74 53 75 37 76
REMARK SMILES IDX 38 77 43 78 39 79 40 80 42 81 44 82 41 83
REMARK H PARENT 6 6 11 26 61 45 35 56
REMARK Flexibility Score: inf
ROOT
ATOM      1  C   UNL A   1      31.767  29.157  26.116  1.00  0.00     0.023 C 
ENDROOT
BRANCH   1   2
ATOM      2  C   UNL A   1      32.178  27.791  26.650  1.00  0.00     0.116 C 
BRANCH   2   3
ATOM      3  N   UNL A   1      31.076  26.882  26.888  1.00  0.00    -0.353 N 
ATOM      4  C   UNL A   1      30.363  26.124  26.012  1.00  0.00     0.244 C 
ATOM      5  O   UNL A   1      29.449  25.420  26.445  1.00  0.00    -0.270 OA
ATOM      6  H   UNL A   1      30.800  26.801  27.829  1.00  0.00     0.163 HD
BRANCH   4   7
ATOM      7  C   UNL A   1      30.553  26.208  24.540  1.00  0.00     0.074 C 
ATOM      8  C   UNL A   1      31.463  26.167  22.249  1.00  0.00     0.044 C 
ATOM      9  C   UNL A   1      31.598  25.928  23.735  1.00  0.00    -0.046 C 
BRANCH   9  10
ATOM     10  C   UNL A   1      32.882  25.436  24.220  1.00  0.00     0.004 C 
ATOM     11  C   UNL A   1      33.000  24.286  24.904  1.00  0.00     0.008 C 
BRANCH  11  12
ATOM     12  C   UNL A   1      34.239  23.507  25.039  1.00  0.00    -0.025 A 
ATOM     13  C   UNL A   1      34.189  22.185  24.576  1.00  0.00     0.009 A 
ATOM     14  C   UNL A   1      35.441  23.994  25.562  1.00  0.00     0.016 A 
ATOM     15  C   UNL A   1      35.308  21.359  24.635  1.00  0.00     0.009 A 
ATOM     16  C   UNL A   1      36.587  23.169  25.629  1.00  0.00    -0.018 A 
ATOM     17  C   UNL A   1      36.509  21.834  25.167  1.00  0.00    -0.018 A 
ATOM     18  C   UNL A   1      37.817  23.634  26.129  1.00  0.00     0.009 A 
ATOM     19  C   UNL A   1      37.638  21.004  25.228  1.00  0.00     0.009 A 
ATOM     20  C   UNL A   1      38.939  22.799  26.170  1.00  0.00     0.001 A 
ATOM     21  C   UNL A   1      38.849  21.485  25.722  1.00  0.00     0.001 A 
ENDBRANCH  11  12
ENDBRANCH   9  10
ENDBRANCH   4   7
ENDBRANCH   2   3
ENDBRANCH   1   2
BRANCH   1  22
ATOM     22  C   UNL A   1      32.369  30.361  26.843  1.00  0.00     0.023 C 
BRANCH  22  23
ATOM     23  C   UNL A   1      33.776  30.177  27.413  1.00  0.00     0.116 C 
BRANCH  23  24
ATOM     24  N   UNL A   1      34.133  31.196  28.388  1.00  0.00    -0.352 N 
ATOM     25  C   UNL A   1      35.156  31.237  29.305  1.00  0.00     0.251 C 
ATOM     26  H   UNL A   1      33.546  31.986  28.390  1.00  0.00     0.163 HD
ATOM     27  O   UNL A   1      35.053  31.980  30.276  1.00  0.00    -0.269 OA
BRANCH  25  28
ATOM     28  C   UNL A   1      36.337  30.347  29.200  1.00  0.00     0.039 A 
ATOM     29  C   UNL A   1      37.081  30.392  28.015  1.00  0.00     0.014 A 
ATOM     30  C   UNL A   1      36.756  29.519  30.242  1.00  0.00     0.014 A 
ATOM     31  C   UNL A   1      38.321  29.760  27.945  1.00  0.00     0.010 A 
ATOM     32  C   UNL A   1      38.038  28.974  30.214  1.00  0.00     0.010 A 
ATOM     33  C   UNL A   1      38.852  29.143  29.085  1.00  0.00    -0.014 A 
BRANCH  33  34
ATOM     34  C   UNL A   1      40.295  28.806  29.161  1.00  0.00     0.031 A 
ATOM     35  C   UNL A   1      41.303  29.821  29.607  1.00  0.00     0.074 A 
ATOM     36  C   UNL A   1      40.694  27.596  28.718  1.00  0.00     0.049 A 
ATOM     37  N   UNL A   1      42.608  29.729  29.633  1.00  0.00    -0.248 NA
ATOM     38  C   UNL A   1      40.780  31.123  30.050  1.00  0.00     0.031 C 
ATOM     39  C   UNL A   1      39.808  26.552  28.190  1.00  0.00     0.029 A 
ATOM     40  N   UNL A   1      41.943  27.037  28.629  1.00  0.00    -0.354 N 
ATOM     41  C   UNL A   1      43.064  30.963  30.076  1.00  0.00     0.074 A 
ATOM     42  C   UNL A   1      41.899  31.801  30.267  1.00  0.00     0.031 C 
ATOM     43  C   UNL A   1      40.535  25.472  27.870  1.00  0.00     0.029 A 
ATOM     44  C   UNL A   1      41.941  25.759  28.123  1.00  0.00     0.049 A 
ATOM     45  H   UNL A   1      42.763  27.507  28.900  1.00  0.00     0.167 HD
ATOM     46  C   UNL A   1      44.338  31.351  30.319  1.00  0.00     0.037 A 
ATOM     47  C   UNL A   1      42.958  24.912  27.886  1.00  0.00     0.037 A 
ATOM     48  C   UNL A   1      45.488  30.502  30.146  1.00  0.00     0.049 A 
ATOM     49  C   UNL A   1      44.357  25.359  28.195  1.00  0.00     0.074 A 
ATOM     50  C   UNL A   1      46.819  30.787  30.397  1.00  0.00     0.029 A 
ATOM     51  N   UNL A   1      45.439  29.195  29.685  1.00  0.00    -0.354 N 
ATOM     52  N   UNL A   1      44.768  26.511  28.665  1.00  0.00    -0.248 NA
ATOM     53  C   UNL A   1      45.432  24.388  27.947  1.00  0.00     0.031 C 
ATOM     54  C   UNL A   1      47.577  29.659  30.068  1.00  0.00     0.029 A 
ATOM     55  C   UNL A   1      46.716  28.660  29.643  1.00  0.00     0.049 A 
ATOM     56  H   UNL A   1      44.618  28.717  29.426  1.00  0.00     0.167 HD
ATOM     57  C   UNL A   1      46.144  26.397  28.796  1.00  0.00     0.074 A 
ATOM     58  C   UNL A   1      46.497  25.059  28.366  1.00  0.00     0.031 C 
ATOM     59  C   UNL A   1      47.037  27.317  29.232  1.00  0.00     0.037 A 
BRANCH  46  60
ATOM     60  C   UNL A   1      44.548  32.753  30.809  1.00  0.00     0.057 A 
ATOM     61  C   UNL A   1      44.553  33.059  32.176  1.00  0.00     0.134 A 
ATOM     62  C   UNL A   1      44.766  33.805  29.910  1.00  0.00     0.134 A 
ATOM     63  F   UNL A   1      44.335  32.100  33.087  1.00  0.00    -0.206 F 
ATOM     64  C   UNL A   1      44.741  34.365  32.632  1.00  0.00     0.040 A 
ATOM     65  C   UNL A   1      44.979  35.111  30.355  1.00  0.00     0.040 A 
ATOM     66  F   UNL A   1      44.778  33.580  28.588  1.00  0.00    -0.206 F 
ATOM     67  C   UNL A   1      44.961  35.395  31.719  1.00  0.00     0.006 A 
ENDBRANCH  46  60
BRANCH  47  68
ATOM     68  C   UNL A   1      42.690  23.549  27.363  1.00  0.00     0.057 A 
ATOM     69  C   UNL A   1      42.333  22.507  28.228  1.00  0.00     0.134 A 
ATOM     70  C   UNL A   1      42.781  23.253  25.998  1.00  0.00     0.134 A 
ATOM     71  F   UNL A   1      42.243  22.727  29.547  1.00  0.00    -0.206 F 
ATOM     72  C   UNL A   1      42.097  21.215  27.757  1.00  0.00     0.040 A 
ATOM     73  C   UNL A   1      42.526  21.970  25.511  1.00  0.00     0.040 A 
ATOM     74  F   UNL A   1      43.106  24.211  25.117  1.00  0.00    -0.206 F 
ATOM     75  C   UNL A   1      42.190  20.944  26.394  1.00  0.00     0.006 A 
ENDBRANCH  47  68
BRANCH  59  76
ATOM     76  C   UNL A   1      48.469  26.889  29.310  1.00  0.00     0.057 A 
ATOM     77  C   UNL A   1      48.971  26.192  30.414  1.00  0.00     0.134 A 
ATOM     78  C   UNL A   1      49.345  27.147  28.248  1.00  0.00     0.134 A 
ATOM     79  F   UNL A   1      48.185  25.930  31.469  1.00  0.00    -0.206 F 
ATOM     80  C   UNL A   1      50.303  25.779  30.467  1.00  0.00     0.040 A 
ATOM     81  C   UNL A   1      50.672  26.721  28.280  1.00  0.00     0.040 A 
ATOM     82  F   UNL A   1      48.920  27.808  27.160  1.00  0.00    -0.206 F 
ATOM     83  C   UNL A   1      51.155  26.038  29.396  1.00  0.00     0.006 A 
ENDBRANCH  59  76
ENDBRANCH  33  34
ENDBRANCH  25  28
ENDBRANCH  23  24
ENDBRANCH  22  23
ENDBRANCH   1  22
TORSDOF 13
ENDMDL
MODEL 3
REMARK VINA RESULT:     -11.4      4.472      9.138
REMARK SMILES CC(=C/C(=O)NCCCCNC(=O)c1ccc(-c2c3nc(c(-c4c(F)cccc4F)c4ccc([nH]4)c(-c4c(F)cccc4F)c4nc(c(-c5c(F)cccc5F)c5ccc2[nH]5)C=C4)C=C3)cc1)/C=C/c1ccc2ccccc2c1
REMARK SMILES IDX 8 1 7 2 6 3 4 4 5 5 3 7 1 8 2 9 68 10 69 11 70 12 71 13
REMARK SMILES IDX 79 14 72 15 78 16 73 17 77 18 74 19 76 20 75 21 9 22 10 23
REMARK SMILES IDX 11 24 12 25 13 27 14 28 15 29 67 30 16 31 66 32 17 33 18 34
REMARK SMILES IDX 19 35 60 36 20 37 65 38 59 39 61 40 21 41 64 42 58 43 57 44
REMARK SMILES IDX 22 46 48 47 31 48 47 49 32 50 35 51 46 52 62 53 33 54 34 55
REMARK SMILES IDX 45 57 63 58 36 59 23 60 24 61 29 62 25 63 26 64 28 65 30 66
REMARK SMILES IDX 27 67 49 68 50 69 55 70 51 71 52 72 54 73 56 74 53 75 37 76
REMARK SMILES IDX 38 77 43 78 39 79 40 80 42 81 44 82 41 83
REMARK H PARENT 6 6 11 26 61 45 35 56
REMARK Flexibility Score: inf
ROOT
ATOM      1  C   UNL A   1      36.705  22.946  25.371  1.00  0.00     0.023 C 
ENDROOT
BRANCH   1   2
ATOM      2  C   UNL A   1      36.486  21.446  25.234  1.00  0.00     0.116 C 
BRANCH   2   3
ATOM      3  N   UNL A   1      35.342  20.936  25.961  1.00  0.00    -0.353 N 
ATOM      4  C   UNL A   1      34.049  20.786  25.564  1.00  0.00     0.244 C 
ATOM      5  O   UNL A   1      33.232  20.331  26.365  1.00  0.00    -0.270 OA
ATOM      6  H   UNL A   1      35.528  20.654  26.885  1.00  0.00     0.163 HD
BRANCH   4   7
ATOM      7  C   UNL A   1      33.555  21.270  24.248  1.00  0.00     0.074 C 
ATOM      8  C   UNL A   1      32.700  22.628  22.377  1.00  0.00     0.044 C 
ATOM      9  C   UNL A   1      33.206  22.490  23.794  1.00  0.00    -0.046 C 
BRANCH   9  10
ATOM     10  C   UNL A   1      33.255  23.699  24.608  1.00  0.00     0.004 C 
ATOM     11  C   UNL A   1      33.526  24.907  24.087  1.00  0.00     0.008 C 
BRANCH  11  12
ATOM     12  C   UNL A   1      33.171  26.192  24.706  1.00  0.00    -0.025 A 
ATOM     13  C   UNL A   1      31.857  26.635  24.497  1.00  0.00     0.009 A 
ATOM     14  C   UNL A   1      34.029  26.970  25.491  1.00  0.00     0.016 A 
ATOM     15  C   UNL A   1      31.403  27.828  25.052  1.00  0.00     0.009 A 
ATOM     16  C   UNL A   1      33.584  28.184  26.062  1.00  0.00    -0.018 A 
ATOM     17  C   UNL A   1      32.257  28.617  25.826  1.00  0.00    -0.018 A 
ATOM     18  C   UNL A   1      34.413  28.979  26.873  1.00  0.00     0.009 A 
ATOM     19  C   UNL A   1      31.803  29.820  26.386  1.00  0.00     0.009 A 
ATOM     20  C   UNL A   1      33.942  30.170  27.437  1.00  0.00     0.001 A 
ATOM     21  C   UNL A   1      32.639  30.591  27.192  1.00  0.00     0.001 A 
ENDBRANCH  11  12
ENDBRANCH   9  10
ENDBRANCH   4   7
ENDBRANCH   2   3
ENDBRANCH   1   2
BRANCH   1  22
ATOM     22  C   UNL A   1      38.163  23.406  25.383  1.00  0.00     0.023 C 
BRANCH  22  23
ATOM     23  C   UNL A   1      39.044  22.846  26.501  1.00  0.00     0.116 C 
BRANCH  23  24
ATOM     24  N   UNL A   1      40.458  23.127  26.307  1.00  0.00    -0.352 N 
ATOM     25  C   UNL A   1      41.157  24.306  26.406  1.00  0.00     0.251 C 
ATOM     26  H   UNL A   1      41.004  22.344  26.066  1.00  0.00     0.163 HD
ATOM     27  O   UNL A   1      42.238  24.406  25.833  1.00  0.00    -0.269 OA
BRANCH  25  28
ATOM     28  C   UNL A   1      40.603  25.487  27.111  1.00  0.00     0.039 A 
ATOM     29  C   UNL A   1      39.690  25.256  28.147  1.00  0.00     0.014 A 
ATOM     30  C   UNL A   1      40.990  26.795  26.818  1.00  0.00     0.014 A 
ATOM     31  C   UNL A   1      39.316  26.298  28.993  1.00  0.00     0.010 A 
ATOM     32  C   UNL A   1      40.702  27.816  27.720  1.00  0.00     0.010 A 
ATOM     33  C   UNL A   1      39.910  27.559  28.847  1.00  0.00    -0.014 A 
BRANCH  33  34
ATOM     34  C   UNL A   1      39.832  28.562  29.937  1.00  0.00     0.031 A 
ATOM     35  C   UNL A   1      38.838  29.682  29.888  1.00  0.00     0.074 A 
ATOM     36  C   UNL A   1      40.750  28.506  30.926  1.00  0.00     0.049 A 
ATOM     37  N   UNL A   1      38.703  30.699  30.700  1.00  0.00    -0.248 NA
ATOM     38  C   UNL A   1      37.891  29.678  28.762  1.00  0.00     0.031 C 
ATOM     39  C   UNL A   1      41.815  27.502  31.037  1.00  0.00     0.029 A 
ATOM     40  N   UNL A   1      40.945  29.310  32.019  1.00  0.00    -0.354 N 
ATOM     41  C   UNL A   1      37.673  31.466  30.175  1.00  0.00     0.074 A 
ATOM     42  C   UNL A   1      37.245  30.820  28.952  1.00  0.00     0.031 C 
ATOM     43  C   UNL A   1      42.523  27.729  32.153  1.00  0.00     0.029 A 
ATOM     44  C   UNL A   1      41.997  28.917  32.812  1.00  0.00     0.049 A 
ATOM     45  H   UNL A   1      40.386  30.095  32.217  1.00  0.00     0.167 HD
ATOM     46  C   UNL A   1      37.122  32.596  30.680  1.00  0.00     0.037 A 
ATOM     47  C   UNL A   1      42.487  29.456  33.942  1.00  0.00     0.037 A 
ATOM     48  C   UNL A   1      37.542  33.219  31.908  1.00  0.00     0.049 A 
ATOM     49  C   UNL A   1      41.837  30.690  34.495  1.00  0.00     0.074 A 
ATOM     50  C   UNL A   1      37.028  34.346  32.526  1.00  0.00     0.029 A 
ATOM     51  N   UNL A   1      38.575  32.759  32.711  1.00  0.00    -0.354 N 
ATOM     52  N   UNL A   1      40.828  31.374  34.016  1.00  0.00    -0.248 NA
ATOM     53  C   UNL A   1      42.389  31.224  35.748  1.00  0.00     0.031 C 
ATOM     54  C   UNL A   1      37.764  34.579  33.692  1.00  0.00     0.029 A 
ATOM     55  C   UNL A   1      38.714  33.579  33.818  1.00  0.00     0.049 A 
ATOM     56  H   UNL A   1      39.128  31.966  32.523  1.00  0.00     0.167 HD
ATOM     57  C   UNL A   1      40.603  32.401  34.919  1.00  0.00     0.074 A 
ATOM     58  C   UNL A   1      41.576  32.245  35.982  1.00  0.00     0.031 C 
ATOM     59  C   UNL A   1      39.677  33.388  34.873  1.00  0.00     0.037 A 
BRANCH  46  60
ATOM     60  C   UNL A   1      36.000  33.220  29.905  1.00  0.00     0.057 A 
ATOM     61  C   UNL A   1      36.239  33.979  28.752  1.00  0.00     0.134 A 
ATOM     62  C   UNL A   1      34.668  33.044  30.300  1.00  0.00     0.134 A 
ATOM     63  F   UNL A   1      37.493  34.196  28.330  1.00  0.00    -0.206 F 
ATOM     64  C   UNL A   1      35.196  34.566  28.034  1.00  0.00     0.040 A 
ATOM     65  C   UNL A   1      33.614  33.606  29.575  1.00  0.00     0.040 A 
ATOM     66  F   UNL A   1      34.369  32.325  31.391  1.00  0.00    -0.206 F 
ATOM     67  C   UNL A   1      33.877  34.373  28.443  1.00  0.00     0.006 A 
ENDBRANCH  46  60
BRANCH  47  68
ATOM     68  C   UNL A   1      43.627  28.814  34.644  1.00  0.00     0.057 A 
ATOM     69  C   UNL A   1      43.411  27.785  35.569  1.00  0.00     0.134 A 
ATOM     70  C   UNL A   1      44.950  29.205  34.410  1.00  0.00     0.134 A 
ATOM     71  F   UNL A   1      42.165  27.376  35.844  1.00  0.00    -0.206 F 
ATOM     72  C   UNL A   1      44.468  27.183  36.253  1.00  0.00     0.040 A 
ATOM     73  C   UNL A   1      46.019  28.596  35.071  1.00  0.00     0.040 A 
ATOM     74  F   UNL A   1      45.224  30.176  33.526  1.00  0.00    -0.206 F 
ATOM     75  C   UNL A   1      45.778  27.587  36.001  1.00  0.00     0.006 A 
ENDBRANCH  47  68
BRANCH  59  76
ATOM     76  C   UNL A   1      39.643  34.340  36.027  1.00  0.00     0.057 A 
ATOM     77  C   UNL A   1      38.911  34.066  37.188  1.00  0.00     0.134 A 
ATOM     78  C   UNL A   1      40.383  35.529  35.988  1.00  0.00     0.134 A 
ATOM     79  F   UNL A   1      38.170  32.952  37.279  1.00  0.00    -0.206 F 
ATOM     80  C   UNL A   1      38.903  34.951  38.267  1.00  0.00     0.040 A 
ATOM     81  C   UNL A   1      40.399  36.411  37.067  1.00  0.00     0.040 A 
ATOM     82  F   UNL A   1      41.107  35.845  34.903  1.00  0.00    -0.206 F 
ATOM     83  C   UNL A   1      39.653  36.125  38.210  1.00  0.00     0.006 A 
ENDBRANCH  59  76
ENDBRANCH  33  34
ENDBRANCH  25  28
ENDBRANCH  23  24
ENDBRANCH  22  23
ENDBRANCH   1  22
TORSDOF 13
ENDMDL
