MODEL 1
REMARK VINA RESULT:     -12.9      0.000      0.000
REMARK SMILES C[NH+]1CCC2(CC1)OC[C@H](C(=O)NCCCCNC(=O)c1ccc(-c3c4nc(c(-c5c(F)cccc5F)c5ccc([nH]5)c(-c5c(F)cccc5F)c5nc(c(-c6c(F)cccc6F)c6ccc3[nH]6)C=C5)C=C4)cc1)N2C(=O)c1cc(C(F)(F)F)cc(C(F)(F)F)c1
REMARK SMILES IDX 15 1 14 2 13 3 11 4 12 5 10 7 1 8 2 9 3 10 7 11 4 13 6 14
REMARK SMILES IDX 5 15 8 16 75 17 9 18 76 19 77 20 78 21 79 22 91 23 80 24
REMARK SMILES IDX 86 25 85 26 81 27 82 28 83 29 84 30 87 31 88 32 89 33 90 34
REMARK SMILES IDX 16 35 17 36 18 37 19 38 20 40 21 41 22 42 74 43 23 44 73 45
REMARK SMILES IDX 24 46 25 47 26 48 67 49 27 50 72 51 66 52 68 53 28 54 71 55
REMARK SMILES IDX 65 56 64 57 29 59 55 60 38 61 54 62 39 63 42 64 53 65 69 66
REMARK SMILES IDX 40 67 41 68 52 70 70 71 43 72 30 73 31 74 36 75 32 76 33 77
REMARK SMILES IDX 35 78 37 79 34 80 56 81 57 82 62 83 58 84 59 85 61 86 63 87
REMARK SMILES IDX 60 88 44 89 45 90 50 91 46 92 47 93 49 94 51 95 48 96
REMARK H PARENT 13 6 2 12 18 39 68 58 42 69
REMARK Flexibility Score: inf
ROOT
ATOM      1  C   UNL A   1      31.749  30.644  26.167  1.00  0.00     0.023 C 
ENDROOT
BRANCH   1   2
ATOM      2  C   UNL A   1      31.992  29.476  27.119  1.00  0.00     0.116 C 
BRANCH   2   3
ATOM      3  N   UNL A   1      33.144  28.700  26.715  1.00  0.00    -0.354 N 
ATOM      4  C   UNL A   1      33.223  27.381  26.373  1.00  0.00     0.245 C 
ATOM      5  O   UNL A   1      34.348  26.957  26.092  1.00  0.00    -0.273 OA
ATOM      6  H   UNL A   1      33.994  29.195  26.682  1.00  0.00     0.163 HD
BRANCH   4   7
ATOM      7  C   UNL A   1      31.967  26.480  26.400  1.00  0.00     0.203 C 
ATOM      8  C   UNL A   1      32.962  23.222  20.875  1.00  0.00     0.332 C 
ATOM      9  N   UNL A   1      32.836  23.514  22.295  1.00  0.00    -0.337 N 
ATOM     10  C   UNL A   1      33.636  24.652  22.722  1.00  0.00     0.267 C 
ATOM     11  C   UNL A   1      31.481  23.339  22.802  1.00  0.00     0.267 C 
ATOM     12  H   UNL A   1      33.303  22.780  22.828  1.00  0.00     0.347 HD
ATOM     13  C   UNL A   1      32.888  25.831  23.286  1.00  0.00     0.120 C 
ATOM     14  C   UNL A   1      30.816  24.475  23.566  1.00  0.00     0.120 C 
ATOM     15  C   UNL A   1      31.757  25.464  24.246  1.00  0.00     0.155 C 
ATOM     16  O   UNL A   1      30.958  26.697  24.296  1.00  0.00    -0.352 OA
ATOM     17  N   UNL A   1      32.125  25.226  25.661  1.00  0.00    -0.295 N 
ATOM     18  C   UNL A   1      30.838  27.139  25.649  1.00  0.00     0.198 C 
BRANCH  17  19
ATOM     19  C   UNL A   1      32.305  24.072  26.416  1.00  0.00     0.256 C 
ATOM     20  O   UNL A   1      31.649  23.839  27.434  1.00  0.00    -0.269 OA
BRANCH  19  21
ATOM     21  C   UNL A   1      33.265  23.013  26.077  1.00  0.00     0.041 A 
ATOM     22  C   UNL A   1      32.789  21.725  25.800  1.00  0.00     0.027 A 
ATOM     23  C   UNL A   1      34.636  23.231  26.186  1.00  0.00     0.027 A 
ATOM     24  C   UNL A   1      33.684  20.685  25.495  1.00  0.00     0.057 A 
ATOM     25  C   UNL A   1      35.548  22.243  25.786  1.00  0.00     0.057 A 
ATOM     26  C   UNL A   1      35.061  20.966  25.457  1.00  0.00     0.026 A 
BRANCH  24  27
ATOM     27  C   UNL A   1      33.167  19.294  25.217  1.00  0.00     0.416 C 
ATOM     28  F   UNL A   1      32.775  18.652  26.350  1.00  0.00    -0.166 F 
ATOM     29  F   UNL A   1      32.087  19.296  24.389  1.00  0.00    -0.166 F 
ATOM     30  F   UNL A   1      34.090  18.485  24.625  1.00  0.00    -0.166 F 
ENDBRANCH  24  27
BRANCH  25  31
ATOM     31  C   UNL A   1      37.019  22.558  25.638  1.00  0.00     0.416 C 
ATOM     32  F   UNL A   1      37.808  21.479  25.892  1.00  0.00    -0.166 F 
ATOM     33  F   UNL A   1      37.338  22.962  24.377  1.00  0.00    -0.166 F 
ATOM     34  F   UNL A   1      37.455  23.544  26.470  1.00  0.00    -0.166 F 
ENDBRANCH  25  31
ENDBRANCH  19  21
ENDBRANCH  17  19
ENDBRANCH   4   7
ENDBRANCH   2   3
ENDBRANCH   1   2
BRANCH   1  35
ATOM     35  C   UNL A   1      31.441  31.973  26.859  1.00  0.00     0.023 C 
BRANCH  35  36
ATOM     36  C   UNL A   1      32.662  32.768  27.310  1.00  0.00     0.116 C 
BRANCH  36  37
ATOM     37  N   UNL A   1      32.352  34.153  27.630  1.00  0.00    -0.352 N 
ATOM     38  C   UNL A   1      32.962  34.988  28.535  1.00  0.00     0.251 C 
ATOM     39  H   UNL A   1      31.603  34.548  27.128  1.00  0.00     0.163 HD
ATOM     40  O   UNL A   1      32.492  36.097  28.772  1.00  0.00    -0.269 OA
BRANCH  38  41
ATOM     41  C   UNL A   1      34.164  34.524  29.256  1.00  0.00     0.039 A 
ATOM     42  C   UNL A   1      34.007  33.944  30.517  1.00  0.00     0.014 A 
ATOM     43  C   UNL A   1      35.431  34.623  28.676  1.00  0.00     0.014 A 
ATOM     44  C   UNL A   1      35.112  33.384  31.159  1.00  0.00     0.010 A 
ATOM     45  C   UNL A   1      36.518  34.002  29.285  1.00  0.00     0.010 A 
ATOM     46  C   UNL A   1      36.365  33.363  30.524  1.00  0.00    -0.014 A 
BRANCH  46  47
ATOM     47  C   UNL A   1      37.512  32.632  31.120  1.00  0.00     0.031 A 
ATOM     48  C   UNL A   1      38.142  33.108  32.396  1.00  0.00     0.074 A 
ATOM     49  C   UNL A   1      38.027  31.573  30.464  1.00  0.00     0.049 A 
ATOM     50  N   UNL A   1      39.185  32.632  33.029  1.00  0.00    -0.248 NA
ATOM     51  C   UNL A   1      37.538  34.287  33.035  1.00  0.00     0.031 C 
ATOM     52  C   UNL A   1      37.535  31.044  29.190  1.00  0.00     0.029 A 
ATOM     53  N   UNL A   1      39.088  30.758  30.772  1.00  0.00    -0.354 N 
ATOM     54  C   UNL A   1      39.365  33.454  34.133  1.00  0.00     0.074 A 
ATOM     55  C   UNL A   1      38.357  34.490  34.056  1.00  0.00     0.031 C 
ATOM     56  C   UNL A   1      38.275  29.982  28.839  1.00  0.00     0.029 A 
ATOM     57  C   UNL A   1      39.321  29.780  29.835  1.00  0.00     0.049 A 
ATOM     58  H   UNL A   1      39.630  30.865  31.586  1.00  0.00     0.167 HD
ATOM     59  C   UNL A   1      40.276  33.343  35.130  1.00  0.00     0.037 A 
ATOM     60  C   UNL A   1      40.277  28.834  29.779  1.00  0.00     0.037 A 
ATOM     61  C   UNL A   1      41.270  32.304  35.207  1.00  0.00     0.049 A 
ATOM     62  C   UNL A   1      41.292  28.750  30.884  1.00  0.00     0.074 A 
ATOM     63  C   UNL A   1      42.196  32.070  36.210  1.00  0.00     0.029 A 
ATOM     64  N   UNL A   1      41.476  31.332  34.239  1.00  0.00    -0.354 N 
ATOM     65  N   UNL A   1      41.403  29.488  31.963  1.00  0.00    -0.248 NA
ATOM     66  C   UNL A   1      42.314  27.701  30.766  1.00  0.00     0.031 C 
ATOM     67  C   UNL A   1      42.997  30.991  35.822  1.00  0.00     0.029 A 
ATOM     68  C   UNL A   1      42.536  30.517  34.606  1.00  0.00     0.049 A 
ATOM     69  H   UNL A   1      40.948  31.235  33.415  1.00  0.00     0.167 HD
ATOM     70  C   UNL A   1      42.491  28.981  32.661  1.00  0.00     0.074 A 
ATOM     71  C   UNL A   1      42.992  27.859  31.894  1.00  0.00     0.031 C 
ATOM     72  C   UNL A   1      43.027  29.406  33.830  1.00  0.00     0.037 A 
BRANCH  59  73
ATOM     73  C   UNL A   1      40.238  34.374  36.221  1.00  0.00     0.057 A 
ATOM     74  C   UNL A   1      40.988  35.555  36.149  1.00  0.00     0.134 A 
ATOM     75  C   UNL A   1      39.409  34.204  37.338  1.00  0.00     0.134 A 
ATOM     76  F   UNL A   1      41.810  35.776  35.112  1.00  0.00    -0.206 F 
ATOM     77  C   UNL A   1      40.935  36.517  37.159  1.00  0.00     0.040 A 
ATOM     78  C   UNL A   1      39.326  35.172  38.340  1.00  0.00     0.040 A 
ATOM     79  F   UNL A   1      38.658  33.099  37.467  1.00  0.00    -0.206 F 
ATOM     80  C   UNL A   1      40.095  36.331  38.255  1.00  0.00     0.006 A 
ENDBRANCH  59  73
BRANCH  60  81
ATOM     81  C   UNL A   1      40.316  27.884  28.639  1.00  0.00     0.057 A 
ATOM     82  C   UNL A   1      39.644  26.658  28.698  1.00  0.00     0.134 A 
ATOM     83  C   UNL A   1      41.030  28.172  27.470  1.00  0.00     0.134 A 
ATOM     84  F   UNL A   1      38.959  26.315  29.799  1.00  0.00    -0.206 F 
ATOM     85  C   UNL A   1      39.696  25.743  27.645  1.00  0.00     0.040 A 
ATOM     86  C   UNL A   1      41.068  27.279  26.398  1.00  0.00     0.040 A 
ATOM     87  F   UNL A   1      41.689  29.333  27.347  1.00  0.00    -0.206 F 
ATOM     88  C   UNL A   1      40.406  26.057  26.488  1.00  0.00     0.006 A 
ENDBRANCH  60  81
BRANCH  72  89
ATOM     89  C   UNL A   1      44.207  28.643  34.361  1.00  0.00     0.057 A 
ATOM     90  C   UNL A   1      44.051  27.516  35.178  1.00  0.00     0.134 A 
ATOM     91  C   UNL A   1      45.513  29.023  34.026  1.00  0.00     0.134 A 
ATOM     92  F   UNL A   1      42.827  27.109  35.548  1.00  0.00    -0.206 F 
ATOM     93  C   UNL A   1      45.152  26.807  35.661  1.00  0.00     0.040 A 
ATOM     94  C   UNL A   1      46.621  28.305  34.478  1.00  0.00     0.040 A 
ATOM     95  F   UNL A   1      45.733  30.088  33.241  1.00  0.00    -0.206 F 
ATOM     96  C   UNL A   1      46.442  27.198  35.305  1.00  0.00     0.006 A 
ENDBRANCH  72  89
ENDBRANCH  46  47
ENDBRANCH  38  41
ENDBRANCH  36  37
ENDBRANCH  35  36
ENDBRANCH   1  35
TORSDOF 15
ENDMDL
MODEL 2
REMARK VINA RESULT:     -12.9      0.130      2.208
REMARK SMILES C[NH+]1CCC2(CC1)OC[C@H](C(=O)NCCCCNC(=O)c1ccc(-c3c4nc(c(-c5c(F)cccc5F)c5ccc([nH]5)c(-c5c(F)cccc5F)c5nc(c(-c6c(F)cccc6F)c6ccc3[nH]6)C=C5)C=C4)cc1)N2C(=O)c1cc(C(F)(F)F)cc(C(F)(F)F)c1
REMARK SMILES IDX 15 1 14 2 13 3 11 4 12 5 10 7 1 8 2 9 3 10 7 11 4 13 6 14
REMARK SMILES IDX 5 15 8 16 75 17 9 18 76 19 77 20 78 21 79 22 91 23 80 24
REMARK SMILES IDX 86 25 85 26 81 27 82 28 83 29 84 30 87 31 88 32 89 33 90 34
REMARK SMILES IDX 16 35 17 36 18 37 19 38 20 40 21 41 22 42 74 43 23 44 73 45
REMARK SMILES IDX 24 46 25 47 26 48 67 49 27 50 72 51 66 52 68 53 28 54 71 55
REMARK SMILES IDX 65 56 64 57 29 59 55 60 38 61 54 62 39 63 42 64 53 65 69 66
REMARK SMILES IDX 40 67 41 68 52 70 70 71 43 72 30 73 31 74 36 75 32 76 33 77
REMARK SMILES IDX 35 78 37 79 34 80 56 81 57 82 62 83 58 84 59 85 61 86 63 87
REMARK SMILES IDX 60 88 44 89 45 90 50 91 46 92 47 93 49 94 51 95 48 96
REMARK H PARENT 13 6 2 12 18 39 68 58 42 69
REMARK Flexibility Score: inf
ROOT
ATOM      1  C   UNL A   1      31.740  30.685  26.144  1.00  0.00     0.023 C 
ENDROOT
BRANCH   1   2
ATOM      2  C   UNL A   1      31.944  29.504  27.090  1.00  0.00     0.116 C 
BRANCH   2   3
ATOM      3  N   UNL A   1      33.102  28.723  26.714  1.00  0.00    -0.354 N 
ATOM      4  C   UNL A   1      33.186  27.401  26.387  1.00  0.00     0.245 C 
ATOM      5  O   UNL A   1      34.315  26.973  26.130  1.00  0.00    -0.273 OA
ATOM      6  H   UNL A   1      33.953  29.217  26.692  1.00  0.00     0.163 HD
BRANCH   4   7
ATOM      7  C   UNL A   1      31.928  26.501  26.401  1.00  0.00     0.203 C 
ATOM      8  C   UNL A   1      32.957  23.271  20.866  1.00  0.00     0.332 C 
ATOM      9  N   UNL A   1      32.822  23.556  22.287  1.00  0.00    -0.337 N 
ATOM     10  C   UNL A   1      33.620  24.690  22.725  1.00  0.00     0.267 C 
ATOM     11  C   UNL A   1      31.463  23.380  22.784  1.00  0.00     0.267 C 
ATOM     12  H   UNL A   1      33.284  22.819  22.819  1.00  0.00     0.347 HD
ATOM     13  C   UNL A   1      32.869  25.868  23.290  1.00  0.00     0.120 C 
ATOM     14  C   UNL A   1      30.794  24.513  23.549  1.00  0.00     0.120 C 
ATOM     15  C   UNL A   1      31.731  25.497  24.241  1.00  0.00     0.155 C 
ATOM     16  O   UNL A   1      30.934  26.730  24.292  1.00  0.00    -0.352 OA
ATOM     17  N   UNL A   1      32.090  25.251  25.657  1.00  0.00    -0.295 N 
ATOM     18  C   UNL A   1      30.805  27.165  25.647  1.00  0.00     0.198 C 
BRANCH  17  19
ATOM     19  C   UNL A   1      32.264  24.093  26.407  1.00  0.00     0.256 C 
ATOM     20  O   UNL A   1      31.592  23.850  27.412  1.00  0.00    -0.269 OA
BRANCH  19  21
ATOM     21  C   UNL A   1      33.235  23.042  26.077  1.00  0.00     0.041 A 
ATOM     22  C   UNL A   1      34.601  23.353  26.072  1.00  0.00     0.027 A 
ATOM     23  C   UNL A   1      32.811  21.797  25.619  1.00  0.00     0.027 A 
ATOM     24  C   UNL A   1      35.553  22.374  25.738  1.00  0.00     0.057 A 
ATOM     25  C   UNL A   1      33.739  20.772  25.382  1.00  0.00     0.057 A 
ATOM     26  C   UNL A   1      35.110  21.076  25.429  1.00  0.00     0.026 A 
BRANCH  24  27
ATOM     27  C   UNL A   1      37.023  22.720  25.713  1.00  0.00     0.416 C 
ATOM     28  F   UNL A   1      37.343  23.681  26.622  1.00  0.00    -0.166 F 
ATOM     29  F   UNL A   1      37.814  21.650  25.997  1.00  0.00    -0.166 F 
ATOM     30  F   UNL A   1      37.446  23.188  24.506  1.00  0.00    -0.166 F 
ENDBRANCH  24  27
BRANCH  25  31
ATOM     31  C   UNL A   1      33.283  19.349  25.152  1.00  0.00     0.416 C 
ATOM     32  F   UNL A   1      32.802  18.770  26.286  1.00  0.00    -0.166 F 
ATOM     33  F   UNL A   1      32.276  19.269  24.239  1.00  0.00    -0.166 F 
ATOM     34  F   UNL A   1      34.268  18.524  24.700  1.00  0.00    -0.166 F 
ENDBRANCH  25  31
ENDBRANCH  19  21
ENDBRANCH  17  19
ENDBRANCH   4   7
ENDBRANCH   2   3
ENDBRANCH   1   2
BRANCH   1  35
ATOM     35  C   UNL A   1      31.431  32.010  26.841  1.00  0.00     0.023 C 
BRANCH  35  36
ATOM     36  C   UNL A   1      32.650  32.793  27.319  1.00  0.00     0.116 C 
BRANCH  36  37
ATOM     37  N   UNL A   1      32.348  34.181  27.632  1.00  0.00    -0.352 N 
ATOM     38  C   UNL A   1      32.960  35.016  28.536  1.00  0.00     0.251 C 
ATOM     39  H   UNL A   1      31.603  34.578  27.127  1.00  0.00     0.163 HD
ATOM     40  O   UNL A   1      32.496  36.128  28.767  1.00  0.00    -0.269 OA
BRANCH  38  41
ATOM     41  C   UNL A   1      34.157  34.547  29.262  1.00  0.00     0.039 A 
ATOM     42  C   UNL A   1      33.996  33.999  30.536  1.00  0.00     0.014 A 
ATOM     43  C   UNL A   1      35.423  34.610  28.674  1.00  0.00     0.014 A 
ATOM     44  C   UNL A   1      35.094  33.434  31.186  1.00  0.00     0.010 A 
ATOM     45  C   UNL A   1      36.502  33.984  29.292  1.00  0.00     0.010 A 
ATOM     46  C   UNL A   1      36.343  33.377  30.547  1.00  0.00    -0.014 A 
BRANCH  46  47
ATOM     47  C   UNL A   1      37.480  32.639  31.154  1.00  0.00     0.031 A 
ATOM     48  C   UNL A   1      38.086  33.100  32.447  1.00  0.00     0.074 A 
ATOM     49  C   UNL A   1      38.009  31.590  30.495  1.00  0.00     0.049 A 
ATOM     50  N   UNL A   1      39.118  32.617  33.093  1.00  0.00    -0.248 NA
ATOM     51  C   UNL A   1      37.469  34.270  33.090  1.00  0.00     0.031 C 
ATOM     52  C   UNL A   1      37.540  31.077  29.205  1.00  0.00     0.029 A 
ATOM     53  N   UNL A   1      39.065  30.772  30.812  1.00  0.00    -0.354 N 
ATOM     54  C   UNL A   1      39.277  33.425  34.211  1.00  0.00     0.074 A 
ATOM     55  C   UNL A   1      38.269  34.461  34.128  1.00  0.00     0.031 C 
ATOM     56  C   UNL A   1      38.288  30.020  28.854  1.00  0.00     0.029 A 
ATOM     57  C   UNL A   1      39.316  29.807  29.867  1.00  0.00     0.049 A 
ATOM     58  H   UNL A   1      39.592  30.869  31.637  1.00  0.00     0.167 HD
ATOM     59  C   UNL A   1      40.169  33.303  35.223  1.00  0.00     0.037 A 
ATOM     60  C   UNL A   1      40.275  28.862  29.816  1.00  0.00     0.037 A 
ATOM     61  C   UNL A   1      41.162  32.263  35.305  1.00  0.00     0.049 A 
ATOM     62  C   UNL A   1      41.268  28.765  30.939  1.00  0.00     0.074 A 
ATOM     63  C   UNL A   1      42.070  32.018  36.322  1.00  0.00     0.029 A 
ATOM     64  N   UNL A   1      41.388  31.304  34.329  1.00  0.00    -0.354 N 
ATOM     65  N   UNL A   1      41.359  29.489  32.029  1.00  0.00    -0.248 NA
ATOM     66  C   UNL A   1      42.294  27.719  30.826  1.00  0.00     0.031 C 
ATOM     67  C   UNL A   1      42.879  30.945  35.936  1.00  0.00     0.029 A 
ATOM     68  C   UNL A   1      42.442  30.486  34.705  1.00  0.00     0.049 A 
ATOM     69  H   UNL A   1      40.875  31.218  33.494  1.00  0.00     0.167 HD
ATOM     70  C   UNL A   1      42.434  28.974  32.740  1.00  0.00     0.074 A 
ATOM     71  C   UNL A   1      42.951  27.863  31.969  1.00  0.00     0.031 C 
ATOM     72  C   UNL A   1      42.949  29.385  33.925  1.00  0.00     0.037 A 
BRANCH  59  73
ATOM     73  C   UNL A   1      40.109  34.319  36.327  1.00  0.00     0.057 A 
ATOM     74  C   UNL A   1      40.833  35.518  36.267  1.00  0.00     0.134 A 
ATOM     75  C   UNL A   1      39.286  34.117  37.442  1.00  0.00     0.134 A 
ATOM     76  F   UNL A   1      41.648  35.770  35.232  1.00  0.00    -0.206 F 
ATOM     77  C   UNL A   1      40.759  36.467  37.289  1.00  0.00     0.040 A 
ATOM     78  C   UNL A   1      39.184  35.072  38.456  1.00  0.00     0.040 A 
ATOM     79  F   UNL A   1      38.561  32.995  37.559  1.00  0.00    -0.206 F 
ATOM     80  C   UNL A   1      39.926  36.248  38.384  1.00  0.00     0.006 A 
ENDBRANCH  59  73
BRANCH  60  81
ATOM     81  C   UNL A   1      40.336  27.926  28.665  1.00  0.00     0.057 A 
ATOM     82  C   UNL A   1      41.052  28.252  27.507  1.00  0.00     0.134 A 
ATOM     83  C   UNL A   1      39.677  26.692  28.689  1.00  0.00     0.134 A 
ATOM     84  F   UNL A   1      41.688  29.429  27.416  1.00  0.00    -0.206 F 
ATOM     85  C   UNL A   1      41.094  27.394  26.407  1.00  0.00     0.040 A 
ATOM     86  C   UNL A   1      39.733  25.812  27.608  1.00  0.00     0.040 A 
ATOM     87  F   UNL A   1      38.980  26.317  29.772  1.00  0.00    -0.206 F 
ATOM     88  C   UNL A   1      40.438  26.166  26.459  1.00  0.00     0.006 A 
ENDBRANCH  60  81
BRANCH  72  89
ATOM     89  C   UNL A   1      44.119  28.617  34.467  1.00  0.00     0.057 A 
ATOM     90  C   UNL A   1      45.440  29.021  34.236  1.00  0.00     0.134 A 
ATOM     91  C   UNL A   1      43.921  27.477  35.257  1.00  0.00     0.134 A 
ATOM     92  F   UNL A   1      45.699  30.096  33.475  1.00  0.00    -0.206 F 
ATOM     93  C   UNL A   1      46.523  28.306  34.750  1.00  0.00     0.040 A 
ATOM     94  C   UNL A   1      44.995  26.771  35.802  1.00  0.00     0.040 A 
ATOM     95  F   UNL A   1      42.681  27.040  35.525  1.00  0.00    -0.206 F 
ATOM     96  C   UNL A   1      46.301  27.181  35.542  1.00  0.00     0.006 A 
ENDBRANCH  72  89
ENDBRANCH  46  47
ENDBRANCH  38  41
ENDBRANCH  36  37
ENDBRANCH  35  36
ENDBRANCH   1  35
TORSDOF 15
ENDMDL
MODEL 3
REMARK VINA RESULT:     -12.9      5.242     10.166
REMARK SMILES C[NH+]1CCC2(CC1)OC[C@H](C(=O)NCCCCNC(=O)c1ccc(-c3c4nc(c(-c5c(F)cccc5F)c5ccc([nH]5)c(-c5c(F)cccc5F)c5nc(c(-c6c(F)cccc6F)c6ccc3[nH]6)C=C5)C=C4)cc1)N2C(=O)c1cc(C(F)(F)F)cc(C(F)(F)F)c1
REMARK SMILES IDX 15 1 14 2 13 3 11 4 12 5 10 7 1 8 2 9 3 10 7 11 4 13 6 14
REMARK SMILES IDX 5 15 8 16 75 17 9 18 76 19 77 20 78 21 79 22 91 23 80 24
REMARK SMILES IDX 86 25 85 26 81 27 82 28 83 29 84 30 87 31 88 32 89 33 90 34
REMARK SMILES IDX 16 35 17 36 18 37 19 38 20 40 21 41 22 42 74 43 23 44 73 45
REMARK SMILES IDX 24 46 25 47 26 48 67 49 27 50 72 51 66 52 68 53 28 54 71 55
REMARK SMILES IDX 65 56 64 57 29 59 55 60 38 61 54 62 39 63 42 64 53 65 69 66
REMARK SMILES IDX 40 67 41 68 52 70 70 71 43 72 30 73 31 74 36 75 32 76 33 77
REMARK SMILES IDX 35 78 37 79 34 80 56 81 57 82 62 83 58 84 59 85 61 86 63 87
REMARK SMILES IDX 60 88 44 89 45 90 50 91 46 92 47 93 49 94 51 95 48 96
REMARK H PARENT 13 6 2 12 18 39 68 58 42 69
REMARK Flexibility Score: inf
ROOT
ATOM      1  C   UNL A   1      36.929  20.654  24.981  1.00  0.00     0.023 C 
ENDROOT
BRANCH   1   2
ATOM      2  C   UNL A   1      37.049  21.992  24.255  1.00  0.00     0.116 C 
BRANCH   2   3
ATOM      3  N   UNL A   1      36.627  23.088  25.100  1.00  0.00    -0.354 N 
ATOM      4  C   UNL A   1      35.627  23.995  24.907  1.00  0.00     0.245 C 
ATOM      5  O   UNL A   1      35.495  24.856  25.781  1.00  0.00    -0.273 OA
ATOM      6  H   UNL A   1      37.137  23.195  25.936  1.00  0.00     0.163 HD
BRANCH   4   7
ATOM      7  C   UNL A   1      34.759  23.956  23.627  1.00  0.00     0.203 C 
ATOM      8  C   UNL A   1      28.955  25.030  26.327  1.00  0.00     0.332 C 
ATOM      9  N   UNL A   1      30.169  25.233  25.551  1.00  0.00    -0.337 N 
ATOM     10  C   UNL A   1      31.386  24.993  26.311  1.00  0.00     0.267 C 
ATOM     11  C   UNL A   1      30.059  24.764  24.175  1.00  0.00     0.267 C 
ATOM     12  H   UNL A   1      30.286  26.230  25.372  1.00  0.00     0.347 HD
ATOM     13  C   UNL A   1      32.281  23.884  25.822  1.00  0.00     0.120 C 
ATOM     14  C   UNL A   1      31.105  23.804  23.626  1.00  0.00     0.120 C 
ATOM     15  C   UNL A   1      32.470  23.843  24.306  1.00  0.00     0.155 C 
ATOM     16  O   UNL A   1      32.990  22.488  24.078  1.00  0.00    -0.352 OA
ATOM     17  N   UNL A   1      33.517  24.722  23.735  1.00  0.00    -0.295 N 
ATOM     18  C   UNL A   1      34.241  22.560  23.393  1.00  0.00     0.198 C 
BRANCH  17  19
ATOM     19  C   UNL A   1      33.475  25.944  23.073  1.00  0.00     0.256 C 
ATOM     20  O   UNL A   1      33.970  26.109  21.955  1.00  0.00    -0.269 OA
BRANCH  19  21
ATOM     21  C   UNL A   1      32.831  27.148  23.615  1.00  0.00     0.041 A 
ATOM     22  C   UNL A   1      33.306  27.693  24.815  1.00  0.00     0.027 A 
ATOM     23  C   UNL A   1      31.665  27.652  23.044  1.00  0.00     0.027 A 
ATOM     24  C   UNL A   1      32.696  28.831  25.371  1.00  0.00     0.057 A 
ATOM     25  C   UNL A   1      31.099  28.845  23.517  1.00  0.00     0.057 A 
ATOM     26  C   UNL A   1      31.614  29.419  24.693  1.00  0.00     0.026 A 
BRANCH  24  27
ATOM     27  C   UNL A   1      33.199  29.404  26.675  1.00  0.00     0.416 C 
ATOM     28  F   UNL A   1      33.799  30.613  26.511  1.00  0.00    -0.166 F 
ATOM     29  F   UNL A   1      32.200  29.595  27.579  1.00  0.00    -0.166 F 
ATOM     30  F   UNL A   1      34.116  28.609  27.294  1.00  0.00    -0.166 F 
ENDBRANCH  24  27
BRANCH  25  31
ATOM     31  C   UNL A   1      30.006  29.547  22.744  1.00  0.00     0.416 C 
ATOM     32  F   UNL A   1      30.453  30.060  21.565  1.00  0.00    -0.166 F 
ATOM     33  F   UNL A   1      28.982  28.709  22.419  1.00  0.00    -0.166 F 
ATOM     34  F   UNL A   1      29.441  30.589  23.415  1.00  0.00    -0.166 F 
ENDBRANCH  25  31
ENDBRANCH  19  21
ENDBRANCH  17  19
ENDBRANCH   4   7
ENDBRANCH   2   3
ENDBRANCH   1   2
BRANCH   1  35
ATOM     35  C   UNL A   1      38.144  19.737  24.825  1.00  0.00     0.023 C 
BRANCH  35  36
ATOM     36  C   UNL A   1      39.322  20.060  25.737  1.00  0.00     0.116 C 
BRANCH  36  37
ATOM     37  N   UNL A   1      40.284  18.972  25.832  1.00  0.00    -0.352 N 
ATOM     38  C   UNL A   1      41.629  19.029  26.105  1.00  0.00     0.251 C 
ATOM     39  H   UNL A   1      39.920  18.070  25.679  1.00  0.00     0.163 HD
ATOM     40  O   UNL A   1      42.323  18.020  26.022  1.00  0.00    -0.269 OA
BRANCH  38  41
ATOM     41  C   UNL A   1      42.244  20.324  26.457  1.00  0.00     0.039 A 
ATOM     42  C   UNL A   1      42.821  21.089  25.441  1.00  0.00     0.014 A 
ATOM     43  C   UNL A   1      42.216  20.798  27.771  1.00  0.00     0.014 A 
ATOM     44  C   UNL A   1      43.293  22.370  25.729  1.00  0.00     0.010 A 
ATOM     45  C   UNL A   1      42.622  22.101  28.042  1.00  0.00     0.010 A 
ATOM     46  C   UNL A   1      43.150  22.905  27.021  1.00  0.00    -0.014 A 
BRANCH  46  47
ATOM     47  C   UNL A   1      43.498  24.320  27.305  1.00  0.00     0.031 A 
ATOM     48  C   UNL A   1      44.926  24.780  27.257  1.00  0.00     0.074 A 
ATOM     49  C   UNL A   1      42.524  25.174  27.677  1.00  0.00     0.049 A 
ATOM     50  N   UNL A   1      45.422  25.960  27.534  1.00  0.00    -0.248 NA
ATOM     51  C   UNL A   1      45.933  23.780  26.870  1.00  0.00     0.031 C 
ATOM     52  C   UNL A   1      41.105  24.834  27.810  1.00  0.00     0.029 A 
ATOM     53  N   UNL A   1      42.580  26.501  28.024  1.00  0.00    -0.354 N 
ATOM     54  C   UNL A   1      46.795  25.843  27.361  1.00  0.00     0.074 A 
ATOM     55  C   UNL A   1      47.059  24.464  27.007  1.00  0.00     0.031 C 
ATOM     56  C   UNL A   1      40.424  25.927  28.185  1.00  0.00     0.029 A 
ATOM     57  C   UNL A   1      41.359  27.033  28.363  1.00  0.00     0.049 A 
ATOM     58  H   UNL A   1      43.415  27.022  28.029  1.00  0.00     0.167 HD
ATOM     59  C   UNL A   1      47.746  26.802  27.468  1.00  0.00     0.037 A 
ATOM     60  C   UNL A   1      41.031  28.269  28.783  1.00  0.00     0.037 A 
ATOM     61  C   UNL A   1      47.475  28.175  27.810  1.00  0.00     0.049 A 
ATOM     62  C   UNL A   1      42.109  29.308  28.919  1.00  0.00     0.074 A 
ATOM     63  C   UNL A   1      48.364  29.235  27.883  1.00  0.00     0.029 A 
ATOM     64  N   UNL A   1      46.228  28.676  28.149  1.00  0.00    -0.354 N 
ATOM     65  N   UNL A   1      43.394  29.202  28.678  1.00  0.00    -0.248 NA
ATOM     66  C   UNL A   1      41.692  30.637  29.386  1.00  0.00     0.031 C 
ATOM     67  C   UNL A   1      47.662  30.364  28.318  1.00  0.00     0.029 A 
ATOM     68  C   UNL A   1      46.328  30.022  28.463  1.00  0.00     0.049 A 
ATOM     69  H   UNL A   1      45.394  28.153  28.163  1.00  0.00     0.167 HD
ATOM     70  C   UNL A   1      43.934  30.454  28.943  1.00  0.00     0.074 A 
ATOM     71  C   UNL A   1      42.835  31.308  29.342  1.00  0.00     0.031 C 
ATOM     72  C   UNL A   1      45.225  30.859  28.863  1.00  0.00     0.037 A 
BRANCH  59  73
ATOM     73  C   UNL A   1      49.169  26.399  27.211  1.00  0.00     0.057 A 
ATOM     74  C   UNL A   1      49.751  26.510  25.942  1.00  0.00     0.134 A 
ATOM     75  C   UNL A   1      49.981  25.936  28.255  1.00  0.00     0.134 A 
ATOM     76  F   UNL A   1      49.027  26.937  24.897  1.00  0.00    -0.206 F 
ATOM     77  C   UNL A   1      51.081  26.150  25.714  1.00  0.00     0.040 A 
ATOM     78  C   UNL A   1      51.319  25.600  28.044  1.00  0.00     0.040 A 
ATOM     79  F   UNL A   1      49.490  25.812  29.497  1.00  0.00    -0.206 F 
ATOM     80  C   UNL A   1      51.871  25.701  26.769  1.00  0.00     0.006 A 
ENDBRANCH  59  73
BRANCH  60  81
ATOM     81  C   UNL A   1      39.617  28.598  29.096  1.00  0.00     0.057 A 
ATOM     82  C   UNL A   1      38.771  29.143  28.124  1.00  0.00     0.134 A 
ATOM     83  C   UNL A   1      39.081  28.383  30.371  1.00  0.00     0.134 A 
ATOM     84  F   UNL A   1      39.231  29.390  26.889  1.00  0.00    -0.206 F 
ATOM     85  C   UNL A   1      37.448  29.482  28.413  1.00  0.00     0.040 A 
ATOM     86  C   UNL A   1      37.753  28.692  30.667  1.00  0.00     0.040 A 
ATOM     87  F   UNL A   1      39.839  27.857  31.345  1.00  0.00    -0.206 F 
ATOM     88  C   UNL A   1      36.934  29.251  29.687  1.00  0.00     0.006 A 
ENDBRANCH  60  81
BRANCH  72  89
ATOM     89  C   UNL A   1      45.515  32.294  29.197  1.00  0.00     0.057 A 
ATOM     90  C   UNL A   1      45.896  32.691  30.485  1.00  0.00     0.134 A 
ATOM     91  C   UNL A   1      45.442  33.286  28.210  1.00  0.00     0.134 A 
ATOM     92  F   UNL A   1      45.970  31.793  31.479  1.00  0.00    -0.206 F 
ATOM     93  C   UNL A   1      46.171  34.027  30.786  1.00  0.00     0.040 A 
ATOM     94  C   UNL A   1      45.743  34.620  28.491  1.00  0.00     0.040 A 
ATOM     95  F   UNL A   1      45.091  32.973  26.954  1.00  0.00    -0.206 F 
ATOM     96  C   UNL A   1      46.102  34.994  29.784  1.00  0.00     0.006 A 
ENDBRANCH  72  89
ENDBRANCH  46  47
ENDBRANCH  38  41
ENDBRANCH  36  37
ENDBRANCH  35  36
ENDBRANCH   1  35
TORSDOF 15
ENDMDL
