MODEL 1
REMARK VINA RESULT:     -10.4      0.000      0.000
REMARK SMILES C=CC[C@@](CC)(C(=O)NCCCCNC(=O)c1ccc(-c2c3nc(c(-c4c(F)cccc4F)c4ccc([nH]4)c(-c4c(F)cccc4F)c4nc(c(-c5c(F)cccc5F)c5ccc2[nH]5)C=C4)C=C3)cc1)c1ccccc1
REMARK SMILES IDX 11 1 10 2 9 3 7 4 8 5 4 7 3 8 2 9 1 10 5 11 6 12 71 13 72 14
REMARK SMILES IDX 76 15 73 16 75 17 74 18 12 19 13 20 14 21 15 22 16 24 17 25
REMARK SMILES IDX 18 26 70 27 19 28 69 29 20 30 21 31 22 32 63 33 23 34 68 35
REMARK SMILES IDX 62 36 64 37 24 38 67 39 61 40 60 41 25 43 51 44 34 45 50 46
REMARK SMILES IDX 35 47 38 48 49 49 65 50 36 51 37 52 48 54 66 55 39 56 26 57
REMARK SMILES IDX 27 58 32 59 28 60 29 61 31 62 33 63 30 64 52 65 53 66 58 67
REMARK SMILES IDX 54 68 55 69 57 70 59 71 56 72 40 73 41 74 46 75 42 76 43 77
REMARK SMILES IDX 45 78 47 79 44 80
REMARK H PARENT 9 6 14 23 64 42 38 53
REMARK Flexibility Score: inf
ROOT
ATOM      1  C   UNL A   1      36.990  21.940  24.239  1.00  0.00     0.023 C 
ENDROOT
BRANCH   1   2
ATOM      2  C   UNL A   1      36.611  22.975  25.295  1.00  0.00     0.116 C 
BRANCH   2   3
ATOM      3  N   UNL A   1      35.849  22.398  26.388  1.00  0.00    -0.355 N 
ATOM      4  C   UNL A   1      34.522  22.215  26.652  1.00  0.00     0.230 C 
ATOM      5  O   UNL A   1      34.353  21.647  27.736  1.00  0.00    -0.274 OA
ATOM      6  H   UNL A   1      36.426  22.058  27.109  1.00  0.00     0.163 HD
BRANCH   4   7
ATOM      7  C   UNL A   1      33.346  22.654  25.691  1.00  0.00     0.077 C 
BRANCH   7   8
ATOM      8  C   UNL A   1      33.410  21.677  24.457  1.00  0.00     0.048 C 
BRANCH   8   9
ATOM      9  C   UNL A   1      33.623  20.199  24.677  1.00  0.00    -0.033 C 
ATOM     10  C   UNL A   1      32.636  19.365  25.032  1.00  0.00     0.004 C 
ENDBRANCH   8   9
ENDBRANCH   7   8
BRANCH   7  11
ATOM     11  C   UNL A   1      32.009  22.741  26.504  1.00  0.00     0.018 C 
ATOM     12  C   UNL A   1      30.658  22.591  25.828  1.00  0.00     0.005 C 
ENDBRANCH   7  11
BRANCH   7  13
ATOM     13  C   UNL A   1      33.477  24.127  25.099  1.00  0.00    -0.032 A 
ATOM     14  C   UNL A   1      33.530  25.231  25.984  1.00  0.00     0.005 A 
ATOM     15  C   UNL A   1      33.626  24.437  23.737  1.00  0.00     0.005 A 
ATOM     16  C   UNL A   1      33.643  26.552  25.539  1.00  0.00     0.000 A 
ATOM     17  C   UNL A   1      33.740  25.761  23.285  1.00  0.00     0.000 A 
ATOM     18  C   UNL A   1      33.736  26.819  24.183  1.00  0.00     0.000 A 
ENDBRANCH   7  13
ENDBRANCH   4   7
ENDBRANCH   2   3
ENDBRANCH   1   2
BRANCH   1  19
ATOM     19  C   UNL A   1      37.601  20.648  24.782  1.00  0.00     0.023 C 
BRANCH  19  20
ATOM     20  C   UNL A   1      38.773  20.826  25.742  1.00  0.00     0.116 C 
BRANCH  20  21
ATOM     21  N   UNL A   1      39.744  19.743  25.677  1.00  0.00    -0.352 N 
ATOM     22  C   UNL A   1      41.076  19.751  26.019  1.00  0.00     0.251 C 
ATOM     23  H   UNL A   1      39.399  18.884  25.344  1.00  0.00     0.163 HD
ATOM     24  O   UNL A   1      41.774  18.766  25.816  1.00  0.00    -0.269 OA
BRANCH  22  25
ATOM     25  C   UNL A   1      41.670  20.977  26.591  1.00  0.00     0.039 A 
ATOM     26  C   UNL A   1      42.181  21.944  25.723  1.00  0.00     0.014 A 
ATOM     27  C   UNL A   1      41.679  21.187  27.972  1.00  0.00     0.014 A 
ATOM     28  C   UNL A   1      42.628  23.162  26.236  1.00  0.00     0.010 A 
ATOM     29  C   UNL A   1      42.058  22.428  28.475  1.00  0.00     0.010 A 
ATOM     30  C   UNL A   1      42.530  23.429  27.612  1.00  0.00    -0.014 A 
BRANCH  30  31
ATOM     31  C   UNL A   1      42.900  24.754  28.166  1.00  0.00     0.031 A 
ATOM     32  C   UNL A   1      41.843  25.797  28.395  1.00  0.00     0.074 A 
ATOM     33  C   UNL A   1      44.196  25.044  28.392  1.00  0.00     0.049 A 
ATOM     34  N   UNL A   1      41.976  27.036  28.793  1.00  0.00    -0.248 NA
ATOM     35  C   UNL A   1      40.454  25.404  28.109  1.00  0.00     0.031 C 
ATOM     36  C   UNL A   1      45.321  24.136  28.161  1.00  0.00     0.029 A 
ATOM     37  N   UNL A   1      44.788  26.192  28.856  1.00  0.00    -0.354 N 
ATOM     38  C   UNL A   1      40.696  27.574  28.786  1.00  0.00     0.074 A 
ATOM     39  C   UNL A   1      39.806  26.544  28.298  1.00  0.00     0.031 C 
ATOM     40  C   UNL A   1      46.463  24.754  28.505  1.00  0.00     0.029 A 
ATOM     41  C   UNL A   1      46.156  26.110  28.947  1.00  0.00     0.049 A 
ATOM     42  H   UNL A   1      44.279  26.999  29.100  1.00  0.00     0.167 HD
ATOM     43  C   UNL A   1      40.296  28.809  29.170  1.00  0.00     0.037 A 
ATOM     44  C   UNL A   1      47.061  27.027  29.339  1.00  0.00     0.037 A 
ATOM     45  C   UNL A   1      41.178  29.821  29.688  1.00  0.00     0.049 A 
ATOM     46  C   UNL A   1      46.588  28.387  29.772  1.00  0.00     0.074 A 
ATOM     47  C   UNL A   1      40.858  31.077  30.172  1.00  0.00     0.029 A 
ATOM     48  N   UNL A   1      42.554  29.690  29.790  1.00  0.00    -0.354 N 
ATOM     49  N   UNL A   1      45.366  28.859  29.827  1.00  0.00    -0.248 NA
ATOM     50  C   UNL A   1      47.621  29.341  30.202  1.00  0.00     0.031 C 
ATOM     51  C   UNL A   1      42.046  31.721  30.535  1.00  0.00     0.029 A 
ATOM     52  C   UNL A   1      43.101  30.850  30.314  1.00  0.00     0.049 A 
ATOM     53  H   UNL A   1      43.067  28.891  29.530  1.00  0.00     0.167 HD
ATOM     54  C   UNL A   1      45.479  30.151  30.322  1.00  0.00     0.074 A 
ATOM     55  C   UNL A   1      46.888  30.385  30.563  1.00  0.00     0.031 C 
ATOM     56  C   UNL A   1      44.504  31.061  30.558  1.00  0.00     0.037 A 
BRANCH  43  57
ATOM     57  C   UNL A   1      38.835  29.130  29.052  1.00  0.00     0.057 A 
ATOM     58  C   UNL A   1      37.974  29.064  30.155  1.00  0.00     0.134 A 
ATOM     59  C   UNL A   1      38.290  29.540  27.830  1.00  0.00     0.134 A 
ATOM     60  F   UNL A   1      38.432  28.664  31.352  1.00  0.00    -0.206 F 
ATOM     61  C   UNL A   1      36.618  29.369  30.042  1.00  0.00     0.040 A 
ATOM     62  C   UNL A   1      36.940  29.873  27.710  1.00  0.00     0.040 A 
ATOM     63  F   UNL A   1      39.060  29.631  26.735  1.00  0.00    -0.206 F 
ATOM     64  C   UNL A   1      36.098  29.782  28.817  1.00  0.00     0.006 A 
ENDBRANCH  43  57
BRANCH  44  65
ATOM     65  C   UNL A   1      48.504  26.685  29.368  1.00  0.00     0.057 A 
ATOM     66  C   UNL A   1      49.337  26.989  28.285  1.00  0.00     0.134 A 
ATOM     67  C   UNL A   1      49.083  26.040  30.467  1.00  0.00     0.134 A 
ATOM     68  F   UNL A   1      48.834  27.590  27.196  1.00  0.00    -0.206 F 
ATOM     69  C   UNL A   1      50.690  26.645  28.282  1.00  0.00     0.040 A 
ATOM     70  C   UNL A   1      50.440  25.710  30.488  1.00  0.00     0.040 A 
ATOM     71  F   UNL A   1      48.340  25.729  31.539  1.00  0.00    -0.206 F 
ATOM     72  C   UNL A   1      51.245  26.008  29.390  1.00  0.00     0.006 A 
ENDBRANCH  44  65
BRANCH  56  73
ATOM     73  C   UNL A   1      44.923  32.379  31.138  1.00  0.00     0.057 A 
ATOM     74  C   UNL A   1      45.031  32.576  32.520  1.00  0.00     0.134 A 
ATOM     75  C   UNL A   1      45.262  33.450  30.302  1.00  0.00     0.134 A 
ATOM     76  F   UNL A   1      44.708  31.593  33.375  1.00  0.00    -0.206 F 
ATOM     77  C   UNL A   1      45.442  33.799  33.051  1.00  0.00     0.040 A 
ATOM     78  C   UNL A   1      45.696  34.670  30.819  1.00  0.00     0.040 A 
ATOM     79  F   UNL A   1      45.187  33.322  28.968  1.00  0.00    -0.206 F 
ATOM     80  C   UNL A   1      45.783  34.848  32.198  1.00  0.00     0.006 A 
ENDBRANCH  56  73
ENDBRANCH  30  31
ENDBRANCH  22  25
ENDBRANCH  20  21
ENDBRANCH  19  20
ENDBRANCH   1  19
TORSDOF 15
ENDMDL
MODEL 2
REMARK VINA RESULT:     -10.4      4.249      8.873
REMARK SMILES C=CC[C@@](CC)(C(=O)NCCCCNC(=O)c1ccc(-c2c3nc(c(-c4c(F)cccc4F)c4ccc([nH]4)c(-c4c(F)cccc4F)c4nc(c(-c5c(F)cccc5F)c5ccc2[nH]5)C=C4)C=C3)cc1)c1ccccc1
REMARK SMILES IDX 11 1 10 2 9 3 7 4 8 5 4 7 3 8 2 9 1 10 5 11 6 12 71 13 72 14
REMARK SMILES IDX 76 15 73 16 75 17 74 18 12 19 13 20 14 21 15 22 16 24 17 25
REMARK SMILES IDX 18 26 70 27 19 28 69 29 20 30 21 31 22 32 63 33 23 34 68 35
REMARK SMILES IDX 62 36 64 37 24 38 67 39 61 40 60 41 25 43 51 44 34 45 50 46
REMARK SMILES IDX 35 47 38 48 49 49 65 50 36 51 37 52 48 54 66 55 39 56 26 57
REMARK SMILES IDX 27 58 32 59 28 60 29 61 31 62 33 63 30 64 52 65 53 66 58 67
REMARK SMILES IDX 54 68 55 69 57 70 59 71 56 72 40 73 41 74 46 75 42 76 43 77
REMARK SMILES IDX 45 78 47 79 44 80
REMARK H PARENT 9 6 14 23 64 42 38 53
REMARK Flexibility Score: inf
ROOT
ATOM      1  C   UNL A   1      31.683  30.436  25.773  1.00  0.00     0.023 C 
ENDROOT
BRANCH   1   2
ATOM      2  C   UNL A   1      32.971  29.631  25.922  1.00  0.00     0.116 C 
BRANCH   2   3
ATOM      3  N   UNL A   1      33.665  29.456  24.658  1.00  0.00    -0.355 N 
ATOM      4  C   UNL A   1      33.724  28.471  23.715  1.00  0.00     0.230 C 
ATOM      5  O   UNL A   1      34.459  28.791  22.776  1.00  0.00    -0.274 OA
ATOM      6  H   UNL A   1      34.225  30.231  24.427  1.00  0.00     0.163 HD
BRANCH   4   7
ATOM      7  C   UNL A   1      32.938  27.101  23.797  1.00  0.00     0.077 C 
BRANCH   7   8
ATOM      8  C   UNL A   1      33.372  26.277  22.527  1.00  0.00     0.048 C 
BRANCH   8   9
ATOM      9  C   UNL A   1      32.653  24.996  22.179  1.00  0.00    -0.033 C 
ATOM     10  C   UNL A   1      33.227  23.789  22.275  1.00  0.00     0.004 C 
ENDBRANCH   8   9
ENDBRANCH   7   8
BRANCH   7  11
ATOM     11  C   UNL A   1      33.152  26.459  25.211  1.00  0.00     0.018 C 
ATOM     12  C   UNL A   1      34.308  25.514  25.486  1.00  0.00     0.005 C 
ENDBRANCH   7  11
BRANCH   7  13
ATOM     13  C   UNL A   1      31.352  27.231  23.722  1.00  0.00    -0.032 A 
ATOM     14  C   UNL A   1      30.773  28.230  22.902  1.00  0.00     0.005 A 
ATOM     15  C   UNL A   1      30.444  26.368  24.356  1.00  0.00     0.005 A 
ATOM     16  C   UNL A   1      29.390  28.405  22.787  1.00  0.00     0.000 A 
ATOM     17  C   UNL A   1      29.055  26.539  24.244  1.00  0.00     0.000 A 
ATOM     18  C   UNL A   1      28.528  27.563  23.470  1.00  0.00     0.000 A 
ENDBRANCH   7  13
ENDBRANCH   4   7
ENDBRANCH   2   3
ENDBRANCH   1   2
BRANCH   1  19
ATOM     19  C   UNL A   1      31.489  31.551  26.800  1.00  0.00     0.023 C 
BRANCH  19  20
ATOM     20  C   UNL A   1      32.735  32.365  27.134  1.00  0.00     0.116 C 
BRANCH  20  21
ATOM     21  N   UNL A   1      32.443  33.729  27.547  1.00  0.00    -0.352 N 
ATOM     22  C   UNL A   1      33.129  34.536  28.425  1.00  0.00     0.251 C 
ATOM     23  H   UNL A   1      31.643  34.133  27.140  1.00  0.00     0.163 HD
ATOM     24  O   UNL A   1      32.690  35.638  28.728  1.00  0.00    -0.269 OA
BRANCH  22  25
ATOM     25  C   UNL A   1      34.379  34.041  29.037  1.00  0.00     0.039 A 
ATOM     26  C   UNL A   1      34.302  33.292  30.213  1.00  0.00     0.014 A 
ATOM     27  C   UNL A   1      35.614  34.278  28.427  1.00  0.00     0.014 A 
ATOM     28  C   UNL A   1      35.456  32.709  30.735  1.00  0.00     0.010 A 
ATOM     29  C   UNL A   1      36.751  33.637  28.908  1.00  0.00     0.010 A 
ATOM     30  C   UNL A   1      36.682  32.841  30.062  1.00  0.00    -0.014 A 
BRANCH  30  31
ATOM     31  C   UNL A   1      37.901  32.144  30.540  1.00  0.00     0.031 A 
ATOM     32  C   UNL A   1      38.725  32.740  31.646  1.00  0.00     0.074 A 
ATOM     33  C   UNL A   1      38.306  31.014  29.929  1.00  0.00     0.049 A 
ATOM     34  N   UNL A   1      39.862  32.327  32.146  1.00  0.00    -0.248 NA
ATOM     35  C   UNL A   1      38.220  33.984  32.251  1.00  0.00     0.031 C 
ATOM     36  C   UNL A   1      37.623  30.364  28.809  1.00  0.00     0.029 A 
ATOM     37  N   UNL A   1      39.402  30.219  30.155  1.00  0.00    -0.354 N 
ATOM     38  C   UNL A   1      40.216  33.266  33.105  1.00  0.00     0.074 A 
ATOM     39  C   UNL A   1      39.200  34.296  33.085  1.00  0.00     0.031 C 
ATOM     40  C   UNL A   1      38.301  29.258  28.462  1.00  0.00     0.029 A 
ATOM     41  C   UNL A   1      39.484  29.139  29.309  1.00  0.00     0.049 A 
ATOM     42  H   UNL A   1      40.066  30.404  30.857  1.00  0.00     0.167 HD
ATOM     43  C   UNL A   1      41.281  33.261  33.941  1.00  0.00     0.037 A 
ATOM     44  C   UNL A   1      40.411  28.167  29.222  1.00  0.00     0.037 A 
ATOM     45  C   UNL A   1      42.272  32.218  33.984  1.00  0.00     0.049 A 
ATOM     46  C   UNL A   1      41.578  28.178  30.170  1.00  0.00     0.074 A 
ATOM     47  C   UNL A   1      43.347  32.086  34.844  1.00  0.00     0.029 A 
ATOM     48  N   UNL A   1      42.305  31.128  33.128  1.00  0.00    -0.354 N 
ATOM     49  N   UNL A   1      41.863  29.036  31.121  1.00  0.00    -0.248 NA
ATOM     50  C   UNL A   1      42.550  27.084  30.038  1.00  0.00     0.031 C 
ATOM     51  C   UNL A   1      44.053  30.931  34.486  1.00  0.00     0.029 A 
ATOM     52  C   UNL A   1      43.393  30.325  33.429  1.00  0.00     0.049 A 
ATOM     53  H   UNL A   1      41.652  30.948  32.413  1.00  0.00     0.167 HD
ATOM     54  C   UNL A   1      43.027  28.571  31.716  1.00  0.00     0.074 A 
ATOM     55  C   UNL A   1      43.391  27.349  31.028  1.00  0.00     0.031 C 
ATOM     56  C   UNL A   1      43.733  29.106  32.741  1.00  0.00     0.037 A 
BRANCH  43  57
ATOM     57  C   UNL A   1      41.424  34.418  34.886  1.00  0.00     0.057 A 
ATOM     58  C   UNL A   1      42.135  35.573  34.535  1.00  0.00     0.134 A 
ATOM     59  C   UNL A   1      40.818  34.388  36.147  1.00  0.00     0.134 A 
ATOM     60  F   UNL A   1      42.750  35.658  33.345  1.00  0.00    -0.206 F 
ATOM     61  C   UNL A   1      42.259  36.648  35.415  1.00  0.00     0.040 A 
ATOM     62  C   UNL A   1      40.914  35.469  37.026  1.00  0.00     0.040 A 
ATOM     63  F   UNL A   1      40.118  33.315  36.544  1.00  0.00    -0.206 F 
ATOM     64  C   UNL A   1      41.642  36.601  36.664  1.00  0.00     0.006 A 
ENDBRANCH  43  57
BRANCH  44  65
ATOM     65  C   UNL A   1      40.264  27.083  28.220  1.00  0.00     0.057 A 
ATOM     66  C   UNL A   1      39.522  25.932  28.511  1.00  0.00     0.134 A 
ATOM     67  C   UNL A   1      40.866  27.162  26.960  1.00  0.00     0.134 A 
ATOM     68  F   UNL A   1      38.938  25.791  29.711  1.00  0.00    -0.206 F 
ATOM     69  C   UNL A   1      39.400  24.888  27.593  1.00  0.00     0.040 A 
ATOM     70  C   UNL A   1      40.734  26.135  26.022  1.00  0.00     0.040 A 
ATOM     71  F   UNL A   1      41.583  28.242  26.617  1.00  0.00    -0.206 F 
ATOM     72  C   UNL A   1      40.005  24.991  26.342  1.00  0.00     0.006 A 
ENDBRANCH  44  65
BRANCH  56  73
ATOM     73  C   UNL A   1      44.945  28.356  33.204  1.00  0.00     0.057 A 
ATOM     74  C   UNL A   1      44.862  27.337  34.160  1.00  0.00     0.134 A 
ATOM     75  C   UNL A   1      46.205  28.630  32.655  1.00  0.00     0.134 A 
ATOM     76  F   UNL A   1      43.686  27.036  34.734  1.00  0.00    -0.206 F 
ATOM     77  C   UNL A   1      45.992  26.629  34.571  1.00  0.00     0.040 A 
ATOM     78  C   UNL A   1      47.338  27.914  33.039  1.00  0.00     0.040 A 
ATOM     79  F   UNL A   1      46.349  29.589  31.729  1.00  0.00    -0.206 F 
ATOM     80  C   UNL A   1      47.234  26.913  34.004  1.00  0.00     0.006 A 
ENDBRANCH  56  73
ENDBRANCH  30  31
ENDBRANCH  22  25
ENDBRANCH  20  21
ENDBRANCH  19  20
ENDBRANCH   1  19
TORSDOF 15
ENDMDL
MODEL 3
REMARK VINA RESULT:     -10.1      2.288      7.155
REMARK SMILES C=CC[C@@](CC)(C(=O)NCCCCNC(=O)c1ccc(-c2c3nc(c(-c4c(F)cccc4F)c4ccc([nH]4)c(-c4c(F)cccc4F)c4nc(c(-c5c(F)cccc5F)c5ccc2[nH]5)C=C4)C=C3)cc1)c1ccccc1
REMARK SMILES IDX 11 1 10 2 9 3 7 4 8 5 4 7 3 8 2 9 1 10 5 11 6 12 71 13 72 14
REMARK SMILES IDX 76 15 73 16 75 17 74 18 12 19 13 20 14 21 15 22 16 24 17 25
REMARK SMILES IDX 18 26 70 27 19 28 69 29 20 30 21 31 22 32 63 33 23 34 68 35
REMARK SMILES IDX 62 36 64 37 24 38 67 39 61 40 60 41 25 43 51 44 34 45 50 46
REMARK SMILES IDX 35 47 38 48 49 49 65 50 36 51 37 52 48 54 66 55 39 56 26 57
REMARK SMILES IDX 27 58 32 59 28 60 29 61 31 62 33 63 30 64 52 65 53 66 58 67
REMARK SMILES IDX 54 68 55 69 57 70 59 71 56 72 40 73 41 74 46 75 42 76 43 77
REMARK SMILES IDX 45 78 47 79 44 80
REMARK H PARENT 9 6 14 23 64 42 38 53
REMARK Flexibility Score: inf
ROOT
ATOM      1  C   UNL A   1      33.735  26.951  26.135  1.00  0.00     0.023 C 
ENDROOT
BRANCH   1   2
ATOM      2  C   UNL A   1      32.561  26.275  25.433  1.00  0.00     0.116 C 
BRANCH   2   3
ATOM      3  N   UNL A   1      31.921  25.271  26.265  1.00  0.00    -0.355 N 
ATOM      4  C   UNL A   1      31.833  23.909  26.241  1.00  0.00     0.230 C 
ATOM      5  O   UNL A   1      31.175  23.484  27.196  1.00  0.00    -0.274 OA
ATOM      6  H   UNL A   1      31.439  25.666  27.026  1.00  0.00     0.163 HD
BRANCH   4   7
ATOM      7  C   UNL A   1      32.499  22.984  25.145  1.00  0.00     0.077 C 
BRANCH   7   8
ATOM      8  C   UNL A   1      32.274  21.504  25.633  1.00  0.00     0.048 C 
BRANCH   8   9
ATOM      9  C   UNL A   1      32.371  20.364  24.648  1.00  0.00    -0.033 C 
ATOM     10  C   UNL A   1      33.451  19.576  24.550  1.00  0.00     0.004 C 
ENDBRANCH   8   9
ENDBRANCH   7   8
BRANCH   7  11
ATOM     11  C   UNL A   1      31.971  23.390  23.726  1.00  0.00     0.018 C 
ATOM     12  C   UNL A   1      30.535  23.835  23.513  1.00  0.00     0.005 C 
ENDBRANCH   7  11
BRANCH   7  13
ATOM     13  C   UNL A   1      34.074  23.164  24.982  1.00  0.00    -0.032 A 
ATOM     14  C   UNL A   1      34.881  23.309  26.137  1.00  0.00     0.005 A 
ATOM     15  C   UNL A   1      34.767  23.114  23.762  1.00  0.00     0.005 A 
ATOM     16  C   UNL A   1      36.269  23.472  26.073  1.00  0.00     0.000 A 
ATOM     17  C   UNL A   1      36.160  23.276  23.692  1.00  0.00     0.000 A 
ATOM     18  C   UNL A   1      36.909  23.468  24.845  1.00  0.00     0.000 A 
ENDBRANCH   7  13
ENDBRANCH   4   7
ENDBRANCH   2   3
ENDBRANCH   1   2
BRANCH   1  19
ATOM     19  C   UNL A   1      33.378  28.188  26.960  1.00  0.00     0.023 C 
BRANCH  19  20
ATOM     20  C   UNL A   1      34.152  29.457  26.616  1.00  0.00     0.116 C 
BRANCH  20  21
ATOM     21  N   UNL A   1      34.004  30.513  27.607  1.00  0.00    -0.352 N 
ATOM     22  C   UNL A   1      34.876  30.905  28.595  1.00  0.00     0.251 C 
ATOM     23  H   UNL A   1      33.160  31.018  27.563  1.00  0.00     0.163 HD
ATOM     24  O   UNL A   1      34.551  31.762  29.405  1.00  0.00    -0.269 OA
BRANCH  22  25
ATOM     25  C   UNL A   1      36.196  30.248  28.698  1.00  0.00     0.039 A 
ATOM     26  C   UNL A   1      37.068  30.319  27.609  1.00  0.00     0.014 A 
ATOM     27  C   UNL A   1      36.584  29.608  29.877  1.00  0.00     0.014 A 
ATOM     28  C   UNL A   1      38.364  29.818  27.732  1.00  0.00     0.010 A 
ATOM     29  C   UNL A   1      37.897  29.174  30.022  1.00  0.00     0.010 A 
ATOM     30  C   UNL A   1      38.802  29.281  28.954  1.00  0.00    -0.014 A 
BRANCH  30  31
ATOM     31  C   UNL A   1      40.205  28.839  29.140  1.00  0.00     0.031 A 
ATOM     32  C   UNL A   1      41.219  29.778  29.730  1.00  0.00     0.074 A 
ATOM     33  C   UNL A   1      40.584  27.620  28.710  1.00  0.00     0.049 A 
ATOM     34  N   UNL A   1      42.506  29.608  29.897  1.00  0.00    -0.248 NA
ATOM     35  C   UNL A   1      40.727  31.097  30.160  1.00  0.00     0.031 C 
ATOM     36  C   UNL A   1      39.707  26.635  28.073  1.00  0.00     0.029 A 
ATOM     37  N   UNL A   1      41.811  27.005  28.732  1.00  0.00    -0.354 N 
ATOM     38  C   UNL A   1      42.977  30.800  30.432  1.00  0.00     0.074 A 
ATOM     39  C   UNL A   1      41.850  31.702  30.516  1.00  0.00     0.031 C 
ATOM     40  C   UNL A   1      40.418  25.532  27.786  1.00  0.00     0.029 A 
ATOM     41  C   UNL A   1      41.806  25.744  28.186  1.00  0.00     0.049 A 
ATOM     42  H   UNL A   1      42.618  27.427  29.104  1.00  0.00     0.167 HD
ATOM     43  C   UNL A   1      44.233  31.108  30.834  1.00  0.00     0.037 A 
ATOM     44  C   UNL A   1      42.809  24.861  28.021  1.00  0.00     0.037 A 
ATOM     45  C   UNL A   1      45.346  30.197  30.783  1.00  0.00     0.049 A 
ATOM     46  C   UNL A   1      44.191  25.223  28.487  1.00  0.00     0.074 A 
ATOM     47  C   UNL A   1      46.639  30.391  31.234  1.00  0.00     0.029 A 
ATOM     48  N   UNL A   1      45.294  28.920  30.247  1.00  0.00    -0.354 N 
ATOM     49  N   UNL A   1      44.608  26.329  29.056  1.00  0.00    -0.248 NA
ATOM     50  C   UNL A   1      45.241  24.214  28.294  1.00  0.00     0.031 C 
ATOM     51  C   UNL A   1      47.381  29.241  30.939  1.00  0.00     0.029 A 
ATOM     52  C   UNL A   1      46.539  28.318  30.341  1.00  0.00     0.049 A 
ATOM     53  H   UNL A   1      44.492  28.501  29.858  1.00  0.00     0.167 HD
ATOM     54  C   UNL A   1      45.959  26.138  29.314  1.00  0.00     0.074 A 
ATOM     55  C   UNL A   1      46.289  24.806  28.850  1.00  0.00     0.031 C 
ATOM     56  C   UNL A   1      46.846  26.988  29.884  1.00  0.00     0.037 A 
BRANCH  43  57
ATOM     57  C   UNL A   1      44.466  32.487  31.377  1.00  0.00     0.057 A 
ATOM     58  C   UNL A   1      44.256  32.794  32.727  1.00  0.00     0.134 A 
ATOM     59  C   UNL A   1      44.935  33.512  30.546  1.00  0.00     0.134 A 
ATOM     60  F   UNL A   1      43.793  31.859  33.573  1.00  0.00    -0.206 F 
ATOM     61  C   UNL A   1      44.480  34.077  33.228  1.00  0.00     0.040 A 
ATOM     62  C   UNL A   1      45.188  34.792  31.041  1.00  0.00     0.040 A 
ATOM     63  F   UNL A   1      45.162  33.285  29.244  1.00  0.00    -0.206 F 
ATOM     64  C   UNL A   1      44.954  35.079  32.385  1.00  0.00     0.006 A 
ENDBRANCH  43  57
BRANCH  44  65
ATOM     65  C   UNL A   1      42.542  23.535  27.411  1.00  0.00     0.057 A 
ATOM     66  C   UNL A   1      42.223  22.429  28.208  1.00  0.00     0.134 A 
ATOM     67  C   UNL A   1      42.610  23.336  26.027  1.00  0.00     0.134 A 
ATOM     68  F   UNL A   1      42.163  22.555  29.542  1.00  0.00    -0.206 F 
ATOM     69  C   UNL A   1      42.002  21.167  27.654  1.00  0.00     0.040 A 
ATOM     70  C   UNL A   1      42.368  22.084  25.457  1.00  0.00     0.040 A 
ATOM     71  F   UNL A   1      42.903  24.357  25.209  1.00  0.00    -0.206 F 
ATOM     72  C   UNL A   1      42.070  20.994  26.273  1.00  0.00     0.006 A 
ENDBRANCH  44  65
BRANCH  56  73
ATOM     73  C   UNL A   1      48.248  26.490  30.072  1.00  0.00     0.057 A 
ATOM     74  C   UNL A   1      49.243  26.708  29.111  1.00  0.00     0.134 A 
ATOM     75  C   UNL A   1      48.615  25.823  31.247  1.00  0.00     0.134 A 
ATOM     76  F   UNL A   1      48.952  27.329  27.958  1.00  0.00    -0.206 F 
ATOM     77  C   UNL A   1      50.550  26.259  29.304  1.00  0.00     0.040 A 
ATOM     78  C   UNL A   1      49.924  25.391  31.462  1.00  0.00     0.040 A 
ATOM     79  F   UNL A   1      47.710  25.592  32.210  1.00  0.00    -0.206 F 
ATOM     80  C   UNL A   1      50.895  25.605  30.486  1.00  0.00     0.006 A 
ENDBRANCH  56  73
ENDBRANCH  30  31
ENDBRANCH  22  25
ENDBRANCH  20  21
ENDBRANCH  19  20
ENDBRANCH   1  19
TORSDOF 15
ENDMDL
