MODEL 1
REMARK VINA RESULT:     -10.8      0.000      0.000
REMARK SMILES N#Cc1nccnc1N(CC(=O)NCCCCNC(=O)c1ccc(-c2c3nc(c(-c4c(F)cccc4F)c4ccc([nH]4)c(-c4c(F)cccc4F)c4nc(c(-c5c(F)cccc5F)c5ccc2[nH]5)C=C4)C=C3)cc1)CC(F)(F)F
REMARK SMILES IDX 15 1 14 2 13 3 11 4 12 5 10 7 9 8 8 9 3 10 4 11 5 12 7 13
REMARK SMILES IDX 6 14 2 15 1 16 75 17 76 18 77 19 78 20 79 21 16 22 17 23
REMARK SMILES IDX 18 24 19 25 20 27 21 28 22 29 74 30 23 31 73 32 24 33 25 34
REMARK SMILES IDX 26 35 67 36 27 37 72 38 66 39 68 40 28 41 71 42 65 43 64 44
REMARK SMILES IDX 29 46 55 47 38 48 54 49 39 50 42 51 53 52 69 53 40 54 41 55
REMARK SMILES IDX 52 57 70 58 43 59 30 60 31 61 36 62 32 63 33 64 35 65 37 66
REMARK SMILES IDX 34 67 56 68 57 69 62 70 58 71 59 72 61 73 63 74 60 75 44 76
REMARK SMILES IDX 45 77 50 78 46 79 47 80 49 81 51 82 48 83
REMARK H PARENT 13 6 18 26 68 45 42 56
REMARK Flexibility Score: inf
ROOT
ATOM      1  C   UNL A   1      32.240  30.061  27.001  1.00  0.00     0.023 C 
ENDROOT
BRANCH   1   2
ATOM      2  C   UNL A   1      33.620  29.678  26.472  1.00  0.00     0.116 C 
BRANCH   2   3
ATOM      3  N   UNL A   1      33.651  29.620  25.025  1.00  0.00    -0.355 N 
ATOM      4  C   UNL A   1      33.561  28.519  24.222  1.00  0.00     0.239 C 
ATOM      5  O   UNL A   1      33.663  28.664  23.002  1.00  0.00    -0.273 OA
ATOM      6  H   UNL A   1      33.751  30.484  24.561  1.00  0.00     0.163 HD
BRANCH   4   7
ATOM      7  C   UNL A   1      33.340  27.134  24.840  1.00  0.00     0.218 C 
BRANCH   7   8
ATOM      8  N   UNL A   1      32.012  26.553  24.498  1.00  0.00    -0.336 N 
BRANCH   8   9
ATOM      9  C   UNL A   1      31.960  25.210  24.157  1.00  0.00     0.166 A 
ATOM     10  C   UNL A   1      32.390  24.583  22.969  1.00  0.00     0.183 A 
ATOM     11  N   UNL A   1      32.335  23.227  22.752  1.00  0.00    -0.240 NA
ATOM     12  C   UNL A   1      31.825  22.481  23.744  1.00  0.00     0.133 A 
ATOM     13  N   UNL A   1      31.435  24.390  25.113  1.00  0.00    -0.235 NA
ATOM     14  C   UNL A   1      31.374  23.054  24.904  1.00  0.00     0.133 A 
BRANCH  10  15
ATOM     15  C   UNL A   1      32.891  25.280  21.822  1.00  0.00     0.123 C 
ATOM     16  N   UNL A   1      33.278  25.827  20.875  1.00  0.00    -0.191 NA
ENDBRANCH  10  15
ENDBRANCH   8   9
BRANCH   8  17
ATOM     17  C   UNL A   1      30.848  27.460  24.732  1.00  0.00     0.234 C 
BRANCH  17  18
ATOM     18  C   UNL A   1      29.967  27.800  23.512  1.00  0.00     0.405 C 
ATOM     19  F   UNL A   1      29.555  29.087  23.522  1.00  0.00    -0.169 F 
ATOM     20  F   UNL A   1      30.648  27.600  22.361  1.00  0.00    -0.169 F 
ATOM     21  F   UNL A   1      28.860  27.025  23.460  1.00  0.00    -0.169 F 
ENDBRANCH  17  18
ENDBRANCH   8  17
ENDBRANCH   7   8
ENDBRANCH   4   7
ENDBRANCH   2   3
ENDBRANCH   1   2
BRANCH   1  22
ATOM     22  C   UNL A   1      31.917  31.548  26.876  1.00  0.00     0.023 C 
BRANCH  22  23
ATOM     23  C   UNL A   1      32.978  32.456  27.473  1.00  0.00     0.116 C 
BRANCH  23  24
ATOM     24  N   UNL A   1      32.531  33.836  27.625  1.00  0.00    -0.352 N 
ATOM     25  C   UNL A   1      33.004  34.798  28.489  1.00  0.00     0.251 C 
ATOM     26  H   UNL A   1      31.795  34.116  27.035  1.00  0.00     0.163 HD
ATOM     27  O   UNL A   1      32.430  35.874  28.606  1.00  0.00    -0.269 OA
BRANCH  25  28
ATOM     28  C   UNL A   1      34.195  34.488  29.304  1.00  0.00     0.039 A 
ATOM     29  C   UNL A   1      35.465  34.627  28.749  1.00  0.00     0.014 A 
ATOM     30  C   UNL A   1      34.037  33.949  30.583  1.00  0.00     0.014 A 
ATOM     31  C   UNL A   1      36.544  34.011  29.361  1.00  0.00     0.010 A 
ATOM     32  C   UNL A   1      35.153  33.451  31.259  1.00  0.00     0.010 A 
ATOM     33  C   UNL A   1      36.405  33.410  30.624  1.00  0.00    -0.014 A 
BRANCH  33  34
ATOM     34  C   UNL A   1      37.577  32.713  31.217  1.00  0.00     0.031 A 
ATOM     35  C   UNL A   1      38.087  33.082  32.588  1.00  0.00     0.074 A 
ATOM     36  C   UNL A   1      38.129  31.676  30.555  1.00  0.00     0.049 A 
ATOM     37  N   UNL A   1      39.064  32.546  33.278  1.00  0.00    -0.248 NA
ATOM     38  C   UNL A   1      37.421  34.201  33.272  1.00  0.00     0.031 C 
ATOM     39  C   UNL A   1      37.716  31.204  29.231  1.00  0.00     0.029 A 
ATOM     40  N   UNL A   1      39.128  30.810  30.918  1.00  0.00    -0.354 N 
ATOM     41  C   UNL A   1      39.137  33.269  34.463  1.00  0.00     0.074 A 
ATOM     42  C   UNL A   1      38.142  34.316  34.377  1.00  0.00     0.031 C 
ATOM     43  C   UNL A   1      38.404  30.095  28.924  1.00  0.00     0.029 A 
ATOM     44  C   UNL A   1      39.365  29.829  29.985  1.00  0.00     0.049 A 
ATOM     45  H   UNL A   1      39.626  30.884  31.763  1.00  0.00     0.167 HD
ATOM     46  C   UNL A   1      39.944  33.072  35.536  1.00  0.00     0.037 A 
ATOM     47  C   UNL A   1      40.273  28.836  29.975  1.00  0.00     0.037 A 
ATOM     48  C   UNL A   1      40.936  32.030  35.621  1.00  0.00     0.049 A 
ATOM     49  C   UNL A   1      41.212  28.697  31.139  1.00  0.00     0.074 A 
ATOM     50  C   UNL A   1      41.804  31.747  36.662  1.00  0.00     0.029 A 
ATOM     51  N   UNL A   1      41.199  31.105  34.621  1.00  0.00    -0.354 N 
ATOM     52  N   UNL A   1      41.262  29.383  32.254  1.00  0.00    -0.248 NA
ATOM     53  C   UNL A   1      42.227  27.640  31.036  1.00  0.00     0.031 C 
ATOM     54  C   UNL A   1      42.636  30.694  36.265  1.00  0.00     0.029 A 
ATOM     55  C   UNL A   1      42.233  30.267  35.011  1.00  0.00     0.049 A 
ATOM     56  H   UNL A   1      40.721  31.051  33.762  1.00  0.00     0.167 HD
ATOM     57  C   UNL A   1      42.287  28.818  33.002  1.00  0.00     0.074 A 
ATOM     58  C   UNL A   1      42.815  27.719  32.219  1.00  0.00     0.031 C 
ATOM     59  C   UNL A   1      42.749  29.174  34.226  1.00  0.00     0.037 A 
BRANCH  46  60
ATOM     60  C   UNL A   1      39.804  34.028  36.689  1.00  0.00     0.057 A 
ATOM     61  C   UNL A   1      39.003  33.703  37.792  1.00  0.00     0.134 A 
ATOM     62  C   UNL A   1      40.455  35.270  36.712  1.00  0.00     0.134 A 
ATOM     63  F   UNL A   1      38.339  32.538  37.834  1.00  0.00    -0.206 F 
ATOM     64  C   UNL A   1      38.862  34.572  38.876  1.00  0.00     0.040 A 
ATOM     65  C   UNL A   1      40.350  36.131  37.807  1.00  0.00     0.040 A 
ATOM     66  F   UNL A   1      41.245  35.643  35.694  1.00  0.00    -0.206 F 
ATOM     67  C   UNL A   1      39.547  35.784  38.892  1.00  0.00     0.006 A 
ENDBRANCH  46  60
BRANCH  47  68
ATOM     68  C   UNL A   1      40.359  27.908  28.817  1.00  0.00     0.057 A 
ATOM     69  C   UNL A   1      39.642  26.705  28.793  1.00  0.00     0.134 A 
ATOM     70  C   UNL A   1      41.118  28.228  27.686  1.00  0.00     0.134 A 
ATOM     71  F   UNL A   1      38.903  26.333  29.849  1.00  0.00    -0.206 F 
ATOM     72  C   UNL A   1      39.672  25.857  27.686  1.00  0.00     0.040 A 
ATOM     73  C   UNL A   1      41.127  27.407  26.556  1.00  0.00     0.040 A 
ATOM     74  F   UNL A   1      41.817  29.372  27.641  1.00  0.00    -0.206 F 
ATOM     75  C   UNL A   1      40.403  26.217  26.556  1.00  0.00     0.006 A 
ENDBRANCH  47  68
BRANCH  59  76
ATOM     76  C   UNL A   1      43.839  28.323  34.817  1.00  0.00     0.057 A 
ATOM     77  C   UNL A   1      45.184  28.663  34.622  1.00  0.00     0.134 A 
ATOM     78  C   UNL A   1      43.569  27.182  35.584  1.00  0.00     0.134 A 
ATOM     79  F   UNL A   1      45.519  29.735  33.888  1.00  0.00    -0.206 F 
ATOM     80  C   UNL A   1      46.218  27.908  35.178  1.00  0.00     0.040 A 
ATOM     81  C   UNL A   1      44.593  26.442  36.178  1.00  0.00     0.040 A 
ATOM     82  F   UNL A   1      42.303  26.804  35.820  1.00  0.00    -0.206 F 
ATOM     83  C   UNL A   1      45.922  26.803  35.972  1.00  0.00     0.006 A 
ENDBRANCH  59  76
ENDBRANCH  33  34
ENDBRANCH  25  28
ENDBRANCH  23  24
ENDBRANCH  22  23
ENDBRANCH   1  22
TORSDOF 16
ENDMDL
MODEL 2
REMARK VINA RESULT:     -10.6      0.418      6.339
REMARK SMILES N#Cc1nccnc1N(CC(=O)NCCCCNC(=O)c1ccc(-c2c3nc(c(-c4c(F)cccc4F)c4ccc([nH]4)c(-c4c(F)cccc4F)c4nc(c(-c5c(F)cccc5F)c5ccc2[nH]5)C=C4)C=C3)cc1)CC(F)(F)F
REMARK SMILES IDX 15 1 14 2 13 3 11 4 12 5 10 7 9 8 8 9 3 10 4 11 5 12 7 13
REMARK SMILES IDX 6 14 2 15 1 16 75 17 76 18 77 19 78 20 79 21 16 22 17 23
REMARK SMILES IDX 18 24 19 25 20 27 21 28 22 29 74 30 23 31 73 32 24 33 25 34
REMARK SMILES IDX 26 35 67 36 27 37 72 38 66 39 68 40 28 41 71 42 65 43 64 44
REMARK SMILES IDX 29 46 55 47 38 48 54 49 39 50 42 51 53 52 69 53 40 54 41 55
REMARK SMILES IDX 52 57 70 58 43 59 30 60 31 61 36 62 32 63 33 64 35 65 37 66
REMARK SMILES IDX 34 67 56 68 57 69 62 70 58 71 59 72 61 73 63 74 60 75 44 76
REMARK SMILES IDX 45 77 50 78 46 79 47 80 49 81 51 82 48 83
REMARK H PARENT 13 6 18 26 68 45 42 56
REMARK Flexibility Score: inf
ROOT
ATOM      1  C   UNL A   1      32.198  30.115  26.932  1.00  0.00     0.023 C 
ENDROOT
BRANCH   1   2
ATOM      2  C   UNL A   1      33.590  29.749  26.425  1.00  0.00     0.116 C 
BRANCH   2   3
ATOM      3  N   UNL A   1      33.630  29.636  24.981  1.00  0.00    -0.355 N 
ATOM      4  C   UNL A   1      33.536  28.506  24.220  1.00  0.00     0.239 C 
ATOM      5  O   UNL A   1      33.647  28.604  22.996  1.00  0.00    -0.273 OA
ATOM      6  H   UNL A   1      33.740  30.480  24.486  1.00  0.00     0.163 HD
BRANCH   4   7
ATOM      7  C   UNL A   1      33.300  27.147  24.888  1.00  0.00     0.218 C 
BRANCH   7   8
ATOM      8  N   UNL A   1      31.996  26.535  24.510  1.00  0.00    -0.336 N 
BRANCH   8   9
ATOM      9  C   UNL A   1      31.983  25.187  24.183  1.00  0.00     0.166 A 
ATOM     10  C   UNL A   1      32.391  24.565  22.985  1.00  0.00     0.183 A 
ATOM     11  N   UNL A   1      32.380  23.206  22.782  1.00  0.00    -0.240 NA
ATOM     12  C   UNL A   1      31.937  22.451  23.800  1.00  0.00     0.133 A 
ATOM     13  N   UNL A   1      31.526  24.358  25.165  1.00  0.00    -0.235 NA
ATOM     14  C   UNL A   1      31.508  23.019  24.971  1.00  0.00     0.133 A 
BRANCH  10  15
ATOM     15  C   UNL A   1      32.822  25.268  21.814  1.00  0.00     0.123 C 
ATOM     16  N   UNL A   1      33.202  25.830  20.872  1.00  0.00    -0.191 NA
ENDBRANCH  10  15
ENDBRANCH   8   9
BRANCH   8  17
ATOM     17  C   UNL A   1      30.807  27.420  24.694  1.00  0.00     0.234 C 
BRANCH  17  18
ATOM     18  C   UNL A   1      29.875  27.607  23.479  1.00  0.00     0.405 C 
ATOM     19  F   UNL A   1      30.538  27.509  22.306  1.00  0.00    -0.169 F 
ATOM     20  F   UNL A   1      28.901  26.669  23.476  1.00  0.00    -0.169 F 
ATOM     21  F   UNL A   1      29.265  28.814  23.495  1.00  0.00    -0.169 F 
ENDBRANCH  17  18
ENDBRANCH   8  17
ENDBRANCH   7   8
ENDBRANCH   4   7
ENDBRANCH   2   3
ENDBRANCH   1   2
BRANCH   1  22
ATOM     22  C   UNL A   1      31.880  31.607  26.858  1.00  0.00     0.023 C 
BRANCH  22  23
ATOM     23  C   UNL A   1      32.918  32.486  27.533  1.00  0.00     0.116 C 
BRANCH  23  24
ATOM     24  N   UNL A   1      32.506  33.883  27.634  1.00  0.00    -0.352 N 
ATOM     25  C   UNL A   1      32.972  34.851  28.494  1.00  0.00     0.251 C 
ATOM     26  H   UNL A   1      31.805  34.169  27.007  1.00  0.00     0.163 HD
ATOM     27  O   UNL A   1      32.426  35.946  28.563  1.00  0.00    -0.269 OA
BRANCH  25  28
ATOM     28  C   UNL A   1      34.119  34.526  29.366  1.00  0.00     0.039 A 
ATOM     29  C   UNL A   1      35.411  34.563  28.847  1.00  0.00     0.014 A 
ATOM     30  C   UNL A   1      33.892  34.075  30.669  1.00  0.00     0.014 A 
ATOM     31  C   UNL A   1      36.434  33.927  29.531  1.00  0.00     0.010 A 
ATOM     32  C   UNL A   1      34.957  33.559  31.410  1.00  0.00     0.010 A 
ATOM     33  C   UNL A   1      36.223  33.411  30.821  1.00  0.00    -0.014 A 
BRANCH  33  34
ATOM     34  C   UNL A   1      37.336  32.689  31.493  1.00  0.00     0.031 A 
ATOM     35  C   UNL A   1      38.021  31.524  30.826  1.00  0.00     0.074 A 
ATOM     36  C   UNL A   1      37.795  33.147  32.676  1.00  0.00     0.049 A 
ATOM     37  N   UNL A   1      39.039  30.813  31.245  1.00  0.00    -0.248 NA
ATOM     38  C   UNL A   1      37.493  31.093  29.521  1.00  0.00     0.031 C 
ATOM     39  C   UNL A   1      37.234  34.280  33.418  1.00  0.00     0.029 A 
ATOM     40  N   UNL A   1      38.857  32.743  33.442  1.00  0.00    -0.354 N 
ATOM     41  C   UNL A   1      39.260  29.848  30.268  1.00  0.00     0.074 A 
ATOM     42  C   UNL A   1      38.239  30.030  29.260  1.00  0.00     0.031 C 
ATOM     43  C   UNL A   1      37.998  34.524  34.493  1.00  0.00     0.029 A 
ATOM     44  C   UNL A   1      39.045  33.514  34.564  1.00  0.00     0.049 A 
ATOM     45  H   UNL A   1      39.428  31.976  33.212  1.00  0.00     0.167 HD
ATOM     46  C   UNL A   1      40.236  28.908  30.203  1.00  0.00     0.037 A 
ATOM     47  C   UNL A   1      39.950  33.408  35.554  1.00  0.00     0.037 A 
ATOM     48  C   UNL A   1      41.253  28.725  31.208  1.00  0.00     0.049 A 
ATOM     49  C   UNL A   1      40.963  32.301  35.498  1.00  0.00     0.074 A 
ATOM     50  C   UNL A   1      42.283  27.801  31.236  1.00  0.00     0.029 A 
ATOM     51  N   UNL A   1      41.361  29.476  32.368  1.00  0.00    -0.354 N 
ATOM     52  N   UNL A   1      41.164  31.404  34.565  1.00  0.00    -0.248 NA
ATOM     53  C   UNL A   1      41.876  32.192  36.643  1.00  0.00     0.031 C 
ATOM     54  C   UNL A   1      42.973  27.950  32.444  1.00  0.00     0.029 A 
ATOM     55  C   UNL A   1      42.425  29.020  33.131  1.00  0.00     0.049 A 
ATOM     56  H   UNL A   1      40.770  30.225  32.614  1.00  0.00     0.167 HD
ATOM     57  C   UNL A   1      42.249  30.648  34.991  1.00  0.00     0.074 A 
ATOM     58  C   UNL A   1      42.674  31.210  36.256  1.00  0.00     0.031 C 
ATOM     59  C   UNL A   1      42.842  29.588  34.389  1.00  0.00     0.037 A 
BRANCH  46  60
ATOM     60  C   UNL A   1      40.224  27.983  29.016  1.00  0.00     0.057 A 
ATOM     61  C   UNL A   1      40.931  28.309  27.850  1.00  0.00     0.134 A 
ATOM     62  C   UNL A   1      39.513  26.774  29.018  1.00  0.00     0.134 A 
ATOM     63  F   UNL A   1      41.623  29.455  27.770  1.00  0.00    -0.206 F 
ATOM     64  C   UNL A   1      40.939  27.465  26.738  1.00  0.00     0.040 A 
ATOM     65  C   UNL A   1      39.544  25.905  27.925  1.00  0.00     0.040 A 
ATOM     66  F   UNL A   1      38.821  26.394  30.102  1.00  0.00    -0.206 F 
ATOM     67  C   UNL A   1      40.255  26.253  26.778  1.00  0.00     0.006 A 
ENDBRANCH  46  60
BRANCH  47  68
ATOM     68  C   UNL A   1      39.928  34.357  36.698  1.00  0.00     0.057 A 
ATOM     69  C   UNL A   1      40.613  35.577  36.644  1.00  0.00     0.134 A 
ATOM     70  C   UNL A   1      39.178  34.090  37.849  1.00  0.00     0.134 A 
ATOM     71  F   UNL A   1      41.360  35.891  35.575  1.00  0.00    -0.206 F 
ATOM     72  C   UNL A   1      40.550  36.499  37.690  1.00  0.00     0.040 A 
ATOM     73  C   UNL A   1      39.075  35.019  38.886  1.00  0.00     0.040 A 
ATOM     74  F   UNL A   1      38.488  32.945  37.956  1.00  0.00    -0.206 F 
ATOM     75  C   UNL A   1      39.764  36.227  38.808  1.00  0.00     0.006 A 
ENDBRANCH  47  68
BRANCH  59  76
ATOM     76  C   UNL A   1      44.054  29.010  35.066  1.00  0.00     0.057 A 
ATOM     77  C   UNL A   1      45.329  29.517  34.783  1.00  0.00     0.134 A 
ATOM     78  C   UNL A   1      43.970  27.971  36.002  1.00  0.00     0.134 A 
ATOM     79  F   UNL A   1      45.489  30.504  33.888  1.00  0.00    -0.206 F 
ATOM     80  C   UNL A   1      46.472  29.020  35.411  1.00  0.00     0.040 A 
ATOM     81  C   UNL A   1      45.100  27.493  36.667  1.00  0.00     0.040 A 
ATOM     82  F   UNL A   1      42.779  27.446  36.330  1.00  0.00    -0.206 F 
ATOM     83  C   UNL A   1      46.356  28.016  36.369  1.00  0.00     0.006 A 
ENDBRANCH  59  76
ENDBRANCH  33  34
ENDBRANCH  25  28
ENDBRANCH  23  24
ENDBRANCH  22  23
ENDBRANCH   1  22
TORSDOF 16
ENDMDL
MODEL 3
REMARK VINA RESULT:     -10.6      4.252      8.211
REMARK SMILES N#Cc1nccnc1N(CC(=O)NCCCCNC(=O)c1ccc(-c2c3nc(c(-c4c(F)cccc4F)c4ccc([nH]4)c(-c4c(F)cccc4F)c4nc(c(-c5c(F)cccc5F)c5ccc2[nH]5)C=C4)C=C3)cc1)CC(F)(F)F
REMARK SMILES IDX 15 1 14 2 13 3 11 4 12 5 10 7 9 8 8 9 3 10 4 11 5 12 7 13
REMARK SMILES IDX 6 14 2 15 1 16 75 17 76 18 77 19 78 20 79 21 16 22 17 23
REMARK SMILES IDX 18 24 19 25 20 27 21 28 22 29 74 30 23 31 73 32 24 33 25 34
REMARK SMILES IDX 26 35 67 36 27 37 72 38 66 39 68 40 28 41 71 42 65 43 64 44
REMARK SMILES IDX 29 46 55 47 38 48 54 49 39 50 42 51 53 52 69 53 40 54 41 55
REMARK SMILES IDX 52 57 70 58 43 59 30 60 31 61 36 62 32 63 33 64 35 65 37 66
REMARK SMILES IDX 34 67 56 68 57 69 62 70 58 71 59 72 61 73 63 74 60 75 44 76
REMARK SMILES IDX 45 77 50 78 46 79 47 80 49 81 51 82 48 83
REMARK H PARENT 13 6 18 26 68 45 42 56
REMARK Flexibility Score: inf
ROOT
ATOM      1  C   UNL A   1      31.610  27.540  26.121  1.00  0.00     0.023 C 
ENDROOT
BRANCH   1   2
ATOM      2  C   UNL A   1      32.126  26.128  25.859  1.00  0.00     0.116 C 
BRANCH   2   3
ATOM      3  N   UNL A   1      31.570  25.165  26.788  1.00  0.00    -0.355 N 
ATOM      4  C   UNL A   1      31.152  23.890  26.533  1.00  0.00     0.239 C 
ATOM      5  O   UNL A   1      30.653  23.234  27.450  1.00  0.00    -0.273 OA
ATOM      6  H   UNL A   1      31.482  25.468  27.721  1.00  0.00     0.163 HD
BRANCH   4   7
ATOM      7  C   UNL A   1      31.305  23.298  25.128  1.00  0.00     0.218 C 
BRANCH   7   8
ATOM      8  N   UNL A   1      32.417  22.311  25.033  1.00  0.00    -0.336 N 
BRANCH   8   9
ATOM      9  C   UNL A   1      33.714  22.800  24.985  1.00  0.00     0.166 A 
ATOM     10  C   UNL A   1      34.416  23.336  23.886  1.00  0.00     0.183 A 
ATOM     11  N   UNL A   1      35.693  23.838  23.959  1.00  0.00    -0.240 NA
ATOM     12  C   UNL A   1      36.287  23.792  25.162  1.00  0.00     0.133 A 
ATOM     13  N   UNL A   1      34.389  22.767  26.170  1.00  0.00    -0.235 NA
ATOM     14  C   UNL A   1      35.648  23.256  26.249  1.00  0.00     0.133 A 
BRANCH  10  15
ATOM     15  C   UNL A   1      33.909  23.380  22.546  1.00  0.00     0.123 C 
ATOM     16  N   UNL A   1      33.471  23.429  21.473  1.00  0.00    -0.191 NA
ENDBRANCH  10  15
ENDBRANCH   8   9
BRANCH   8  17
ATOM     17  C   UNL A   1      32.006  20.882  25.176  1.00  0.00     0.234 C 
BRANCH  17  18
ATOM     18  C   UNL A   1      32.554  19.887  24.133  1.00  0.00     0.405 C 
ATOM     19  F   UNL A   1      32.329  20.298  22.865  1.00  0.00    -0.169 F 
ATOM     20  F   UNL A   1      33.890  19.730  24.278  1.00  0.00    -0.169 F 
ATOM     21  F   UNL A   1      31.993  18.663  24.263  1.00  0.00    -0.169 F 
ENDBRANCH  17  18
ENDBRANCH   8  17
ENDBRANCH   7   8
ENDBRANCH   4   7
ENDBRANCH   2   3
ENDBRANCH   1   2
BRANCH   1  22
ATOM     22  C   UNL A   1      32.117  28.156  27.424  1.00  0.00     0.023 C 
BRANCH  22  23
ATOM     23  C   UNL A   1      33.514  28.743  27.319  1.00  0.00     0.116 C 
BRANCH  23  24
ATOM     24  N   UNL A   1      33.589  30.127  27.774  1.00  0.00    -0.352 N 
ATOM     25  C   UNL A   1      34.651  30.779  28.357  1.00  0.00     0.251 C 
ATOM     26  H   UNL A   1      32.774  30.664  27.647  1.00  0.00     0.163 HD
ATOM     27  O   UNL A   1      34.518  31.905  28.823  1.00  0.00    -0.269 OA
BRANCH  25  28
ATOM     28  C   UNL A   1      35.945  30.074  28.451  1.00  0.00     0.039 A 
ATOM     29  C   UNL A   1      36.317  29.476  29.653  1.00  0.00     0.014 A 
ATOM     30  C   UNL A   1      36.833  30.111  27.374  1.00  0.00     0.014 A 
ATOM     31  C   UNL A   1      37.644  29.137  29.859  1.00  0.00     0.010 A 
ATOM     32  C   UNL A   1      38.137  29.639  27.545  1.00  0.00     0.010 A 
ATOM     33  C   UNL A   1      38.576  29.217  28.810  1.00  0.00    -0.014 A 
BRANCH  33  34
ATOM     34  C   UNL A   1      40.000  28.894  29.092  1.00  0.00     0.031 A 
ATOM     35  C   UNL A   1      40.595  27.575  28.670  1.00  0.00     0.074 A 
ATOM     36  C   UNL A   1      40.788  29.835  29.651  1.00  0.00     0.049 A 
ATOM     37  N   UNL A   1      41.829  27.148  28.790  1.00  0.00    -0.248 NA
ATOM     38  C   UNL A   1      39.690  26.603  28.036  1.00  0.00     0.031 C 
ATOM     39  C   UNL A   1      40.340  31.161  30.086  1.00  0.00     0.029 A 
ATOM     40  N   UNL A   1      42.133  29.838  29.913  1.00  0.00    -0.354 N 
ATOM     41  C   UNL A   1      41.842  25.861  28.264  1.00  0.00     0.074 A 
ATOM     42  C   UNL A   1      40.484  25.555  27.872  1.00  0.00     0.031 C 
ATOM     43  C   UNL A   1      41.401  31.872  30.495  1.00  0.00     0.029 A 
ATOM     44  C   UNL A   1      42.586  31.026  30.433  1.00  0.00     0.049 A 
ATOM     45  H   UNL A   1      42.718  29.064  29.745  1.00  0.00     0.167 HD
ATOM     46  C   UNL A   1      42.890  25.016  28.102  1.00  0.00     0.037 A 
ATOM     47  C   UNL A   1      43.816  31.390  30.839  1.00  0.00     0.037 A 
ATOM     48  C   UNL A   1      44.244  25.320  28.494  1.00  0.00     0.049 A 
ATOM     49  C   UNL A   1      44.940  30.399  30.728  1.00  0.00     0.074 A 
ATOM     50  C   UNL A   1      45.375  24.532  28.374  1.00  0.00     0.029 A 
ATOM     51  N   UNL A   1      44.646  26.505  29.091  1.00  0.00    -0.354 N 
ATOM     52  N   UNL A   1      44.937  29.191  30.221  1.00  0.00    -0.248 NA
ATOM     53  C   UNL A   1      46.242  30.828  31.254  1.00  0.00     0.031 C 
ATOM     54  C   UNL A   1      46.448  25.213  28.960  1.00  0.00     0.029 A 
ATOM     55  C   UNL A   1      46.004  26.459  29.369  1.00  0.00     0.049 A 
ATOM     56  H   UNL A   1      44.055  27.268  29.287  1.00  0.00     0.167 HD
ATOM     57  C   UNL A   1      46.243  28.730  30.332  1.00  0.00     0.074 A 
ATOM     58  C   UNL A   1      47.012  29.800  30.934  1.00  0.00     0.031 C 
ATOM     59  C   UNL A   1      46.760  27.531  29.966  1.00  0.00     0.037 A 
BRANCH  46  60
ATOM     60  C   UNL A   1      42.602  23.666  27.503  1.00  0.00     0.057 A 
ATOM     61  C   UNL A   1      42.330  22.564  28.325  1.00  0.00     0.134 A 
ATOM     62  C   UNL A   1      42.597  23.450  26.117  1.00  0.00     0.134 A 
ATOM     63  F   UNL A   1      42.331  22.692  29.661  1.00  0.00    -0.206 F 
ATOM     64  C   UNL A   1      42.055  21.303  27.792  1.00  0.00     0.040 A 
ATOM     65  C   UNL A   1      42.287  22.201  25.573  1.00  0.00     0.040 A 
ATOM     66  F   UNL A   1      42.840  24.460  25.270  1.00  0.00    -0.206 F 
ATOM     67  C   UNL A   1      42.019  21.121  26.412  1.00  0.00     0.006 A 
ENDBRANCH  46  60
BRANCH  47  68
ATOM     68  C   UNL A   1      44.052  32.741  31.409  1.00  0.00     0.057 A 
ATOM     69  C   UNL A   1      43.991  32.970  32.789  1.00  0.00     0.134 A 
ATOM     70  C   UNL A   1      44.396  33.824  30.592  1.00  0.00     0.134 A 
ATOM     71  F   UNL A   1      43.655  31.979  33.628  1.00  0.00    -0.206 F 
ATOM     72  C   UNL A   1      44.267  34.223  33.337  1.00  0.00     0.040 A 
ATOM     73  C   UNL A   1      44.713  35.073  31.128  1.00  0.00     0.040 A 
ATOM     74  F   UNL A   1      44.485  33.667  29.262  1.00  0.00    -0.206 F 
ATOM     75  C   UNL A   1      44.647  35.275  32.506  1.00  0.00     0.006 A 
ENDBRANCH  47  68
BRANCH  59  76
ATOM     76  C   UNL A   1      48.241  27.343  30.151  1.00  0.00     0.057 A 
ATOM     77  C   UNL A   1      48.739  26.780  31.333  1.00  0.00     0.134 A 
ATOM     78  C   UNL A   1      49.173  27.701  29.167  1.00  0.00     0.134 A 
ATOM     79  F   UNL A   1      47.907  26.426  32.325  1.00  0.00    -0.206 F 
ATOM     80  C   UNL A   1      50.105  26.570  31.526  1.00  0.00     0.040 A 
ATOM     81  C   UNL A   1      50.538  27.458  29.331  1.00  0.00     0.040 A 
ATOM     82  F   UNL A   1      48.765  28.234  28.005  1.00  0.00    -0.206 F 
ATOM     83  C   UNL A   1      51.007  26.894  30.515  1.00  0.00     0.006 A 
ENDBRANCH  59  76
ENDBRANCH  33  34
ENDBRANCH  25  28
ENDBRANCH  23  24
ENDBRANCH  22  23
ENDBRANCH   1  22
TORSDOF 16
ENDMDL
