MODEL 1
REMARK VINA RESULT:     -11.3      0.000      0.000
REMARK SMILES COc1ccc(C(=O)N2CSC[C@H]2C(=O)NCCCCNC(=O)c2ccc(-c3c4nc(c(-c5c(F)cccc5F)c5ccc([nH]5)c(-c5c(F)cccc5F)c5nc(c(-c6c(F)cccc6F)c6ccc3[nH]6)C=C5)C=C4)cc2)cc1C#N
REMARK SMILES IDX 18 1 17 2 16 3 14 4 15 5 13 7 9 8 10 9 11 10 12 11 7 12 8 13
REMARK SMILES IDX 6 14 3 15 4 16 79 17 5 18 78 19 2 20 1 21 80 22 81 23 19 24
REMARK SMILES IDX 20 25 21 26 22 27 23 29 24 30 25 31 77 32 26 33 76 34 27 35
REMARK SMILES IDX 28 36 29 37 70 38 30 39 75 40 69 41 71 42 31 43 74 44 68 45
REMARK SMILES IDX 67 46 32 48 58 49 41 50 57 51 42 52 45 53 56 54 72 55 43 56
REMARK SMILES IDX 44 57 55 59 73 60 46 61 33 62 34 63 39 64 35 65 36 66 38 67
REMARK SMILES IDX 40 68 37 69 59 70 60 71 65 72 61 73 62 74 64 75 66 76 63 77
REMARK SMILES IDX 47 78 48 79 53 80 49 81 50 82 52 83 54 84 51 85
REMARK H PARENT 16 6 21 28 71 47 45 58
REMARK Flexibility Score: inf
ROOT
ATOM      1  C   UNL A   1      36.030  21.159  25.477  1.00  0.00     0.023 C 
ENDROOT
BRANCH   1   2
ATOM      2  C   UNL A   1      35.289  22.470  25.702  1.00  0.00     0.116 C 
BRANCH   2   3
ATOM      3  N   UNL A   1      34.628  22.501  26.982  1.00  0.00    -0.354 N 
ATOM      4  C   UNL A   1      33.302  22.430  27.284  1.00  0.00     0.243 C 
ATOM      5  O   UNL A   1      33.016  22.265  28.475  1.00  0.00    -0.273 OA
ATOM      6  H   UNL A   1      35.227  22.587  27.758  1.00  0.00     0.163 HD
BRANCH   4   7
ATOM      7  C   UNL A   1      32.205  22.379  26.200  1.00  0.00     0.185 C 
ATOM      8  N   UNL A   1      31.924  23.610  25.449  1.00  0.00    -0.317 N 
ATOM      9  C   UNL A   1      32.311  23.595  24.054  1.00  0.00     0.190 C 
ATOM     10  S   UNL A   1      32.249  21.871  23.540  1.00  0.00    -0.138 SA
ATOM     11  C   UNL A   1      32.426  21.215  25.231  1.00  0.00     0.106 C 
BRANCH   8  12
ATOM     12  C   UNL A   1      31.105  24.548  26.063  1.00  0.00     0.255 C 
ATOM     13  O   UNL A   1      30.415  24.273  27.040  1.00  0.00    -0.269 OA
BRANCH  12  14
ATOM     14  C   UNL A   1      30.941  25.889  25.432  1.00  0.00     0.041 A 
ATOM     15  C   UNL A   1      30.673  28.417  24.206  1.00  0.00     0.136 A 
ATOM     16  C   UNL A   1      29.822  27.349  23.867  1.00  0.00     0.048 A 
ATOM     17  C   UNL A   1      31.678  28.203  25.154  1.00  0.00     0.095 A 
ATOM     18  C   UNL A   1      29.947  26.096  24.478  1.00  0.00     0.018 A 
ATOM     19  C   UNL A   1      31.843  26.924  25.700  1.00  0.00     0.037 A 
BRANCH  15  20
ATOM     20  O   UNL A   1      30.355  29.586  23.572  1.00  0.00    -0.495 OA
ATOM     21  C   UNL A   1      30.183  29.547  22.159  1.00  0.00     0.278 C 
ENDBRANCH  15  20
BRANCH  17  22
ATOM     22  C   UNL A   1      32.531  29.225  25.686  1.00  0.00     0.103 C 
ATOM     23  N   UNL A   1      33.179  30.067  26.148  1.00  0.00    -0.192 NA
ENDBRANCH  17  22
ENDBRANCH  12  14
ENDBRANCH   8  12
ENDBRANCH   4   7
ENDBRANCH   2   3
ENDBRANCH   1   2
BRANCH   1  24
ATOM     24  C   UNL A   1      37.379  21.340  24.789  1.00  0.00     0.023 C 
BRANCH  24  25
ATOM     25  C   UNL A   1      38.573  21.339  25.737  1.00  0.00     0.116 C 
BRANCH  25  26
ATOM     26  N   UNL A   1      39.359  20.113  25.664  1.00  0.00    -0.352 N 
ATOM     27  C   UNL A   1      40.686  19.938  25.980  1.00  0.00     0.251 C 
ATOM     28  H   UNL A   1      38.880  19.311  25.351  1.00  0.00     0.163 HD
ATOM     29  O   UNL A   1      41.260  18.883  25.736  1.00  0.00    -0.269 OA
BRANCH  27  30
ATOM     30  C   UNL A   1      41.415  21.071  26.579  1.00  0.00     0.039 A 
ATOM     31  C   UNL A   1      42.014  22.009  25.739  1.00  0.00     0.014 A 
ATOM     32  C   UNL A   1      41.395  21.257  27.965  1.00  0.00     0.014 A 
ATOM     33  C   UNL A   1      42.514  23.191  26.285  1.00  0.00     0.010 A 
ATOM     34  C   UNL A   1      41.817  22.468  28.495  1.00  0.00     0.010 A 
ATOM     35  C   UNL A   1      42.366  23.453  27.658  1.00  0.00    -0.014 A 
BRANCH  35  36
ATOM     36  C   UNL A   1      42.732  24.770  28.236  1.00  0.00     0.031 A 
ATOM     37  C   UNL A   1      41.684  25.825  28.430  1.00  0.00     0.074 A 
ATOM     38  C   UNL A   1      44.026  25.040  28.503  1.00  0.00     0.049 A 
ATOM     39  N   UNL A   1      41.824  27.066  28.822  1.00  0.00    -0.248 NA
ATOM     40  C   UNL A   1      40.296  25.445  28.119  1.00  0.00     0.031 C 
ATOM     41  C   UNL A   1      45.142  24.109  28.322  1.00  0.00     0.029 A 
ATOM     42  N   UNL A   1      44.624  26.184  28.971  1.00  0.00    -0.354 N 
ATOM     43  C   UNL A   1      40.549  27.614  28.799  1.00  0.00     0.074 A 
ATOM     44  C   UNL A   1      39.657  26.590  28.301  1.00  0.00     0.031 C 
ATOM     45  C   UNL A   1      46.283  24.710  28.692  1.00  0.00     0.029 A 
ATOM     46  C   UNL A   1      45.991  26.086  29.081  1.00  0.00     0.049 A 
ATOM     47  H   UNL A   1      44.121  26.998  29.204  1.00  0.00     0.167 HD
ATOM     48  C   UNL A   1      40.157  28.853  29.179  1.00  0.00     0.037 A 
ATOM     49  C   UNL A   1      46.908  27.007  29.431  1.00  0.00     0.037 A 
ATOM     50  C   UNL A   1      41.051  29.865  29.675  1.00  0.00     0.049 A 
ATOM     51  C   UNL A   1      46.452  28.397  29.788  1.00  0.00     0.074 A 
ATOM     52  C   UNL A   1      40.743  31.133  30.135  1.00  0.00     0.029 A 
ATOM     53  N   UNL A   1      42.429  29.732  29.762  1.00  0.00    -0.354 N 
ATOM     54  N   UNL A   1      45.234  28.879  29.838  1.00  0.00    -0.248 NA
ATOM     55  C   UNL A   1      47.498  29.373  30.129  1.00  0.00     0.031 C 
ATOM     56  C   UNL A   1      41.939  31.792  30.431  1.00  0.00     0.029 A 
ATOM     57  C   UNL A   1      42.989  30.912  30.223  1.00  0.00     0.049 A 
ATOM     58  H   UNL A   1      42.934  28.918  29.530  1.00  0.00     0.167 HD
ATOM     59  C   UNL A   1      45.364  30.203  30.239  1.00  0.00     0.074 A 
ATOM     60  C   UNL A   1      46.778  30.441  30.438  1.00  0.00     0.031 C 
ATOM     61  C   UNL A   1      44.399  31.137  30.419  1.00  0.00     0.037 A 
BRANCH  48  62
ATOM     62  C   UNL A   1      38.697  29.189  29.057  1.00  0.00     0.057 A 
ATOM     63  C   UNL A   1      37.834  29.156  30.162  1.00  0.00     0.134 A 
ATOM     64  C   UNL A   1      38.158  29.593  27.829  1.00  0.00     0.134 A 
ATOM     65  F   UNL A   1      38.283  28.770  31.365  1.00  0.00    -0.206 F 
ATOM     66  C   UNL A   1      36.483  29.484  30.042  1.00  0.00     0.040 A 
ATOM     67  C   UNL A   1      36.816  29.955  27.705  1.00  0.00     0.040 A 
ATOM     68  F   UNL A   1      38.929  29.655  26.734  1.00  0.00    -0.206 F 
ATOM     69  C   UNL A   1      35.973  29.893  28.812  1.00  0.00     0.006 A 
ENDBRANCH  48  62
BRANCH  49  70
ATOM     70  C   UNL A   1      48.352  26.655  29.451  1.00  0.00     0.057 A 
ATOM     71  C   UNL A   1      49.173  26.900  28.344  1.00  0.00     0.134 A 
ATOM     72  C   UNL A   1      48.943  26.050  30.567  1.00  0.00     0.134 A 
ATOM     73  F   UNL A   1      48.664  27.459  27.237  1.00  0.00    -0.206 F 
ATOM     74  C   UNL A   1      50.521  26.535  28.336  1.00  0.00     0.040 A 
ATOM     75  C   UNL A   1      50.297  25.710  30.586  1.00  0.00     0.040 A 
ATOM     76  F   UNL A   1      48.217  25.794  31.665  1.00  0.00    -0.206 F 
ATOM     77  C   UNL A   1      51.087  25.943  29.462  1.00  0.00     0.006 A 
ENDBRANCH  49  70
BRANCH  61  78
ATOM     78  C   UNL A   1      44.830  32.503  30.872  1.00  0.00     0.057 A 
ATOM     79  C   UNL A   1      45.091  33.534  29.962  1.00  0.00     0.134 A 
ATOM     80  C   UNL A   1      44.913  32.809  32.237  1.00  0.00     0.134 A 
ATOM     81  F   UNL A   1      45.041  33.305  28.641  1.00  0.00    -0.206 F 
ATOM     82  C   UNL A   1      45.434  34.817  30.392  1.00  0.00     0.040 A 
ATOM     83  C   UNL A   1      45.224  34.095  32.679  1.00  0.00     0.040 A 
ATOM     84  F   UNL A   1      44.666  31.870  33.163  1.00  0.00    -0.206 F 
ATOM     85  C   UNL A   1      45.489  35.103  31.755  1.00  0.00     0.006 A 
ENDBRANCH  61  78
ENDBRANCH  35  36
ENDBRANCH  27  30
ENDBRANCH  25  26
ENDBRANCH  24  25
ENDBRANCH   1  24
TORSDOF 15
ENDMDL
MODEL 2
REMARK VINA RESULT:     -11.3      4.047      9.168
REMARK SMILES COc1ccc(C(=O)N2CSC[C@H]2C(=O)NCCCCNC(=O)c2ccc(-c3c4nc(c(-c5c(F)cccc5F)c5ccc([nH]5)c(-c5c(F)cccc5F)c5nc(c(-c6c(F)cccc6F)c6ccc3[nH]6)C=C5)C=C4)cc2)cc1C#N
REMARK SMILES IDX 18 1 17 2 16 3 14 4 15 5 13 7 9 8 10 9 11 10 12 11 7 12 8 13
REMARK SMILES IDX 6 14 3 15 4 16 79 17 5 18 78 19 2 20 1 21 80 22 81 23 19 24
REMARK SMILES IDX 20 25 21 26 22 27 23 29 24 30 25 31 77 32 26 33 76 34 27 35
REMARK SMILES IDX 28 36 29 37 70 38 30 39 75 40 69 41 71 42 31 43 74 44 68 45
REMARK SMILES IDX 67 46 32 48 58 49 41 50 57 51 42 52 45 53 56 54 72 55 43 56
REMARK SMILES IDX 44 57 55 59 73 60 46 61 33 62 34 63 39 64 35 65 36 66 38 67
REMARK SMILES IDX 40 68 37 69 59 70 60 71 65 72 61 73 62 74 64 75 66 76 63 77
REMARK SMILES IDX 47 78 48 79 53 80 49 81 50 82 52 83 54 84 51 85
REMARK H PARENT 16 6 21 28 71 47 45 58
REMARK Flexibility Score: inf
ROOT
ATOM      1  C   UNL A   1      32.137  30.253  26.721  1.00  0.00     0.023 C 
ENDROOT
BRANCH   1   2
ATOM      2  C   UNL A   1      31.894  29.666  25.337  1.00  0.00     0.116 C 
BRANCH   2   3
ATOM      3  N   UNL A   1      33.100  29.624  24.550  1.00  0.00    -0.354 N 
ATOM      4  C   UNL A   1      33.361  28.975  23.383  1.00  0.00     0.243 C 
ATOM      5  O   UNL A   1      34.412  29.278  22.806  1.00  0.00    -0.273 OA
ATOM      6  H   UNL A   1      33.851  30.146  24.913  1.00  0.00     0.163 HD
BRANCH   4   7
ATOM      7  C   UNL A   1      32.339  28.039  22.706  1.00  0.00     0.185 C 
ATOM      8  N   UNL A   1      32.222  26.666  23.215  1.00  0.00    -0.317 N 
ATOM      9  C   UNL A   1      30.988  26.355  23.905  1.00  0.00     0.190 C 
ATOM     10  S   UNL A   1      29.742  27.455  23.211  1.00  0.00    -0.138 SA
ATOM     11  C   UNL A   1      30.953  28.684  22.626  1.00  0.00     0.106 C 
BRANCH   8  12
ATOM     12  C   UNL A   1      33.170  25.750  22.777  1.00  0.00     0.255 C 
ATOM     13  O   UNL A   1      33.594  25.750  21.625  1.00  0.00    -0.269 OA
BRANCH  12  14
ATOM     14  C   UNL A   1      33.576  24.639  23.684  1.00  0.00     0.041 A 
ATOM     15  C   UNL A   1      34.382  22.521  25.366  1.00  0.00     0.136 A 
ATOM     16  C   UNL A   1      34.803  23.841  25.605  1.00  0.00     0.048 A 
ATOM     17  C   UNL A   1      33.566  22.264  24.260  1.00  0.00     0.095 A 
ATOM     18  C   UNL A   1      34.401  24.895  24.778  1.00  0.00     0.018 A 
ATOM     19  C   UNL A   1      33.234  23.314  23.395  1.00  0.00     0.037 A 
BRANCH  15  20
ATOM     20  O   UNL A   1      34.803  21.635  26.319  1.00  0.00    -0.495 OA
ATOM     21  C   UNL A   1      34.064  21.569  27.535  1.00  0.00     0.278 C 
ENDBRANCH  15  20
BRANCH  17  22
ATOM     22  C   UNL A   1      32.961  20.998  23.966  1.00  0.00     0.103 C 
ATOM     23  N   UNL A   1      32.434  20.001  23.699  1.00  0.00    -0.192 NA
ENDBRANCH  17  22
ENDBRANCH  12  14
ENDBRANCH   8  12
ENDBRANCH   4   7
ENDBRANCH   2   3
ENDBRANCH   1   2
BRANCH   1  24
ATOM     24  C   UNL A   1      31.789  31.735  26.816  1.00  0.00     0.023 C 
BRANCH  24  25
ATOM     25  C   UNL A   1      32.896  32.604  27.401  1.00  0.00     0.116 C 
BRANCH  25  26
ATOM     26  N   UNL A   1      32.480  33.984  27.626  1.00  0.00    -0.352 N 
ATOM     27  C   UNL A   1      32.995  34.887  28.525  1.00  0.00     0.251 C 
ATOM     28  H   UNL A   1      31.740  34.308  27.064  1.00  0.00     0.163 HD
ATOM     29  O   UNL A   1      32.457  35.973  28.710  1.00  0.00    -0.269 OA
BRANCH  27  30
ATOM     30  C   UNL A   1      34.190  34.499  29.297  1.00  0.00     0.039 A 
ATOM     31  C   UNL A   1      34.023  33.933  30.561  1.00  0.00     0.014 A 
ATOM     32  C   UNL A   1      35.457  34.589  28.712  1.00  0.00     0.014 A 
ATOM     33  C   UNL A   1      35.123  33.366  31.203  1.00  0.00     0.010 A 
ATOM     34  C   UNL A   1      36.531  33.951  29.315  1.00  0.00     0.010 A 
ATOM     35  C   UNL A   1      36.371  33.318  30.559  1.00  0.00    -0.014 A 
BRANCH  35  36
ATOM     36  C   UNL A   1      37.513  32.573  31.143  1.00  0.00     0.031 A 
ATOM     37  C   UNL A   1      38.186  33.078  32.385  1.00  0.00     0.074 A 
ATOM     38  C   UNL A   1      37.995  31.488  30.503  1.00  0.00     0.049 A 
ATOM     39  N   UNL A   1      39.257  32.626  32.986  1.00  0.00    -0.248 NA
ATOM     40  C   UNL A   1      37.593  34.264  33.024  1.00  0.00     0.031 C 
ATOM     41  C   UNL A   1      37.449  30.921  29.268  1.00  0.00     0.029 A 
ATOM     42  N   UNL A   1      39.063  30.676  30.794  1.00  0.00    -0.354 N 
ATOM     43  C   UNL A   1      39.468  33.472  34.065  1.00  0.00     0.074 A 
ATOM     44  C   UNL A   1      38.450  34.498  34.005  1.00  0.00     0.031 C 
ATOM     45  C   UNL A   1      38.171  29.845  28.919  1.00  0.00     0.029 A 
ATOM     46  C   UNL A   1      39.266  29.679  29.870  1.00  0.00     0.049 A 
ATOM     47  H   UNL A   1      39.631  30.799  31.589  1.00  0.00     0.167 HD
ATOM     48  C   UNL A   1      40.415  33.388  35.030  1.00  0.00     0.037 A 
ATOM     49  C   UNL A   1      40.238  28.751  29.784  1.00  0.00     0.037 A 
ATOM     50  C   UNL A   1      41.424  32.363  35.084  1.00  0.00     0.049 A 
ATOM     51  C   UNL A   1      41.316  28.719  30.835  1.00  0.00     0.074 A 
ATOM     52  C   UNL A   1      42.394  32.162  36.049  1.00  0.00     0.029 A 
ATOM     53  N   UNL A   1      41.603  31.378  34.123  1.00  0.00    -0.354 N 
ATOM     54  N   UNL A   1      41.457  29.477  31.895  1.00  0.00    -0.248 NA
ATOM     55  C   UNL A   1      42.371  27.709  30.673  1.00  0.00     0.031 C 
ATOM     56  C   UNL A   1      43.205  31.101  35.637  1.00  0.00     0.029 A 
ATOM     57  C   UNL A   1      42.698  30.595  34.451  1.00  0.00     0.049 A 
ATOM     58  H   UNL A   1      41.035  31.253  33.329  1.00  0.00     0.167 HD
ATOM     59  C   UNL A   1      42.601  29.021  32.539  1.00  0.00     0.074 A 
ATOM     60  C   UNL A   1      43.102  27.907  31.761  1.00  0.00     0.031 C 
ATOM     61  C   UNL A   1      43.186  29.487  33.669  1.00  0.00     0.037 A 
BRANCH  48  62
ATOM     62  C   UNL A   1      40.414  34.443  36.100  1.00  0.00     0.057 A 
ATOM     63  C   UNL A   1      39.665  34.306  37.276  1.00  0.00     0.134 A 
ATOM     64  C   UNL A   1      41.207  35.591  35.970  1.00  0.00     0.134 A 
ATOM     65  F   UNL A   1      38.877  33.236  37.462  1.00  0.00    -0.206 F 
ATOM     66  C   UNL A   1      39.682  35.285  38.271  1.00  0.00     0.040 A 
ATOM     67  C   UNL A   1      41.258  36.560  36.973  1.00  0.00     0.040 A 
ATOM     68  F   UNL A   1      41.955  35.783  34.874  1.00  0.00    -0.206 F 
ATOM     69  C   UNL A   1      40.487  36.412  38.124  1.00  0.00     0.006 A 
ENDBRANCH  48  62
BRANCH  49  70
ATOM     70  C   UNL A   1      40.249  27.783  28.657  1.00  0.00     0.057 A 
ATOM     71  C   UNL A   1      39.591  26.551  28.752  1.00  0.00     0.134 A 
ATOM     72  C   UNL A   1      40.933  28.054  27.464  1.00  0.00     0.134 A 
ATOM     73  F   UNL A   1      38.935  26.223  29.874  1.00  0.00    -0.206 F 
ATOM     74  C   UNL A   1      39.631  25.616  27.716  1.00  0.00     0.040 A 
ATOM     75  C   UNL A   1      40.953  27.143  26.407  1.00  0.00     0.040 A 
ATOM     76  F   UNL A   1      41.579  29.218  27.302  1.00  0.00    -0.206 F 
ATOM     77  C   UNL A   1      40.309  25.915  26.537  1.00  0.00     0.006 A 
ENDBRANCH  49  70
BRANCH  61  78
ATOM     78  C   UNL A   1      44.425  28.786  34.150  1.00  0.00     0.057 A 
ATOM     79  C   UNL A   1      44.361  27.680  35.007  1.00  0.00     0.134 A 
ATOM     80  C   UNL A   1      45.689  29.178  33.693  1.00  0.00     0.134 A 
ATOM     81  F   UNL A   1      43.183  27.261  35.491  1.00  0.00    -0.206 F 
ATOM     82  C   UNL A   1      45.513  26.998  35.403  1.00  0.00     0.040 A 
ATOM     83  C   UNL A   1      46.844  28.485  34.057  1.00  0.00     0.040 A 
ATOM     84  F   UNL A   1      45.821  30.223  32.863  1.00  0.00    -0.206 F 
ATOM     85  C   UNL A   1      46.758  27.393  34.917  1.00  0.00     0.006 A 
ENDBRANCH  61  78
ENDBRANCH  35  36
ENDBRANCH  27  30
ENDBRANCH  25  26
ENDBRANCH  24  25
ENDBRANCH   1  24
TORSDOF 15
ENDMDL
MODEL 3
REMARK VINA RESULT:     -11.2      2.219      2.847
REMARK SMILES COc1ccc(C(=O)N2CSC[C@H]2C(=O)NCCCCNC(=O)c2ccc(-c3c4nc(c(-c5c(F)cccc5F)c5ccc([nH]5)c(-c5c(F)cccc5F)c5nc(c(-c6c(F)cccc6F)c6ccc3[nH]6)C=C5)C=C4)cc2)cc1C#N
REMARK SMILES IDX 18 1 17 2 16 3 14 4 15 5 13 7 9 8 10 9 11 10 12 11 7 12 8 13
REMARK SMILES IDX 6 14 3 15 4 16 79 17 5 18 78 19 2 20 1 21 80 22 81 23 19 24
REMARK SMILES IDX 20 25 21 26 22 27 23 29 24 30 25 31 77 32 26 33 76 34 27 35
REMARK SMILES IDX 28 36 29 37 70 38 30 39 75 40 69 41 71 42 31 43 74 44 68 45
REMARK SMILES IDX 67 46 32 48 58 49 41 50 57 51 42 52 45 53 56 54 72 55 43 56
REMARK SMILES IDX 44 57 55 59 73 60 46 61 33 62 34 63 39 64 35 65 36 66 38 67
REMARK SMILES IDX 40 68 37 69 59 70 60 71 65 72 61 73 62 74 64 75 66 76 63 77
REMARK SMILES IDX 47 78 48 79 53 80 49 81 50 82 52 83 54 84 51 85
REMARK H PARENT 16 6 21 28 71 47 45 58
REMARK Flexibility Score: inf
ROOT
ATOM      1  C   UNL A   1      39.118  23.330  26.489  1.00  0.00     0.023 C 
ENDROOT
BRANCH   1   2
ATOM      2  C   UNL A   1      37.699  23.731  26.108  1.00  0.00     0.116 C 
BRANCH   2   3
ATOM      3  N   UNL A   1      37.404  23.426  24.732  1.00  0.00    -0.354 N 
ATOM      4  C   UNL A   1      36.421  22.650  24.199  1.00  0.00     0.243 C 
ATOM      5  O   UNL A   1      36.260  22.726  22.975  1.00  0.00    -0.273 OA
ATOM      6  H   UNL A   1      38.007  23.842  24.075  1.00  0.00     0.163 HD
BRANCH   4   7
ATOM      7  C   UNL A   1      35.433  21.847  25.070  1.00  0.00     0.185 C 
ATOM      8  N   UNL A   1      33.997  22.094  24.885  1.00  0.00    -0.317 N 
ATOM      9  C   UNL A   1      33.246  21.012  24.283  1.00  0.00     0.190 C 
ATOM     10  S   UNL A   1      34.128  19.500  24.709  1.00  0.00    -0.138 SA
ATOM     11  C   UNL A   1      35.717  20.343  25.001  1.00  0.00     0.106 C 
BRANCH   8  12
ATOM     12  C   UNL A   1      33.463  23.207  25.521  1.00  0.00     0.255 C 
ATOM     13  O   UNL A   1      32.897  23.131  26.607  1.00  0.00    -0.269 OA
BRANCH  12  14
ATOM     14  C   UNL A   1      33.442  24.511  24.798  1.00  0.00     0.041 A 
ATOM     15  C   UNL A   1      33.349  26.978  23.430  1.00  0.00     0.136 A 
ATOM     16  C   UNL A   1      33.604  26.921  24.812  1.00  0.00     0.048 A 
ATOM     17  C   UNL A   1      33.119  25.785  22.738  1.00  0.00     0.095 A 
ATOM     18  C   UNL A   1      33.658  25.700  25.493  1.00  0.00     0.018 A 
ATOM     19  C   UNL A   1      33.098  24.576  23.444  1.00  0.00     0.037 A 
BRANCH  15  20
ATOM     20  O   UNL A   1      33.414  28.244  22.918  1.00  0.00    -0.495 OA
ATOM     21  C   UNL A   1      32.190  28.953  22.747  1.00  0.00     0.278 C 
ENDBRANCH  15  20
BRANCH  17  22
ATOM     22  C   UNL A   1      32.972  25.681  21.315  1.00  0.00     0.103 C 
ATOM     23  N   UNL A   1      32.903  25.618  20.160  1.00  0.00    -0.192 NA
ENDBRANCH  17  22
ENDBRANCH  12  14
ENDBRANCH   8  12
ENDBRANCH   4   7
ENDBRANCH   2   3
ENDBRANCH   1   2
BRANCH   1  24
ATOM     24  C   UNL A   1      39.270  21.835  26.752  1.00  0.00     0.023 C 
BRANCH  24  25
ATOM     25  C   UNL A   1      39.452  20.991  25.497  1.00  0.00     0.116 C 
BRANCH  25  26
ATOM     26  N   UNL A   1      40.127  19.724  25.753  1.00  0.00    -0.352 N 
ATOM     27  C   UNL A   1      41.435  19.521  26.125  1.00  0.00     0.251 C 
ATOM     28  H   UNL A   1      39.578  18.913  25.646  1.00  0.00     0.163 HD
ATOM     29  O   UNL A   1      41.913  18.393  26.169  1.00  0.00    -0.269 OA
BRANCH  27  30
ATOM     30  C   UNL A   1      42.264  20.702  26.429  1.00  0.00     0.039 A 
ATOM     31  C   UNL A   1      42.731  21.488  25.376  1.00  0.00     0.014 A 
ATOM     32  C   UNL A   1      42.471  21.084  27.758  1.00  0.00     0.014 A 
ATOM     33  C   UNL A   1      43.326  22.717  25.657  1.00  0.00     0.010 A 
ATOM     34  C   UNL A   1      42.987  22.343  28.031  1.00  0.00     0.010 A 
ATOM     35  C   UNL A   1      43.404  23.179  26.982  1.00  0.00    -0.014 A 
BRANCH  35  36
ATOM     36  C   UNL A   1      43.874  24.551  27.295  1.00  0.00     0.031 A 
ATOM     37  C   UNL A   1      42.890  25.615  27.682  1.00  0.00     0.074 A 
ATOM     38  C   UNL A   1      45.179  24.856  27.145  1.00  0.00     0.049 A 
ATOM     39  N   UNL A   1      43.092  26.890  27.892  1.00  0.00    -0.248 NA
ATOM     40  C   UNL A   1      41.486  25.195  27.829  1.00  0.00     0.031 C 
ATOM     41  C   UNL A   1      46.228  23.917  26.738  1.00  0.00     0.029 A 
ATOM     42  N   UNL A   1      45.846  26.046  27.302  1.00  0.00    -0.354 N 
ATOM     43  C   UNL A   1      41.846  27.425  28.188  1.00  0.00     0.074 A 
ATOM     44  C   UNL A   1      40.886  26.349  28.076  1.00  0.00     0.031 C 
ATOM     45  C   UNL A   1      47.404  24.561  26.698  1.00  0.00     0.029 A 
ATOM     46  C   UNL A   1      47.188  25.968  27.018  1.00  0.00     0.049 A 
ATOM     47  H   UNL A   1      45.402  26.877  27.591  1.00  0.00     0.167 HD
ATOM     48  C   UNL A   1      41.536  28.695  28.542  1.00  0.00     0.037 A 
ATOM     49  C   UNL A   1      48.133  26.927  26.992  1.00  0.00     0.037 A 
ATOM     50  C   UNL A   1      42.498  29.759  28.654  1.00  0.00     0.049 A 
ATOM     51  C   UNL A   1      47.750  28.343  27.327  1.00  0.00     0.074 A 
ATOM     52  C   UNL A   1      42.291  31.067  29.056  1.00  0.00     0.029 A 
ATOM     53  N   UNL A   1      43.846  29.643  28.346  1.00  0.00    -0.354 N 
ATOM     54  N   UNL A   1      46.582  28.820  27.684  1.00  0.00    -0.248 NA
ATOM     55  C   UNL A   1      48.813  29.355  27.250  1.00  0.00     0.031 C 
ATOM     56  C   UNL A   1      43.497  31.760  28.923  1.00  0.00     0.029 A 
ATOM     57  C   UNL A   1      44.472  30.869  28.505  1.00  0.00     0.049 A 
ATOM     58  H   UNL A   1      44.291  28.813  28.059  1.00  0.00     0.167 HD
ATOM     59  C   UNL A   1      46.774  30.180  27.896  1.00  0.00     0.074 A 
ATOM     60  C   UNL A   1      48.176  30.446  27.649  1.00  0.00     0.031 C 
ATOM     61  C   UNL A   1      45.870  31.122  28.258  1.00  0.00     0.037 A 
BRANCH  48  62
ATOM     62  C   UNL A   1      40.093  29.008  28.820  1.00  0.00     0.057 A 
ATOM     63  C   UNL A   1      39.578  29.036  30.123  1.00  0.00     0.134 A 
ATOM     64  C   UNL A   1      39.218  29.327  27.774  1.00  0.00     0.134 A 
ATOM     65  F   UNL A   1      40.358  28.731  31.171  1.00  0.00    -0.206 F 
ATOM     66  C   UNL A   1      38.239  29.342  30.372  1.00  0.00     0.040 A 
ATOM     67  C   UNL A   1      37.887  29.667  28.013  1.00  0.00     0.040 A 
ATOM     68  F   UNL A   1      39.647  29.328  26.503  1.00  0.00    -0.206 F 
ATOM     69  C   UNL A   1      37.392  29.667  29.315  1.00  0.00     0.006 A 
ENDBRANCH  48  62
BRANCH  49  70
ATOM     70  C   UNL A   1      49.533  26.587  26.624  1.00  0.00     0.057 A 
ATOM     71  C   UNL A   1      49.978  26.685  25.300  1.00  0.00     0.134 A 
ATOM     72  C   UNL A   1      50.454  26.140  27.579  1.00  0.00     0.134 A 
ATOM     73  F   UNL A   1      49.140  27.088  24.335  1.00  0.00    -0.206 F 
ATOM     74  C   UNL A   1      51.278  26.328  24.936  1.00  0.00     0.040 A 
ATOM     75  C   UNL A   1      51.767  25.812  27.235  1.00  0.00     0.040 A 
ATOM     76  F   UNL A   1      50.097  26.031  28.868  1.00  0.00    -0.206 F 
ATOM     77  C   UNL A   1      52.178  25.896  25.907  1.00  0.00     0.006 A 
ENDBRANCH  49  70
BRANCH  61  78
ATOM     78  C   UNL A   1      46.364  32.530  28.428  1.00  0.00     0.057 A 
ATOM     79  C   UNL A   1      46.323  33.458  27.380  1.00  0.00     0.134 A 
ATOM     80  C   UNL A   1      46.817  32.982  29.675  1.00  0.00     0.134 A 
ATOM     81  F   UNL A   1      45.913  33.088  26.158  1.00  0.00    -0.206 F 
ATOM     82  C   UNL A   1      46.729  34.782  27.562  1.00  0.00     0.040 A 
ATOM     83  C   UNL A   1      47.195  34.309  29.877  1.00  0.00     0.040 A 
ATOM     84  F   UNL A   1      46.872  32.148  30.724  1.00  0.00    -0.206 F 
ATOM     85  C   UNL A   1      47.155  35.213  28.818  1.00  0.00     0.006 A 
ENDBRANCH  61  78
ENDBRANCH  35  36
ENDBRANCH  27  30
ENDBRANCH  25  26
ENDBRANCH  24  25
ENDBRANCH   1  24
TORSDOF 15
ENDMDL
