MODEL 1
REMARK VINA RESULT:     -11.2      0.000      0.000
REMARK SMILES O=C(CCNC(=O)CSc1nc2[nH]cnc2c(=O)[nH]1)NCCCCNC(=O)c1ccc(-c2c3nc(c(-c4c(F)cccc4F)c4ccc([nH]4)c(-c4c(F)cccc4F)c4nc(c(-c5c(F)cccc5F)c5ccc2[nH]5)C=C4)C=C3)cc1
REMARK SMILES IDX 21 1 20 2 1 3 2 4 3 6 4 7 5 8 6 9 7 11 8 12 9 13 10 14 11 15
REMARK SMILES IDX 19 16 12 17 17 18 13 20 16 21 18 22 14 23 15 25 22 26 23 27
REMARK SMILES IDX 24 28 25 29 26 30 27 32 28 33 29 34 81 35 30 36 80 37 31 38
REMARK SMILES IDX 32 39 33 40 74 41 34 42 79 43 73 44 75 45 35 46 78 47 72 48
REMARK SMILES IDX 71 49 36 51 62 52 45 53 61 54 46 55 49 56 60 57 76 58 47 59
REMARK SMILES IDX 48 60 59 62 77 63 50 64 37 65 38 66 43 67 39 68 40 69 42 70
REMARK SMILES IDX 44 71 41 72 63 73 64 74 69 75 65 76 66 77 68 78 70 79 67 80
REMARK SMILES IDX 51 81 52 82 57 83 53 84 54 85 56 86 58 87 55 88
REMARK H PARENT 20 5 5 10 19 19 13 24 25 31 75 50 49 61
REMARK Flexibility Score: inf
ROOT
ATOM      1  C   UNL A   1      32.309  29.942  25.768  1.00  0.00     0.116 C 
ENDROOT
BRANCH   1   2
ATOM      2  N   UNL A   1      33.027  29.703  24.531  1.00  0.00    -0.356 N 
ATOM      3  O   UNL A   1      33.784  27.601  25.081  1.00  0.00    -0.275 OA
ATOM      4  C   UNL A   1      33.701  28.527  24.283  1.00  0.00     0.221 C 
ATOM      5  H   UNL A   1      33.033  30.406  23.842  1.00  0.00     0.163 HD
BRANCH   4   6
ATOM      6  C   UNL A   1      34.314  28.452  22.901  1.00  0.00     0.121 C 
BRANCH   6   7
ATOM      7  C   UNL A   1      33.520  27.497  22.015  1.00  0.00     0.125 C 
BRANCH   7   8
ATOM      8  N   UNL A   1      33.708  26.110  22.416  1.00  0.00    -0.355 N 
ATOM      9  C   UNL A   1      32.807  25.170  22.821  1.00  0.00     0.230 C 
ATOM     10  H   UNL A   1      34.642  25.799  22.392  1.00  0.00     0.163 HD
ATOM     11  O   UNL A   1      33.268  24.081  23.180  1.00  0.00    -0.274 OA
BRANCH   9  12
ATOM     12  C   UNL A   1      31.310  25.402  22.704  1.00  0.00     0.178 C 
BRANCH  12  13
ATOM     13  S   UNL A   1      30.524  26.186  24.132  1.00  0.00    -0.078 SA
BRANCH  13  14
ATOM     14  C   UNL A   1      29.776  27.583  23.431  1.00  0.00     0.170 A 
ATOM     15  N   UNL A   1      30.434  28.496  22.787  1.00  0.00    -0.204 NA
ATOM     16  N   UNL A   1      28.411  27.572  23.632  1.00  0.00    -0.299 N 
ATOM     17  C   UNL A   1      29.625  29.470  22.312  1.00  0.00     0.165 A 
ATOM     18  C   UNL A   1      27.554  28.548  23.153  1.00  0.00     0.279 A 
ATOM     19  H   UNL A   1      28.025  26.827  24.146  1.00  0.00     0.172 HD
ATOM     20  N   UNL A   1      30.021  30.566  21.607  1.00  0.00    -0.329 N 
ATOM     21  C   UNL A   1      28.258  29.583  22.424  1.00  0.00     0.172 A 
ATOM     22  O   UNL A   1      26.342  28.499  23.344  1.00  0.00    -0.267 OA
ATOM     23  C   UNL A   1      28.887  31.278  21.308  1.00  0.00     0.199 A 
ATOM     24  H   UNL A   1      30.945  30.801  21.359  1.00  0.00     0.169 HD
ATOM     25  N   UNL A   1      27.800  30.707  21.787  1.00  0.00    -0.229 NA
ENDBRANCH  13  14
ENDBRANCH  12  13
ENDBRANCH   9  12
ENDBRANCH   7   8
ENDBRANCH   6   7
ENDBRANCH   4   6
ENDBRANCH   1   2
BRANCH   1  26
ATOM     26  C   UNL A   1      31.072  30.814  25.558  1.00  0.00     0.023 C 
BRANCH  26  27
ATOM     27  C   UNL A   1      31.065  32.132  26.338  1.00  0.00     0.023 C 
BRANCH  27  28
ATOM     28  C   UNL A   1      32.420  32.579  26.879  1.00  0.00     0.116 C 
BRANCH  28  29
ATOM     29  N   UNL A   1      32.380  33.908  27.468  1.00  0.00    -0.352 N 
ATOM     30  C   UNL A   1      33.170  34.455  28.451  1.00  0.00     0.251 C 
ATOM     31  H   UNL A   1      31.684  34.505  27.110  1.00  0.00     0.163 HD
ATOM     32  O   UNL A   1      32.882  35.549  28.930  1.00  0.00    -0.269 OA
BRANCH  30  33
ATOM     33  C   UNL A   1      34.351  33.721  28.962  1.00  0.00     0.039 A 
ATOM     34  C   UNL A   1      35.626  34.215  28.678  1.00  0.00     0.014 A 
ATOM     35  C   UNL A   1      34.207  32.550  29.712  1.00  0.00     0.014 A 
ATOM     36  C   UNL A   1      36.753  33.578  29.206  1.00  0.00     0.010 A 
ATOM     37  C   UNL A   1      35.325  31.962  30.302  1.00  0.00     0.010 A 
ATOM     38  C   UNL A   1      36.610  32.470  30.058  1.00  0.00    -0.014 A 
BRANCH  38  39
ATOM     39  C   UNL A   1      37.790  31.843  30.711  1.00  0.00     0.031 A 
ATOM     40  C   UNL A   1      38.571  30.770  30.004  1.00  0.00     0.074 A 
ATOM     41  C   UNL A   1      38.120  32.196  31.969  1.00  0.00     0.049 A 
ATOM     42  N   UNL A   1      39.588  30.066  30.436  1.00  0.00    -0.248 NA
ATOM     43  C   UNL A   1      38.141  30.423  28.641  1.00  0.00     0.031 C 
ATOM     44  C   UNL A   1      37.422  33.196  32.779  1.00  0.00     0.029 A 
ATOM     45  N   UNL A   1      39.124  31.747  32.791  1.00  0.00    -0.354 N 
ATOM     46  C   UNL A   1      39.908  29.190  29.407  1.00  0.00     0.074 A 
ATOM     47  C   UNL A   1      38.946  29.412  28.351  1.00  0.00     0.031 C 
ATOM     48  C   UNL A   1      38.034  33.304  33.969  1.00  0.00     0.029 A 
ATOM     49  C   UNL A   1      39.138  32.350  34.025  1.00  0.00     0.049 A 
ATOM     50  H   UNL A   1      39.773  31.058  32.522  1.00  0.00     0.167 HD
ATOM     51  C   UNL A   1      40.925  28.296  29.339  1.00  0.00     0.037 A 
ATOM     52  C   UNL A   1      39.943  32.153  35.087  1.00  0.00     0.037 A 
ATOM     53  C   UNL A   1      41.892  28.088  30.385  1.00  0.00     0.049 A 
ATOM     54  C   UNL A   1      41.046  31.135  34.996  1.00  0.00     0.074 A 
ATOM     55  C   UNL A   1      42.992  27.248  30.385  1.00  0.00     0.029 A 
ATOM     56  N   UNL A   1      41.871  28.718  31.620  1.00  0.00    -0.354 N 
ATOM     57  N   UNL A   1      41.381  30.364  33.989  1.00  0.00    -0.248 NA
ATOM     58  C   UNL A   1      41.888  30.961  36.189  1.00  0.00     0.031 C 
ATOM     59  C   UNL A   1      43.602  27.325  31.641  1.00  0.00     0.029 A 
ATOM     60  C   UNL A   1      42.921  28.262  32.401  1.00  0.00     0.049 A 
ATOM     61  H   UNL A   1      41.210  29.391  31.900  1.00  0.00     0.167 HD
ATOM     62  C   UNL A   1      42.490  29.643  34.413  1.00  0.00     0.074 A 
ATOM     63  C   UNL A   1      42.780  30.078  35.763  1.00  0.00     0.031 C 
ATOM     64  C   UNL A   1      43.205  28.707  33.743  1.00  0.00     0.037 A 
BRANCH  51  65
ATOM     65  C   UNL A   1      41.040  27.468  28.091  1.00  0.00     0.057 A 
ATOM     66  C   UNL A   1      40.389  26.234  27.956  1.00  0.00     0.134 A 
ATOM     67  C   UNL A   1      41.776  27.929  26.992  1.00  0.00     0.134 A 
ATOM     68  F   UNL A   1      39.674  25.727  28.972  1.00  0.00    -0.206 F 
ATOM     69  C   UNL A   1      40.489  25.478  26.787  1.00  0.00     0.040 A 
ATOM     70  C   UNL A   1      41.858  27.198  25.806  1.00  0.00     0.040 A 
ATOM     71  F   UNL A   1      42.418  29.107  27.047  1.00  0.00    -0.206 F 
ATOM     72  C   UNL A   1      41.219  25.963  25.704  1.00  0.00     0.006 A 
ENDBRANCH  51  65
BRANCH  52  73
ATOM     73  C   UNL A   1      39.749  32.947  36.329  1.00  0.00     0.057 A 
ATOM     74  C   UNL A   1      40.492  34.110  36.566  1.00  0.00     0.134 A 
ATOM     75  C   UNL A   1      38.836  32.554  37.316  1.00  0.00     0.134 A 
ATOM     76  F   UNL A   1      41.395  34.529  35.667  1.00  0.00    -0.206 F 
ATOM     77  C   UNL A   1      40.354  34.839  37.749  1.00  0.00     0.040 A 
ATOM     78  C   UNL A   1      38.667  33.289  38.491  1.00  0.00     0.040 A 
ATOM     79  F   UNL A   1      38.084  31.456  37.146  1.00  0.00    -0.206 F 
ATOM     80  C   UNL A   1      39.436  34.430  38.714  1.00  0.00     0.006 A 
ENDBRANCH  52  73
BRANCH  64  81
ATOM     81  C   UNL A   1      44.397  28.117  34.441  1.00  0.00     0.057 A 
ATOM     82  C   UNL A   1      44.314  26.936  35.189  1.00  0.00     0.134 A 
ATOM     83  C   UNL A   1      45.657  28.722  34.330  1.00  0.00     0.134 A 
ATOM     84  F   UNL A   1      43.136  26.312  35.346  1.00  0.00    -0.206 F 
ATOM     85  C   UNL A   1      45.433  26.392  35.823  1.00  0.00     0.040 A 
ATOM     86  C   UNL A   1      46.788  28.171  34.933  1.00  0.00     0.040 A 
ATOM     87  F   UNL A   1      45.811  29.850  33.621  1.00  0.00    -0.206 F 
ATOM     88  C   UNL A   1      46.676  27.006  35.689  1.00  0.00     0.006 A 
ENDBRANCH  64  81
ENDBRANCH  38  39
ENDBRANCH  30  33
ENDBRANCH  28  29
ENDBRANCH  27  28
ENDBRANCH  26  27
ENDBRANCH   1  26
TORSDOF 16
ENDMDL
MODEL 2
REMARK VINA RESULT:     -11.0      0.496      6.263
REMARK SMILES O=C(CCNC(=O)CSc1nc2[nH]cnc2c(=O)[nH]1)NCCCCNC(=O)c1ccc(-c2c3nc(c(-c4c(F)cccc4F)c4ccc([nH]4)c(-c4c(F)cccc4F)c4nc(c(-c5c(F)cccc5F)c5ccc2[nH]5)C=C4)C=C3)cc1
REMARK SMILES IDX 21 1 20 2 1 3 2 4 3 6 4 7 5 8 6 9 7 11 8 12 9 13 10 14 11 15
REMARK SMILES IDX 19 16 12 17 17 18 13 20 16 21 18 22 14 23 15 25 22 26 23 27
REMARK SMILES IDX 24 28 25 29 26 30 27 32 28 33 29 34 81 35 30 36 80 37 31 38
REMARK SMILES IDX 32 39 33 40 74 41 34 42 79 43 73 44 75 45 35 46 78 47 72 48
REMARK SMILES IDX 71 49 36 51 62 52 45 53 61 54 46 55 49 56 60 57 76 58 47 59
REMARK SMILES IDX 48 60 59 62 77 63 50 64 37 65 38 66 43 67 39 68 40 69 42 70
REMARK SMILES IDX 44 71 41 72 63 73 64 74 69 75 65 76 66 77 68 78 70 79 67 80
REMARK SMILES IDX 51 81 52 82 57 83 53 84 54 85 56 86 58 87 55 88
REMARK H PARENT 20 5 5 10 19 19 13 24 25 31 75 50 49 61
REMARK Flexibility Score: inf
ROOT
ATOM      1  C   UNL A   1      32.683  30.113  26.177  1.00  0.00     0.116 C 
ENDROOT
BRANCH   1   2
ATOM      2  N   UNL A   1      33.298  29.821  24.897  1.00  0.00    -0.356 N 
ATOM      3  O   UNL A   1      33.846  27.638  25.371  1.00  0.00    -0.275 OA
ATOM      4  C   UNL A   1      33.822  28.584  24.592  1.00  0.00     0.221 C 
ATOM      5  H   UNL A   1      33.344  30.534  24.219  1.00  0.00     0.163 HD
BRANCH   4   6
ATOM      6  C   UNL A   1      34.343  28.470  23.176  1.00  0.00     0.121 C 
BRANCH   6   7
ATOM      7  C   UNL A   1      33.565  27.408  22.404  1.00  0.00     0.125 C 
BRANCH   7   8
ATOM      8  N   UNL A   1      33.715  26.090  23.005  1.00  0.00    -0.355 N 
ATOM      9  C   UNL A   1      32.798  25.107  23.236  1.00  0.00     0.230 C 
ATOM     10  H   UNL A   1      34.630  25.872  23.293  1.00  0.00     0.163 HD
ATOM     11  O   UNL A   1      33.199  24.108  23.840  1.00  0.00    -0.274 OA
BRANCH   9  12
ATOM     12  C   UNL A   1      31.394  25.179  22.657  1.00  0.00     0.178 C 
BRANCH  12  13
ATOM     13  S   UNL A   1      30.081  25.584  23.833  1.00  0.00    -0.078 SA
BRANCH  13  14
ATOM     14  C   UNL A   1      29.544  27.134  23.279  1.00  0.00     0.170 A 
ATOM     15  N   UNL A   1      30.317  27.984  22.678  1.00  0.00    -0.204 NA
ATOM     16  N   UNL A   1      28.202  27.321  23.542  1.00  0.00    -0.299 N 
ATOM     17  C   UNL A   1      29.659  29.109  22.318  1.00  0.00     0.165 A 
ATOM     18  C   UNL A   1      27.496  28.456  23.181  1.00  0.00     0.279 A 
ATOM     19  H   UNL A   1      27.719  26.605  24.014  1.00  0.00     0.172 HD
ATOM     20  N   UNL A   1      30.201  30.185  21.683  1.00  0.00    -0.329 N 
ATOM     21  C   UNL A   1      28.332  29.425  22.503  1.00  0.00     0.172 A 
ATOM     22  O   UNL A   1      26.299  28.582  23.423  1.00  0.00    -0.267 OA
ATOM     23  C   UNL A   1      29.187  31.089  21.493  1.00  0.00     0.199 A 
ATOM     24  H   UNL A   1      31.142  30.293  21.412  1.00  0.00     0.169 HD
ATOM     25  N   UNL A   1      28.039  30.657  21.978  1.00  0.00    -0.229 NA
ENDBRANCH  13  14
ENDBRANCH  12  13
ENDBRANCH   9  12
ENDBRANCH   7   8
ENDBRANCH   6   7
ENDBRANCH   4   6
ENDBRANCH   1   2
BRANCH   1  26
ATOM     26  C   UNL A   1      31.331  30.806  26.023  1.00  0.00     0.023 C 
BRANCH  26  27
ATOM     27  C   UNL A   1      31.237  32.197  26.656  1.00  0.00     0.023 C 
BRANCH  27  28
ATOM     28  C   UNL A   1      32.552  32.768  27.178  1.00  0.00     0.116 C 
BRANCH  28  29
ATOM     29  N   UNL A   1      32.435  34.154  27.604  1.00  0.00    -0.352 N 
ATOM     30  C   UNL A   1      33.146  34.841  28.558  1.00  0.00     0.251 C 
ATOM     31  H   UNL A   1      31.745  34.679  27.138  1.00  0.00     0.163 HD
ATOM     32  O   UNL A   1      32.795  35.971  28.888  1.00  0.00    -0.269 OA
BRANCH  30  33
ATOM     33  C   UNL A   1      34.315  34.216  29.219  1.00  0.00     0.039 A 
ATOM     34  C   UNL A   1      34.104  33.417  30.346  1.00  0.00     0.014 A 
ATOM     35  C   UNL A   1      35.612  34.416  28.739  1.00  0.00     0.014 A 
ATOM     36  C   UNL A   1      35.183  32.763  30.947  1.00  0.00     0.010 A 
ATOM     37  C   UNL A   1      36.674  33.701  29.290  1.00  0.00     0.010 A 
ATOM     38  C   UNL A   1      36.472  32.864  30.398  1.00  0.00    -0.014 A 
BRANCH  38  39
ATOM     39  C   UNL A   1      37.613  32.094  30.961  1.00  0.00     0.031 A 
ATOM     40  C   UNL A   1      38.174  32.440  32.313  1.00  0.00     0.074 A 
ATOM     41  C   UNL A   1      38.185  31.120  30.225  1.00  0.00     0.049 A 
ATOM     42  N   UNL A   1      39.201  31.923  32.939  1.00  0.00    -0.248 NA
ATOM     43  C   UNL A   1      37.510  33.527  33.049  1.00  0.00     0.031 C 
ATOM     44  C   UNL A   1      37.761  30.710  28.885  1.00  0.00     0.029 A 
ATOM     45  N   UNL A   1      39.254  30.301  30.498  1.00  0.00    -0.354 N 
ATOM     46  C   UNL A   1      39.313  32.627  34.131  1.00  0.00     0.074 A 
ATOM     47  C   UNL A   1      38.283  33.643  34.118  1.00  0.00     0.031 C 
ATOM     48  C   UNL A   1      38.542  29.702  28.466  1.00  0.00     0.029 A 
ATOM     49  C   UNL A   1      39.550  29.423  29.485  1.00  0.00     0.049 A 
ATOM     50  H   UNL A   1      39.760  30.340  31.342  1.00  0.00     0.167 HD
ATOM     51  C   UNL A   1      40.180  32.431  35.154  1.00  0.00     0.037 A 
ATOM     52  C   UNL A   1      40.528  28.504  29.381  1.00  0.00     0.037 A 
ATOM     53  C   UNL A   1      41.193  31.409  35.173  1.00  0.00     0.049 A 
ATOM     54  C   UNL A   1      41.495  28.325  30.519  1.00  0.00     0.074 A 
ATOM     55  C   UNL A   1      42.080  31.094  36.189  1.00  0.00     0.029 A 
ATOM     56  N   UNL A   1      41.462  30.540  34.126  1.00  0.00    -0.354 N 
ATOM     57  N   UNL A   1      41.543  28.951  31.671  1.00  0.00    -0.248 NA
ATOM     58  C   UNL A   1      42.543  27.309  30.345  1.00  0.00     0.031 C 
ATOM     59  C   UNL A   1      42.924  30.076  35.734  1.00  0.00     0.029 A 
ATOM     60  C   UNL A   1      42.521  29.711  34.459  1.00  0.00     0.049 A 
ATOM     61  H   UNL A   1      40.972  30.515  33.273  1.00  0.00     0.167 HD
ATOM     62  C   UNL A   1      42.600  28.381  32.370  1.00  0.00     0.074 A 
ATOM     63  C   UNL A   1      43.157  27.351  31.519  1.00  0.00     0.031 C 
ATOM     64  C   UNL A   1      43.064  28.683  33.607  1.00  0.00     0.037 A 
BRANCH  51  65
ATOM     65  C   UNL A   1      40.075  33.349  36.340  1.00  0.00     0.057 A 
ATOM     66  C   UNL A   1      39.227  33.070  37.421  1.00  0.00     0.134 A 
ATOM     67  C   UNL A   1      40.864  34.503  36.422  1.00  0.00     0.134 A 
ATOM     68  F   UNL A   1      38.437  31.986  37.405  1.00  0.00    -0.206 F 
ATOM     69  C   UNL A   1      39.149  33.920  38.526  1.00  0.00     0.040 A 
ATOM     70  C   UNL A   1      40.818  35.344  37.535  1.00  0.00     0.040 A 
ATOM     71  F   UNL A   1      41.705  34.826  35.428  1.00  0.00    -0.206 F 
ATOM     72  C   UNL A   1      39.951  35.057  38.588  1.00  0.00     0.006 A 
ENDBRANCH  51  65
BRANCH  52  73
ATOM     73  C   UNL A   1      40.637  27.664  28.159  1.00  0.00     0.057 A 
ATOM     74  C   UNL A   1      40.025  26.406  28.089  1.00  0.00     0.134 A 
ATOM     75  C   UNL A   1      41.371  28.086  27.042  1.00  0.00     0.134 A 
ATOM     76  F   UNL A   1      39.324  25.939  29.132  1.00  0.00    -0.206 F 
ATOM     77  C   UNL A   1      40.160  25.587  26.966  1.00  0.00     0.040 A 
ATOM     78  C   UNL A   1      41.489  27.289  25.901  1.00  0.00     0.040 A 
ATOM     79  F   UNL A   1      41.971  29.285  27.039  1.00  0.00    -0.206 F 
ATOM     80  C   UNL A   1      40.891  26.031  25.866  1.00  0.00     0.006 A 
ENDBRANCH  52  73
BRANCH  64  81
ATOM     81  C   UNL A   1      44.207  27.863  34.135  1.00  0.00     0.057 A 
ATOM     82  C   UNL A   1      45.539  28.273  34.009  1.00  0.00     0.134 A 
ATOM     83  C   UNL A   1      43.964  26.661  34.816  1.00  0.00     0.134 A 
ATOM     84  F   UNL A   1      45.843  29.408  33.359  1.00  0.00    -0.206 F 
ATOM     85  C   UNL A   1      46.591  27.507  34.516  1.00  0.00     0.040 A 
ATOM     86  C   UNL A   1      45.004  25.902  35.353  1.00  0.00     0.040 A 
ATOM     87  F   UNL A   1      42.710  26.213  34.981  1.00  0.00    -0.206 F 
ATOM     88  C   UNL A   1      46.323  26.321  35.198  1.00  0.00     0.006 A 
ENDBRANCH  64  81
ENDBRANCH  38  39
ENDBRANCH  30  33
ENDBRANCH  28  29
ENDBRANCH  27  28
ENDBRANCH  26  27
ENDBRANCH   1  26
TORSDOF 16
ENDMDL
MODEL 3
REMARK VINA RESULT:     -11.0      1.460      6.751
REMARK SMILES O=C(CCNC(=O)CSc1nc2[nH]cnc2c(=O)[nH]1)NCCCCNC(=O)c1ccc(-c2c3nc(c(-c4c(F)cccc4F)c4ccc([nH]4)c(-c4c(F)cccc4F)c4nc(c(-c5c(F)cccc5F)c5ccc2[nH]5)C=C4)C=C3)cc1
REMARK SMILES IDX 21 1 20 2 1 3 2 4 3 6 4 7 5 8 6 9 7 11 8 12 9 13 10 14 11 15
REMARK SMILES IDX 19 16 12 17 17 18 13 20 16 21 18 22 14 23 15 25 22 26 23 27
REMARK SMILES IDX 24 28 25 29 26 30 27 32 28 33 29 34 81 35 30 36 80 37 31 38
REMARK SMILES IDX 32 39 33 40 74 41 34 42 79 43 73 44 75 45 35 46 78 47 72 48
REMARK SMILES IDX 71 49 36 51 62 52 45 53 61 54 46 55 49 56 60 57 76 58 47 59
REMARK SMILES IDX 48 60 59 62 77 63 50 64 37 65 38 66 43 67 39 68 40 69 42 70
REMARK SMILES IDX 44 71 41 72 63 73 64 74 69 75 65 76 66 77 68 78 70 79 67 80
REMARK SMILES IDX 51 81 52 82 57 83 53 84 54 85 56 86 58 87 55 88
REMARK H PARENT 20 5 5 10 19 19 13 24 25 31 75 50 49 61
REMARK Flexibility Score: inf
ROOT
ATOM      1  C   UNL A   1      33.145  30.042  26.554  1.00  0.00     0.116 C 
ENDROOT
BRANCH   1   2
ATOM      2  N   UNL A   1      33.557  29.595  25.238  1.00  0.00    -0.356 N 
ATOM      3  O   UNL A   1      33.088  27.368  25.570  1.00  0.00    -0.275 OA
ATOM      4  C   UNL A   1      33.478  28.277  24.847  1.00  0.00     0.221 C 
ATOM      5  H   UNL A   1      33.908  30.258  24.600  1.00  0.00     0.163 HD
BRANCH   4   6
ATOM      6  C   UNL A   1      33.884  28.039  23.408  1.00  0.00     0.121 C 
BRANCH   6   7
ATOM      7  C   UNL A   1      32.809  27.243  22.674  1.00  0.00     0.125 C 
BRANCH   7   8
ATOM      8  N   UNL A   1      31.819  28.117  22.061  1.00  0.00    -0.355 N 
ATOM      9  C   UNL A   1      30.553  28.442  22.453  1.00  0.00     0.230 C 
ATOM     10  H   UNL A   1      32.111  28.545  21.225  1.00  0.00     0.163 HD
ATOM     11  O   UNL A   1      29.904  29.159  21.685  1.00  0.00    -0.274 OA
BRANCH   9  12
ATOM     12  C   UNL A   1      30.023  28.056  23.823  1.00  0.00     0.178 C 
BRANCH  12  13
ATOM     13  S   UNL A   1      28.826  26.700  23.848  1.00  0.00    -0.078 SA
BRANCH  13  14
ATOM     14  C   UNL A   1      29.830  25.315  24.119  1.00  0.00     0.170 A 
ATOM     15  N   UNL A   1      30.320  24.591  23.161  1.00  0.00    -0.204 NA
ATOM     16  N   UNL A   1      30.047  25.112  25.467  1.00  0.00    -0.299 N 
ATOM     17  C   UNL A   1      31.094  23.584  23.626  1.00  0.00     0.165 A 
ATOM     18  C   UNL A   1      30.840  24.097  25.976  1.00  0.00     0.279 A 
ATOM     19  H   UNL A   1      29.614  25.725  26.103  1.00  0.00     0.172 HD
ATOM     20  N   UNL A   1      31.735  22.652  22.867  1.00  0.00    -0.329 N 
ATOM     21  C   UNL A   1      31.406  23.270  24.929  1.00  0.00     0.172 A 
ATOM     22  O   UNL A   1      31.017  23.954  27.182  1.00  0.00    -0.267 OA
ATOM     23  C   UNL A   1      32.417  21.835  23.732  1.00  0.00     0.199 A 
ATOM     24  H   UNL A   1      31.713  22.580  21.885  1.00  0.00     0.169 HD
ATOM     25  N   UNL A   1      32.240  22.184  24.991  1.00  0.00    -0.229 NA
ENDBRANCH  13  14
ENDBRANCH  12  13
ENDBRANCH   9  12
ENDBRANCH   7   8
ENDBRANCH   6   7
ENDBRANCH   4   6
ENDBRANCH   1   2
BRANCH   1  26
ATOM     26  C   UNL A   1      31.693  30.520  26.573  1.00  0.00     0.023 C 
BRANCH  26  27
ATOM     27  C   UNL A   1      31.503  32.012  26.860  1.00  0.00     0.023 C 
BRANCH  27  28
ATOM     28  C   UNL A   1      32.788  32.808  27.063  1.00  0.00     0.116 C 
BRANCH  28  29
ATOM     29  N   UNL A   1      32.552  34.119  27.646  1.00  0.00    -0.352 N 
ATOM     30  C   UNL A   1      33.159  34.723  28.721  1.00  0.00     0.251 C 
ATOM     31  H   UNL A   1      31.854  34.655  27.204  1.00  0.00     0.163 HD
ATOM     32  O   UNL A   1      32.713  35.779  29.162  1.00  0.00    -0.269 OA
BRANCH  30  33
ATOM     33  C   UNL A   1      34.329  34.093  29.375  1.00  0.00     0.039 A 
ATOM     34  C   UNL A   1      34.114  33.216  30.440  1.00  0.00     0.014 A 
ATOM     35  C   UNL A   1      35.632  34.366  28.949  1.00  0.00     0.014 A 
ATOM     36  C   UNL A   1      35.196  32.557  31.030  1.00  0.00     0.010 A 
ATOM     37  C   UNL A   1      36.702  33.650  29.484  1.00  0.00     0.010 A 
ATOM     38  C   UNL A   1      36.497  32.736  30.529  1.00  0.00    -0.014 A 
BRANCH  38  39
ATOM     39  C   UNL A   1      37.646  31.966  31.074  1.00  0.00     0.031 A 
ATOM     40  C   UNL A   1      38.188  32.273  32.443  1.00  0.00     0.074 A 
ATOM     41  C   UNL A   1      38.243  31.030  30.309  1.00  0.00     0.049 A 
ATOM     42  N   UNL A   1      39.219  31.752  33.061  1.00  0.00    -0.248 NA
ATOM     43  C   UNL A   1      37.497  33.319  33.212  1.00  0.00     0.031 C 
ATOM     44  C   UNL A   1      37.840  30.663  28.951  1.00  0.00     0.029 A 
ATOM     45  N   UNL A   1      39.325  30.222  30.563  1.00  0.00    -0.354 N 
ATOM     46  C   UNL A   1      39.306  32.413  34.278  1.00  0.00     0.074 A 
ATOM     47  C   UNL A   1      38.258  33.410  34.292  1.00  0.00     0.031 C 
ATOM     48  C   UNL A   1      38.643  29.685  28.503  1.00  0.00     0.029 A 
ATOM     49  C   UNL A   1      39.647  29.388  29.520  1.00  0.00     0.049 A 
ATOM     50  H   UNL A   1      39.822  30.239  31.413  1.00  0.00     0.167 HD
ATOM     51  C   UNL A   1      40.166  32.196  35.303  1.00  0.00     0.037 A 
ATOM     52  C   UNL A   1      40.643  28.491  29.393  1.00  0.00     0.037 A 
ATOM     53  C   UNL A   1      41.199  31.192  35.294  1.00  0.00     0.049 A 
ATOM     54  C   UNL A   1      41.602  28.288  30.534  1.00  0.00     0.074 A 
ATOM     55  C   UNL A   1      42.082  30.857  36.306  1.00  0.00     0.029 A 
ATOM     56  N   UNL A   1      41.494  30.368  34.219  1.00  0.00    -0.354 N 
ATOM     57  N   UNL A   1      41.627  28.872  31.708  1.00  0.00    -0.248 NA
ATOM     58  C   UNL A   1      42.671  27.299  30.333  1.00  0.00     0.031 C 
ATOM     59  C   UNL A   1      42.949  29.872  35.823  1.00  0.00     0.029 A 
ATOM     60  C   UNL A   1      42.565  29.547  34.532  1.00  0.00     0.049 A 
ATOM     61  H   UNL A   1      41.012  30.365  33.360  1.00  0.00     0.167 HD
ATOM     62  C   UNL A   1      42.688  28.297  32.396  1.00  0.00     0.074 A 
ATOM     63  C   UNL A   1      43.273  27.309  31.514  1.00  0.00     0.031 C 
ATOM     64  C   UNL A   1      43.135  28.561  33.648  1.00  0.00     0.037 A 
BRANCH  51  65
ATOM     65  C   UNL A   1      40.034  33.067  36.520  1.00  0.00     0.057 A 
ATOM     66  C   UNL A   1      39.112  32.784  37.538  1.00  0.00     0.134 A 
ATOM     67  C   UNL A   1      40.868  34.178  36.698  1.00  0.00     0.134 A 
ATOM     68  F   UNL A   1      38.276  31.740  37.429  1.00  0.00    -0.206 F 
ATOM     69  C   UNL A   1      39.007  33.590  38.673  1.00  0.00     0.040 A 
ATOM     70  C   UNL A   1      40.793  34.974  37.843  1.00  0.00     0.040 A 
ATOM     71  F   UNL A   1      41.779  34.503  35.768  1.00  0.00    -0.206 F 
ATOM     72  C   UNL A   1      39.854  34.684  38.831  1.00  0.00     0.006 A 
ENDBRANCH  51  65
BRANCH  52  73
ATOM     73  C   UNL A   1      40.779  27.699  28.142  1.00  0.00     0.057 A 
ATOM     74  C   UNL A   1      40.170  26.445  28.011  1.00  0.00     0.134 A 
ATOM     75  C   UNL A   1      41.537  28.163  27.058  1.00  0.00     0.134 A 
ATOM     76  F   UNL A   1      39.447  25.937  29.020  1.00  0.00    -0.206 F 
ATOM     77  C   UNL A   1      40.330  25.670  26.860  1.00  0.00     0.040 A 
ATOM     78  C   UNL A   1      41.681  27.411  25.891  1.00  0.00     0.040 A 
ATOM     79  F   UNL A   1      42.136  29.362  27.115  1.00  0.00    -0.206 F 
ATOM     80  C   UNL A   1      41.084  26.155  25.795  1.00  0.00     0.006 A 
ENDBRANCH  52  73
BRANCH  64  81
ATOM     81  C   UNL A   1      44.288  27.743  34.158  1.00  0.00     0.057 A 
ATOM     82  C   UNL A   1      44.105  26.493  34.761  1.00  0.00     0.134 A 
ATOM     83  C   UNL A   1      45.605  28.198  34.005  1.00  0.00     0.134 A 
ATOM     84  F   UNL A   1      42.870  26.003  34.949  1.00  0.00    -0.206 F 
ATOM     85  C   UNL A   1      45.187  25.737  35.219  1.00  0.00     0.040 A 
ATOM     86  C   UNL A   1      46.695  27.438  34.430  1.00  0.00     0.040 A 
ATOM     87  F   UNL A   1      45.854  29.383  33.426  1.00  0.00    -0.206 F 
ATOM     88  C   UNL A   1      46.487  26.207  35.046  1.00  0.00     0.006 A 
ENDBRANCH  64  81
ENDBRANCH  38  39
ENDBRANCH  30  33
ENDBRANCH  28  29
ENDBRANCH  27  28
ENDBRANCH  26  27
ENDBRANCH   1  26
TORSDOF 16
ENDMDL
