MODEL 1
REMARK VINA RESULT:     -11.1      0.000      0.000
REMARK SMILES CC[C@](C)([NH3+])C(=O)N1CC[NH+]([C@H](C)C(=O)NCCCCNC(=O)c2ccc(-c3c4nc(c(-c5c(F)cccc5F)c5ccc([nH]5)c(-c5c(F)cccc5F)c5nc(c(-c6c(F)cccc6F)c6ccc3[nH]6)C=C5)C=C4)cc2)CC1
REMARK SMILES IDX 18 1 17 2 16 3 14 4 15 5 12 7 13 8 11 9 6 10 7 11 8 12 9 13
REMARK SMILES IDX 79 14 10 15 78 16 3 18 4 19 2 20 1 21 5 22 19 26 20 27 21 28
REMARK SMILES IDX 22 29 23 31 24 32 25 33 77 34 26 35 76 36 27 37 28 38 29 39
REMARK SMILES IDX 70 40 30 41 75 42 69 43 71 44 31 45 74 46 68 47 67 48 32 50
REMARK SMILES IDX 58 51 41 52 57 53 42 54 45 55 56 56 72 57 43 58 44 59 55 61
REMARK SMILES IDX 73 62 46 63 33 64 34 65 39 66 35 67 36 68 38 69 40 70 37 71
REMARK SMILES IDX 59 72 60 73 65 74 61 75 62 76 64 77 66 78 63 79 47 80 48 81
REMARK SMILES IDX 53 82 49 83 50 84 52 85 54 86 51 87
REMARK H PARENT 16 6 11 17 5 23 5 24 5 25 21 30 71 49 45 60
REMARK Flexibility Score: inf
ROOT
ATOM      1  C   UNL A   1      36.385  19.982  24.932  1.00  0.00     0.023 C 
ENDROOT
BRANCH   1   2
ATOM      2  C   UNL A   1      34.985  20.563  25.067  1.00  0.00     0.116 C 
BRANCH   2   3
ATOM      3  N   UNL A   1      34.673  21.067  26.388  1.00  0.00    -0.351 N 
ATOM      4  C   UNL A   1      34.265  22.311  26.787  1.00  0.00     0.278 C 
ATOM      5  O   UNL A   1      33.826  22.401  27.939  1.00  0.00    -0.268 OA
ATOM      6  H   UNL A   1      34.768  20.410  27.115  1.00  0.00     0.163 HD
BRANCH   4   7
ATOM      7  C   UNL A   1      34.362  23.563  25.875  1.00  0.00     0.271 C 
ATOM      8  C   UNL A   1      35.810  24.010  25.633  1.00  0.00     0.086 C 
BRANCH   7   9
ATOM      9  N   UNL A   1      33.430  23.553  24.711  1.00  0.00    -0.322 N 
ATOM     10  C   UNL A   1      30.952  26.074  22.759  1.00  0.00     0.283 C 
ATOM     11  O   UNL A   1      31.421  26.723  21.810  1.00  0.00    -0.268 OA
ATOM     12  N   UNL A   1      31.452  24.803  23.003  1.00  0.00    -0.326 N 
ATOM     13  C   UNL A   1      32.755  24.461  22.443  1.00  0.00     0.181 C 
ATOM     14  C   UNL A   1      31.018  23.772  23.944  1.00  0.00     0.181 C 
ATOM     15  C   UNL A   1      33.773  24.463  23.603  1.00  0.00     0.284 C 
ATOM     16  C   UNL A   1      32.009  23.679  25.122  1.00  0.00     0.284 C 
ATOM     17  H   UNL A   1      33.559  22.623  24.309  1.00  0.00     0.348 HD
BRANCH  10  18
ATOM     18  C   UNL A   1      29.975  26.823  23.741  1.00  0.00     0.171 C 
ATOM     19  C   UNL A   1      29.481  28.107  23.044  1.00  0.00     0.090 C 
BRANCH  18  20
ATOM     20  C   UNL A   1      30.726  27.137  25.064  1.00  0.00     0.075 C 
ATOM     21  C   UNL A   1      31.465  28.472  25.114  1.00  0.00     0.011 C 
ENDBRANCH  18  20
BRANCH  18  22
ATOM     22  N   UNL A   1      28.764  26.038  24.073  1.00  0.00    -0.345 N 
ATOM     23  H   UNL A   1      28.315  25.724  23.213  1.00  0.00     0.345 HD
ATOM     24  H   UNL A   1      28.115  26.621  24.602  1.00  0.00     0.345 HD
ATOM     25  H   UNL A   1      29.028  25.228  24.634  1.00  0.00     0.345 HD
ENDBRANCH  18  22
ENDBRANCH  10  18
ENDBRANCH   7   9
ENDBRANCH   4   7
ENDBRANCH   2   3
ENDBRANCH   1   2
BRANCH   1  26
ATOM     26  C   UNL A   1      37.485  20.995  24.625  1.00  0.00     0.023 C 
BRANCH  26  27
ATOM     27  C   UNL A   1      38.616  21.083  25.647  1.00  0.00     0.116 C 
BRANCH  27  28
ATOM     28  N   UNL A   1      39.516  19.939  25.627  1.00  0.00    -0.352 N 
ATOM     29  C   UNL A   1      40.837  19.849  26.008  1.00  0.00     0.251 C 
ATOM     30  H   UNL A   1      39.122  19.103  25.288  1.00  0.00     0.163 HD
ATOM     31  O   UNL A   1      41.466  18.816  25.818  1.00  0.00    -0.269 OA
BRANCH  29  32
ATOM     32  C   UNL A   1      41.508  21.025  26.599  1.00  0.00     0.039 A 
ATOM     33  C   UNL A   1      42.061  21.982  25.745  1.00  0.00     0.014 A 
ATOM     34  C   UNL A   1      41.545  21.208  27.983  1.00  0.00     0.014 A 
ATOM     35  C   UNL A   1      42.554  23.176  26.276  1.00  0.00     0.010 A 
ATOM     36  C   UNL A   1      41.959  22.430  28.502  1.00  0.00     0.010 A 
ATOM     37  C   UNL A   1      42.452  23.433  27.653  1.00  0.00    -0.014 A 
BRANCH  37  38
ATOM     38  C   UNL A   1      42.816  24.756  28.219  1.00  0.00     0.031 A 
ATOM     39  C   UNL A   1      41.762  25.806  28.432  1.00  0.00     0.074 A 
ATOM     40  C   UNL A   1      44.111  25.043  28.458  1.00  0.00     0.049 A 
ATOM     41  N   UNL A   1      41.900  27.046  28.824  1.00  0.00    -0.248 NA
ATOM     42  C   UNL A   1      40.374  25.419  28.135  1.00  0.00     0.031 C 
ATOM     43  C   UNL A   1      45.237  24.131  28.239  1.00  0.00     0.029 A 
ATOM     44  N   UNL A   1      44.702  26.191  28.925  1.00  0.00    -0.354 N 
ATOM     45  C   UNL A   1      40.623  27.592  28.803  1.00  0.00     0.074 A 
ATOM     46  C   UNL A   1      39.731  26.563  28.312  1.00  0.00     0.031 C 
ATOM     47  C   UNL A   1      46.377  24.747  28.591  1.00  0.00     0.029 A 
ATOM     48  C   UNL A   1      46.070  26.107  29.022  1.00  0.00     0.049 A 
ATOM     49  H   UNL A   1      44.194  26.999  29.166  1.00  0.00     0.167 HD
ATOM     50  C   UNL A   1      40.226  28.830  29.180  1.00  0.00     0.037 A 
ATOM     51  C   UNL A   1      46.977  27.024  29.408  1.00  0.00     0.037 A 
ATOM     52  C   UNL A   1      41.108  29.843  29.696  1.00  0.00     0.049 A 
ATOM     53  C   UNL A   1      46.511  28.391  29.824  1.00  0.00     0.074 A 
ATOM     54  C   UNL A   1      40.790  31.103  30.172  1.00  0.00     0.029 A 
ATOM     55  N   UNL A   1      42.484  29.711  29.802  1.00  0.00    -0.354 N 
ATOM     56  N   UNL A   1      45.291  28.869  29.867  1.00  0.00    -0.248 NA
ATOM     57  C   UNL A   1      47.545  29.344  30.246  1.00  0.00     0.031 C 
ATOM     58  C   UNL A   1      41.978  31.748  30.530  1.00  0.00     0.029 A 
ATOM     59  C   UNL A   1      43.032  30.875  30.315  1.00  0.00     0.049 A 
ATOM     60  H   UNL A   1      42.996  28.909  29.548  1.00  0.00     0.167 HD
ATOM     61  C   UNL A   1      45.408  30.169  30.342  1.00  0.00     0.074 A 
ATOM     62  C   UNL A   1      46.817  30.399  30.586  1.00  0.00     0.031 C 
ATOM     63  C   UNL A   1      44.436  31.088  30.556  1.00  0.00     0.037 A 
BRANCH  50  64
ATOM     64  C   UNL A   1      38.766  29.154  29.051  1.00  0.00     0.057 A 
ATOM     65  C   UNL A   1      37.895  29.075  30.146  1.00  0.00     0.134 A 
ATOM     66  C   UNL A   1      38.232  29.577  27.829  1.00  0.00     0.134 A 
ATOM     67  F   UNL A   1      38.342  28.664  31.342  1.00  0.00    -0.206 F 
ATOM     68  C   UNL A   1      36.538  29.377  30.022  1.00  0.00     0.040 A 
ATOM     69  C   UNL A   1      36.881  29.909  27.698  1.00  0.00     0.040 A 
ATOM     70  F   UNL A   1      39.012  29.681  26.742  1.00  0.00    -0.206 F 
ATOM     71  C   UNL A   1      36.029  29.801  28.796  1.00  0.00     0.006 A 
ENDBRANCH  50  64
BRANCH  51  72
ATOM     72  C   UNL A   1      48.419  26.675  29.441  1.00  0.00     0.057 A 
ATOM     73  C   UNL A   1      49.252  26.956  28.352  1.00  0.00     0.134 A 
ATOM     74  C   UNL A   1      48.998  26.053  30.553  1.00  0.00     0.134 A 
ATOM     75  F   UNL A   1      48.751  27.535  27.251  1.00  0.00    -0.206 F 
ATOM     76  C   UNL A   1      50.606  26.617  28.360  1.00  0.00     0.040 A 
ATOM     77  C   UNL A   1      50.355  25.727  30.584  1.00  0.00     0.040 A 
ATOM     78  F   UNL A   1      48.255  25.764  31.631  1.00  0.00    -0.206 F 
ATOM     79  C   UNL A   1      51.162  26.004  29.481  1.00  0.00     0.006 A 
ENDBRANCH  51  72
BRANCH  63  80
ATOM     80  C   UNL A   1      44.859  32.417  31.104  1.00  0.00     0.057 A 
ATOM     81  C   UNL A   1      45.177  33.494  30.267  1.00  0.00     0.134 A 
ATOM     82  C   UNL A   1      44.909  32.636  32.487  1.00  0.00     0.134 A 
ATOM     83  F   UNL A   1      45.162  33.345  28.933  1.00  0.00    -0.206 F 
ATOM     84  C   UNL A   1      45.546  34.735  30.785  1.00  0.00     0.040 A 
ATOM     85  C   UNL A   1      45.253  33.879  33.017  1.00  0.00     0.040 A 
ATOM     86  F   UNL A   1      44.610  31.648  33.344  1.00  0.00    -0.206 F 
ATOM     87  C   UNL A   1      45.578  34.933  32.165  1.00  0.00     0.006 A 
ENDBRANCH  63  80
ENDBRANCH  37  38
ENDBRANCH  29  32
ENDBRANCH  27  28
ENDBRANCH  26  27
ENDBRANCH   1  26
TORSDOF 15
ENDMDL
MODEL 2
REMARK VINA RESULT:     -11.0      2.139      7.497
REMARK SMILES CC[C@](C)([NH3+])C(=O)N1CC[NH+]([C@H](C)C(=O)NCCCCNC(=O)c2ccc(-c3c4nc(c(-c5c(F)cccc5F)c5ccc([nH]5)c(-c5c(F)cccc5F)c5nc(c(-c6c(F)cccc6F)c6ccc3[nH]6)C=C5)C=C4)cc2)CC1
REMARK SMILES IDX 18 1 17 2 16 3 14 4 15 5 12 7 13 8 11 9 6 10 7 11 8 12 9 13
REMARK SMILES IDX 79 14 10 15 78 16 3 18 4 19 2 20 1 21 5 22 19 26 20 27 21 28
REMARK SMILES IDX 22 29 23 31 24 32 25 33 77 34 26 35 76 36 27 37 28 38 29 39
REMARK SMILES IDX 70 40 30 41 75 42 69 43 71 44 31 45 74 46 68 47 67 48 32 50
REMARK SMILES IDX 58 51 41 52 57 53 42 54 45 55 56 56 72 57 43 58 44 59 55 61
REMARK SMILES IDX 73 62 46 63 33 64 34 65 39 66 35 67 36 68 38 69 40 70 37 71
REMARK SMILES IDX 59 72 60 73 65 74 61 75 62 76 64 77 66 78 63 79 47 80 48 81
REMARK SMILES IDX 53 82 49 83 50 84 52 85 54 86 51 87
REMARK H PARENT 16 6 11 17 5 23 5 24 5 25 21 30 71 49 45 60
REMARK Flexibility Score: inf
ROOT
ATOM      1  C   UNL A   1      32.863  29.556  24.915  1.00  0.00     0.023 C 
ENDROOT
BRANCH   1   2
ATOM      2  C   UNL A   1      32.151  28.769  23.825  1.00  0.00     0.116 C 
BRANCH   2   3
ATOM      3  N   UNL A   1      33.036  28.045  22.937  1.00  0.00    -0.351 N 
ATOM      4  C   UNL A   1      33.115  26.706  22.664  1.00  0.00     0.278 C 
ATOM      5  O   UNL A   1      33.791  26.385  21.680  1.00  0.00    -0.268 OA
ATOM      6  H   UNL A   1      33.685  28.604  22.451  1.00  0.00     0.163 HD
BRANCH   4   7
ATOM      7  C   UNL A   1      32.427  25.625  23.540  1.00  0.00     0.271 C 
ATOM      8  C   UNL A   1      31.419  24.777  22.753  1.00  0.00     0.086 C 
BRANCH   7   9
ATOM      9  N   UNL A   1      33.342  24.923  24.487  1.00  0.00    -0.322 N 
ATOM     10  C   UNL A   1      34.705  21.194  25.220  1.00  0.00     0.283 C 
ATOM     11  O   UNL A   1      35.748  20.838  24.647  1.00  0.00    -0.268 OA
ATOM     12  N   UNL A   1      34.563  22.529  25.568  1.00  0.00    -0.326 N 
ATOM     13  C   UNL A   1      35.406  23.507  24.887  1.00  0.00     0.181 C 
ATOM     14  C   UNL A   1      33.530  23.207  26.350  1.00  0.00     0.181 C 
ATOM     15  C   UNL A   1      34.515  24.265  23.881  1.00  0.00     0.284 C 
ATOM     16  C   UNL A   1      32.614  24.026  25.419  1.00  0.00     0.284 C 
ATOM     17  H   UNL A   1      33.748  25.683  25.035  1.00  0.00     0.348 HD
BRANCH  10  18
ATOM     18  C   UNL A   1      33.536  20.144  25.320  1.00  0.00     0.171 C 
ATOM     19  C   UNL A   1      33.999  18.839  24.643  1.00  0.00     0.090 C 
BRANCH  18  20
ATOM     20  C   UNL A   1      32.268  20.729  24.638  1.00  0.00     0.075 C 
ATOM     21  C   UNL A   1      32.408  21.090  23.161  1.00  0.00     0.011 C 
ENDBRANCH  18  20
BRANCH  18  22
ATOM     22  N   UNL A   1      33.186  19.788  26.715  1.00  0.00    -0.345 N 
ATOM     23  H   UNL A   1      32.682  18.902  26.724  1.00  0.00     0.345 HD
ATOM     24  H   UNL A   1      32.598  20.519  27.116  1.00  0.00     0.345 HD
ATOM     25  H   UNL A   1      34.040  19.699  27.266  1.00  0.00     0.345 HD
ENDBRANCH  18  22
ENDBRANCH  10  18
ENDBRANCH   7   9
ENDBRANCH   4   7
ENDBRANCH   2   3
ENDBRANCH   1   2
BRANCH   1  26
ATOM     26  C   UNL A   1      33.862  28.758  25.750  1.00  0.00     0.023 C 
BRANCH  26  27
ATOM     27  C   UNL A   1      33.679  28.835  27.263  1.00  0.00     0.116 C 
BRANCH  27  28
ATOM     28  N   UNL A   1      33.780  30.185  27.799  1.00  0.00    -0.352 N 
ATOM     29  C   UNL A   1      34.842  30.815  28.409  1.00  0.00     0.251 C 
ATOM     30  H   UNL A   1      32.965  30.731  27.714  1.00  0.00     0.163 HD
ATOM     31  O   UNL A   1      34.706  31.931  28.893  1.00  0.00    -0.269 OA
BRANCH  29  32
ATOM     32  C   UNL A   1      36.138  30.114  28.523  1.00  0.00     0.039 A 
ATOM     33  C   UNL A   1      37.030  30.173  27.449  1.00  0.00     0.014 A 
ATOM     34  C   UNL A   1      36.493  29.449  29.699  1.00  0.00     0.014 A 
ATOM     35  C   UNL A   1      38.320  29.659  27.596  1.00  0.00     0.010 A 
ATOM     36  C   UNL A   1      37.801  29.013  29.873  1.00  0.00     0.010 A 
ATOM     37  C   UNL A   1      38.733  29.129  28.830  1.00  0.00    -0.014 A 
BRANCH  37  38
ATOM     38  C   UNL A   1      40.144  28.727  29.063  1.00  0.00     0.031 A 
ATOM     39  C   UNL A   1      41.117  29.695  29.674  1.00  0.00     0.074 A 
ATOM     40  C   UNL A   1      40.570  27.520  28.641  1.00  0.00     0.049 A 
ATOM     41  N   UNL A   1      42.404  29.562  29.866  1.00  0.00    -0.248 NA
ATOM     42  C   UNL A   1      40.577  30.997  30.096  1.00  0.00     0.031 C 
ATOM     43  C   UNL A   1      39.738  26.510  27.981  1.00  0.00     0.029 A 
ATOM     44  N   UNL A   1      41.814  26.942  28.691  1.00  0.00    -0.354 N 
ATOM     45  C   UNL A   1      42.830  30.765  30.412  1.00  0.00     0.074 A 
ATOM     46  C   UNL A   1      41.674  31.635  30.475  1.00  0.00     0.031 C 
ATOM     47  C   UNL A   1      40.489  25.431  27.708  1.00  0.00     0.029 A 
ATOM     48  C   UNL A   1      41.861  25.686  28.136  1.00  0.00     0.049 A 
ATOM     49  H   UNL A   1      42.599  27.386  29.086  1.00  0.00     0.167 HD
ATOM     50  C   UNL A   1      44.067  31.108  30.844  1.00  0.00     0.037 A 
ATOM     51  C   UNL A   1      42.895  24.836  27.982  1.00  0.00     0.037 A 
ATOM     52  C   UNL A   1      45.208  30.233  30.810  1.00  0.00     0.049 A 
ATOM     53  C   UNL A   1      44.257  25.239  28.472  1.00  0.00     0.074 A 
ATOM     54  C   UNL A   1      46.486  30.464  31.290  1.00  0.00     0.029 A 
ATOM     55  N   UNL A   1      45.210  28.959  30.262  1.00  0.00    -0.354 N 
ATOM     56  N   UNL A   1      44.630  26.354  29.053  1.00  0.00    -0.248 NA
ATOM     57  C   UNL A   1      45.342  24.266  28.288  1.00  0.00     0.031 C 
ATOM     58  C   UNL A   1      47.271  29.343  30.998  1.00  0.00     0.029 A 
ATOM     59  C   UNL A   1      46.473  28.400  30.373  1.00  0.00     0.049 A 
ATOM     60  H   UNL A   1      44.431  28.519  29.854  1.00  0.00     0.167 HD
ATOM     61  C   UNL A   1      45.984  26.208  29.324  1.00  0.00     0.074 A 
ATOM     62  C   UNL A   1      46.364  24.891  28.856  1.00  0.00     0.031 C 
ATOM     63  C   UNL A   1      46.835  27.086  29.906  1.00  0.00     0.037 A 
BRANCH  50  64
ATOM     64  C   UNL A   1      44.244  32.491  31.398  1.00  0.00     0.057 A 
ATOM     65  C   UNL A   1      44.038  32.773  32.755  1.00  0.00     0.134 A 
ATOM     66  C   UNL A   1      44.653  33.546  30.573  1.00  0.00     0.134 A 
ATOM     67  F   UNL A   1      43.635  31.809  33.596  1.00  0.00    -0.206 F 
ATOM     68  C   UNL A   1      44.205  34.062  33.266  1.00  0.00     0.040 A 
ATOM     69  C   UNL A   1      44.849  34.833  31.078  1.00  0.00     0.040 A 
ATOM     70  F   UNL A   1      44.873  33.343  29.265  1.00  0.00    -0.206 F 
ATOM     71  C   UNL A   1      44.617  35.095  32.427  1.00  0.00     0.006 A 
ENDBRANCH  50  64
BRANCH  51  72
ATOM     72  C   UNL A   1      42.679  23.509  27.354  1.00  0.00     0.057 A 
ATOM     73  C   UNL A   1      42.289  22.405  28.121  1.00  0.00     0.134 A 
ATOM     74  C   UNL A   1      42.858  23.310  25.980  1.00  0.00     0.134 A 
ATOM     75  F   UNL A   1      42.119  22.531  29.446  1.00  0.00    -0.206 F 
ATOM     76  C   UNL A   1      42.100  21.147  27.549  1.00  0.00     0.040 A 
ATOM     77  C   UNL A   1      42.651  22.062  25.390  1.00  0.00     0.040 A 
ATOM     78  F   UNL A   1      43.223  24.330  25.190  1.00  0.00    -0.206 F 
ATOM     79  C   UNL A   1      42.277  20.974  26.177  1.00  0.00     0.006 A 
ENDBRANCH  51  72
BRANCH  63  80
ATOM     80  C   UNL A   1      48.254  26.642  30.095  1.00  0.00     0.057 A 
ATOM     81  C   UNL A   1      48.658  25.916  31.222  1.00  0.00     0.134 A 
ATOM     82  C   UNL A   1      49.221  26.909  29.117  1.00  0.00     0.134 A 
ATOM     83  F   UNL A   1      47.782  25.641  32.202  1.00  0.00    -0.206 F 
ATOM     84  C   UNL A   1      49.975  25.486  31.378  1.00  0.00     0.040 A 
ATOM     85  C   UNL A   1      50.536  26.463  29.249  1.00  0.00     0.040 A 
ATOM     86  F   UNL A   1      48.898  27.595  28.009  1.00  0.00    -0.206 F 
ATOM     87  C   UNL A   1      50.917  25.752  30.386  1.00  0.00     0.006 A 
ENDBRANCH  63  80
ENDBRANCH  37  38
ENDBRANCH  29  32
ENDBRANCH  27  28
ENDBRANCH  26  27
ENDBRANCH   1  26
TORSDOF 15
ENDMDL
MODEL 3
REMARK VINA RESULT:     -10.9      1.624      6.460
REMARK SMILES CC[C@](C)([NH3+])C(=O)N1CC[NH+]([C@H](C)C(=O)NCCCCNC(=O)c2ccc(-c3c4nc(c(-c5c(F)cccc5F)c5ccc([nH]5)c(-c5c(F)cccc5F)c5nc(c(-c6c(F)cccc6F)c6ccc3[nH]6)C=C5)C=C4)cc2)CC1
REMARK SMILES IDX 18 1 17 2 16 3 14 4 15 5 12 7 13 8 11 9 6 10 7 11 8 12 9 13
REMARK SMILES IDX 79 14 10 15 78 16 3 18 4 19 2 20 1 21 5 22 19 26 20 27 21 28
REMARK SMILES IDX 22 29 23 31 24 32 25 33 77 34 26 35 76 36 27 37 28 38 29 39
REMARK SMILES IDX 70 40 30 41 75 42 69 43 71 44 31 45 74 46 68 47 67 48 32 50
REMARK SMILES IDX 58 51 41 52 57 53 42 54 45 55 56 56 72 57 43 58 44 59 55 61
REMARK SMILES IDX 73 62 46 63 33 64 34 65 39 66 35 67 36 68 38 69 40 70 37 71
REMARK SMILES IDX 59 72 60 73 65 74 61 75 62 76 64 77 66 78 63 79 47 80 48 81
REMARK SMILES IDX 53 82 49 83 50 84 52 85 54 86 51 87
REMARK H PARENT 16 6 11 17 5 23 5 24 5 25 21 30 71 49 45 60
REMARK Flexibility Score: inf
ROOT
ATOM      1  C   UNL A   1      37.175  21.219  24.579  1.00  0.00     0.023 C 
ENDROOT
BRANCH   1   2
ATOM      2  C   UNL A   1      36.908  22.231  25.683  1.00  0.00     0.116 C 
BRANCH   2   3
ATOM      3  N   UNL A   1      35.755  21.930  26.504  1.00  0.00    -0.351 N 
ATOM      4  C   UNL A   1      34.421  22.105  26.252  1.00  0.00     0.278 C 
ATOM      5  O   UNL A   1      33.638  21.531  27.018  1.00  0.00    -0.268 OA
ATOM      6  H   UNL A   1      35.961  21.536  27.382  1.00  0.00     0.163 HD
BRANCH   4   7
ATOM      7  C   UNL A   1      33.889  22.990  25.093  1.00  0.00     0.271 C 
ATOM      8  C   UNL A   1      33.571  22.183  23.828  1.00  0.00     0.086 C 
BRANCH   7   9
ATOM      9  N   UNL A   1      32.917  24.040  25.515  1.00  0.00    -0.322 N 
ATOM     10  C   UNL A   1      31.265  27.430  24.072  1.00  0.00     0.283 C 
ATOM     11  O   UNL A   1      30.201  27.329  23.439  1.00  0.00    -0.268 OA
ATOM     12  N   UNL A   1      31.509  26.538  25.106  1.00  0.00    -0.326 N 
ATOM     13  C   UNL A   1      30.748  25.293  25.128  1.00  0.00     0.181 C 
ATOM     14  C   UNL A   1      32.587  26.492  26.092  1.00  0.00     0.181 C 
ATOM     15  C   UNL A   1      31.700  24.161  24.690  1.00  0.00     0.284 C 
ATOM     16  C   UNL A   1      33.568  25.353  25.750  1.00  0.00     0.284 C 
ATOM     17  H   UNL A   1      32.569  23.698  26.411  1.00  0.00     0.348 HD
BRANCH  10  18
ATOM     18  C   UNL A   1      32.349  28.428  23.516  1.00  0.00     0.171 C 
ATOM     19  C   UNL A   1      33.491  27.602  22.889  1.00  0.00     0.090 C 
BRANCH  18  20
ATOM     20  C   UNL A   1      32.858  29.326  24.677  1.00  0.00     0.075 C 
ATOM     21  C   UNL A   1      31.786  30.088  25.452  1.00  0.00     0.011 C 
ENDBRANCH  18  20
BRANCH  18  22
ATOM     22  N   UNL A   1      31.836  29.310  22.442  1.00  0.00    -0.345 N 
ATOM     23  H   UNL A   1      32.315  29.096  21.567  1.00  0.00     0.345 HD
ATOM     24  H   UNL A   1      32.006  30.285  22.692  1.00  0.00     0.345 HD
ATOM     25  H   UNL A   1      30.834  29.158  22.327  1.00  0.00     0.345 HD
ENDBRANCH  18  22
ENDBRANCH  10  18
ENDBRANCH   7   9
ENDBRANCH   4   7
ENDBRANCH   2   3
ENDBRANCH   1   2
BRANCH   1  26
ATOM     26  C   UNL A   1      37.979  19.991  25.000  1.00  0.00     0.023 C 
BRANCH  26  27
ATOM     27  C   UNL A   1      39.206  20.261  25.867  1.00  0.00     0.116 C 
BRANCH  27  28
ATOM     28  N   UNL A   1      40.176  19.175  25.867  1.00  0.00    -0.352 N 
ATOM     29  C   UNL A   1      41.537  19.208  26.072  1.00  0.00     0.251 C 
ATOM     30  H   UNL A   1      39.801  18.281  25.694  1.00  0.00     0.163 HD
ATOM     31  O   UNL A   1      42.209  18.194  25.929  1.00  0.00    -0.269 OA
BRANCH  29  32
ATOM     32  C   UNL A   1      42.194  20.487  26.413  1.00  0.00     0.039 A 
ATOM     33  C   UNL A   1      42.688  21.284  25.378  1.00  0.00     0.014 A 
ATOM     34  C   UNL A   1      42.274  20.921  27.738  1.00  0.00     0.014 A 
ATOM     35  C   UNL A   1      43.163  22.566  25.663  1.00  0.00     0.010 A 
ATOM     36  C   UNL A   1      42.669  22.226  28.010  1.00  0.00     0.010 A 
ATOM     37  C   UNL A   1      43.102  23.067  26.973  1.00  0.00    -0.014 A 
BRANCH  37  38
ATOM     38  C   UNL A   1      43.447  24.480  27.275  1.00  0.00     0.031 A 
ATOM     39  C   UNL A   1      44.877  24.938  27.228  1.00  0.00     0.074 A 
ATOM     40  C   UNL A   1      42.481  25.328  27.679  1.00  0.00     0.049 A 
ATOM     41  N   UNL A   1      45.383  26.101  27.551  1.00  0.00    -0.248 NA
ATOM     42  C   UNL A   1      45.874  23.948  26.790  1.00  0.00     0.031 C 
ATOM     43  C   UNL A   1      41.062  24.992  27.822  1.00  0.00     0.029 A 
ATOM     44  N   UNL A   1      42.548  26.645  28.059  1.00  0.00    -0.354 N 
ATOM     45  C   UNL A   1      46.754  25.977  27.373  1.00  0.00     0.074 A 
ATOM     46  C   UNL A   1      47.007  24.612  26.963  1.00  0.00     0.031 C 
ATOM     47  C   UNL A   1      40.391  26.079  28.237  1.00  0.00     0.029 A 
ATOM     48  C   UNL A   1      41.335  27.176  28.426  1.00  0.00     0.049 A 
ATOM     49  H   UNL A   1      43.386  27.162  28.068  1.00  0.00     0.167 HD
ATOM     50  C   UNL A   1      47.715  26.921  27.517  1.00  0.00     0.037 A 
ATOM     51  C   UNL A   1      41.018  28.406  28.874  1.00  0.00     0.037 A 
ATOM     52  C   UNL A   1      47.460  28.285  27.896  1.00  0.00     0.049 A 
ATOM     53  C   UNL A   1      42.101  29.437  29.023  1.00  0.00     0.074 A 
ATOM     54  C   UNL A   1      48.358  29.334  27.998  1.00  0.00     0.029 A 
ATOM     55  N   UNL A   1      46.214  28.790  28.237  1.00  0.00    -0.354 N 
ATOM     56  N   UNL A   1      43.385  29.325  28.782  1.00  0.00    -0.248 NA
ATOM     57  C   UNL A   1      41.692  30.764  29.503  1.00  0.00     0.031 C 
ATOM     58  C   UNL A   1      47.661  30.464  28.438  1.00  0.00     0.029 A 
ATOM     59  C   UNL A   1      46.323  30.130  28.571  1.00  0.00     0.049 A 
ATOM     60  H   UNL A   1      45.377  28.273  28.242  1.00  0.00     0.167 HD
ATOM     61  C   UNL A   1      43.933  30.571  29.058  1.00  0.00     0.074 A 
ATOM     62  C   UNL A   1      42.840  31.427  29.471  1.00  0.00     0.031 C 
ATOM     63  C   UNL A   1      45.226  30.970  28.977  1.00  0.00     0.037 A 
BRANCH  50  64
ATOM     64  C   UNL A   1      49.133  26.506  27.255  1.00  0.00     0.057 A 
ATOM     65  C   UNL A   1      49.975  26.072  28.287  1.00  0.00     0.134 A 
ATOM     66  C   UNL A   1      49.652  26.513  25.955  1.00  0.00     0.134 A 
ATOM     67  F   UNL A   1      49.542  26.054  29.557  1.00  0.00    -0.206 F 
ATOM     68  C   UNL A   1      51.294  25.687  28.039  1.00  0.00     0.040 A 
ATOM     69  C   UNL A   1      50.962  26.104  25.691  1.00  0.00     0.040 A 
ATOM     70  F   UNL A   1      48.897  26.911  24.920  1.00  0.00    -0.206 F 
ATOM     71  C   UNL A   1      51.788  25.697  26.736  1.00  0.00     0.006 A 
ENDBRANCH  50  64
BRANCH  51  72
ATOM     72  C   UNL A   1      39.608  28.740  29.194  1.00  0.00     0.057 A 
ATOM     73  C   UNL A   1      38.742  29.225  28.208  1.00  0.00     0.134 A 
ATOM     74  C   UNL A   1      39.093  28.586  30.487  1.00  0.00     0.134 A 
ATOM     75  F   UNL A   1      39.183  29.411  26.955  1.00  0.00    -0.206 F 
ATOM     76  C   UNL A   1      37.418  29.562  28.497  1.00  0.00     0.040 A 
ATOM     77  C   UNL A   1      37.765  28.897  30.786  1.00  0.00     0.040 A 
ATOM     78  F   UNL A   1      39.870  28.118  31.474  1.00  0.00    -0.206 F 
ATOM     79  C   UNL A   1      36.926  29.393  29.790  1.00  0.00     0.006 A 
ENDBRANCH  51  72
BRANCH  63  80
ATOM     80  C   UNL A   1      45.525  32.398  29.317  1.00  0.00     0.057 A 
ATOM     81  C   UNL A   1      45.909  32.785  30.607  1.00  0.00     0.134 A 
ATOM     82  C   UNL A   1      45.469  33.393  28.333  1.00  0.00     0.134 A 
ATOM     83  F   UNL A   1      45.968  31.882  31.598  1.00  0.00    -0.206 F 
ATOM     84  C   UNL A   1      46.210  34.113  30.910  1.00  0.00     0.040 A 
ATOM     85  C   UNL A   1      45.790  34.721  28.617  1.00  0.00     0.040 A 
ATOM     86  F   UNL A   1      45.114  33.088  27.075  1.00  0.00    -0.206 F 
ATOM     87  C   UNL A   1      46.158  35.084  29.912  1.00  0.00     0.006 A 
ENDBRANCH  63  80
ENDBRANCH  37  38
ENDBRANCH  29  32
ENDBRANCH  27  28
ENDBRANCH  26  27
ENDBRANCH   1  26
TORSDOF 15
ENDMDL
