MODEL 1
REMARK VINA RESULT:     -11.8      0.000      0.000
REMARK SMILES O=C(NCCCCNC(=O)[C@@H]1CC[C@H](CNC(=O)C2CCOCC2)O1)c1ccc(-c2c3nc(c(-c4c(F)cccc4F)c4ccc([nH]4)c(-c4c(F)cccc4F)c4nc(c(-c5c(F)cccc5F)c5ccc2[nH]5)C=C4)C=C3)cc1
REMARK SMILES IDX 6 1 5 2 4 3 3 4 1 5 2 6 26 8 27 9 79 10 28 11 78 12 29 13
REMARK SMILES IDX 30 14 31 15 72 16 32 17 77 18 71 19 73 20 33 21 76 22 70 23
REMARK SMILES IDX 69 24 34 26 60 27 43 28 59 29 44 30 47 31 58 32 74 33 45 34
REMARK SMILES IDX 46 35 57 37 75 38 48 39 35 40 36 41 41 42 37 43 38 44 40 45
REMARK SMILES IDX 42 46 39 47 61 48 62 49 67 50 63 51 64 52 66 53 68 54 65 55
REMARK SMILES IDX 49 56 50 57 55 58 51 59 52 60 54 61 56 62 53 63 7 64 8 65
REMARK SMILES IDX 9 66 10 68 11 69 12 70 25 71 13 72 14 73 15 74 16 75 17 76
REMARK SMILES IDX 18 78 19 79 20 80 24 81 21 82 23 83 22 84
REMARK H PARENT 3 7 73 25 47 36 8 67 16 77
REMARK Flexibility Score: inf
ROOT
ATOM      1  C   UNL A   1      31.581  30.402  26.004  1.00  0.00     0.023 C 
ENDROOT
BRANCH   1   2
ATOM      2  C   UNL A   1      31.421  31.654  26.874  1.00  0.00     0.023 C 
BRANCH   2   3
ATOM      3  C   UNL A   1      32.642  32.566  26.938  1.00  0.00     0.116 C 
BRANCH   3   4
ATOM      4  N   UNL A   1      32.338  33.897  27.441  1.00  0.00    -0.352 N 
ATOM      5  O   UNL A   1      32.525  35.687  28.805  1.00  0.00    -0.269 OA
ATOM      6  C   UNL A   1      32.986  34.616  28.419  1.00  0.00     0.251 C 
ATOM      7  H   UNL A   1      31.566  34.344  27.025  1.00  0.00     0.163 HD
BRANCH   6   8
ATOM      8  C   UNL A   1      34.222  34.079  29.028  1.00  0.00     0.039 A 
ATOM      9  C   UNL A   1      35.476  34.481  28.565  1.00  0.00     0.014 A 
ATOM     10  C   UNL A   1      34.122  33.156  30.073  1.00  0.00     0.014 A 
ATOM     11  C   UNL A   1      36.622  33.860  29.049  1.00  0.00     0.010 A 
ATOM     12  C   UNL A   1      35.279  32.588  30.613  1.00  0.00     0.010 A 
ATOM     13  C   UNL A   1      36.537  32.913  30.084  1.00  0.00    -0.014 A 
BRANCH  13  14
ATOM     14  C   UNL A   1      37.787  32.319  30.623  1.00  0.00     0.031 A 
ATOM     15  C   UNL A   1      38.417  32.838  31.884  1.00  0.00     0.074 A 
ATOM     16  C   UNL A   1      38.327  31.265  29.980  1.00  0.00     0.049 A 
ATOM     17  N   UNL A   1      39.484  32.405  32.509  1.00  0.00    -0.248 NA
ATOM     18  C   UNL A   1      37.773  33.992  32.529  1.00  0.00     0.031 C 
ATOM     19  C   UNL A   1      37.812  30.682  28.738  1.00  0.00     0.029 A 
ATOM     20  N   UNL A   1      39.411  30.485  30.289  1.00  0.00    -0.354 N 
ATOM     21  C   UNL A   1      39.644  33.234  33.612  1.00  0.00     0.074 A 
ATOM     22  C   UNL A   1      38.582  34.217  33.556  1.00  0.00     0.031 C 
ATOM     23  C   UNL A   1      38.550  29.610  28.417  1.00  0.00     0.029 A 
ATOM     24  C   UNL A   1      39.620  29.462  29.397  1.00  0.00     0.049 A 
ATOM     25  H   UNL A   1      39.983  30.642  31.074  1.00  0.00     0.167 HD
ATOM     26  C   UNL A   1      40.585  33.173  34.586  1.00  0.00     0.037 A 
ATOM     27  C   UNL A   1      40.575  28.515  29.361  1.00  0.00     0.037 A 
ATOM     28  C   UNL A   1      41.637  32.191  34.642  1.00  0.00     0.049 A 
ATOM     29  C   UNL A   1      41.613  28.484  30.443  1.00  0.00     0.074 A 
ATOM     30  C   UNL A   1      42.633  32.044  35.593  1.00  0.00     0.029 A 
ATOM     31  N   UNL A   1      41.830  31.186  33.706  1.00  0.00    -0.354 N 
ATOM     32  N   UNL A   1      41.738  29.265  31.489  1.00  0.00    -0.248 NA
ATOM     33  C   UNL A   1      42.643  27.443  30.340  1.00  0.00     0.031 C 
ATOM     34  C   UNL A   1      43.447  30.970  35.216  1.00  0.00     0.029 A 
ATOM     35  C   UNL A   1      42.934  30.422  34.051  1.00  0.00     0.049 A 
ATOM     36  H   UNL A   1      41.265  31.035  32.913  1.00  0.00     0.167 HD
ATOM     37  C   UNL A   1      42.853  28.803  32.174  1.00  0.00     0.074 A 
ATOM     38  C   UNL A   1      43.352  27.659  31.440  1.00  0.00     0.031 C 
ATOM     39  C   UNL A   1      43.416  29.287  33.307  1.00  0.00     0.037 A 
BRANCH  26  40
ATOM     40  C   UNL A   1      40.523  34.204  35.676  1.00  0.00     0.057 A 
ATOM     41  C   UNL A   1      39.806  33.982  36.858  1.00  0.00     0.134 A 
ATOM     42  C   UNL A   1      41.233  35.406  35.567  1.00  0.00     0.134 A 
ATOM     43  F   UNL A   1      39.096  32.855  37.022  1.00  0.00    -0.206 F 
ATOM     44  C   UNL A   1      39.785  34.926  37.887  1.00  0.00     0.040 A 
ATOM     45  C   UNL A   1      41.237  36.348  36.598  1.00  0.00     0.040 A 
ATOM     46  F   UNL A   1      41.946  35.679  34.463  1.00  0.00    -0.206 F 
ATOM     47  C   UNL A   1      40.508  36.110  37.761  1.00  0.00     0.006 A 
ENDBRANCH  26  40
BRANCH  27  48
ATOM     48  C   UNL A   1      40.592  27.526  28.257  1.00  0.00     0.057 A 
ATOM     49  C   UNL A   1      41.321  27.757  27.086  1.00  0.00     0.134 A 
ATOM     50  C   UNL A   1      39.884  26.320  28.351  1.00  0.00     0.134 A 
ATOM     51  F   UNL A   1      42.006  28.900  26.932  1.00  0.00    -0.206 F 
ATOM     52  C   UNL A   1      41.333  26.834  26.039  1.00  0.00     0.040 A 
ATOM     53  C   UNL A   1      39.908  25.378  27.324  1.00  0.00     0.040 A 
ATOM     54  F   UNL A   1      39.173  26.038  29.452  1.00  0.00    -0.206 F 
ATOM     55  C   UNL A   1      40.628  25.636  26.160  1.00  0.00     0.006 A 
ENDBRANCH  27  48
BRANCH  39  56
ATOM     56  C   UNL A   1      44.623  28.564  33.823  1.00  0.00     0.057 A 
ATOM     57  C   UNL A   1      45.922  28.959  33.478  1.00  0.00     0.134 A 
ATOM     58  C   UNL A   1      44.485  27.467  34.683  1.00  0.00     0.134 A 
ATOM     59  F   UNL A   1      46.119  29.992  32.646  1.00  0.00    -0.206 F 
ATOM     60  C   UNL A   1      47.041  28.271  33.949  1.00  0.00     0.040 A 
ATOM     61  C   UNL A   1      45.597  26.785  35.178  1.00  0.00     0.040 A 
ATOM     62  F   UNL A   1      43.268  27.043  35.056  1.00  0.00    -0.206 F 
ATOM     63  C   UNL A   1      46.879  27.183  34.805  1.00  0.00     0.006 A 
ENDBRANCH  39  56
ENDBRANCH  13  14
ENDBRANCH   6   8
ENDBRANCH   3   4
ENDBRANCH   2   3
ENDBRANCH   1   2
BRANCH   1  64
ATOM     64  C   UNL A   1      32.957  29.740  26.086  1.00  0.00     0.116 C 
BRANCH  64  65
ATOM     65  N   UNL A   1      33.588  29.662  24.782  1.00  0.00    -0.354 N 
ATOM     66  C   UNL A   1      33.653  28.605  23.917  1.00  0.00     0.249 C 
ATOM     67  H   UNL A   1      34.032  30.486  24.477  1.00  0.00     0.163 HD
ATOM     68  O   UNL A   1      34.286  28.751  22.869  1.00  0.00    -0.272 OA
BRANCH  66  69
ATOM     69  C   UNL A   1      32.906  27.306  24.251  1.00  0.00     0.207 C 
ATOM     70  C   UNL A   1      32.794  26.360  23.066  1.00  0.00     0.045 C 
ATOM     71  O   UNL A   1      31.560  27.623  24.664  1.00  0.00    -0.363 OA
ATOM     72  C   UNL A   1      31.461  25.698  23.314  1.00  0.00     0.037 C 
ATOM     73  C   UNL A   1      30.633  26.836  23.888  1.00  0.00     0.138 C 
BRANCH  73  74
ATOM     74  C   UNL A   1      29.966  27.722  22.818  1.00  0.00     0.147 C 
BRANCH  74  75
ATOM     75  N   UNL A   1      28.553  27.949  23.093  1.00  0.00    -0.353 N 
ATOM     76  C   UNL A   1      27.791  29.069  22.966  1.00  0.00     0.223 C 
ATOM     77  H   UNL A   1      28.069  27.159  23.425  1.00  0.00     0.163 HD
ATOM     78  O   UNL A   1      26.596  28.983  23.252  1.00  0.00    -0.275 OA
BRANCH  76  79
ATOM     79  C   UNL A   1      28.426  30.376  22.525  1.00  0.00     0.083 C 
ATOM     80  C   UNL A   1      28.141  31.471  23.557  1.00  0.00     0.042 C 
ATOM     81  C   UNL A   1      27.888  30.803  21.154  1.00  0.00     0.042 C 
ATOM     82  C   UNL A   1      28.638  32.821  23.057  1.00  0.00     0.161 C 
ATOM     83  C   UNL A   1      28.433  32.173  20.783  1.00  0.00     0.161 C 
ATOM     84  O   UNL A   1      28.086  33.135  21.779  1.00  0.00    -0.381 OA
ENDBRANCH  76  79
ENDBRANCH  74  75
ENDBRANCH  73  74
ENDBRANCH  66  69
ENDBRANCH  64  65
ENDBRANCH   1  64
TORSDOF 14
ENDMDL
MODEL 2
REMARK VINA RESULT:     -11.6      5.624     10.442
REMARK SMILES O=C(NCCCCNC(=O)[C@@H]1CC[C@H](CNC(=O)C2CCOCC2)O1)c1ccc(-c2c3nc(c(-c4c(F)cccc4F)c4ccc([nH]4)c(-c4c(F)cccc4F)c4nc(c(-c5c(F)cccc5F)c5ccc2[nH]5)C=C4)C=C3)cc1
REMARK SMILES IDX 6 1 5 2 4 3 3 4 1 5 2 6 26 8 27 9 79 10 28 11 78 12 29 13
REMARK SMILES IDX 30 14 31 15 72 16 32 17 77 18 71 19 73 20 33 21 76 22 70 23
REMARK SMILES IDX 69 24 34 26 60 27 43 28 59 29 44 30 47 31 58 32 74 33 45 34
REMARK SMILES IDX 46 35 57 37 75 38 48 39 35 40 36 41 41 42 37 43 38 44 40 45
REMARK SMILES IDX 42 46 39 47 61 48 62 49 67 50 63 51 64 52 66 53 68 54 65 55
REMARK SMILES IDX 49 56 50 57 55 58 51 59 52 60 54 61 56 62 53 63 7 64 8 65
REMARK SMILES IDX 9 66 10 68 11 69 12 70 25 71 13 72 14 73 15 74 16 75 17 76
REMARK SMILES IDX 18 78 19 79 20 80 24 81 21 82 23 83 22 84
REMARK H PARENT 3 7 73 25 47 36 8 67 16 77
REMARK Flexibility Score: inf
ROOT
ATOM      1  C   UNL A   1      36.383  20.122  24.970  1.00  0.00     0.023 C 
ENDROOT
BRANCH   1   2
ATOM      2  C   UNL A   1      37.759  19.469  24.792  1.00  0.00     0.023 C 
BRANCH   2   3
ATOM      3  C   UNL A   1      38.853  19.984  25.722  1.00  0.00     0.116 C 
BRANCH   3   4
ATOM      4  N   UNL A   1      40.056  19.167  25.701  1.00  0.00    -0.352 N 
ATOM      5  O   UNL A   1      42.267  18.734  25.843  1.00  0.00    -0.269 OA
ATOM      6  C   UNL A   1      41.344  19.522  26.029  1.00  0.00     0.251 C 
ATOM      7  H   UNL A   1      39.932  18.233  25.414  1.00  0.00     0.163 HD
BRANCH   6   8
ATOM      8  C   UNL A   1      41.618  20.868  26.576  1.00  0.00     0.039 A 
ATOM      9  C   UNL A   1      41.935  21.931  25.728  1.00  0.00     0.014 A 
ATOM     10  C   UNL A   1      41.560  21.066  27.959  1.00  0.00     0.014 A 
ATOM     11  C   UNL A   1      42.329  23.149  26.267  1.00  0.00     0.010 A 
ATOM     12  C   UNL A   1      41.882  22.315  28.497  1.00  0.00     0.010 A 
ATOM     13  C   UNL A   1      42.299  23.359  27.657  1.00  0.00    -0.014 A 
BRANCH  13  14
ATOM     14  C   UNL A   1      42.662  24.695  28.194  1.00  0.00     0.031 A 
ATOM     15  C   UNL A   1      44.094  25.067  28.461  1.00  0.00     0.074 A 
ATOM     16  C   UNL A   1      41.680  25.594  28.397  1.00  0.00     0.049 A 
ATOM     17  N   UNL A   1      44.581  26.204  28.891  1.00  0.00    -0.248 NA
ATOM     18  C   UNL A   1      45.111  24.032  28.218  1.00  0.00     0.031 C 
ATOM     19  C   UNL A   1      40.252  25.343  28.186  1.00  0.00     0.029 A 
ATOM     20  N   UNL A   1      41.731  26.903  28.803  1.00  0.00    -0.354 N 
ATOM     21  C   UNL A   1      45.955  26.022  28.978  1.00  0.00     0.074 A 
ATOM     22  C   UNL A   1      46.224  24.654  28.586  1.00  0.00     0.031 C 
ATOM     23  C   UNL A   1      39.568  26.472  28.420  1.00  0.00     0.029 A 
ATOM     24  C   UNL A   1      40.500  27.509  28.847  1.00  0.00     0.049 A 
ATOM     25  H   UNL A   1      42.568  27.362  29.039  1.00  0.00     0.167 HD
ATOM     26  C   UNL A   1      46.906  26.917  29.343  1.00  0.00     0.037 A 
ATOM     27  C   UNL A   1      40.155  28.760  29.204  1.00  0.00     0.037 A 
ATOM     28  C   UNL A   1      46.636  28.279  29.728  1.00  0.00     0.049 A 
ATOM     29  C   UNL A   1      41.226  29.723  29.619  1.00  0.00     0.074 A 
ATOM     30  C   UNL A   1      47.534  29.263  30.106  1.00  0.00     0.029 A 
ATOM     31  N   UNL A   1      45.374  28.849  29.783  1.00  0.00    -0.354 N 
ATOM     32  N   UNL A   1      42.523  29.539  29.678  1.00  0.00    -0.248 NA
ATOM     33  C   UNL A   1      40.788  31.066  30.020  1.00  0.00     0.031 C 
ATOM     34  C   UNL A   1      46.811  30.420  30.420  1.00  0.00     0.029 A 
ATOM     35  C   UNL A   1      45.467  30.168  30.199  1.00  0.00     0.049 A 
ATOM     36  H   UNL A   1      44.534  28.386  29.558  1.00  0.00     0.167 HD
ATOM     37  C   UNL A   1      43.056  30.744  30.110  1.00  0.00     0.074 A 
ATOM     38  C   UNL A   1      41.946  31.660  30.274  1.00  0.00     0.031 C 
ATOM     39  C   UNL A   1      44.350  31.063  30.357  1.00  0.00     0.037 A 
BRANCH  26  40
ATOM     40  C   UNL A   1      48.333  26.451  29.346  1.00  0.00     0.057 A 
ATOM     41  C   UNL A   1      49.178  26.662  28.250  1.00  0.00     0.134 A 
ATOM     42  C   UNL A   1      48.884  25.837  30.478  1.00  0.00     0.134 A 
ATOM     43  F   UNL A   1      48.711  27.235  27.131  1.00  0.00    -0.206 F 
ATOM     44  C   UNL A   1      50.517  26.265  28.274  1.00  0.00     0.040 A 
ATOM     45  C   UNL A   1      50.227  25.455  30.521  1.00  0.00     0.040 A 
ATOM     46  F   UNL A   1      48.131  25.612  31.566  1.00  0.00    -0.206 F 
ATOM     47  C   UNL A   1      51.046  25.665  29.415  1.00  0.00     0.006 A 
ENDBRANCH  26  40
BRANCH  27  48
ATOM     48  C   UNL A   1      38.728  29.164  29.188  1.00  0.00     0.057 A 
ATOM     49  C   UNL A   1      38.107  29.588  28.008  1.00  0.00     0.134 A 
ATOM     50  C   UNL A   1      37.950  29.131  30.353  1.00  0.00     0.134 A 
ATOM     51  F   UNL A   1      38.804  29.655  26.864  1.00  0.00    -0.206 F 
ATOM     52  C   UNL A   1      36.767  29.979  27.989  1.00  0.00     0.040 A 
ATOM     53  C   UNL A   1      36.605  29.494  30.343  1.00  0.00     0.040 A 
ATOM     54  F   UNL A   1      38.488  28.727  31.513  1.00  0.00    -0.206 F 
ATOM     55  C   UNL A   1      36.010  29.926  29.160  1.00  0.00     0.006 A 
ENDBRANCH  27  48
BRANCH  39  56
ATOM     56  C   UNL A   1      44.626  32.465  30.809  1.00  0.00     0.057 A 
ATOM     57  C   UNL A   1      44.865  33.500  29.896  1.00  0.00     0.134 A 
ATOM     58  C   UNL A   1      44.643  32.785  32.172  1.00  0.00     0.134 A 
ATOM     59  F   UNL A   1      44.878  33.253  28.577  1.00  0.00    -0.206 F 
ATOM     60  C   UNL A   1      45.138  34.800  30.324  1.00  0.00     0.040 A 
ATOM     61  C   UNL A   1      44.892  34.086  32.612  1.00  0.00     0.040 A 
ATOM     62  F   UNL A   1      44.416  31.841  33.097  1.00  0.00    -0.206 F 
ATOM     63  C   UNL A   1      45.148  35.096  31.686  1.00  0.00     0.006 A 
ENDBRANCH  39  56
ENDBRANCH  13  14
ENDBRANCH   6   8
ENDBRANCH   3   4
ENDBRANCH   2   3
ENDBRANCH   1   2
BRANCH   1  64
ATOM     64  C   UNL A   1      36.425  21.589  25.401  1.00  0.00     0.116 C 
BRANCH  64  65
ATOM     65  N   UNL A   1      35.685  21.804  26.631  1.00  0.00    -0.354 N 
ATOM     66  C   UNL A   1      34.512  22.478  26.825  1.00  0.00     0.249 C 
ATOM     67  H   UNL A   1      36.085  21.408  27.439  1.00  0.00     0.163 HD
ATOM     68  O   UNL A   1      34.081  22.572  27.976  1.00  0.00    -0.272 OA
BRANCH  66  69
ATOM     69  C   UNL A   1      33.755  23.045  25.616  1.00  0.00     0.207 C 
ATOM     70  C   UNL A   1      32.258  23.166  25.852  1.00  0.00     0.045 C 
ATOM     71  O   UNL A   1      33.932  22.164  24.486  1.00  0.00    -0.363 OA
ATOM     72  C   UNL A   1      31.698  22.903  24.476  1.00  0.00     0.037 C 
ATOM     73  C   UNL A   1      32.639  21.836  23.939  1.00  0.00     0.138 C 
BRANCH  73  74
ATOM     74  C   UNL A   1      32.249  20.402  24.345  1.00  0.00     0.147 C 
BRANCH  74  75
ATOM     75  N   UNL A   1      32.240  19.490  23.208  1.00  0.00    -0.353 N 
ATOM     76  C   UNL A   1      32.615  18.185  23.111  1.00  0.00     0.223 C 
ATOM     77  H   UNL A   1      31.907  19.885  22.370  1.00  0.00     0.163 HD
ATOM     78  O   UNL A   1      32.484  17.633  22.018  1.00  0.00    -0.275 OA
BRANCH  76  79
ATOM     79  C   UNL A   1      33.209  17.472  24.313  1.00  0.00     0.083 C 
ATOM     80  C   UNL A   1      34.585  16.903  23.956  1.00  0.00     0.042 C 
ATOM     81  C   UNL A   1      32.286  16.341  24.780  1.00  0.00     0.042 C 
ATOM     82  C   UNL A   1      35.127  16.055  25.099  1.00  0.00     0.161 C 
ATOM     83  C   UNL A   1      32.950  15.555  25.901  1.00  0.00     0.161 C 
ATOM     84  O   UNL A   1      34.204  15.031  25.466  1.00  0.00    -0.381 OA
ENDBRANCH  76  79
ENDBRANCH  74  75
ENDBRANCH  73  74
ENDBRANCH  66  69
ENDBRANCH  64  65
ENDBRANCH   1  64
TORSDOF 14
ENDMDL
MODEL 3
REMARK VINA RESULT:     -11.6      6.080     10.966
REMARK SMILES O=C(NCCCCNC(=O)[C@@H]1CC[C@H](CNC(=O)C2CCOCC2)O1)c1ccc(-c2c3nc(c(-c4c(F)cccc4F)c4ccc([nH]4)c(-c4c(F)cccc4F)c4nc(c(-c5c(F)cccc5F)c5ccc2[nH]5)C=C4)C=C3)cc1
REMARK SMILES IDX 6 1 5 2 4 3 3 4 1 5 2 6 26 8 27 9 79 10 28 11 78 12 29 13
REMARK SMILES IDX 30 14 31 15 72 16 32 17 77 18 71 19 73 20 33 21 76 22 70 23
REMARK SMILES IDX 69 24 34 26 60 27 43 28 59 29 44 30 47 31 58 32 74 33 45 34
REMARK SMILES IDX 46 35 57 37 75 38 48 39 35 40 36 41 41 42 37 43 38 44 40 45
REMARK SMILES IDX 42 46 39 47 61 48 62 49 67 50 63 51 64 52 66 53 68 54 65 55
REMARK SMILES IDX 49 56 50 57 55 58 51 59 52 60 54 61 56 62 53 63 7 64 8 65
REMARK SMILES IDX 9 66 10 68 11 69 12 70 25 71 13 72 14 73 15 74 16 75 17 76
REMARK SMILES IDX 18 78 19 79 20 80 24 81 21 82 23 83 22 84
REMARK H PARENT 3 7 73 25 47 36 8 67 16 77
REMARK Flexibility Score: inf
ROOT
ATOM      1  C   UNL A   1      36.574  20.374  24.956  1.00  0.00     0.023 C 
ENDROOT
BRANCH   1   2
ATOM      2  C   UNL A   1      37.751  19.392  24.992  1.00  0.00     0.023 C 
BRANCH   2   3
ATOM      3  C   UNL A   1      39.024  19.920  25.647  1.00  0.00     0.116 C 
BRANCH   3   4
ATOM      4  N   UNL A   1      40.074  18.920  25.751  1.00  0.00    -0.352 N 
ATOM      5  O   UNL A   1      42.185  18.149  25.972  1.00  0.00    -0.269 OA
ATOM      6  C   UNL A   1      41.408  19.097  26.039  1.00  0.00     0.251 C 
ATOM      7  H   UNL A   1      39.793  17.989  25.595  1.00  0.00     0.163 HD
BRANCH   6   8
ATOM      8  C   UNL A   1      41.908  20.442  26.397  1.00  0.00     0.039 A 
ATOM      9  C   UNL A   1      42.221  20.757  27.720  1.00  0.00     0.014 A 
ATOM     10  C   UNL A   1      42.060  21.402  25.392  1.00  0.00     0.014 A 
ATOM     11  C   UNL A   1      42.551  22.064  28.059  1.00  0.00     0.010 A 
ATOM     12  C   UNL A   1      42.467  22.697  25.723  1.00  0.00     0.010 A 
ATOM     13  C   UNL A   1      42.686  23.047  27.064  1.00  0.00    -0.014 A 
BRANCH  13  14
ATOM     14  C   UNL A   1      43.105  24.417  27.455  1.00  0.00     0.031 A 
ATOM     15  C   UNL A   1      44.539  24.855  27.348  1.00  0.00     0.074 A 
ATOM     16  C   UNL A   1      42.161  25.285  27.869  1.00  0.00     0.049 A 
ATOM     17  N   UNL A   1      45.062  26.027  27.610  1.00  0.00    -0.248 NA
ATOM     18  C   UNL A   1      45.513  23.852  26.892  1.00  0.00     0.031 C 
ATOM     19  C   UNL A   1      40.739  24.970  28.026  1.00  0.00     0.029 A 
ATOM     20  N   UNL A   1      42.248  26.609  28.210  1.00  0.00    -0.354 N 
ATOM     21  C   UNL A   1      46.423  25.902  27.360  1.00  0.00     0.074 A 
ATOM     22  C   UNL A   1      46.652  24.531  26.954  1.00  0.00     0.031 C 
ATOM     23  C   UNL A   1      40.080  26.079  28.388  1.00  0.00     0.029 A 
ATOM     24  C   UNL A   1      41.038  27.169  28.539  1.00  0.00     0.049 A 
ATOM     25  H   UNL A   1      43.095  27.111  28.218  1.00  0.00     0.167 HD
ATOM     26  C   UNL A   1      47.390  26.848  27.450  1.00  0.00     0.037 A 
ATOM     27  C   UNL A   1      40.732  28.419  28.934  1.00  0.00     0.037 A 
ATOM     28  C   UNL A   1      47.158  28.213  27.849  1.00  0.00     0.049 A 
ATOM     29  C   UNL A   1      41.825  29.438  29.042  1.00  0.00     0.074 A 
ATOM     30  C   UNL A   1      48.073  29.246  27.965  1.00  0.00     0.029 A 
ATOM     31  N   UNL A   1      45.922  28.735  28.199  1.00  0.00    -0.354 N 
ATOM     32  N   UNL A   1      43.104  29.308  28.783  1.00  0.00    -0.248 NA
ATOM     33  C   UNL A   1      41.436  30.779  29.499  1.00  0.00     0.031 C 
ATOM     34  C   UNL A   1      47.396  30.385  28.414  1.00  0.00     0.029 A 
ATOM     35  C   UNL A   1      46.052  30.072  28.540  1.00  0.00     0.049 A 
ATOM     36  H   UNL A   1      45.076  28.231  28.203  1.00  0.00     0.167 HD
ATOM     37  C   UNL A   1      43.669  30.550  29.034  1.00  0.00     0.074 A 
ATOM     38  C   UNL A   1      42.590  31.427  29.441  1.00  0.00     0.031 C 
ATOM     39  C   UNL A   1      44.967  30.929  28.943  1.00  0.00     0.037 A 
BRANCH  26  40
ATOM     40  C   UNL A   1      48.795  26.439  27.114  1.00  0.00     0.057 A 
ATOM     41  C   UNL A   1      49.637  25.851  28.065  1.00  0.00     0.134 A 
ATOM     42  C   UNL A   1      49.290  26.583  25.812  1.00  0.00     0.134 A 
ATOM     43  F   UNL A   1      49.227  25.693  29.333  1.00  0.00    -0.206 F 
ATOM     44  C   UNL A   1      50.929  25.433  27.737  1.00  0.00     0.040 A 
ATOM     45  C   UNL A   1      50.573  26.150  25.467  1.00  0.00     0.040 A 
ATOM     46  F   UNL A   1      48.533  27.133  24.851  1.00  0.00    -0.206 F 
ATOM     47  C   UNL A   1      51.397  25.576  26.432  1.00  0.00     0.006 A 
ENDBRANCH  26  40
BRANCH  27  48
ATOM     48  C   UNL A   1      39.327  28.766  29.259  1.00  0.00     0.057 A 
ATOM     49  C   UNL A   1      38.467  29.294  28.291  1.00  0.00     0.134 A 
ATOM     50  C   UNL A   1      38.811  28.571  30.548  1.00  0.00     0.134 A 
ATOM     51  F   UNL A   1      38.909  29.517  27.045  1.00  0.00    -0.206 F 
ATOM     52  C   UNL A   1      37.147  29.632  28.595  1.00  0.00     0.040 A 
ATOM     53  C   UNL A   1      37.488  28.880  30.858  1.00  0.00     0.040 A 
ATOM     54  F   UNL A   1      39.585  28.060  31.516  1.00  0.00    -0.206 F 
ATOM     55  C   UNL A   1      36.653  29.418  29.882  1.00  0.00     0.006 A 
ENDBRANCH  27  48
BRANCH  39  56
ATOM     56  C   UNL A   1      45.278  32.357  29.271  1.00  0.00     0.057 A 
ATOM     57  C   UNL A   1      45.653  32.751  30.562  1.00  0.00     0.134 A 
ATOM     58  C   UNL A   1      45.211  33.348  28.283  1.00  0.00     0.134 A 
ATOM     59  F   UNL A   1      45.720  31.851  31.554  1.00  0.00    -0.206 F 
ATOM     60  C   UNL A   1      45.926  34.086  30.866  1.00  0.00     0.040 A 
ATOM     61  C   UNL A   1      45.503  34.682  28.570  1.00  0.00     0.040 A 
ATOM     62  F   UNL A   1      44.863  33.035  27.026  1.00  0.00    -0.206 F 
ATOM     63  C   UNL A   1      45.855  35.055  29.866  1.00  0.00     0.006 A 
ENDBRANCH  39  56
ENDBRANCH  13  14
ENDBRANCH   6   8
ENDBRANCH   3   4
ENDBRANCH   2   3
ENDBRANCH   1   2
BRANCH   1  64
ATOM     64  C   UNL A   1      36.873  21.750  25.553  1.00  0.00     0.116 C 
BRANCH  64  65
ATOM     65  N   UNL A   1      35.942  22.083  26.614  1.00  0.00    -0.354 N 
ATOM     66  C   UNL A   1      34.769  22.783  26.544  1.00  0.00     0.249 C 
ATOM     67  H   UNL A   1      36.188  21.759  27.510  1.00  0.00     0.163 HD
ATOM     68  O   UNL A   1      34.152  22.986  27.591  1.00  0.00    -0.272 OA
BRANCH  66  69
ATOM     69  C   UNL A   1      34.242  23.244  25.178  1.00  0.00     0.207 C 
ATOM     70  C   UNL A   1      32.759  23.579  25.191  1.00  0.00     0.045 C 
ATOM     71  O   UNL A   1      34.426  22.185  24.214  1.00  0.00    -0.363 OA
ATOM     72  C   UNL A   1      32.331  23.176  23.802  1.00  0.00     0.037 C 
ATOM     73  C   UNL A   1      33.171  21.934  23.548  1.00  0.00     0.138 C 
BRANCH  73  74
ATOM     74  C   UNL A   1      32.543  20.637  24.091  1.00  0.00     0.147 C 
BRANCH  74  75
ATOM     75  N   UNL A   1      32.308  19.655  23.039  1.00  0.00    -0.353 N 
ATOM     76  C   UNL A   1      32.516  18.311  23.014  1.00  0.00     0.223 C 
ATOM     77  H   UNL A   1      31.936  20.029  22.208  1.00  0.00     0.163 HD
ATOM     78  O   UNL A   1      32.207  17.704  21.989  1.00  0.00    -0.275 OA
BRANCH  76  79
ATOM     79  C   UNL A   1      33.145  17.615  24.208  1.00  0.00     0.083 C 
ATOM     80  C   UNL A   1      34.519  17.057  23.825  1.00  0.00     0.042 C 
ATOM     81  C   UNL A   1      32.246  16.480  24.709  1.00  0.00     0.042 C 
ATOM     82  C   UNL A   1      35.096  16.226  24.963  1.00  0.00     0.161 C 
ATOM     83  C   UNL A   1      32.944  15.712  25.820  1.00  0.00     0.161 C 
ATOM     84  O   UNL A   1      34.193  15.196  25.361  1.00  0.00    -0.381 OA
ENDBRANCH  76  79
ENDBRANCH  74  75
ENDBRANCH  73  74
ENDBRANCH  66  69
ENDBRANCH  64  65
ENDBRANCH   1  64
TORSDOF 14
ENDMDL
