MODEL 1
REMARK VINA RESULT:     -11.7      0.000      0.000
REMARK SMILES COc1ccc(OCc2cccs2)c(C(=O)NCCCCNC(=O)c2ccc(-c3c4nc(c(-c5c(F)cccc5F)c5ccc([nH]5)c(-c5c(F)cccc5F)c5nc(c(-c6c(F)cccc6F)c6ccc3[nH]6)C=C5)C=C4)cc2)c1
REMARK SMILES IDX 19 1 18 2 17 3 15 4 16 5 14 7 3 8 4 9 79 10 5 11 6 12 2 13
REMARK SMILES IDX 1 14 7 15 8 16 9 17 10 18 13 19 11 20 12 21 20 22 21 23
REMARK SMILES IDX 22 24 23 25 24 27 25 28 26 29 78 30 27 31 77 32 28 33 29 34
REMARK SMILES IDX 30 35 71 36 31 37 76 38 70 39 72 40 32 41 75 42 69 43 68 44
REMARK SMILES IDX 33 46 59 47 42 48 58 49 43 50 46 51 57 52 73 53 44 54 45 55
REMARK SMILES IDX 56 57 74 58 47 59 34 60 35 61 40 62 36 63 37 64 39 65 41 66
REMARK SMILES IDX 38 67 60 68 61 69 66 70 62 71 63 72 65 73 67 74 64 75 48 76
REMARK SMILES IDX 49 77 54 78 50 79 51 80 53 81 55 82 52 83
REMARK H PARENT 17 6 22 26 72 45 46 56
REMARK Flexibility Score: inf
ROOT
ATOM      1  C   UNL A   1      31.791  30.519  26.707  1.00  0.00     0.023 C 
ENDROOT
BRANCH   1   2
ATOM      2  C   UNL A   1      33.221  30.120  26.318  1.00  0.00     0.116 C 
BRANCH   2   3
ATOM      3  N   UNL A   1      33.247  29.701  24.930  1.00  0.00    -0.352 N 
ATOM      4  C   UNL A   1      33.025  28.491  24.315  1.00  0.00     0.255 C 
ATOM      5  O   UNL A   1      33.772  28.233  23.373  1.00  0.00    -0.269 OA
ATOM      6  H   UNL A   1      33.470  30.426  24.302  1.00  0.00     0.163 HD
BRANCH   4   7
ATOM      7  C   UNL A   1      31.944  27.526  24.677  1.00  0.00     0.085 A 
ATOM      8  C   UNL A   1      31.161  25.596  25.981  1.00  0.00     0.119 A 
ATOM      9  C   UNL A   1      30.041  25.488  25.176  1.00  0.00     0.050 A 
ATOM     10  C   UNL A   1      32.132  26.559  25.684  1.00  0.00     0.064 A 
ATOM     11  C   UNL A   1      29.838  26.419  24.165  1.00  0.00     0.051 A 
ATOM     12  C   UNL A   1      30.735  27.482  23.950  1.00  0.00     0.132 A 
BRANCH   8  13
ATOM     13  O   UNL A   1      31.257  24.676  26.988  1.00  0.00    -0.497 OA
ATOM     14  C   UNL A   1      30.715  23.390  26.696  1.00  0.00     0.278 C 
ENDBRANCH   8  13
BRANCH  12  15
ATOM     15  O   UNL A   1      30.204  28.343  23.035  1.00  0.00    -0.487 OA
BRANCH  15  16
ATOM     16  C   UNL A   1      28.856  28.824  23.018  1.00  0.00     0.276 C 
BRANCH  16  17
ATOM     17  C   UNL A   1      28.707  30.306  22.809  1.00  0.00     0.042 A 
ATOM     18  C   UNL A   1      28.858  31.379  23.668  1.00  0.00     0.019 A 
ATOM     19  S   UNL A   1      28.218  30.841  21.245  1.00  0.00    -0.145 S 
ATOM     20  C   UNL A   1      28.648  32.633  23.024  1.00  0.00     0.012 A 
ATOM     21  C   UNL A   1      28.275  32.481  21.709  1.00  0.00     0.065 A 
ENDBRANCH  16  17
ENDBRANCH  15  16
ENDBRANCH  12  15
ENDBRANCH   4   7
ENDBRANCH   2   3
ENDBRANCH   1   2
BRANCH   1  22
ATOM     22  C   UNL A   1      31.559  32.036  26.746  1.00  0.00     0.023 C 
BRANCH  22  23
ATOM     23  C   UNL A   1      32.741  32.856  27.256  1.00  0.00     0.116 C 
BRANCH  23  24
ATOM     24  N   UNL A   1      32.376  34.210  27.648  1.00  0.00    -0.352 N 
ATOM     25  C   UNL A   1      32.967  35.020  28.589  1.00  0.00     0.251 C 
ATOM     26  H   UNL A   1      31.604  34.599  27.176  1.00  0.00     0.163 HD
ATOM     27  O   UNL A   1      32.495  36.111  28.863  1.00  0.00    -0.269 OA
BRANCH  25  28
ATOM     28  C   UNL A   1      34.161  34.519  29.295  1.00  0.00     0.039 A 
ATOM     29  C   UNL A   1      33.989  33.843  30.504  1.00  0.00     0.014 A 
ATOM     30  C   UNL A   1      35.427  34.657  28.722  1.00  0.00     0.014 A 
ATOM     31  C   UNL A   1      35.089  33.233  31.106  1.00  0.00     0.010 A 
ATOM     32  C   UNL A   1      36.506  33.992  29.288  1.00  0.00     0.010 A 
ATOM     33  C   UNL A   1      36.345  33.270  30.480  1.00  0.00    -0.014 A 
BRANCH  33  34
ATOM     34  C   UNL A   1      37.507  32.550  31.052  1.00  0.00     0.031 A 
ATOM     35  C   UNL A   1      38.132  33.035  32.328  1.00  0.00     0.074 A 
ATOM     36  C   UNL A   1      38.043  31.512  30.382  1.00  0.00     0.049 A 
ATOM     37  N   UNL A   1      39.202  32.600  32.940  1.00  0.00    -0.248 NA
ATOM     38  C   UNL A   1      37.484  34.181  32.985  1.00  0.00     0.031 C 
ATOM     39  C   UNL A   1      37.558  30.989  29.102  1.00  0.00     0.029 A 
ATOM     40  N   UNL A   1      39.124  30.722  30.676  1.00  0.00    -0.354 N 
ATOM     41  C   UNL A   1      39.366  33.428  34.043  1.00  0.00     0.074 A 
ATOM     42  C   UNL A   1      38.317  34.423  33.987  1.00  0.00     0.031 C 
ATOM     43  C   UNL A   1      38.329  29.954  28.731  1.00  0.00     0.029 A 
ATOM     44  C   UNL A   1      39.378  29.761  29.728  1.00  0.00     0.049 A 
ATOM     45  H   UNL A   1      39.666  30.832  31.491  1.00  0.00     0.167 HD
ATOM     46  C   UNL A   1      40.292  33.350  35.027  1.00  0.00     0.037 A 
ATOM     47  C   UNL A   1      40.352  28.834  29.669  1.00  0.00     0.037 A 
ATOM     48  C   UNL A   1      41.315  32.342  35.094  1.00  0.00     0.049 A 
ATOM     49  C   UNL A   1      41.355  28.754  30.784  1.00  0.00     0.074 A 
ATOM     50  C   UNL A   1      42.267  32.142  36.077  1.00  0.00     0.029 A 
ATOM     51  N   UNL A   1      41.515  31.359  34.136  1.00  0.00    -0.354 N 
ATOM     52  N   UNL A   1      41.461  29.505  31.855  1.00  0.00    -0.248 NA
ATOM     53  C   UNL A   1      42.370  27.695  30.689  1.00  0.00     0.031 C 
ATOM     54  C   UNL A   1      43.062  31.054  35.701  1.00  0.00     0.029 A 
ATOM     55  C   UNL A   1      42.582  30.555  34.501  1.00  0.00     0.049 A 
ATOM     56  H   UNL A   1      40.978  31.248  33.319  1.00  0.00     0.167 HD
ATOM     57  C   UNL A   1      42.536  28.996  32.571  1.00  0.00     0.074 A 
ATOM     58  C   UNL A   1      43.041  27.864  31.820  1.00  0.00     0.031 C 
ATOM     59  C   UNL A   1      43.061  29.428  33.743  1.00  0.00     0.037 A 
BRANCH  46  60
ATOM     60  C   UNL A   1      40.225  34.380  36.114  1.00  0.00     0.057 A 
ATOM     61  C   UNL A   1      40.957  35.573  36.044  1.00  0.00     0.134 A 
ATOM     62  C   UNL A   1      39.406  34.189  37.235  1.00  0.00     0.134 A 
ATOM     63  F   UNL A   1      41.771  35.809  35.004  1.00  0.00    -0.206 F 
ATOM     64  C   UNL A   1      40.900  36.526  37.060  1.00  0.00     0.040 A 
ATOM     65  C   UNL A   1      39.322  35.146  38.247  1.00  0.00     0.040 A 
ATOM     66  F   UNL A   1      38.678  33.071  37.364  1.00  0.00    -0.206 F 
ATOM     67  C   UNL A   1      40.075  36.316  38.164  1.00  0.00     0.006 A 
ENDBRANCH  46  60
BRANCH  47  68
ATOM     68  C   UNL A   1      40.409  27.890  28.526  1.00  0.00     0.057 A 
ATOM     69  C   UNL A   1      39.743  26.660  28.575  1.00  0.00     0.134 A 
ATOM     70  C   UNL A   1      41.128  28.190  27.364  1.00  0.00     0.134 A 
ATOM     71  F   UNL A   1      39.052  26.309  29.669  1.00  0.00    -0.206 F 
ATOM     72  C   UNL A   1      39.806  25.753  27.515  1.00  0.00     0.040 A 
ATOM     73  C   UNL A   1      41.180  27.303  26.288  1.00  0.00     0.040 A 
ATOM     74  F   UNL A   1      41.779  29.358  27.253  1.00  0.00    -0.206 F 
ATOM     75  C   UNL A   1      40.523  26.076  26.366  1.00  0.00     0.006 A 
ENDBRANCH  47  68
BRANCH  59  76
ATOM     76  C   UNL A   1      44.219  28.656  34.299  1.00  0.00     0.057 A 
ATOM     77  C   UNL A   1      45.544  29.017  34.023  1.00  0.00     0.134 A 
ATOM     78  C   UNL A   1      44.006  27.567  35.151  1.00  0.00     0.134 A 
ATOM     79  F   UNL A   1      45.813  30.043  33.202  1.00  0.00    -0.206 F 
ATOM     80  C   UNL A   1      46.618  28.308  34.563  1.00  0.00     0.040 A 
ATOM     81  C   UNL A   1      45.070  26.864  35.715  1.00  0.00     0.040 A 
ATOM     82  F   UNL A   1      42.760  27.177  35.459  1.00  0.00    -0.206 F 
ATOM     83  C   UNL A   1      46.381  27.232  35.417  1.00  0.00     0.006 A 
ENDBRANCH  59  76
ENDBRANCH  33  34
ENDBRANCH  25  28
ENDBRANCH  23  24
ENDBRANCH  22  23
ENDBRANCH   1  22
TORSDOF 15
ENDMDL
MODEL 2
REMARK VINA RESULT:     -11.6      5.847     10.916
REMARK SMILES COc1ccc(OCc2cccs2)c(C(=O)NCCCCNC(=O)c2ccc(-c3c4nc(c(-c5c(F)cccc5F)c5ccc([nH]5)c(-c5c(F)cccc5F)c5nc(c(-c6c(F)cccc6F)c6ccc3[nH]6)C=C5)C=C4)cc2)c1
REMARK SMILES IDX 19 1 18 2 17 3 15 4 16 5 14 7 3 8 4 9 79 10 5 11 6 12 2 13
REMARK SMILES IDX 1 14 7 15 8 16 9 17 10 18 13 19 11 20 12 21 20 22 21 23
REMARK SMILES IDX 22 24 23 25 24 27 25 28 26 29 78 30 27 31 77 32 28 33 29 34
REMARK SMILES IDX 30 35 71 36 31 37 76 38 70 39 72 40 32 41 75 42 69 43 68 44
REMARK SMILES IDX 33 46 59 47 42 48 58 49 43 50 46 51 57 52 73 53 44 54 45 55
REMARK SMILES IDX 56 57 74 58 47 59 34 60 35 61 40 62 36 63 37 64 39 65 41 66
REMARK SMILES IDX 38 67 60 68 61 69 66 70 62 71 63 72 65 73 67 74 64 75 48 76
REMARK SMILES IDX 49 77 54 78 50 79 51 80 53 81 55 82 52 83
REMARK H PARENT 17 6 22 26 72 45 46 56
REMARK Flexibility Score: inf
ROOT
ATOM      1  C   UNL A   1      37.438  21.256  24.624  1.00  0.00     0.023 C 
ENDROOT
BRANCH   1   2
ATOM      2  C   UNL A   1      37.423  22.301  25.746  1.00  0.00     0.116 C 
BRANCH   2   3
ATOM      3  N   UNL A   1      36.132  22.287  26.406  1.00  0.00    -0.352 N 
ATOM      4  C   UNL A   1      34.934  22.903  26.128  1.00  0.00     0.255 C 
ATOM      5  O   UNL A   1      34.317  23.322  27.107  1.00  0.00    -0.269 OA
ATOM      6  H   UNL A   1      36.107  21.726  27.214  1.00  0.00     0.163 HD
BRANCH   4   7
ATOM      7  C   UNL A   1      34.335  23.050  24.768  1.00  0.00     0.085 A 
ATOM      8  C   UNL A   1      33.857  24.427  22.789  1.00  0.00     0.119 A 
ATOM      9  C   UNL A   1      32.960  23.480  22.329  1.00  0.00     0.050 A 
ATOM     10  C   UNL A   1      34.479  24.241  24.029  1.00  0.00     0.064 A 
ATOM     11  C   UNL A   1      32.787  22.302  23.045  1.00  0.00     0.051 A 
ATOM     12  C   UNL A   1      33.517  22.040  24.220  1.00  0.00     0.132 A 
BRANCH   8  13
ATOM     13  O   UNL A   1      34.011  25.531  21.996  1.00  0.00    -0.497 OA
ATOM     14  C   UNL A   1      33.179  26.641  22.323  1.00  0.00     0.278 C 
ENDBRANCH   8  13
BRANCH  12  15
ATOM     15  O   UNL A   1      33.297  20.751  24.609  1.00  0.00    -0.487 OA
BRANCH  15  16
ATOM     16  C   UNL A   1      32.500  19.787  23.913  1.00  0.00     0.276 C 
BRANCH  16  17
ATOM     17  C   UNL A   1      32.987  18.367  24.003  1.00  0.00     0.042 A 
ATOM     18  C   UNL A   1      33.733  17.590  23.136  1.00  0.00     0.019 A 
ATOM     19  S   UNL A   1      32.536  17.462  25.399  1.00  0.00    -0.145 S 
ATOM     20  C   UNL A   1      33.995  16.288  23.652  1.00  0.00     0.012 A 
ATOM     21  C   UNL A   1      33.384  16.081  24.866  1.00  0.00     0.065 A 
ENDBRANCH  16  17
ENDBRANCH  15  16
ENDBRANCH  12  15
ENDBRANCH   4   7
ENDBRANCH   2   3
ENDBRANCH   1   2
BRANCH   1  22
ATOM     22  C   UNL A   1      38.163  19.955  24.997  1.00  0.00     0.023 C 
BRANCH  22  23
ATOM     23  C   UNL A   1      39.272  20.110  26.034  1.00  0.00     0.116 C 
BRANCH  23  24
ATOM     24  N   UNL A   1      40.271  19.052  25.974  1.00  0.00    -0.352 N 
ATOM     25  C   UNL A   1      41.634  19.149  26.122  1.00  0.00     0.251 C 
ATOM     26  H   UNL A   1      39.924  18.147  25.804  1.00  0.00     0.163 HD
ATOM     27  O   UNL A   1      42.353  18.176  25.966  1.00  0.00    -0.269 OA
BRANCH  25  28
ATOM     28  C   UNL A   1      42.213  20.469  26.430  1.00  0.00     0.039 A 
ATOM     29  C   UNL A   1      42.531  21.325  25.373  1.00  0.00     0.014 A 
ATOM     30  C   UNL A   1      42.370  20.877  27.757  1.00  0.00     0.014 A 
ATOM     31  C   UNL A   1      42.936  22.629  25.651  1.00  0.00     0.010 A 
ATOM     32  C   UNL A   1      42.708  22.196  28.029  1.00  0.00     0.010 A 
ATOM     33  C   UNL A   1      42.988  23.084  26.979  1.00  0.00    -0.014 A 
BRANCH  33  34
ATOM     34  C   UNL A   1      43.324  24.492  27.293  1.00  0.00     0.031 A 
ATOM     35  C   UNL A   1      44.750  24.955  27.214  1.00  0.00     0.074 A 
ATOM     36  C   UNL A   1      42.359  25.327  27.723  1.00  0.00     0.049 A 
ATOM     37  N   UNL A   1      45.260  26.116  27.534  1.00  0.00    -0.248 NA
ATOM     38  C   UNL A   1      45.738  23.971  26.744  1.00  0.00     0.031 C 
ATOM     39  C   UNL A   1      40.948  24.974  27.898  1.00  0.00     0.029 A 
ATOM     40  N   UNL A   1      42.423  26.641  28.109  1.00  0.00    -0.354 N 
ATOM     41  C   UNL A   1      46.627  25.997  27.318  1.00  0.00     0.074 A 
ATOM     42  C   UNL A   1      46.874  24.636  26.893  1.00  0.00     0.031 C 
ATOM     43  C   UNL A   1      40.277  26.050  28.339  1.00  0.00     0.029 A 
ATOM     44  C   UNL A   1      41.213  27.157  28.508  1.00  0.00     0.049 A 
ATOM     45  H   UNL A   1      43.255  27.166  28.099  1.00  0.00     0.167 HD
ATOM     46  C   UNL A   1      47.586  26.944  27.441  1.00  0.00     0.037 A 
ATOM     47  C   UNL A   1      40.899  28.384  28.964  1.00  0.00     0.037 A 
ATOM     48  C   UNL A   1      47.332  28.303  27.837  1.00  0.00     0.049 A 
ATOM     49  C   UNL A   1      41.978  29.424  29.070  1.00  0.00     0.074 A 
ATOM     50  C   UNL A   1      48.226  29.354  27.938  1.00  0.00     0.029 A 
ATOM     51  N   UNL A   1      46.086  28.799  28.192  1.00  0.00    -0.354 N 
ATOM     52  N   UNL A   1      43.258  29.316  28.804  1.00  0.00    -0.248 NA
ATOM     53  C   UNL A   1      41.570  30.758  29.532  1.00  0.00     0.031 C 
ATOM     54  C   UNL A   1      47.526  30.481  28.382  1.00  0.00     0.029 A 
ATOM     55  C   UNL A   1      46.191  30.140  28.523  1.00  0.00     0.049 A 
ATOM     56  H   UNL A   1      45.253  28.277  28.206  1.00  0.00     0.167 HD
ATOM     57  C   UNL A   1      43.803  30.570  29.043  1.00  0.00     0.074 A 
ATOM     58  C   UNL A   1      42.712  31.427  29.463  1.00  0.00     0.031 C 
ATOM     59  C   UNL A   1      45.090  30.975  28.929  1.00  0.00     0.037 A 
BRANCH  46  60
ATOM     60  C   UNL A   1      48.995  26.537  27.129  1.00  0.00     0.057 A 
ATOM     61  C   UNL A   1      49.859  26.058  28.122  1.00  0.00     0.134 A 
ATOM     62  C   UNL A   1      49.488  26.605  25.820  1.00  0.00     0.134 A 
ATOM     63  F   UNL A   1      49.452  25.983  29.399  1.00  0.00    -0.206 F 
ATOM     64  C   UNL A   1      51.172  25.688  27.831  1.00  0.00     0.040 A 
ATOM     65  C   UNL A   1      50.792  26.214  25.512  1.00  0.00     0.040 A 
ATOM     66  F   UNL A   1      48.713  27.052  24.821  1.00  0.00    -0.206 F 
ATOM     67  C   UNL A   1      51.640  25.760  26.521  1.00  0.00     0.006 A 
ENDBRANCH  46  60
BRANCH  47  68
ATOM     68  C   UNL A   1      39.497  28.703  29.329  1.00  0.00     0.057 A 
ATOM     69  C   UNL A   1      38.607  29.222  28.381  1.00  0.00     0.134 A 
ATOM     70  C   UNL A   1      39.014  28.500  30.626  1.00  0.00     0.134 A 
ATOM     71  F   UNL A   1      39.018  29.455  27.126  1.00  0.00    -0.206 F 
ATOM     72  C   UNL A   1      37.291  29.547  28.716  1.00  0.00     0.040 A 
ATOM     73  C   UNL A   1      37.694  28.799  30.968  1.00  0.00     0.040 A 
ATOM     74  F   UNL A   1      39.815  27.995  31.576  1.00  0.00    -0.206 F 
ATOM     75  C   UNL A   1      36.831  29.331  30.012  1.00  0.00     0.006 A 
ENDBRANCH  47  68
BRANCH  59  76
ATOM     76  C   UNL A   1      45.383  32.414  29.232  1.00  0.00     0.057 A 
ATOM     77  C   UNL A   1      45.781  32.831  30.508  1.00  0.00     0.134 A 
ATOM     78  C   UNL A   1      45.304  33.385  28.226  1.00  0.00     0.134 A 
ATOM     79  F   UNL A   1      45.862  31.950  31.517  1.00  0.00    -0.206 F 
ATOM     80  C   UNL A   1      46.075  34.168  30.778  1.00  0.00     0.040 A 
ATOM     81  C   UNL A   1      45.617  34.721  28.477  1.00  0.00     0.040 A 
ATOM     82  F   UNL A   1      44.936  33.047  26.982  1.00  0.00    -0.206 F 
ATOM     83  C   UNL A   1      45.999  35.116  29.758  1.00  0.00     0.006 A 
ENDBRANCH  59  76
ENDBRANCH  33  34
ENDBRANCH  25  28
ENDBRANCH  23  24
ENDBRANCH  22  23
ENDBRANCH   1  22
TORSDOF 15
ENDMDL
MODEL 3
REMARK VINA RESULT:     -11.5      5.785     10.772
REMARK SMILES COc1ccc(OCc2cccs2)c(C(=O)NCCCCNC(=O)c2ccc(-c3c4nc(c(-c5c(F)cccc5F)c5ccc([nH]5)c(-c5c(F)cccc5F)c5nc(c(-c6c(F)cccc6F)c6ccc3[nH]6)C=C5)C=C4)cc2)c1
REMARK SMILES IDX 19 1 18 2 17 3 15 4 16 5 14 7 3 8 4 9 79 10 5 11 6 12 2 13
REMARK SMILES IDX 1 14 7 15 8 16 9 17 10 18 13 19 11 20 12 21 20 22 21 23
REMARK SMILES IDX 22 24 23 25 24 27 25 28 26 29 78 30 27 31 77 32 28 33 29 34
REMARK SMILES IDX 30 35 71 36 31 37 76 38 70 39 72 40 32 41 75 42 69 43 68 44
REMARK SMILES IDX 33 46 59 47 42 48 58 49 43 50 46 51 57 52 73 53 44 54 45 55
REMARK SMILES IDX 56 57 74 58 47 59 34 60 35 61 40 62 36 63 37 64 39 65 41 66
REMARK SMILES IDX 38 67 60 68 61 69 66 70 62 71 63 72 65 73 67 74 64 75 48 76
REMARK SMILES IDX 49 77 54 78 50 79 51 80 53 81 55 82 52 83
REMARK H PARENT 17 6 22 26 72 45 46 56
REMARK Flexibility Score: inf
ROOT
ATOM      1  C   UNL A   1      36.806  20.645  25.047  1.00  0.00     0.023 C 
ENDROOT
BRANCH   1   2
ATOM      2  C   UNL A   1      36.970  21.990  25.768  1.00  0.00     0.116 C 
BRANCH   2   3
ATOM      3  N   UNL A   1      35.706  22.379  26.363  1.00  0.00    -0.352 N 
ATOM      4  C   UNL A   1      34.688  23.201  25.940  1.00  0.00     0.255 C 
ATOM      5  O   UNL A   1      34.178  23.902  26.813  1.00  0.00    -0.269 OA
ATOM      6  H   UNL A   1      35.545  21.976  27.247  1.00  0.00     0.163 HD
BRANCH   4   7
ATOM      7  C   UNL A   1      34.150  23.260  24.548  1.00  0.00     0.085 A 
ATOM      8  C   UNL A   1      33.648  24.542  22.512  1.00  0.00     0.119 A 
ATOM      9  C   UNL A   1      32.871  23.503  22.032  1.00  0.00     0.050 A 
ATOM     10  C   UNL A   1      34.218  24.444  23.786  1.00  0.00     0.064 A 
ATOM     11  C   UNL A   1      32.774  22.329  22.769  1.00  0.00     0.051 A 
ATOM     12  C   UNL A   1      33.463  22.163  23.986  1.00  0.00     0.132 A 
BRANCH   8  13
ATOM     13  O   UNL A   1      33.737  25.638  21.699  1.00  0.00    -0.497 OA
ATOM     14  C   UNL A   1      32.836  26.701  22.004  1.00  0.00     0.278 C 
ENDBRANCH   8  13
BRANCH  12  15
ATOM     15  O   UNL A   1      33.348  20.868  24.396  1.00  0.00    -0.487 OA
BRANCH  15  16
ATOM     16  C   UNL A   1      32.513  19.869  23.802  1.00  0.00     0.276 C 
BRANCH  16  17
ATOM     17  C   UNL A   1      32.980  18.451  23.984  1.00  0.00     0.042 A 
ATOM     18  C   UNL A   1      33.612  17.570  23.126  1.00  0.00     0.019 A 
ATOM     19  S   UNL A   1      32.668  17.702  25.505  1.00  0.00    -0.145 S 
ATOM     20  C   UNL A   1      33.905  16.318  23.741  1.00  0.00     0.012 A 
ATOM     21  C   UNL A   1      33.427  16.251  25.028  1.00  0.00     0.065 A 
ENDBRANCH  16  17
ENDBRANCH  15  16
ENDBRANCH  12  15
ENDBRANCH   4   7
ENDBRANCH   2   3
ENDBRANCH   1   2
BRANCH   1  22
ATOM     22  C   UNL A   1      38.134  19.933  24.755  1.00  0.00     0.023 C 
BRANCH  22  23
ATOM     23  C   UNL A   1      39.234  20.171  25.785  1.00  0.00     0.116 C 
BRANCH  23  24
ATOM     24  N   UNL A   1      40.197  19.081  25.863  1.00  0.00    -0.352 N 
ATOM     25  C   UNL A   1      41.537  19.140  26.162  1.00  0.00     0.251 C 
ATOM     26  H   UNL A   1      39.841  18.182  25.677  1.00  0.00     0.163 HD
ATOM     27  O   UNL A   1      42.236  18.140  26.112  1.00  0.00    -0.269 OA
BRANCH  25  28
ATOM     28  C   UNL A   1      42.123  20.449  26.502  1.00  0.00     0.039 A 
ATOM     29  C   UNL A   1      42.553  21.280  25.466  1.00  0.00     0.014 A 
ATOM     30  C   UNL A   1      42.175  20.873  27.832  1.00  0.00     0.014 A 
ATOM     31  C   UNL A   1      42.968  22.578  25.761  1.00  0.00     0.010 A 
ATOM     32  C   UNL A   1      42.523  22.187  28.115  1.00  0.00     0.010 A 
ATOM     33  C   UNL A   1      42.917  23.051  27.082  1.00  0.00    -0.014 A 
BRANCH  33  34
ATOM     34  C   UNL A   1      43.263  24.455  27.406  1.00  0.00     0.031 A 
ATOM     35  C   UNL A   1      44.697  24.897  27.373  1.00  0.00     0.074 A 
ATOM     36  C   UNL A   1      42.296  25.303  27.805  1.00  0.00     0.049 A 
ATOM     37  N   UNL A   1      45.212  26.052  27.708  1.00  0.00    -0.248 NA
ATOM     38  C   UNL A   1      45.685  23.899  26.936  1.00  0.00     0.031 C 
ATOM     39  C   UNL A   1      40.875  24.970  27.933  1.00  0.00     0.029 A 
ATOM     40  N   UNL A   1      42.365  26.617  28.191  1.00  0.00    -0.354 N 
ATOM     41  C   UNL A   1      46.583  25.914  27.537  1.00  0.00     0.074 A 
ATOM     42  C   UNL A   1      46.825  24.549  27.121  1.00  0.00     0.031 C 
ATOM     43  C   UNL A   1      40.205  26.055  28.352  1.00  0.00     0.029 A 
ATOM     44  C   UNL A   1      41.151  27.150  28.550  1.00  0.00     0.049 A 
ATOM     45  H   UNL A   1      43.205  27.131  28.208  1.00  0.00     0.167 HD
ATOM     46  C   UNL A   1      47.551  26.848  27.690  1.00  0.00     0.037 A 
ATOM     47  C   UNL A   1      40.839  28.381  28.995  1.00  0.00     0.037 A 
ATOM     48  C   UNL A   1      47.303  28.210  28.077  1.00  0.00     0.049 A 
ATOM     49  C   UNL A   1      41.928  29.406  29.135  1.00  0.00     0.074 A 
ATOM     50  C   UNL A   1      48.208  29.249  28.206  1.00  0.00     0.029 A 
ATOM     51  N   UNL A   1      46.054  28.724  28.391  1.00  0.00    -0.354 N 
ATOM     52  N   UNL A   1      43.214  29.281  28.911  1.00  0.00    -0.248 NA
ATOM     53  C   UNL A   1      41.524  30.746  29.583  1.00  0.00     0.031 C 
ATOM     54  C   UNL A   1      47.510  30.386  28.627  1.00  0.00     0.029 A 
ATOM     55  C   UNL A   1      46.166  30.064  28.724  1.00  0.00     0.049 A 
ATOM     56  H   UNL A   1      45.213  28.214  28.379  1.00  0.00     0.167 HD
ATOM     57  C   UNL A   1      43.768  30.527  29.167  1.00  0.00     0.074 A 
ATOM     58  C   UNL A   1      42.677  31.400  29.550  1.00  0.00     0.031 C 
ATOM     59  C   UNL A   1      45.065  30.915  29.094  1.00  0.00     0.037 A 
BRANCH  46  60
ATOM     60  C   UNL A   1      48.963  26.420  27.424  1.00  0.00     0.057 A 
ATOM     61  C   UNL A   1      49.513  26.459  26.136  1.00  0.00     0.134 A 
ATOM     62  C   UNL A   1      49.790  25.984  28.467  1.00  0.00     0.134 A 
ATOM     63  F   UNL A   1      48.767  26.852  25.091  1.00  0.00    -0.206 F 
ATOM     64  C   UNL A   1      50.824  26.053  25.889  1.00  0.00     0.040 A 
ATOM     65  C   UNL A   1      51.111  25.599  28.236  1.00  0.00     0.040 A 
ATOM     66  F   UNL A   1      49.328  25.926  29.724  1.00  0.00    -0.206 F 
ATOM     67  C   UNL A   1      51.630  25.626  26.943  1.00  0.00     0.006 A 
ENDBRANCH  46  60
BRANCH  47  68
ATOM     68  C   UNL A   1      39.430  28.720  29.314  1.00  0.00     0.057 A 
ATOM     69  C   UNL A   1      38.914  28.515  30.599  1.00  0.00     0.134 A 
ATOM     70  C   UNL A   1      38.568  29.251  28.349  1.00  0.00     0.134 A 
ATOM     71  F   UNL A   1      39.688  27.992  31.561  1.00  0.00    -0.206 F 
ATOM     72  C   UNL A   1      37.585  28.810  30.907  1.00  0.00     0.040 A 
ATOM     73  C   UNL A   1      37.244  29.572  28.650  1.00  0.00     0.040 A 
ATOM     74  F   UNL A   1      39.007  29.479  27.101  1.00  0.00    -0.206 F 
ATOM     75  C   UNL A   1      36.747  29.344  29.932  1.00  0.00     0.006 A 
ENDBRANCH  47  68
BRANCH  59  76
ATOM     76  C   UNL A   1      45.367  32.350  29.406  1.00  0.00     0.057 A 
ATOM     77  C   UNL A   1      45.289  33.347  28.427  1.00  0.00     0.134 A 
ATOM     78  C   UNL A   1      45.701  32.741  30.708  1.00  0.00     0.134 A 
ATOM     79  F   UNL A   1      44.988  33.033  27.157  1.00  0.00    -0.206 F 
ATOM     80  C   UNL A   1      45.549  34.685  28.729  1.00  0.00     0.040 A 
ATOM     81  C   UNL A   1      45.941  34.076  31.028  1.00  0.00     0.040 A 
ATOM     82  F   UNL A   1      45.785  31.832  31.691  1.00  0.00    -0.206 F 
ATOM     83  C   UNL A   1      45.870  35.053  30.035  1.00  0.00     0.006 A 
ENDBRANCH  59  76
ENDBRANCH  33  34
ENDBRANCH  25  28
ENDBRANCH  23  24
ENDBRANCH  22  23
ENDBRANCH   1  22
TORSDOF 15
ENDMDL
