MODEL 1
REMARK VINA RESULT:     -11.2      0.000      0.000
REMARK SMILES CCOc1cc(N2CCC[C@@H](C(=O)NCCCCNC(=O)c3ccc(-c4c5nc(c(-c6c(F)cccc6F)c6ccc([nH]6)c(-c6c(F)cccc6F)c6nc(c(-c7c(F)cccc7F)c7ccc4[nH]7)C=C6)C=C5)cc3)C2)nc(SC)n1
REMARK SMILES IDX 16 1 15 2 14 3 12 4 13 5 11 7 7 8 8 9 76 10 9 11 10 12 6 13
REMARK SMILES IDX 4 14 5 15 81 16 78 17 77 18 3 19 2 20 1 21 79 22 80 23 17 24
REMARK SMILES IDX 18 25 19 26 20 27 21 29 22 30 23 31 75 32 24 33 74 34 25 35
REMARK SMILES IDX 26 36 27 37 68 38 28 39 73 40 67 41 69 42 29 43 72 44 66 45
REMARK SMILES IDX 65 46 30 48 56 49 39 50 55 51 40 52 43 53 54 54 70 55 41 56
REMARK SMILES IDX 42 57 53 59 71 60 44 61 31 62 32 63 37 64 33 65 34 66 36 67
REMARK SMILES IDX 38 68 35 69 57 70 58 71 63 72 59 73 60 74 62 75 64 76 61 77
REMARK SMILES IDX 45 78 46 79 51 80 47 81 48 82 50 83 52 84 49 85
REMARK H PARENT 14 6 19 28 69 47 43 58
REMARK Flexibility Score: inf
ROOT
ATOM      1  C   UNL A   1      32.216  29.207  26.390  1.00  0.00     0.023 C 
ENDROOT
BRANCH   1   2
ATOM      2  C   UNL A   1      32.057  28.074  27.402  1.00  0.00     0.116 C 
BRANCH   2   3
ATOM      3  N   UNL A   1      31.053  27.106  26.995  1.00  0.00    -0.356 N 
ATOM      4  C   UNL A   1      31.112  26.050  26.136  1.00  0.00     0.224 C 
ATOM      5  O   UNL A   1      30.086  25.383  25.989  1.00  0.00    -0.275 OA
ATOM      6  H   UNL A   1      30.173  27.235  27.417  1.00  0.00     0.163 HD
BRANCH   4   7
ATOM      7  C   UNL A   1      32.375  25.701  25.368  1.00  0.00     0.098 C 
ATOM      8  N   UNL A   1      33.627  23.803  24.423  1.00  0.00    -0.356 N 
ATOM      9  C   UNL A   1      33.643  24.370  23.082  1.00  0.00     0.118 C 
ATOM     10  C   UNL A   1      32.555  24.185  25.329  1.00  0.00     0.131 C 
ATOM     11  C   UNL A   1      33.631  25.891  23.172  1.00  0.00     0.022 C 
ATOM     12  C   UNL A   1      32.463  26.406  24.009  1.00  0.00     0.017 C 
BRANCH   8  13
ATOM     13  C   UNL A   1      34.243  22.575  24.581  1.00  0.00     0.137 A 
ATOM     14  C   UNL A   1      34.247  20.252  24.830  1.00  0.00     0.219 A 
ATOM     15  C   UNL A   1      33.525  21.405  24.663  1.00  0.00     0.115 A 
ATOM     16  N   UNL A   1      35.570  20.211  25.007  1.00  0.00    -0.187 NA
ATOM     17  C   UNL A   1      36.182  21.402  24.961  1.00  0.00     0.192 A 
ATOM     18  N   UNL A   1      35.576  22.571  24.696  1.00  0.00    -0.205 NA
BRANCH  14  19
ATOM     19  O   UNL A   1      33.568  19.063  24.945  1.00  0.00    -0.478 OA
BRANCH  19  20
ATOM     20  C   UNL A   1      32.886  18.736  23.730  1.00  0.00     0.228 C 
ATOM     21  C   UNL A   1      33.405  17.422  23.160  1.00  0.00     0.049 C 
ENDBRANCH  19  20
ENDBRANCH  14  19
BRANCH  17  22
ATOM     22  S   UNL A   1      37.915  21.443  25.357  1.00  0.00    -0.089 SA
ATOM     23  C   UNL A   1      38.023  23.121  26.039  1.00  0.00     0.094 C 
ENDBRANCH  17  22
ENDBRANCH   8  13
ENDBRANCH   4   7
ENDBRANCH   2   3
ENDBRANCH   1   2
BRANCH   1  24
ATOM     24  C   UNL A   1      33.646  29.709  26.200  1.00  0.00     0.023 C 
BRANCH  24  25
ATOM     25  C   UNL A   1      34.611  29.350  27.321  1.00  0.00     0.116 C 
BRANCH  25  26
ATOM     26  N   UNL A   1      34.657  30.342  28.385  1.00  0.00    -0.352 N 
ATOM     27  C   UNL A   1      35.710  30.640  29.218  1.00  0.00     0.251 C 
ATOM     28  H   UNL A   1      33.833  30.863  28.526  1.00  0.00     0.163 HD
ATOM     29  O   UNL A   1      35.579  31.437  30.140  1.00  0.00    -0.269 OA
BRANCH  27  30
ATOM     30  C   UNL A   1      36.996  29.949  29.004  1.00  0.00     0.039 A 
ATOM     31  C   UNL A   1      37.614  30.032  27.754  1.00  0.00     0.014 A 
ATOM     32  C   UNL A   1      37.620  29.289  30.066  1.00  0.00     0.014 A 
ATOM     33  C   UNL A   1      38.902  29.517  27.588  1.00  0.00     0.010 A 
ATOM     34  C   UNL A   1      38.925  28.835  29.916  1.00  0.00     0.010 A 
ATOM     35  C   UNL A   1      39.580  28.953  28.678  1.00  0.00    -0.014 A 
BRANCH  35  36
ATOM     36  C   UNL A   1      40.975  28.460  28.572  1.00  0.00     0.031 A 
ATOM     37  C   UNL A   1      42.109  29.437  28.678  1.00  0.00     0.074 A 
ATOM     38  C   UNL A   1      41.215  27.170  28.270  1.00  0.00     0.049 A 
ATOM     39  N   UNL A   1      43.377  29.268  28.409  1.00  0.00    -0.248 NA
ATOM     40  C   UNL A   1      41.760  30.800  29.110  1.00  0.00     0.031 C 
ATOM     41  C   UNL A   1      40.198  26.127  28.119  1.00  0.00     0.029 A 
ATOM     42  N   UNL A   1      42.397  26.523  28.006  1.00  0.00    -0.354 N 
ATOM     43  C   UNL A   1      43.970  30.508  28.603  1.00  0.00     0.074 A 
ATOM     44  C   UNL A   1      42.919  31.428  28.980  1.00  0.00     0.031 C 
ATOM     45  C   UNL A   1      40.801  24.971  27.793  1.00  0.00     0.029 A 
ATOM     46  C   UNL A   1      42.237  25.201  27.667  1.00  0.00     0.049 A 
ATOM     47  H   UNL A   1      43.276  26.964  28.056  1.00  0.00     0.167 HD
ATOM     48  C   UNL A   1      45.276  30.847  28.488  1.00  0.00     0.037 A 
ATOM     49  C   UNL A   1      43.144  24.287  27.275  1.00  0.00     0.037 A 
ATOM     50  C   UNL A   1      46.322  29.920  28.152  1.00  0.00     0.049 A 
ATOM     51  C   UNL A   1      44.589  24.684  27.160  1.00  0.00     0.074 A 
ATOM     52  C   UNL A   1      47.683  30.153  28.060  1.00  0.00     0.029 A 
ATOM     53  N   UNL A   1      46.123  28.579  27.862  1.00  0.00    -0.354 N 
ATOM     54  N   UNL A   1      45.143  25.853  27.374  1.00  0.00    -0.248 NA
ATOM     55  C   UNL A   1      45.536  23.639  26.745  1.00  0.00     0.031 C 
ATOM     56  C   UNL A   1      48.306  28.957  27.687  1.00  0.00     0.029 A 
ATOM     57  C   UNL A   1      47.337  27.972  27.584  1.00  0.00     0.049 A 
ATOM     58  H   UNL A   1      45.249  28.125  27.855  1.00  0.00     0.167 HD
ATOM     59  C   UNL A   1      46.503  25.676  27.156  1.00  0.00     0.074 A 
ATOM     60  C   UNL A   1      46.692  24.287  26.791  1.00  0.00     0.031 C 
ATOM     61  C   UNL A   1      47.505  26.582  27.252  1.00  0.00     0.037 A 
BRANCH  48  62
ATOM     62  C   UNL A   1      45.639  32.280  28.729  1.00  0.00     0.057 A 
ATOM     63  C   UNL A   1      45.649  33.225  27.695  1.00  0.00     0.134 A 
ATOM     64  C   UNL A   1      45.964  32.727  30.017  1.00  0.00     0.134 A 
ATOM     65  F   UNL A   1      45.363  32.856  26.437  1.00  0.00    -0.206 F 
ATOM     66  C   UNL A   1      45.995  34.556  27.926  1.00  0.00     0.040 A 
ATOM     67  C   UNL A   1      46.286  34.062  30.265  1.00  0.00     0.040 A 
ATOM     68  F   UNL A   1      45.970  31.875  31.053  1.00  0.00    -0.206 F 
ATOM     69  C   UNL A   1      46.309  34.980  29.216  1.00  0.00     0.006 A 
ENDBRANCH  48  62
BRANCH  49  70
ATOM     70  C   UNL A   1      42.718  22.897  26.977  1.00  0.00     0.057 A 
ATOM     71  C   UNL A   1      42.656  22.433  25.658  1.00  0.00     0.134 A 
ATOM     72  C   UNL A   1      42.359  22.003  27.994  1.00  0.00     0.134 A 
ATOM     73  F   UNL A   1      42.969  23.250  24.641  1.00  0.00    -0.206 F 
ATOM     74  C   UNL A   1      42.236  21.136  25.358  1.00  0.00     0.040 A 
ATOM     75  C   UNL A   1      41.959  20.697  27.709  1.00  0.00     0.040 A 
ATOM     76  F   UNL A   1      42.404  22.386  29.278  1.00  0.00    -0.206 F 
ATOM     77  C   UNL A   1      41.890  20.262  26.387  1.00  0.00     0.006 A 
ENDBRANCH  49  70
BRANCH  61  78
ATOM     78  C   UNL A   1      48.903  26.094  27.021  1.00  0.00     0.057 A 
ATOM     79  C   UNL A   1      49.510  26.160  25.761  1.00  0.00     0.134 A 
ATOM     80  C   UNL A   1      49.673  25.620  28.091  1.00  0.00     0.134 A 
ATOM     81  F   UNL A   1      48.819  26.593  24.696  1.00  0.00    -0.206 F 
ATOM     82  C   UNL A   1      50.834  25.763  25.571  1.00  0.00     0.040 A 
ATOM     83  C   UNL A   1      51.004  25.239  27.917  1.00  0.00     0.040 A 
ATOM     84  F   UNL A   1      49.150  25.540  29.323  1.00  0.00    -0.206 F 
ATOM     85  C   UNL A   1      51.587  25.310  26.654  1.00  0.00     0.006 A 
ENDBRANCH  61  78
ENDBRANCH  35  36
ENDBRANCH  27  30
ENDBRANCH  25  26
ENDBRANCH  24  25
ENDBRANCH   1  24
TORSDOF 15
ENDMDL
MODEL 2
REMARK VINA RESULT:     -11.2      2.925      8.183
REMARK SMILES CCOc1cc(N2CCC[C@@H](C(=O)NCCCCNC(=O)c3ccc(-c4c5nc(c(-c6c(F)cccc6F)c6ccc([nH]6)c(-c6c(F)cccc6F)c6nc(c(-c7c(F)cccc7F)c7ccc4[nH]7)C=C6)C=C5)cc3)C2)nc(SC)n1
REMARK SMILES IDX 16 1 15 2 14 3 12 4 13 5 11 7 7 8 8 9 76 10 9 11 10 12 6 13
REMARK SMILES IDX 4 14 5 15 81 16 78 17 77 18 3 19 2 20 1 21 79 22 80 23 17 24
REMARK SMILES IDX 18 25 19 26 20 27 21 29 22 30 23 31 75 32 24 33 74 34 25 35
REMARK SMILES IDX 26 36 27 37 68 38 28 39 73 40 67 41 69 42 29 43 72 44 66 45
REMARK SMILES IDX 65 46 30 48 56 49 39 50 55 51 40 52 43 53 54 54 70 55 41 56
REMARK SMILES IDX 42 57 53 59 71 60 44 61 31 62 32 63 37 64 33 65 34 66 36 67
REMARK SMILES IDX 38 68 35 69 57 70 58 71 63 72 59 73 60 74 62 75 64 76 61 77
REMARK SMILES IDX 45 78 46 79 51 80 47 81 48 82 50 83 52 84 49 85
REMARK H PARENT 14 6 19 28 69 47 43 58
REMARK Flexibility Score: inf
ROOT
ATOM      1  C   UNL A   1      36.348  21.757  25.313  1.00  0.00     0.023 C 
ENDROOT
BRANCH   1   2
ATOM      2  C   UNL A   1      36.288  23.110  24.605  1.00  0.00     0.116 C 
BRANCH   2   3
ATOM      3  N   UNL A   1      35.564  23.043  23.347  1.00  0.00    -0.356 N 
ATOM      4  C   UNL A   1      34.312  23.455  23.002  1.00  0.00     0.224 C 
ATOM      5  O   UNL A   1      33.960  23.275  21.834  1.00  0.00    -0.275 OA
ATOM      6  H   UNL A   1      36.070  22.627  22.611  1.00  0.00     0.163 HD
BRANCH   4   7
ATOM      7  C   UNL A   1      33.368  24.100  24.001  1.00  0.00     0.098 C 
ATOM      8  N   UNL A   1      31.577  25.778  24.199  1.00  0.00    -0.356 N 
ATOM      9  C   UNL A   1      30.632  24.828  24.771  1.00  0.00     0.118 C 
ATOM     10  C   UNL A   1      32.643  25.274  23.347  1.00  0.00     0.131 C 
ATOM     11  C   UNL A   1      31.391  23.765  25.556  1.00  0.00     0.022 C 
ATOM     12  C   UNL A   1      32.463  23.084  24.709  1.00  0.00     0.017 C 
BRANCH   8  13
ATOM     13  C   UNL A   1      31.120  27.070  24.021  1.00  0.00     0.137 A 
ATOM     14  C   UNL A   1      30.021  28.757  22.835  1.00  0.00     0.219 A 
ATOM     15  C   UNL A   1      30.411  27.444  22.903  1.00  0.00     0.115 A 
ATOM     16  N   UNL A   1      30.362  29.692  23.725  1.00  0.00    -0.187 NA
ATOM     17  C   UNL A   1      31.094  29.247  24.756  1.00  0.00     0.192 A 
ATOM     18  N   UNL A   1      31.433  27.965  24.965  1.00  0.00    -0.205 NA
BRANCH  14  19
ATOM     19  O   UNL A   1      29.335  29.180  21.722  1.00  0.00    -0.478 OA
BRANCH  19  20
ATOM     20  C   UNL A   1      28.259  30.055  22.078  1.00  0.00     0.228 C 
ATOM     21  C   UNL A   1      28.181  31.231  21.113  1.00  0.00     0.049 C 
ENDBRANCH  19  20
ENDBRANCH  14  19
BRANCH  17  22
ATOM     22  S   UNL A   1      31.728  30.463  25.888  1.00  0.00    -0.089 SA
ATOM     23  C   UNL A   1      33.314  29.683  26.301  1.00  0.00     0.094 C 
ENDBRANCH  17  22
ENDBRANCH   8  13
ENDBRANCH   4   7
ENDBRANCH   2   3
ENDBRANCH   1   2
BRANCH   1  24
ATOM     24  C   UNL A   1      37.518  20.865  24.903  1.00  0.00     0.023 C 
BRANCH  24  25
ATOM     25  C   UNL A   1      38.792  21.055  25.714  1.00  0.00     0.116 C 
BRANCH  25  26
ATOM     26  N   UNL A   1      39.693  19.914  25.651  1.00  0.00    -0.352 N 
ATOM     27  C   UNL A   1      41.023  19.868  26.002  1.00  0.00     0.251 C 
ATOM     28  H   UNL A   1      39.304  19.074  25.316  1.00  0.00     0.163 HD
ATOM     29  O   UNL A   1      41.691  18.859  25.805  1.00  0.00    -0.269 OA
BRANCH  27  30
ATOM     30  C   UNL A   1      41.642  21.073  26.584  1.00  0.00     0.039 A 
ATOM     31  C   UNL A   1      42.084  22.090  25.734  1.00  0.00     0.014 A 
ATOM     32  C   UNL A   1      41.709  21.224  27.972  1.00  0.00     0.014 A 
ATOM     33  C   UNL A   1      42.525  23.298  26.279  1.00  0.00     0.010 A 
ATOM     34  C   UNL A   1      42.086  22.448  28.508  1.00  0.00     0.010 A 
ATOM     35  C   UNL A   1      42.490  23.498  27.667  1.00  0.00    -0.014 A 
BRANCH  35  36
ATOM     36  C   UNL A   1      42.877  24.789  28.289  1.00  0.00     0.031 A 
ATOM     37  C   UNL A   1      41.826  25.835  28.523  1.00  0.00     0.074 A 
ATOM     38  C   UNL A   1      44.172  25.060  28.534  1.00  0.00     0.049 A 
ATOM     39  N   UNL A   1      41.967  27.092  28.853  1.00  0.00    -0.248 NA
ATOM     40  C   UNL A   1      40.429  25.415  28.325  1.00  0.00     0.031 C 
ATOM     41  C   UNL A   1      45.290  24.136  28.327  1.00  0.00     0.029 A 
ATOM     42  N   UNL A   1      44.771  26.211  28.984  1.00  0.00    -0.354 N 
ATOM     43  C   UNL A   1      40.684  27.622  28.864  1.00  0.00     0.074 A 
ATOM     44  C   UNL A   1      39.781  26.560  28.477  1.00  0.00     0.031 C 
ATOM     45  C   UNL A   1      46.437  24.755  28.653  1.00  0.00     0.029 A 
ATOM     46  C   UNL A   1      46.142  26.130  29.046  1.00  0.00     0.049 A 
ATOM     47  H   UNL A   1      44.267  27.017  29.237  1.00  0.00     0.167 HD
ATOM     48  C   UNL A   1      40.293  28.879  29.179  1.00  0.00     0.037 A 
ATOM     49  C   UNL A   1      47.056  27.067  29.361  1.00  0.00     0.037 A 
ATOM     50  C   UNL A   1      41.191  29.921  29.602  1.00  0.00     0.049 A 
ATOM     51  C   UNL A   1      46.598  28.455  29.713  1.00  0.00     0.074 A 
ATOM     52  C   UNL A   1      40.887  31.213  29.993  1.00  0.00     0.029 A 
ATOM     53  N   UNL A   1      42.566  29.783  29.696  1.00  0.00    -0.354 N 
ATOM     54  N   UNL A   1      45.379  28.938  29.748  1.00  0.00    -0.248 NA
ATOM     55  C   UNL A   1      47.640  29.430  30.065  1.00  0.00     0.031 C 
ATOM     56  C   UNL A   1      42.085  31.867  30.299  1.00  0.00     0.029 A 
ATOM     57  C   UNL A   1      43.129  30.970  30.135  1.00  0.00     0.049 A 
ATOM     58  H   UNL A   1      43.069  28.964  29.485  1.00  0.00     0.167 HD
ATOM     59  C   UNL A   1      45.505  30.258  30.160  1.00  0.00     0.074 A 
ATOM     60  C   UNL A   1      46.918  30.502  30.361  1.00  0.00     0.031 C 
ATOM     61  C   UNL A   1      44.535  31.183  30.357  1.00  0.00     0.037 A 
BRANCH  48  62
ATOM     62  C   UNL A   1      38.831  29.192  29.079  1.00  0.00     0.057 A 
ATOM     63  C   UNL A   1      38.237  29.566  27.866  1.00  0.00     0.134 A 
ATOM     64  C   UNL A   1      38.002  29.097  30.204  1.00  0.00     0.134 A 
ATOM     65  F   UNL A   1      38.980  29.689  26.756  1.00  0.00    -0.206 F 
ATOM     66  C   UNL A   1      36.876  29.862  27.782  1.00  0.00     0.040 A 
ATOM     67  C   UNL A   1      36.634  29.365  30.126  1.00  0.00     0.040 A 
ATOM     68  F   UNL A   1      38.507  28.741  31.395  1.00  0.00    -0.206 F 
ATOM     69  C   UNL A   1      36.069  29.755  28.913  1.00  0.00     0.006 A 
ENDBRANCH  48  62
BRANCH  49  70
ATOM     70  C   UNL A   1      48.499  26.722  29.373  1.00  0.00     0.057 A 
ATOM     71  C   UNL A   1      49.102  26.200  30.523  1.00  0.00     0.134 A 
ATOM     72  C   UNL A   1      49.309  26.910  28.246  1.00  0.00     0.134 A 
ATOM     73  F   UNL A   1      48.380  26.017  31.638  1.00  0.00    -0.206 F 
ATOM     74  C   UNL A   1      50.463  25.891  30.559  1.00  0.00     0.040 A 
ATOM     75  C   UNL A   1      50.666  26.585  28.262  1.00  0.00     0.040 A 
ATOM     76  F   UNL A   1      48.789  27.400  27.113  1.00  0.00    -0.206 F 
ATOM     77  C   UNL A   1      51.248  26.079  29.423  1.00  0.00     0.006 A 
ENDBRANCH  49  70
BRANCH  61  78
ATOM     78  C   UNL A   1      44.956  32.526  30.870  1.00  0.00     0.057 A 
ATOM     79  C   UNL A   1      45.243  33.591  30.008  1.00  0.00     0.134 A 
ATOM     80  C   UNL A   1      45.003  32.774  32.248  1.00  0.00     0.134 A 
ATOM     81  F   UNL A   1      45.227  33.412  28.678  1.00  0.00    -0.206 F 
ATOM     82  C   UNL A   1      45.571  34.855  30.499  1.00  0.00     0.040 A 
ATOM     83  C   UNL A   1      45.309  34.039  32.750  1.00  0.00     0.040 A 
ATOM     84  F   UNL A   1      44.730  31.796  33.125  1.00  0.00    -0.206 F 
ATOM     85  C   UNL A   1      45.594  35.083  31.875  1.00  0.00     0.006 A 
ENDBRANCH  61  78
ENDBRANCH  35  36
ENDBRANCH  27  30
ENDBRANCH  25  26
ENDBRANCH  24  25
ENDBRANCH   1  24
TORSDOF 15
ENDMDL
MODEL 3
REMARK VINA RESULT:     -11.1      1.586      2.432
REMARK SMILES CCOc1cc(N2CCC[C@@H](C(=O)NCCCCNC(=O)c3ccc(-c4c5nc(c(-c6c(F)cccc6F)c6ccc([nH]6)c(-c6c(F)cccc6F)c6nc(c(-c7c(F)cccc7F)c7ccc4[nH]7)C=C6)C=C5)cc3)C2)nc(SC)n1
REMARK SMILES IDX 16 1 15 2 14 3 12 4 13 5 11 7 7 8 8 9 76 10 9 11 10 12 6 13
REMARK SMILES IDX 4 14 5 15 81 16 78 17 77 18 3 19 2 20 1 21 79 22 80 23 17 24
REMARK SMILES IDX 18 25 19 26 20 27 21 29 22 30 23 31 75 32 24 33 74 34 25 35
REMARK SMILES IDX 26 36 27 37 68 38 28 39 73 40 67 41 69 42 29 43 72 44 66 45
REMARK SMILES IDX 65 46 30 48 56 49 39 50 55 51 40 52 43 53 54 54 70 55 41 56
REMARK SMILES IDX 42 57 53 59 71 60 44 61 31 62 32 63 37 64 33 65 34 66 36 67
REMARK SMILES IDX 38 68 35 69 57 70 58 71 63 72 59 73 60 74 62 75 64 76 61 77
REMARK SMILES IDX 45 78 46 79 51 80 47 81 48 82 50 83 52 84 49 85
REMARK H PARENT 14 6 19 28 69 47 43 58
REMARK Flexibility Score: inf
ROOT
ATOM      1  C   UNL A   1      31.666  27.943  27.122  1.00  0.00     0.023 C 
ENDROOT
BRANCH   1   2
ATOM      2  C   UNL A   1      31.444  26.509  26.645  1.00  0.00     0.116 C 
BRANCH   2   3
ATOM      3  N   UNL A   1      30.417  26.419  25.622  1.00  0.00    -0.356 N 
ATOM      4  C   UNL A   1      30.445  25.917  24.356  1.00  0.00     0.224 C 
ATOM      5  O   UNL A   1      29.399  25.967  23.705  1.00  0.00    -0.275 OA
ATOM      6  H   UNL A   1      29.544  26.787  25.892  1.00  0.00     0.163 HD
BRANCH   4   7
ATOM      7  C   UNL A   1      31.705  25.328  23.745  1.00  0.00     0.098 C 
ATOM      8  N   UNL A   1      32.947  23.219  23.477  1.00  0.00    -0.356 N 
ATOM      9  C   UNL A   1      32.963  23.314  22.024  1.00  0.00     0.118 C 
ATOM     10  C   UNL A   1      31.878  23.884  24.207  1.00  0.00     0.131 C 
ATOM     11  C   UNL A   1      32.958  24.780  21.608  1.00  0.00     0.022 C 
ATOM     12  C   UNL A   1      31.793  25.547  22.230  1.00  0.00     0.017 C 
BRANCH   8  13
ATOM     13  C   UNL A   1      33.558  22.110  24.031  1.00  0.00     0.137 A 
ATOM     14  C   UNL A   1      35.371  20.960  24.955  1.00  0.00     0.219 A 
ATOM     15  C   UNL A   1      34.874  22.125  24.429  1.00  0.00     0.115 A 
ATOM     16  N   UNL A   1      34.692  19.811  25.013  1.00  0.00    -0.187 NA
ATOM     17  C   UNL A   1      33.433  19.876  24.558  1.00  0.00     0.192 A 
ATOM     18  N   UNL A   1      32.826  20.994  24.127  1.00  0.00    -0.205 NA
BRANCH  14  19
ATOM     19  O   UNL A   1      36.689  20.923  25.339  1.00  0.00    -0.478 OA
BRANCH  19  20
ATOM     20  C   UNL A   1      37.407  22.055  24.836  1.00  0.00     0.228 C 
ATOM     21  C   UNL A   1      38.292  22.654  25.920  1.00  0.00     0.049 C 
ENDBRANCH  19  20
ENDBRANCH  14  19
BRANCH  17  22
ATOM     22  S   UNL A   1      32.528  18.351  24.448  1.00  0.00    -0.089 SA
ATOM     23  C   UNL A   1      32.525  18.138  22.645  1.00  0.00     0.094 C 
ENDBRANCH  17  22
ENDBRANCH   8  13
ENDBRANCH   4   7
ENDBRANCH   2   3
ENDBRANCH   1   2
BRANCH   1  24
ATOM     24  C   UNL A   1      32.787  28.696  26.408  1.00  0.00     0.023 C 
BRANCH  24  25
ATOM     25  C   UNL A   1      34.034  28.946  27.245  1.00  0.00     0.116 C 
BRANCH  25  26
ATOM     26  N   UNL A   1      34.015  30.222  27.943  1.00  0.00    -0.352 N 
ATOM     27  C   UNL A   1      35.035  30.811  28.654  1.00  0.00     0.251 C 
ATOM     28  H   UNL A   1      33.170  30.725  27.902  1.00  0.00     0.163 HD
ATOM     29  O   UNL A   1      34.851  31.850  29.278  1.00  0.00    -0.269 OA
BRANCH  27  30
ATOM     30  C   UNL A   1      36.350  30.143  28.686  1.00  0.00     0.039 A 
ATOM     31  C   UNL A   1      37.167  30.194  27.554  1.00  0.00     0.014 A 
ATOM     32  C   UNL A   1      36.799  29.539  29.864  1.00  0.00     0.014 A 
ATOM     33  C   UNL A   1      38.473  29.704  27.625  1.00  0.00     0.010 A 
ATOM     34  C   UNL A   1      38.118  29.112  29.951  1.00  0.00     0.010 A 
ATOM     35  C   UNL A   1      38.969  29.198  28.836  1.00  0.00    -0.014 A 
BRANCH  35  36
ATOM     36  C   UNL A   1      40.370  28.734  28.984  1.00  0.00     0.031 A 
ATOM     37  C   UNL A   1      41.422  29.708  29.431  1.00  0.00     0.074 A 
ATOM     38  C   UNL A   1      40.714  27.487  28.611  1.00  0.00     0.049 A 
ATOM     39  N   UNL A   1      42.723  29.582  29.427  1.00  0.00    -0.248 NA
ATOM     40  C   UNL A   1      40.942  31.012  29.916  1.00  0.00     0.031 C 
ATOM     41  C   UNL A   1      39.789  26.455  28.137  1.00  0.00     0.029 A 
ATOM     42  N   UNL A   1      41.946  26.886  28.543  1.00  0.00    -0.354 N 
ATOM     43  C   UNL A   1      43.218  30.801  29.870  1.00  0.00     0.074 A 
ATOM     44  C   UNL A   1      42.080  31.664  30.103  1.00  0.00     0.031 C 
ATOM     45  C   UNL A   1      40.486  25.348  27.832  1.00  0.00     0.029 A 
ATOM     46  C   UNL A   1      41.907  25.606  28.044  1.00  0.00     0.049 A 
ATOM     47  H   UNL A   1      42.778  27.329  28.826  1.00  0.00     0.167 HD
ATOM     48  C   UNL A   1      44.506  31.165  30.075  1.00  0.00     0.037 A 
ATOM     49  C   UNL A   1      42.907  24.749  27.766  1.00  0.00     0.037 A 
ATOM     50  C   UNL A   1      45.631  30.291  29.880  1.00  0.00     0.049 A 
ATOM     51  C   UNL A   1      44.330  25.173  28.006  1.00  0.00     0.074 A 
ATOM     52  C   UNL A   1      46.972  30.549  30.109  1.00  0.00     0.029 A 
ATOM     53  N   UNL A   1      45.544  28.988  29.418  1.00  0.00    -0.354 N 
ATOM     54  N   UNL A   1      44.785  26.319  28.454  1.00  0.00    -0.248 NA
ATOM     55  C   UNL A   1      45.378  24.189  27.701  1.00  0.00     0.031 C 
ATOM     56  C   UNL A   1      47.700  29.406  29.759  1.00  0.00     0.029 A 
ATOM     57  C   UNL A   1      46.809  28.427  29.349  1.00  0.00     0.049 A 
ATOM     58  H   UNL A   1      44.708  28.527  29.176  1.00  0.00     0.167 HD
ATOM     59  C   UNL A   1      46.165  26.181  28.518  1.00  0.00     0.074 A 
ATOM     60  C   UNL A   1      46.475  24.842  28.062  1.00  0.00     0.031 C 
ATOM     61  C   UNL A   1      47.092  27.082  28.921  1.00  0.00     0.037 A 
BRANCH  48  62
ATOM     62  C   UNL A   1      44.760  32.568  30.535  1.00  0.00     0.057 A 
ATOM     63  C   UNL A   1      44.972  33.616  29.629  1.00  0.00     0.134 A 
ATOM     64  C   UNL A   1      44.774  32.880  31.901  1.00  0.00     0.134 A 
ATOM     65  F   UNL A   1      44.986  33.379  28.309  1.00  0.00    -0.206 F 
ATOM     66  C   UNL A   1      45.215  34.919  30.065  1.00  0.00     0.040 A 
ATOM     67  C   UNL A   1      44.990  34.185  32.347  1.00  0.00     0.040 A 
ATOM     68  F   UNL A   1      44.575  31.925  32.821  1.00  0.00    -0.206 F 
ATOM     69  C   UNL A   1      45.218  35.207  31.429  1.00  0.00     0.006 A 
ENDBRANCH  48  62
BRANCH  49  70
ATOM     70  C   UNL A   1      42.602  23.395  27.242  1.00  0.00     0.057 A 
ATOM     71  C   UNL A   1      42.282  22.345  28.110  1.00  0.00     0.134 A 
ATOM     72  C   UNL A   1      42.627  23.115  25.870  1.00  0.00     0.134 A 
ATOM     73  F   UNL A   1      42.262  22.549  29.435  1.00  0.00    -0.206 F 
ATOM     74  C   UNL A   1      42.013  21.060  27.635  1.00  0.00     0.040 A 
ATOM     75  C   UNL A   1      42.339  21.840  25.381  1.00  0.00     0.040 A 
ATOM     76  F   UNL A   1      42.920  24.081  24.987  1.00  0.00    -0.206 F 
ATOM     77  C   UNL A   1      42.037  20.806  26.265  1.00  0.00     0.006 A 
ENDBRANCH  49  70
BRANCH  61  78
ATOM     78  C   UNL A   1      48.523  26.638  28.947  1.00  0.00     0.057 A 
ATOM     79  C   UNL A   1      49.396  26.891  27.882  1.00  0.00     0.134 A 
ATOM     80  C   UNL A   1      49.048  26.014  30.086  1.00  0.00     0.134 A 
ATOM     81  F   UNL A   1      48.948  27.474  26.761  1.00  0.00    -0.206 F 
ATOM     82  C   UNL A   1      50.742  26.529  27.946  1.00  0.00     0.040 A 
ATOM     83  C   UNL A   1      50.397  25.666  30.169  1.00  0.00     0.040 A 
ATOM     84  F   UNL A   1      48.263  25.752  31.142  1.00  0.00    -0.206 F 
ATOM     85  C   UNL A   1      51.247  25.924  29.097  1.00  0.00     0.006 A 
ENDBRANCH  61  78
ENDBRANCH  35  36
ENDBRANCH  27  30
ENDBRANCH  25  26
ENDBRANCH  24  25
ENDBRANCH   1  24
TORSDOF 15
ENDMDL
