MODEL 1
REMARK VINA RESULT:     -11.2      0.000      0.000
REMARK SMILES CC1(C)[C@@H](CCc2ccccc2)CC[C@]1(C)C(=O)NCCCCNC(=O)c1ccc(-c2c3nc(c(-c4c(F)cccc4F)c4ccc([nH]4)c(-c4c(F)cccc4F)c4nc(c(-c5c(F)cccc5F)c5ccc2[nH]5)C=C4)C=C3)cc1
REMARK SMILES IDX 21 1 20 2 19 3 17 4 18 5 15 7 1 8 2 9 3 10 4 11 13 12 14 13
REMARK SMILES IDX 16 14 5 15 6 16 7 17 8 18 12 19 9 20 11 21 10 22 22 23 23 24
REMARK SMILES IDX 24 25 25 26 26 28 27 29 28 30 80 31 29 32 79 33 30 34 31 35
REMARK SMILES IDX 32 36 73 37 33 38 78 39 72 40 74 41 34 42 77 43 71 44 70 45
REMARK SMILES IDX 35 47 61 48 44 49 60 50 45 51 48 52 59 53 75 54 46 55 47 56
REMARK SMILES IDX 58 58 76 59 49 60 36 61 37 62 42 63 38 64 39 65 41 66 43 67
REMARK SMILES IDX 40 68 62 69 63 70 68 71 64 72 65 73 67 74 69 75 66 76 50 77
REMARK SMILES IDX 51 78 56 79 52 80 53 81 55 82 57 83 54 84
REMARK H PARENT 19 6 24 27 74 46 48 57
REMARK Flexibility Score: inf
ROOT
ATOM      1  C   UNL A   1      32.681  29.294  25.030  1.00  0.00     0.023 C 
ENDROOT
BRANCH   1   2
ATOM      2  C   UNL A   1      32.147  28.002  24.416  1.00  0.00     0.116 C 
BRANCH   2   3
ATOM      3  N   UNL A   1      31.255  27.326  25.333  1.00  0.00    -0.356 N 
ATOM      4  C   UNL A   1      31.133  26.016  25.687  1.00  0.00     0.226 C 
ATOM      5  O   UNL A   1      30.217  25.757  26.472  1.00  0.00    -0.274 OA
ATOM      6  H   UNL A   1      30.617  27.924  25.785  1.00  0.00     0.163 HD
BRANCH   4   7
ATOM      7  C   UNL A   1      32.125  24.930  25.199  1.00  0.00     0.052 C 
ATOM      8  C   UNL A   1      32.483  25.353  22.539  1.00  0.00     0.012 C 
ATOM      9  C   UNL A   1      31.989  24.486  23.692  1.00  0.00    -0.018 C 
ATOM     10  C   UNL A   1      30.461  24.293  23.373  1.00  0.00     0.012 C 
ATOM     11  C   UNL A   1      32.707  23.101  23.654  1.00  0.00    -0.004 C 
ATOM     12  C   UNL A   1      32.167  22.434  24.938  1.00  0.00     0.005 C 
ATOM     13  C   UNL A   1      31.831  23.567  25.924  1.00  0.00     0.017 C 
ATOM     14  C   UNL A   1      33.501  25.362  25.719  1.00  0.00     0.022 C 
BRANCH  11  15
ATOM     15  C   UNL A   1      34.267  22.915  23.607  1.00  0.00     0.009 C 
BRANCH  15  16
ATOM     16  C   UNL A   1      35.049  21.797  24.350  1.00  0.00     0.036 C 
BRANCH  16  17
ATOM     17  C   UNL A   1      36.410  22.186  24.907  1.00  0.00    -0.048 A 
ATOM     18  C   UNL A   1      37.451  21.246  24.991  1.00  0.00     0.004 A 
ATOM     19  C   UNL A   1      36.662  23.485  25.376  1.00  0.00     0.004 A 
ATOM     20  C   UNL A   1      38.634  21.544  25.673  1.00  0.00     0.000 A 
ATOM     21  C   UNL A   1      37.847  23.786  26.056  1.00  0.00     0.000 A 
ATOM     22  C   UNL A   1      38.820  22.806  26.232  1.00  0.00     0.000 A 
ENDBRANCH  16  17
ENDBRANCH  15  16
ENDBRANCH  11  15
ENDBRANCH   4   7
ENDBRANCH   2   3
ENDBRANCH   1   2
BRANCH   1  23
ATOM     23  C   UNL A   1      33.985  29.115  25.789  1.00  0.00     0.023 C 
BRANCH  23  24
ATOM     24  C   UNL A   1      33.811  29.016  27.296  1.00  0.00     0.116 C 
BRANCH  24  25
ATOM     25  N   UNL A   1      33.850  30.309  27.971  1.00  0.00    -0.352 N 
ATOM     26  C   UNL A   1      34.899  30.872  28.663  1.00  0.00     0.251 C 
ATOM     27  H   UNL A   1      33.025  30.844  27.926  1.00  0.00     0.163 HD
ATOM     28  O   UNL A   1      34.769  31.921  29.273  1.00  0.00    -0.269 OA
BRANCH  26  29
ATOM     29  C   UNL A   1      36.180  30.141  28.680  1.00  0.00     0.039 A 
ATOM     30  C   UNL A   1      37.039  30.257  27.588  1.00  0.00     0.014 A 
ATOM     31  C   UNL A   1      36.575  29.470  29.841  1.00  0.00     0.014 A 
ATOM     32  C   UNL A   1      38.344  29.774  27.697  1.00  0.00     0.010 A 
ATOM     33  C   UNL A   1      37.898  29.080  29.980  1.00  0.00     0.010 A 
ATOM     34  C   UNL A   1      38.796  29.230  28.911  1.00  0.00    -0.014 A 
BRANCH  34  35
ATOM     35  C   UNL A   1      40.207  28.813  29.094  1.00  0.00     0.031 A 
ATOM     36  C   UNL A   1      41.194  29.770  29.700  1.00  0.00     0.074 A 
ATOM     37  C   UNL A   1      40.617  27.612  28.641  1.00  0.00     0.049 A 
ATOM     38  N   UNL A   1      42.483  29.631  29.872  1.00  0.00    -0.248 NA
ATOM     39  C   UNL A   1      40.665  31.072  30.134  1.00  0.00     0.031 C 
ATOM     40  C   UNL A   1      39.769  26.617  27.982  1.00  0.00     0.029 A 
ATOM     41  N   UNL A   1      41.859  27.028  28.661  1.00  0.00    -0.354 N 
ATOM     42  C   UNL A   1      42.918  30.832  30.416  1.00  0.00     0.074 A 
ATOM     43  C   UNL A   1      41.772  31.710  30.480  1.00  0.00     0.031 C 
ATOM     44  C   UNL A   1      40.506  25.532  27.695  1.00  0.00     0.029 A 
ATOM     45  C   UNL A   1      41.884  25.769  28.112  1.00  0.00     0.049 A 
ATOM     46  H   UNL A   1      42.656  27.470  29.033  1.00  0.00     0.167 HD
ATOM     47  C   UNL A   1      44.157  31.163  30.851  1.00  0.00     0.037 A 
ATOM     48  C   UNL A   1      42.906  24.904  27.966  1.00  0.00     0.037 A 
ATOM     49  C   UNL A   1      45.288  30.278  30.812  1.00  0.00     0.049 A 
ATOM     50  C   UNL A   1      44.274  25.295  28.449  1.00  0.00     0.074 A 
ATOM     51  C   UNL A   1      46.569  30.490  31.290  1.00  0.00     0.029 A 
ATOM     52  N   UNL A   1      45.273  29.006  30.256  1.00  0.00    -0.354 N 
ATOM     53  N   UNL A   1      44.659  26.406  29.030  1.00  0.00    -0.248 NA
ATOM     54  C   UNL A   1      45.349  24.312  28.259  1.00  0.00     0.031 C 
ATOM     55  C   UNL A   1      47.340  29.363  30.986  1.00  0.00     0.029 A 
ATOM     56  C   UNL A   1      46.528  28.431  30.358  1.00  0.00     0.049 A 
ATOM     57  H   UNL A   1      44.486  28.577  29.849  1.00  0.00     0.167 HD
ATOM     58  C   UNL A   1      46.012  26.247  29.297  1.00  0.00     0.074 A 
ATOM     59  C   UNL A   1      46.378  24.926  28.825  1.00  0.00     0.031 C 
ATOM     60  C   UNL A   1      46.874  27.115  29.882  1.00  0.00     0.037 A 
BRANCH  47  61
ATOM     61  C   UNL A   1      44.334  32.545  31.411  1.00  0.00     0.057 A 
ATOM     62  C   UNL A   1      44.123  32.826  32.767  1.00  0.00     0.134 A 
ATOM     63  C   UNL A   1      44.709  33.610  30.582  1.00  0.00     0.134 A 
ATOM     64  F   UNL A   1      43.746  31.855  33.613  1.00  0.00    -0.206 F 
ATOM     65  C   UNL A   1      44.237  34.123  33.272  1.00  0.00     0.040 A 
ATOM     66  C   UNL A   1      44.856  34.905  31.080  1.00  0.00     0.040 A 
ATOM     67  F   UNL A   1      44.931  33.410  29.274  1.00  0.00    -0.206 F 
ATOM     68  C   UNL A   1      44.609  35.167  32.427  1.00  0.00     0.006 A 
ENDBRANCH  47  61
BRANCH  48  69
ATOM     69  C   UNL A   1      42.662  23.566  27.374  1.00  0.00     0.057 A 
ATOM     70  C   UNL A   1      42.299  22.481  28.182  1.00  0.00     0.134 A 
ATOM     71  C   UNL A   1      42.770  23.337  25.997  1.00  0.00     0.134 A 
ATOM     72  F   UNL A   1      42.196  22.634  29.510  1.00  0.00    -0.206 F 
ATOM     73  C   UNL A   1      42.063  21.215  27.644  1.00  0.00     0.040 A 
ATOM     74  C   UNL A   1      42.518  22.081  25.443  1.00  0.00     0.040 A 
ATOM     75  F   UNL A   1      43.108  24.337  25.170  1.00  0.00    -0.206 F 
ATOM     76  C   UNL A   1      42.167  21.014  26.269  1.00  0.00     0.006 A 
ENDBRANCH  48  69
BRANCH  60  77
ATOM     77  C   UNL A   1      48.289  26.655  30.069  1.00  0.00     0.057 A 
ATOM     78  C   UNL A   1      49.287  26.939  29.130  1.00  0.00     0.134 A 
ATOM     79  C   UNL A   1      48.664  25.956  31.224  1.00  0.00     0.134 A 
ATOM     80  F   UNL A   1      48.990  27.592  27.997  1.00  0.00    -0.206 F 
ATOM     81  C   UNL A   1      50.608  26.530  29.326  1.00  0.00     0.040 A 
ATOM     82  C   UNL A   1      49.985  25.564  31.442  1.00  0.00     0.040 A 
ATOM     83  F   UNL A   1      47.756  25.659  32.166  1.00  0.00    -0.206 F 
ATOM     84  C   UNL A   1      50.961  25.847  30.489  1.00  0.00     0.006 A 
ENDBRANCH  60  77
ENDBRANCH  34  35
ENDBRANCH  26  29
ENDBRANCH  24  25
ENDBRANCH  23  24
ENDBRANCH   1  23
TORSDOF 14
ENDMDL
MODEL 2
REMARK VINA RESULT:     -11.2      2.400      7.610
REMARK SMILES CC1(C)[C@@H](CCc2ccccc2)CC[C@]1(C)C(=O)NCCCCNC(=O)c1ccc(-c2c3nc(c(-c4c(F)cccc4F)c4ccc([nH]4)c(-c4c(F)cccc4F)c4nc(c(-c5c(F)cccc5F)c5ccc2[nH]5)C=C4)C=C3)cc1
REMARK SMILES IDX 21 1 20 2 19 3 17 4 18 5 15 7 1 8 2 9 3 10 4 11 13 12 14 13
REMARK SMILES IDX 16 14 5 15 6 16 7 17 8 18 12 19 9 20 11 21 10 22 22 23 23 24
REMARK SMILES IDX 24 25 25 26 26 28 27 29 28 30 80 31 29 32 79 33 30 34 31 35
REMARK SMILES IDX 32 36 73 37 33 38 78 39 72 40 74 41 34 42 77 43 71 44 70 45
REMARK SMILES IDX 35 47 61 48 44 49 60 50 45 51 48 52 59 53 75 54 46 55 47 56
REMARK SMILES IDX 58 58 76 59 49 60 36 61 37 62 42 63 38 64 39 65 41 66 43 67
REMARK SMILES IDX 40 68 62 69 63 70 68 71 64 72 65 73 67 74 69 75 66 76 50 77
REMARK SMILES IDX 51 78 56 79 52 80 53 81 55 82 57 83 54 84
REMARK H PARENT 19 6 24 27 74 46 48 57
REMARK Flexibility Score: inf
ROOT
ATOM      1  C   UNL A   1      36.340  21.258  25.426  1.00  0.00     0.023 C 
ENDROOT
BRANCH   1   2
ATOM      2  C   UNL A   1      35.916  22.699  25.154  1.00  0.00     0.116 C 
BRANCH   2   3
ATOM      3  N   UNL A   1      35.542  22.873  23.768  1.00  0.00    -0.356 N 
ATOM      4  C   UNL A   1      34.386  23.296  23.182  1.00  0.00     0.226 C 
ATOM      5  O   UNL A   1      34.374  23.279  21.948  1.00  0.00    -0.274 OA
ATOM      6  H   UNL A   1      36.254  22.644  23.128  1.00  0.00     0.163 HD
BRANCH   4   7
ATOM      7  C   UNL A   1      33.189  23.835  24.005  1.00  0.00     0.052 C 
ATOM      8  C   UNL A   1      32.810  22.087  26.051  1.00  0.00     0.012 C 
ATOM      9  C   UNL A   1      32.326  22.760  24.771  1.00  0.00    -0.018 C 
ATOM     10  C   UNL A   1      32.072  21.551  23.799  1.00  0.00     0.012 C 
ATOM     11  C   UNL A   1      30.979  23.500  25.043  1.00  0.00    -0.004 C 
ATOM     12  C   UNL A   1      30.725  24.194  23.687  1.00  0.00     0.005 C 
ATOM     13  C   UNL A   1      32.102  24.439  23.044  1.00  0.00     0.017 C 
ATOM     14  C   UNL A   1      33.732  25.037  24.787  1.00  0.00     0.022 C 
BRANCH  11  15
ATOM     15  C   UNL A   1      30.762  24.548  26.194  1.00  0.00     0.009 C 
BRANCH  15  16
ATOM     16  C   UNL A   1      30.078  25.931  26.017  1.00  0.00     0.036 C 
BRANCH  16  17
ATOM     17  C   UNL A   1      31.001  27.140  25.996  1.00  0.00    -0.048 A 
ATOM     18  C   UNL A   1      31.572  27.632  27.182  1.00  0.00     0.004 A 
ATOM     19  C   UNL A   1      31.292  27.815  24.800  1.00  0.00     0.004 A 
ATOM     20  C   UNL A   1      32.262  28.848  27.195  1.00  0.00     0.000 A 
ATOM     21  C   UNL A   1      31.986  29.030  24.811  1.00  0.00     0.000 A 
ATOM     22  C   UNL A   1      32.444  29.562  26.014  1.00  0.00     0.000 A 
ENDBRANCH  16  17
ENDBRANCH  15  16
ENDBRANCH  11  15
ENDBRANCH   4   7
ENDBRANCH   2   3
ENDBRANCH   1   2
BRANCH   1  23
ATOM     23  C   UNL A   1      37.687  20.894  24.822  1.00  0.00     0.023 C 
BRANCH  23  24
ATOM     24  C   UNL A   1      38.841  20.958  25.810  1.00  0.00     0.116 C 
BRANCH  24  25
ATOM     25  N   UNL A   1      39.742  19.814  25.724  1.00  0.00    -0.352 N 
ATOM     26  C   UNL A   1      41.086  19.771  26.020  1.00  0.00     0.251 C 
ATOM     27  H   UNL A   1      39.340  18.970  25.416  1.00  0.00     0.163 HD
ATOM     28  O   UNL A   1      41.753  18.772  25.807  1.00  0.00    -0.269 OA
BRANCH  26  29
ATOM     29  C   UNL A   1      41.707  20.993  26.566  1.00  0.00     0.039 A 
ATOM     30  C   UNL A   1      42.172  21.968  25.683  1.00  0.00     0.014 A 
ATOM     31  C   UNL A   1      41.686  21.220  27.944  1.00  0.00     0.014 A 
ATOM     32  C   UNL A   1      42.533  23.219  26.183  1.00  0.00     0.010 A 
ATOM     33  C   UNL A   1      41.951  22.493  28.425  1.00  0.00     0.010 A 
ATOM     34  C   UNL A   1      42.375  23.505  27.550  1.00  0.00    -0.014 A 
BRANCH  34  35
ATOM     35  C   UNL A   1      42.641  24.860  28.092  1.00  0.00     0.031 A 
ATOM     36  C   UNL A   1      44.028  25.225  28.534  1.00  0.00     0.074 A 
ATOM     37  C   UNL A   1      41.624  25.727  28.263  1.00  0.00     0.049 A 
ATOM     38  N   UNL A   1      44.453  26.322  29.105  1.00  0.00    -0.248 NA
ATOM     39  C   UNL A   1      45.071  24.204  28.342  1.00  0.00     0.031 C 
ATOM     40  C   UNL A   1      40.222  25.469  27.928  1.00  0.00     0.029 A 
ATOM     41  N   UNL A   1      41.615  27.001  28.771  1.00  0.00    -0.354 N 
ATOM     42  C   UNL A   1      45.803  26.114  29.357  1.00  0.00     0.074 A 
ATOM     43  C   UNL A   1      46.110  24.764  28.940  1.00  0.00     0.031 C 
ATOM     44  C   UNL A   1      39.496  26.565  28.204  1.00  0.00     0.029 A 
ATOM     45  C   UNL A   1      40.371  27.586  28.771  1.00  0.00     0.049 A 
ATOM     46  H   UNL A   1      42.422  27.454  29.104  1.00  0.00     0.167 HD
ATOM     47  C   UNL A   1      46.713  26.981  29.861  1.00  0.00     0.037 A 
ATOM     48  C   UNL A   1      39.985  28.809  29.181  1.00  0.00     0.037 A 
ATOM     49  C   UNL A   1      46.410  28.331  30.249  1.00  0.00     0.049 A 
ATOM     50  C   UNL A   1      41.009  29.752  29.745  1.00  0.00     0.074 A 
ATOM     51  C   UNL A   1      47.271  29.312  30.707  1.00  0.00     0.029 A 
ATOM     52  N   UNL A   1      45.140  28.890  30.227  1.00  0.00    -0.354 N 
ATOM     53  N   UNL A   1      42.298  29.571  29.910  1.00  0.00    -0.248 NA
ATOM     54  C   UNL A   1      40.527  31.070  30.180  1.00  0.00     0.031 C 
ATOM     55  C   UNL A   1      46.515  30.452  31.000  1.00  0.00     0.029 A 
ATOM     56  C   UNL A   1      45.191  30.196  30.684  1.00  0.00     0.049 A 
ATOM     57  H   UNL A   1      44.324  28.426  29.929  1.00  0.00     0.167 HD
ATOM     58  C   UNL A   1      42.784  30.756  30.442  1.00  0.00     0.074 A 
ATOM     59  C   UNL A   1      41.653  31.655  30.561  1.00  0.00     0.031 C 
ATOM     60  C   UNL A   1      44.054  31.075  30.797  1.00  0.00     0.037 A 
BRANCH  47  61
ATOM     61  C   UNL A   1      48.120  26.478  30.012  1.00  0.00     0.057 A 
ATOM     62  C   UNL A   1      49.065  26.608  28.986  1.00  0.00     0.134 A 
ATOM     63  C   UNL A   1      48.532  25.849  31.193  1.00  0.00     0.134 A 
ATOM     64  F   UNL A   1      48.730  27.187  27.822  1.00  0.00    -0.206 F 
ATOM     65  C   UNL A   1      50.356  26.092  29.110  1.00  0.00     0.040 A 
ATOM     66  C   UNL A   1      49.829  25.355  31.341  1.00  0.00     0.040 A 
ATOM     67  F   UNL A   1      47.679  25.695  32.217  1.00  0.00    -0.206 F 
ATOM     68  C   UNL A   1      50.742  25.467  30.294  1.00  0.00     0.006 A 
ENDBRANCH  47  61
BRANCH  48  69
ATOM     69  C   UNL A   1      38.568  29.225  29.031  1.00  0.00     0.057 A 
ATOM     70  C   UNL A   1      38.075  29.648  27.791  1.00  0.00     0.134 A 
ATOM     71  C   UNL A   1      37.674  29.199  30.107  1.00  0.00     0.134 A 
ATOM     72  F   UNL A   1      38.889  29.711  26.727  1.00  0.00    -0.206 F 
ATOM     73  C   UNL A   1      36.746  30.042  27.629  1.00  0.00     0.040 A 
ATOM     74  C   UNL A   1      36.337  29.570  29.954  1.00  0.00     0.040 A 
ATOM     75  F   UNL A   1      38.084  28.797  31.319  1.00  0.00    -0.206 F 
ATOM     76  C   UNL A   1      35.870  29.998  28.712  1.00  0.00     0.006 A 
ENDBRANCH  48  69
BRANCH  60  77
ATOM     77  C   UNL A   1      44.292  32.459  31.323  1.00  0.00     0.057 A 
ATOM     78  C   UNL A   1      44.563  33.536  30.470  1.00  0.00     0.134 A 
ATOM     79  C   UNL A   1      44.206  32.724  32.696  1.00  0.00     0.134 A 
ATOM     80  F   UNL A   1      44.673  33.346  29.148  1.00  0.00    -0.206 F 
ATOM     81  C   UNL A   1      44.756  34.827  30.967  1.00  0.00     0.040 A 
ATOM     82  C   UNL A   1      44.371  34.013  33.201  1.00  0.00     0.040 A 
ATOM     83  F   UNL A   1      43.941  31.737  33.565  1.00  0.00    -0.206 F 
ATOM     84  C   UNL A   1      44.653  35.069  32.336  1.00  0.00     0.006 A 
ENDBRANCH  60  77
ENDBRANCH  34  35
ENDBRANCH  26  29
ENDBRANCH  24  25
ENDBRANCH  23  24
ENDBRANCH   1  23
TORSDOF 14
ENDMDL
MODEL 3
REMARK VINA RESULT:     -11.0      3.608      5.209
REMARK SMILES CC1(C)[C@@H](CCc2ccccc2)CC[C@]1(C)C(=O)NCCCCNC(=O)c1ccc(-c2c3nc(c(-c4c(F)cccc4F)c4ccc([nH]4)c(-c4c(F)cccc4F)c4nc(c(-c5c(F)cccc5F)c5ccc2[nH]5)C=C4)C=C3)cc1
REMARK SMILES IDX 21 1 20 2 19 3 17 4 18 5 15 7 1 8 2 9 3 10 4 11 13 12 14 13
REMARK SMILES IDX 16 14 5 15 6 16 7 17 8 18 12 19 9 20 11 21 10 22 22 23 23 24
REMARK SMILES IDX 24 25 25 26 26 28 27 29 28 30 80 31 29 32 79 33 30 34 31 35
REMARK SMILES IDX 32 36 73 37 33 38 78 39 72 40 74 41 34 42 77 43 71 44 70 45
REMARK SMILES IDX 35 47 61 48 44 49 60 50 45 51 48 52 59 53 75 54 46 55 47 56
REMARK SMILES IDX 58 58 76 59 49 60 36 61 37 62 42 63 38 64 39 65 41 66 43 67
REMARK SMILES IDX 40 68 62 69 63 70 68 71 64 72 65 73 67 74 69 75 66 76 50 77
REMARK SMILES IDX 51 78 56 79 52 80 53 81 55 82 57 83 54 84
REMARK H PARENT 19 6 24 27 74 46 48 57
REMARK Flexibility Score: inf
ROOT
ATOM      1  C   UNL A   1      32.483  30.330  26.192  1.00  0.00     0.023 C 
ENDROOT
BRANCH   1   2
ATOM      2  C   UNL A   1      31.393  29.372  25.720  1.00  0.00     0.116 C 
BRANCH   2   3
ATOM      3  N   UNL A   1      31.020  29.650  24.350  1.00  0.00    -0.356 N 
ATOM      4  C   UNL A   1      31.152  28.925  23.204  1.00  0.00     0.226 C 
ATOM      5  O   UNL A   1      30.772  29.482  22.171  1.00  0.00    -0.274 OA
ATOM      6  H   UNL A   1      30.592  30.527  24.222  1.00  0.00     0.163 HD
BRANCH   4   7
ATOM      7  C   UNL A   1      31.673  27.466  23.203  1.00  0.00     0.052 C 
ATOM      8  C   UNL A   1      33.991  27.474  24.620  1.00  0.00     0.012 C 
ATOM      9  C   UNL A   1      33.236  27.281  23.309  1.00  0.00    -0.018 C 
ATOM     10  C   UNL A   1      33.919  28.314  22.340  1.00  0.00     0.012 C 
ATOM     11  C   UNL A   1      33.469  25.833  22.775  1.00  0.00    -0.004 C 
ATOM     12  C   UNL A   1      32.549  25.806  21.535  1.00  0.00     0.005 C 
ATOM     13  C   UNL A   1      31.403  26.798  21.806  1.00  0.00     0.017 C 
ATOM     14  C   UNL A   1      30.772  26.703  24.181  1.00  0.00     0.022 C 
BRANCH  11  15
ATOM     15  C   UNL A   1      33.221  24.529  23.617  1.00  0.00     0.009 C 
BRANCH  15  16
ATOM     16  C   UNL A   1      34.035  23.214  23.476  1.00  0.00     0.036 C 
BRANCH  16  17
ATOM     17  C   UNL A   1      35.372  23.171  24.200  1.00  0.00    -0.048 A 
ATOM     18  C   UNL A   1      36.337  22.203  23.877  1.00  0.00     0.004 A 
ATOM     19  C   UNL A   1      35.674  24.078  25.229  1.00  0.00     0.004 A 
ATOM     20  C   UNL A   1      37.482  22.039  24.663  1.00  0.00     0.000 A 
ATOM     21  C   UNL A   1      36.821  23.918  26.014  1.00  0.00     0.000 A 
ATOM     22  C   UNL A   1      37.709  22.878  25.751  1.00  0.00     0.000 A 
ENDBRANCH  16  17
ENDBRANCH  15  16
ENDBRANCH  11  15
ENDBRANCH   4   7
ENDBRANCH   2   3
ENDBRANCH   1   2
BRANCH   1  23
ATOM     23  C   UNL A   1      31.947  31.646  26.732  1.00  0.00     0.023 C 
BRANCH  23  24
ATOM     24  C   UNL A   1      33.016  32.549  27.325  1.00  0.00     0.116 C 
BRANCH  24  25
ATOM     25  N   UNL A   1      32.545  33.900  27.607  1.00  0.00    -0.352 N 
ATOM     26  C   UNL A   1      33.026  34.787  28.544  1.00  0.00     0.251 C 
ATOM     27  H   UNL A   1      31.790  34.216  27.060  1.00  0.00     0.163 HD
ATOM     28  O   UNL A   1      32.473  35.855  28.752  1.00  0.00    -0.269 OA
BRANCH  26  29
ATOM     29  C   UNL A   1      34.211  34.384  29.324  1.00  0.00     0.039 A 
ATOM     30  C   UNL A   1      34.028  33.735  30.544  1.00  0.00     0.014 A 
ATOM     31  C   UNL A   1      35.484  34.524  28.765  1.00  0.00     0.014 A 
ATOM     32  C   UNL A   1      35.125  33.137  31.166  1.00  0.00     0.010 A 
ATOM     33  C   UNL A   1      36.551  33.846  29.334  1.00  0.00     0.010 A 
ATOM     34  C   UNL A   1      36.383  33.145  30.538  1.00  0.00    -0.014 A 
BRANCH  34  35
ATOM     35  C   UNL A   1      37.540  32.422  31.118  1.00  0.00     0.031 A 
ATOM     36  C   UNL A   1      38.156  32.907  32.398  1.00  0.00     0.074 A 
ATOM     37  C   UNL A   1      38.086  31.385  30.453  1.00  0.00     0.049 A 
ATOM     38  N   UNL A   1      39.216  32.467  33.026  1.00  0.00    -0.248 NA
ATOM     39  C   UNL A   1      37.516  34.067  33.038  1.00  0.00     0.031 C 
ATOM     40  C   UNL A   1      37.616  30.855  29.171  1.00  0.00     0.029 A 
ATOM     41  N   UNL A   1      39.164  30.595  30.763  1.00  0.00    -0.354 N 
ATOM     42  C   UNL A   1      39.378  33.307  34.119  1.00  0.00     0.074 A 
ATOM     43  C   UNL A   1      38.351  34.322  34.032  1.00  0.00     0.031 C 
ATOM     44  C   UNL A   1      38.378  29.805  28.824  1.00  0.00     0.029 A 
ATOM     45  C   UNL A   1      39.413  29.612  29.835  1.00  0.00     0.049 A 
ATOM     46  H   UNL A   1      39.709  30.721  31.573  1.00  0.00     0.167 HD
ATOM     47  C   UNL A   1      40.282  33.224  35.124  1.00  0.00     0.037 A 
ATOM     48  C   UNL A   1      40.366  28.662  29.808  1.00  0.00     0.037 A 
ATOM     49  C   UNL A   1      41.284  32.197  35.222  1.00  0.00     0.049 A 
ATOM     50  C   UNL A   1      41.365  28.592  30.929  1.00  0.00     0.074 A 
ATOM     51  C   UNL A   1      42.203  31.981  36.233  1.00  0.00     0.029 A 
ATOM     52  N   UNL A   1      41.499  31.214  34.267  1.00  0.00    -0.354 N 
ATOM     53  N   UNL A   1      41.463  29.347  31.997  1.00  0.00    -0.248 NA
ATOM     54  C   UNL A   1      42.384  27.537  30.842  1.00  0.00     0.031 C 
ATOM     55  C   UNL A   1      43.001  30.892  35.870  1.00  0.00     0.029 A 
ATOM     56  C   UNL A   1      42.551  30.402  34.654  1.00  0.00     0.049 A 
ATOM     57  H   UNL A   1      40.979  31.109  33.437  1.00  0.00     0.167 HD
ATOM     58  C   UNL A   1      42.535  28.845  32.721  1.00  0.00     0.074 A 
ATOM     59  C   UNL A   1      43.048  27.712  31.975  1.00  0.00     0.031 C 
ATOM     60  C   UNL A   1      43.048  29.279  33.899  1.00  0.00     0.037 A 
BRANCH  47  61
ATOM     61  C   UNL A   1      40.212  34.276  36.192  1.00  0.00     0.057 A 
ATOM     62  C   UNL A   1      39.394  34.130  37.321  1.00  0.00     0.134 A 
ATOM     63  C   UNL A   1      40.962  35.454  36.087  1.00  0.00     0.134 A 
ATOM     64  F   UNL A   1      38.636  33.033  37.475  1.00  0.00    -0.206 F 
ATOM     65  C   UNL A   1      39.290  35.135  38.284  1.00  0.00     0.040 A 
ATOM     66  C   UNL A   1      40.891  36.453  37.059  1.00  0.00     0.040 A 
ATOM     67  F   UNL A   1      41.768  35.656  35.034  1.00  0.00    -0.206 F 
ATOM     68  C   UNL A   1      40.045  36.299  38.156  1.00  0.00     0.006 A 
ENDBRANCH  47  61
BRANCH  48  69
ATOM     69  C   UNL A   1      40.394  27.674  28.701  1.00  0.00     0.057 A 
ATOM     70  C   UNL A   1      39.642  26.496  28.776  1.00  0.00     0.134 A 
ATOM     71  C   UNL A   1      41.154  27.883  27.545  1.00  0.00     0.134 A 
ATOM     72  F   UNL A   1      38.907  26.233  29.866  1.00  0.00    -0.206 F 
ATOM     73  C   UNL A   1      39.652  25.555  27.745  1.00  0.00     0.040 A 
ATOM     74  C   UNL A   1      41.158  26.960  26.498  1.00  0.00     0.040 A 
ATOM     75  F   UNL A   1      41.891  28.995  27.411  1.00  0.00    -0.206 F 
ATOM     76  C   UNL A   1      40.409  25.789  26.598  1.00  0.00     0.006 A 
ENDBRANCH  48  69
BRANCH  60  77
ATOM     77  C   UNL A   1      44.206  28.514  34.466  1.00  0.00     0.057 A 
ATOM     78  C   UNL A   1      44.019  27.395  35.287  1.00  0.00     0.134 A 
ATOM     79  C   UNL A   1      45.522  28.876  34.152  1.00  0.00     0.134 A 
ATOM     80  F   UNL A   1      42.785  27.007  35.637  1.00  0.00    -0.206 F 
ATOM     81  C   UNL A   1      45.103  26.672  35.789  1.00  0.00     0.040 A 
ATOM     82  C   UNL A   1      46.612  28.146  34.626  1.00  0.00     0.040 A 
ATOM     83  F   UNL A   1      45.769  29.933  33.364  1.00  0.00    -0.206 F 
ATOM     84  C   UNL A   1      46.404  27.043  35.452  1.00  0.00     0.006 A 
ENDBRANCH  60  77
ENDBRANCH  34  35
ENDBRANCH  26  29
ENDBRANCH  24  25
ENDBRANCH  23  24
ENDBRANCH   1  23
TORSDOF 14
ENDMDL
