MODEL 1
REMARK VINA RESULT:     -10.7      0.000      0.000
REMARK SMILES COC[C@@H](C)N(C)C(=O)N1CCC(CC(=O)NCCCCNC(=O)c2ccc(-c3c4nc(c(-c5c(F)cccc5F)c5ccc([nH]5)c(-c5c(F)cccc5F)c5nc(c(-c6c(F)cccc6F)c6ccc3[nH]6)C=C5)C=C4)cc2)CC1
REMARK SMILES IDX 18 1 17 2 15 3 16 4 14 6 13 7 8 8 9 9 10 10 11 11 80 12
REMARK SMILES IDX 12 13 79 14 6 15 7 16 4 17 5 18 3 19 2 20 1 21 19 22 20 23
REMARK SMILES IDX 21 24 22 25 23 26 24 28 25 29 26 30 78 31 27 32 77 33 28 34
REMARK SMILES IDX 29 35 30 36 71 37 31 38 76 39 70 40 72 41 32 42 75 43 69 44
REMARK SMILES IDX 68 45 33 47 59 48 42 49 58 50 43 51 46 52 57 53 73 54 44 55
REMARK SMILES IDX 45 56 56 58 74 59 47 60 34 61 35 62 40 63 36 64 37 65 39 66
REMARK SMILES IDX 41 67 38 68 60 69 61 70 66 71 62 72 63 73 65 74 67 75 64 76
REMARK SMILES IDX 48 77 49 78 54 79 50 80 51 81 53 82 55 83 52 84
REMARK H PARENT 17 5 22 27 72 46 46 57
REMARK Flexibility Score: inf
ROOT
ATOM      1  C   UNL A   1      35.571  20.447  24.995  1.00  0.00     0.116 C 
ENDROOT
BRANCH   1   2
ATOM      2  N   UNL A   1      34.348  19.675  25.150  1.00  0.00    -0.356 N 
ATOM      3  C   UNL A   1      33.063  19.967  24.790  1.00  0.00     0.220 C 
ATOM      4  O   UNL A   1      32.180  19.159  25.081  1.00  0.00    -0.275 OA
ATOM      5  H   UNL A   1      34.466  18.800  25.585  1.00  0.00     0.163 HD
BRANCH   3   6
ATOM      6  C   UNL A   1      32.723  21.262  24.062  1.00  0.00     0.103 C 
BRANCH   6   7
ATOM      7  C   UNL A   1      31.944  22.278  24.928  1.00  0.00     0.002 C 
ATOM      8  C   UNL A   1      32.638  26.094  25.841  1.00  0.00     0.320 C 
ATOM      9  O   UNL A   1      33.849  25.980  25.668  1.00  0.00    -0.248 OA
ATOM     10  N   UNL A   1      31.820  24.992  25.992  1.00  0.00    -0.325 N 
ATOM     11  C   UNL A   1      32.239  23.929  26.870  1.00  0.00     0.121 C 
ATOM     12  C   UNL A   1      30.885  24.607  24.944  1.00  0.00     0.121 C 
ATOM     13  C   UNL A   1      32.810  22.767  26.087  1.00  0.00     0.026 C 
ATOM     14  C   UNL A   1      31.460  23.472  24.083  1.00  0.00     0.026 C 
BRANCH   8  15
ATOM     15  N   UNL A   1      31.998  27.319  25.985  1.00  0.00    -0.323 N 
ATOM     16  C   UNL A   1      31.425  27.748  27.254  1.00  0.00     0.149 C 
BRANCH  15  17
ATOM     17  C   UNL A   1      32.026  28.314  24.890  1.00  0.00     0.109 C 
ATOM     18  C   UNL A   1      32.378  29.704  25.422  1.00  0.00     0.033 C 
BRANCH  17  19
ATOM     19  C   UNL A   1      30.726  28.297  24.051  1.00  0.00     0.184 C 
BRANCH  19  20
ATOM     20  O   UNL A   1      30.766  29.187  22.930  1.00  0.00    -0.383 OA
ATOM     21  C   UNL A   1      29.500  29.412  22.326  1.00  0.00     0.194 C 
ENDBRANCH  19  20
ENDBRANCH  17  19
ENDBRANCH  15  17
ENDBRANCH   8  15
ENDBRANCH   6   7
ENDBRANCH   3   6
ENDBRANCH   1   2
BRANCH   1  22
ATOM     22  C   UNL A   1      36.818  19.556  25.002  1.00  0.00     0.023 C 
BRANCH  22  23
ATOM     23  C   UNL A   1      38.134  20.266  24.739  1.00  0.00     0.023 C 
BRANCH  23  24
ATOM     24  C   UNL A   1      39.082  20.266  25.921  1.00  0.00     0.116 C 
BRANCH  24  25
ATOM     25  N   UNL A   1      40.055  19.180  25.890  1.00  0.00    -0.352 N 
ATOM     26  C   UNL A   1      41.418  19.241  26.063  1.00  0.00     0.251 C 
ATOM     27  H   UNL A   1      39.686  18.282  25.723  1.00  0.00     0.163 HD
ATOM     28  O   UNL A   1      42.119  18.250  25.922  1.00  0.00    -0.269 OA
BRANCH  26  29
ATOM     29  C   UNL A   1      42.029  20.548  26.376  1.00  0.00     0.039 A 
ATOM     30  C   UNL A   1      42.363  21.410  25.331  1.00  0.00     0.014 A 
ATOM     31  C   UNL A   1      42.172  20.950  27.706  1.00  0.00     0.014 A 
ATOM     32  C   UNL A   1      42.760  22.714  25.622  1.00  0.00     0.010 A 
ATOM     33  C   UNL A   1      42.455  22.277  27.988  1.00  0.00     0.010 A 
ATOM     34  C   UNL A   1      42.762  23.170  26.950  1.00  0.00    -0.014 A 
BRANCH  34  35
ATOM     35  C   UNL A   1      43.109  24.570  27.294  1.00  0.00     0.031 A 
ATOM     36  C   UNL A   1      44.546  25.009  27.236  1.00  0.00     0.074 A 
ATOM     37  C   UNL A   1      42.155  25.412  27.738  1.00  0.00     0.049 A 
ATOM     38  N   UNL A   1      45.080  26.145  27.602  1.00  0.00    -0.248 NA
ATOM     39  C   UNL A   1      45.520  24.020  26.741  1.00  0.00     0.031 C 
ATOM     40  C   UNL A   1      40.738  25.082  27.905  1.00  0.00     0.029 A 
ATOM     41  N   UNL A   1      42.240  26.719  28.144  1.00  0.00    -0.354 N 
ATOM     42  C   UNL A   1      46.448  25.992  27.414  1.00  0.00     0.074 A 
ATOM     43  C   UNL A   1      46.669  24.638  26.961  1.00  0.00     0.031 C 
ATOM     44  C   UNL A   1      40.083  26.168  28.349  1.00  0.00     0.029 A 
ATOM     45  C   UNL A   1      41.037  27.256  28.531  1.00  0.00     0.049 A 
ATOM     46  H   UNL A   1      43.085  27.225  28.157  1.00  0.00     0.167 HD
ATOM     47  C   UNL A   1      47.429  26.909  27.573  1.00  0.00     0.037 A 
ATOM     48  C   UNL A   1      40.741  28.490  28.981  1.00  0.00     0.037 A 
ATOM     49  C   UNL A   1      47.197  28.272  27.965  1.00  0.00     0.049 A 
ATOM     50  C   UNL A   1      41.843  29.506  29.104  1.00  0.00     0.074 A 
ATOM     51  C   UNL A   1      48.111  29.304  28.077  1.00  0.00     0.029 A 
ATOM     52  N   UNL A   1      45.956  28.793  28.295  1.00  0.00    -0.354 N 
ATOM     53  N   UNL A   1      43.123  29.369  28.857  1.00  0.00    -0.248 NA
ATOM     54  C   UNL A   1      41.458  30.849  29.560  1.00  0.00     0.031 C 
ATOM     55  C   UNL A   1      47.425  30.446  28.503  1.00  0.00     0.029 A 
ATOM     56  C   UNL A   1      46.079  30.132  28.622  1.00  0.00     0.049 A 
ATOM     57  H   UNL A   1      45.113  28.285  28.298  1.00  0.00     0.167 HD
ATOM     58  C   UNL A   1      43.692  30.612  29.101  1.00  0.00     0.074 A 
ATOM     59  C   UNL A   1      42.615  31.493  29.504  1.00  0.00     0.031 C 
ATOM     60  C   UNL A   1      44.990  30.990  29.005  1.00  0.00     0.037 A 
BRANCH  47  61
ATOM     61  C   UNL A   1      48.837  26.466  27.301  1.00  0.00     0.057 A 
ATOM     62  C   UNL A   1      49.655  25.948  28.315  1.00  0.00     0.134 A 
ATOM     63  C   UNL A   1      49.375  26.542  26.012  1.00  0.00     0.134 A 
ATOM     64  F   UNL A   1      49.205  25.866  29.576  1.00  0.00    -0.206 F 
ATOM     65  C   UNL A   1      50.968  25.551  28.060  1.00  0.00     0.040 A 
ATOM     66  C   UNL A   1      50.678  26.123  25.739  1.00  0.00     0.040 A 
ATOM     67  F   UNL A   1      48.644  27.025  24.996  1.00  0.00    -0.206 F 
ATOM     68  C   UNL A   1      51.481  25.631  26.767  1.00  0.00     0.006 A 
ENDBRANCH  47  61
BRANCH  48  69
ATOM     69  C   UNL A   1      39.339  28.848  29.312  1.00  0.00     0.057 A 
ATOM     70  C   UNL A   1      38.833  28.651  30.603  1.00  0.00     0.134 A 
ATOM     71  C   UNL A   1      38.470  29.382  28.354  1.00  0.00     0.134 A 
ATOM     72  F   UNL A   1      39.613  28.126  31.560  1.00  0.00    -0.206 F 
ATOM     73  C   UNL A   1      37.509  28.953  30.924  1.00  0.00     0.040 A 
ATOM     74  C   UNL A   1      37.150  29.709  28.666  1.00  0.00     0.040 A 
ATOM     75  F   UNL A   1      38.898  29.602  27.102  1.00  0.00    -0.206 F 
ATOM     76  C   UNL A   1      36.664  29.488  29.954  1.00  0.00     0.006 A 
ENDBRANCH  48  69
BRANCH  60  77
ATOM     77  C   UNL A   1      45.308  32.424  29.303  1.00  0.00     0.057 A 
ATOM     78  C   UNL A   1      45.226  33.416  28.318  1.00  0.00     0.134 A 
ATOM     79  C   UNL A   1      45.653  32.822  30.600  1.00  0.00     0.134 A 
ATOM     80  F   UNL A   1      44.911  33.095  27.055  1.00  0.00    -0.206 F 
ATOM     81  C   UNL A   1      45.495  34.753  28.611  1.00  0.00     0.040 A 
ATOM     82  C   UNL A   1      45.901  34.159  30.910  1.00  0.00     0.040 A 
ATOM     83  F   UNL A   1      45.739  31.919  31.590  1.00  0.00    -0.206 F 
ATOM     84  C   UNL A   1      45.826  35.128  29.912  1.00  0.00     0.006 A 
ENDBRANCH  60  77
ENDBRANCH  34  35
ENDBRANCH  26  29
ENDBRANCH  24  25
ENDBRANCH  23  24
ENDBRANCH  22  23
ENDBRANCH   1  22
TORSDOF 16
ENDMDL
MODEL 2
REMARK VINA RESULT:     -10.7      5.962     11.180
REMARK SMILES COC[C@@H](C)N(C)C(=O)N1CCC(CC(=O)NCCCCNC(=O)c2ccc(-c3c4nc(c(-c5c(F)cccc5F)c5ccc([nH]5)c(-c5c(F)cccc5F)c5nc(c(-c6c(F)cccc6F)c6ccc3[nH]6)C=C5)C=C4)cc2)CC1
REMARK SMILES IDX 18 1 17 2 15 3 16 4 14 6 13 7 8 8 9 9 10 10 11 11 80 12
REMARK SMILES IDX 12 13 79 14 6 15 7 16 4 17 5 18 3 19 2 20 1 21 19 22 20 23
REMARK SMILES IDX 21 24 22 25 23 26 24 28 25 29 26 30 78 31 27 32 77 33 28 34
REMARK SMILES IDX 29 35 30 36 71 37 31 38 76 39 70 40 72 41 32 42 75 43 69 44
REMARK SMILES IDX 68 45 33 47 59 48 42 49 58 50 43 51 46 52 57 53 73 54 44 55
REMARK SMILES IDX 45 56 56 58 74 59 47 60 34 61 35 62 40 63 36 64 37 65 39 66
REMARK SMILES IDX 41 67 38 68 60 69 61 70 66 71 62 72 63 73 65 74 67 75 64 76
REMARK SMILES IDX 48 77 49 78 54 79 50 80 51 81 53 82 55 83 52 84
REMARK H PARENT 17 5 22 27 72 46 46 57
REMARK Flexibility Score: inf
ROOT
ATOM      1  C   UNL A   1      34.405  32.318  28.071  1.00  0.00     0.116 C 
ENDROOT
BRANCH   1   2
ATOM      2  N   UNL A   1      35.659  31.595  27.929  1.00  0.00    -0.356 N 
ATOM      3  C   UNL A   1      35.900  30.262  27.754  1.00  0.00     0.220 C 
ATOM      4  O   UNL A   1      37.071  29.883  27.714  1.00  0.00    -0.275 OA
ATOM      5  H   UNL A   1      36.466  32.158  27.966  1.00  0.00     0.163 HD
BRANCH   3   6
ATOM      6  C   UNL A   1      34.755  29.263  27.628  1.00  0.00     0.103 C 
BRANCH   6   7
ATOM      7  C   UNL A   1      34.453  28.841  26.172  1.00  0.00     0.002 C 
ATOM      8  C   UNL A   1      31.118  27.578  24.395  1.00  0.00     0.320 C 
ATOM      9  O   UNL A   1      30.644  27.154  25.447  1.00  0.00    -0.248 OA
ATOM     10  N   UNL A   1      32.461  27.875  24.272  1.00  0.00    -0.325 N 
ATOM     11  C   UNL A   1      33.430  26.940  24.786  1.00  0.00     0.121 C 
ATOM     12  C   UNL A   1      32.915  29.255  24.170  1.00  0.00     0.121 C 
ATOM     13  C   UNL A   1      33.970  27.393  26.124  1.00  0.00     0.026 C 
ATOM     14  C   UNL A   1      33.409  29.774  25.529  1.00  0.00     0.026 C 
BRANCH   8  15
ATOM     15  N   UNL A   1      30.381  27.717  23.225  1.00  0.00    -0.323 N 
ATOM     16  C   UNL A   1      30.526  26.794  22.106  1.00  0.00     0.149 C 
BRANCH  15  17
ATOM     17  C   UNL A   1      29.290  28.712  23.138  1.00  0.00     0.109 C 
ATOM     18  C   UNL A   1      27.922  28.026  23.134  1.00  0.00     0.033 C 
BRANCH  17  19
ATOM     19  C   UNL A   1      29.483  29.689  21.954  1.00  0.00     0.184 C 
BRANCH  19  20
ATOM     20  O   UNL A   1      28.306  30.446  21.649  1.00  0.00    -0.383 OA
ATOM     21  C   UNL A   1      28.409  31.826  21.969  1.00  0.00     0.194 C 
ENDBRANCH  19  20
ENDBRANCH  17  19
ENDBRANCH  15  17
ENDBRANCH   8  15
ENDBRANCH   6   7
ENDBRANCH   3   6
ENDBRANCH   1   2
BRANCH   1  22
ATOM     22  C   UNL A   1      34.597  33.668  28.772  1.00  0.00     0.023 C 
BRANCH  22  23
ATOM     23  C   UNL A   1      33.360  34.543  28.861  1.00  0.00     0.023 C 
BRANCH  23  24
ATOM     24  C   UNL A   1      33.584  35.857  29.579  1.00  0.00     0.116 C 
BRANCH  24  25
ATOM     25  N   UNL A   1      32.547  36.176  30.553  1.00  0.00    -0.352 N 
ATOM     26  C   UNL A   1      32.496  35.858  31.891  1.00  0.00     0.251 C 
ATOM     27  H   UNL A   1      31.780  36.688  30.208  1.00  0.00     0.163 HD
ATOM     28  O   UNL A   1      31.512  36.120  32.567  1.00  0.00    -0.269 OA
BRANCH  26  29
ATOM     29  C   UNL A   1      33.642  35.144  32.488  1.00  0.00     0.039 A 
ATOM     30  C   UNL A   1      33.486  33.812  32.875  1.00  0.00     0.014 A 
ATOM     31  C   UNL A   1      34.888  35.768  32.566  1.00  0.00     0.014 A 
ATOM     32  C   UNL A   1      34.607  33.078  33.259  1.00  0.00     0.010 A 
ATOM     33  C   UNL A   1      36.014  35.007  32.837  1.00  0.00     0.010 A 
ATOM     34  C   UNL A   1      35.885  33.657  33.197  1.00  0.00    -0.014 A 
BRANCH  34  35
ATOM     35  C   UNL A   1      37.107  32.887  33.529  1.00  0.00     0.031 A 
ATOM     36  C   UNL A   1      37.828  33.169  34.818  1.00  0.00     0.074 A 
ATOM     37  C   UNL A   1      37.613  32.008  32.642  1.00  0.00     0.049 A 
ATOM     38  N   UNL A   1      38.969  32.697  35.249  1.00  0.00    -0.248 NA
ATOM     39  C   UNL A   1      37.204  34.149  35.724  1.00  0.00     0.031 C 
ATOM     40  C   UNL A   1      37.043  31.699  31.328  1.00  0.00     0.029 A 
ATOM     41  N   UNL A   1      38.733  31.220  32.709  1.00  0.00    -0.354 N 
ATOM     42  C   UNL A   1      39.210  33.346  36.453  1.00  0.00     0.074 A 
ATOM     43  C   UNL A   1      38.133  34.287  36.656  1.00  0.00     0.031 C 
ATOM     44  C   UNL A   1      37.800  30.766  30.728  1.00  0.00     0.029 A 
ATOM     45  C   UNL A   1      38.925  30.438  31.597  1.00  0.00     0.049 A 
ATOM     46  H   UNL A   1      39.342  31.215  33.482  1.00  0.00     0.167 HD
ATOM     47  C   UNL A   1      40.223  33.152  37.328  1.00  0.00     0.037 A 
ATOM     48  C   UNL A   1      39.901  29.554  31.314  1.00  0.00     0.037 A 
ATOM     49  C   UNL A   1      41.259  32.171  37.151  1.00  0.00     0.049 A 
ATOM     50  C   UNL A   1      40.989  29.321  32.324  1.00  0.00     0.074 A 
ATOM     51  C   UNL A   1      42.286  31.836  38.015  1.00  0.00     0.029 A 
ATOM     52  N   UNL A   1      41.388  31.359  36.035  1.00  0.00    -0.354 N 
ATOM     53  N   UNL A   1      41.169  29.892  33.491  1.00  0.00    -0.248 NA
ATOM     54  C   UNL A   1      42.007  28.316  31.983  1.00  0.00     0.031 C 
ATOM     55  C   UNL A   1      43.055  30.837  37.407  1.00  0.00     0.029 A 
ATOM     56  C   UNL A   1      42.485  30.528  36.182  1.00  0.00     0.049 A 
ATOM     57  H   UNL A   1      40.789  31.372  35.254  1.00  0.00     0.167 HD
ATOM     58  C   UNL A   1      42.301  29.298  34.034  1.00  0.00     0.074 A 
ATOM     59  C   UNL A   1      42.759  28.315  33.074  1.00  0.00     0.031 C 
ATOM     60  C   UNL A   1      42.910  29.547  35.218  1.00  0.00     0.037 A 
BRANCH  47  61
ATOM     61  C   UNL A   1      40.241  34.005  38.562  1.00  0.00     0.057 A 
ATOM     62  C   UNL A   1      39.566  33.626  39.730  1.00  0.00     0.134 A 
ATOM     63  C   UNL A   1      40.953  35.209  38.589  1.00  0.00     0.134 A 
ATOM     64  F   UNL A   1      38.850  32.492  39.763  1.00  0.00    -0.206 F 
ATOM     65  C   UNL A   1      39.573  34.430  40.870  1.00  0.00     0.040 A 
ATOM     66  C   UNL A   1      40.991  36.009  39.732  1.00  0.00     0.040 A 
ATOM     67  F   UNL A   1      41.624  35.629  37.505  1.00  0.00    -0.206 F 
ATOM     68  C   UNL A   1      40.294  35.622  40.876  1.00  0.00     0.006 A 
ENDBRANCH  47  61
BRANCH  48  69
ATOM     69  C   UNL A   1      39.874  28.796  30.038  1.00  0.00     0.057 A 
ATOM     70  C   UNL A   1      39.185  27.581  29.939  1.00  0.00     0.134 A 
ATOM     71  C   UNL A   1      40.539  29.255  28.896  1.00  0.00     0.134 A 
ATOM     72  F   UNL A   1      38.543  27.081  31.005  1.00  0.00    -0.206 F 
ATOM     73  C   UNL A   1      39.175  26.840  28.756  1.00  0.00     0.040 A 
ATOM     74  C   UNL A   1      40.519  28.536  27.700  1.00  0.00     0.040 A 
ATOM     75  F   UNL A   1      41.210  30.416  28.924  1.00  0.00    -0.206 F 
ATOM     76  C   UNL A   1      39.841  27.320  27.630  1.00  0.00     0.006 A 
ENDBRANCH  48  69
BRANCH  60  77
ATOM     77  C   UNL A   1      44.112  28.717  35.557  1.00  0.00     0.057 A 
ATOM     78  C   UNL A   1      45.404  29.110  35.189  1.00  0.00     0.134 A 
ATOM     79  C   UNL A   1      43.976  27.539  36.301  1.00  0.00     0.134 A 
ATOM     80  F   UNL A   1      45.596  30.223  34.465  1.00  0.00    -0.206 F 
ATOM     81  C   UNL A   1      46.520  28.347  35.534  1.00  0.00     0.040 A 
ATOM     82  C   UNL A   1      45.087  26.781  36.672  1.00  0.00     0.040 A 
ATOM     83  F   UNL A   1      42.765  27.116  36.692  1.00  0.00    -0.206 F 
ATOM     84  C   UNL A   1      46.363  27.183  36.284  1.00  0.00     0.006 A 
ENDBRANCH  60  77
ENDBRANCH  34  35
ENDBRANCH  26  29
ENDBRANCH  24  25
ENDBRANCH  23  24
ENDBRANCH  22  23
ENDBRANCH   1  22
TORSDOF 16
ENDMDL
MODEL 3
REMARK VINA RESULT:     -10.7      4.611     10.240
REMARK SMILES COC[C@@H](C)N(C)C(=O)N1CCC(CC(=O)NCCCCNC(=O)c2ccc(-c3c4nc(c(-c5c(F)cccc5F)c5ccc([nH]5)c(-c5c(F)cccc5F)c5nc(c(-c6c(F)cccc6F)c6ccc3[nH]6)C=C5)C=C4)cc2)CC1
REMARK SMILES IDX 18 1 17 2 15 3 16 4 14 6 13 7 8 8 9 9 10 10 11 11 80 12
REMARK SMILES IDX 12 13 79 14 6 15 7 16 4 17 5 18 3 19 2 20 1 21 19 22 20 23
REMARK SMILES IDX 21 24 22 25 23 26 24 28 25 29 26 30 78 31 27 32 77 33 28 34
REMARK SMILES IDX 29 35 30 36 71 37 31 38 76 39 70 40 72 41 32 42 75 43 69 44
REMARK SMILES IDX 68 45 33 47 59 48 42 49 58 50 43 51 46 52 57 53 73 54 44 55
REMARK SMILES IDX 45 56 56 58 74 59 47 60 34 61 35 62 40 63 36 64 37 65 39 66
REMARK SMILES IDX 41 67 38 68 60 69 61 70 66 71 62 72 63 73 65 74 67 75 64 76
REMARK SMILES IDX 48 77 49 78 54 79 50 80 51 81 53 82 55 83 52 84
REMARK H PARENT 17 5 22 27 72 46 46 57
REMARK Flexibility Score: inf
ROOT
ATOM      1  C   UNL A   1      32.374  29.691  25.698  1.00  0.00     0.116 C 
ENDROOT
BRANCH   1   2
ATOM      2  N   UNL A   1      31.579  29.801  24.486  1.00  0.00    -0.356 N 
ATOM      3  C   UNL A   1      30.741  28.902  23.889  1.00  0.00     0.220 C 
ATOM      4  O   UNL A   1      30.215  29.218  22.821  1.00  0.00    -0.275 OA
ATOM      5  H   UNL A   1      31.658  30.664  24.019  1.00  0.00     0.163 HD
BRANCH   3   6
ATOM      6  C   UNL A   1      30.474  27.538  24.514  1.00  0.00     0.103 C 
BRANCH   6   7
ATOM      7  C   UNL A   1      31.664  26.559  24.407  1.00  0.00     0.002 C 
ATOM      8  C   UNL A   1      31.927  22.612  24.890  1.00  0.00     0.320 C 
ATOM      9  O   UNL A   1      30.948  22.575  25.631  1.00  0.00    -0.248 OA
ATOM     10  N   UNL A   1      32.580  23.796  24.610  1.00  0.00    -0.325 N 
ATOM     11  C   UNL A   1      32.878  24.699  25.692  1.00  0.00     0.121 C 
ATOM     12  C   UNL A   1      32.486  24.408  23.292  1.00  0.00     0.121 C 
ATOM     13  C   UNL A   1      31.889  25.843  25.737  1.00  0.00     0.026 C 
ATOM     14  C   UNL A   1      31.439  25.532  23.280  1.00  0.00     0.026 C 
BRANCH   8  15
ATOM     15  N   UNL A   1      32.514  21.479  24.340  1.00  0.00    -0.323 N 
ATOM     16  C   UNL A   1      32.203  21.024  22.991  1.00  0.00     0.149 C 
BRANCH  15  17
ATOM     17  C   UNL A   1      33.615  20.785  25.045  1.00  0.00     0.109 C 
ATOM     18  C   UNL A   1      34.968  21.408  24.695  1.00  0.00     0.033 C 
BRANCH  17  19
ATOM     19  C   UNL A   1      33.576  19.254  24.826  1.00  0.00     0.184 C 
BRANCH  19  20
ATOM     20  O   UNL A   1      32.590  18.594  25.629  1.00  0.00    -0.383 OA
ATOM     21  C   UNL A   1      32.308  17.264  25.219  1.00  0.00     0.194 C 
ENDBRANCH  19  20
ENDBRANCH  17  19
ENDBRANCH  15  17
ENDBRANCH   8  15
ENDBRANCH   6   7
ENDBRANCH   3   6
ENDBRANCH   1   2
BRANCH   1  22
ATOM     22  C   UNL A   1      31.732  30.434  26.876  1.00  0.00     0.023 C 
BRANCH  22  23
ATOM     23  C   UNL A   1      31.578  31.933  26.700  1.00  0.00     0.023 C 
BRANCH  23  24
ATOM     24  C   UNL A   1      32.741  32.741  27.238  1.00  0.00     0.116 C 
BRANCH  24  25
ATOM     25  N   UNL A   1      32.385  34.107  27.604  1.00  0.00    -0.352 N 
ATOM     26  C   UNL A   1      32.973  34.928  28.538  1.00  0.00     0.251 C 
ATOM     27  H   UNL A   1      31.622  34.494  27.117  1.00  0.00     0.163 HD
ATOM     28  O   UNL A   1      32.506  36.027  28.798  1.00  0.00    -0.269 OA
BRANCH  26  29
ATOM     29  C   UNL A   1      34.161  34.432  29.261  1.00  0.00     0.039 A 
ATOM     30  C   UNL A   1      33.983  33.667  30.414  1.00  0.00     0.014 A 
ATOM     31  C   UNL A   1      35.437  34.646  28.735  1.00  0.00     0.014 A 
ATOM     32  C   UNL A   1      35.085  33.038  30.992  1.00  0.00     0.010 A 
ATOM     33  C   UNL A   1      36.509  33.929  29.242  1.00  0.00     0.010 A 
ATOM     34  C   UNL A   1      36.347  33.126  30.382  1.00  0.00    -0.014 A 
BRANCH  34  35
ATOM     35  C   UNL A   1      37.528  32.414  30.926  1.00  0.00     0.031 A 
ATOM     36  C   UNL A   1      38.180  32.920  32.183  1.00  0.00     0.074 A 
ATOM     37  C   UNL A   1      38.062  31.379  30.250  1.00  0.00     0.049 A 
ATOM     38  N   UNL A   1      39.281  32.521  32.764  1.00  0.00    -0.248 NA
ATOM     39  C   UNL A   1      37.528  34.060  32.852  1.00  0.00     0.031 C 
ATOM     40  C   UNL A   1      37.562  30.839  28.983  1.00  0.00     0.029 A 
ATOM     41  N   UNL A   1      39.156  30.601  30.531  1.00  0.00    -0.354 N 
ATOM     42  C   UNL A   1      39.468  33.379  33.840  1.00  0.00     0.074 A 
ATOM     43  C   UNL A   1      38.405  34.356  33.798  1.00  0.00     0.031 C 
ATOM     44  C   UNL A   1      38.329  29.800  28.614  1.00  0.00     0.029 A 
ATOM     45  C   UNL A   1      39.393  29.623  29.596  1.00  0.00     0.049 A 
ATOM     46  H   UNL A   1      39.719  30.731  31.328  1.00  0.00     0.167 HD
ATOM     47  C   UNL A   1      40.423  33.336  34.797  1.00  0.00     0.037 A 
ATOM     48  C   UNL A   1      40.361  28.688  29.542  1.00  0.00     0.037 A 
ATOM     49  C   UNL A   1      41.442  32.325  34.869  1.00  0.00     0.049 A 
ATOM     50  C   UNL A   1      41.382  28.632  30.644  1.00  0.00     0.074 A 
ATOM     51  C   UNL A   1      42.408  32.142  35.842  1.00  0.00     0.029 A 
ATOM     52  N   UNL A   1      41.615  31.318  33.932  1.00  0.00    -0.354 N 
ATOM     53  N   UNL A   1      41.508  29.407  31.694  1.00  0.00    -0.248 NA
ATOM     54  C   UNL A   1      42.391  27.566  30.558  1.00  0.00     0.031 C 
ATOM     55  C   UNL A   1      43.185  31.036  35.479  1.00  0.00     0.029 A 
ATOM     56  C   UNL A   1      42.679  30.513  34.298  1.00  0.00     0.049 A 
ATOM     57  H   UNL A   1      41.063  31.194  33.127  1.00  0.00     0.167 HD
ATOM     58  C   UNL A   1      42.591  28.908  32.407  1.00  0.00     0.074 A 
ATOM     59  C   UNL A   1      43.078  27.757  31.676  1.00  0.00     0.031 C 
ATOM     60  C   UNL A   1      43.135  29.364  33.561  1.00  0.00     0.037 A 
BRANCH  47  61
ATOM     61  C   UNL A   1      40.390  34.403  35.851  1.00  0.00     0.057 A 
ATOM     62  C   UNL A   1      39.693  34.230  37.054  1.00  0.00     0.134 A 
ATOM     63  C   UNL A   1      41.075  35.610  35.669  1.00  0.00     0.134 A 
ATOM     64  F   UNL A   1      39.001  33.103  37.283  1.00  0.00    -0.206 F 
ATOM     65  C   UNL A   1      39.653  35.231  38.025  1.00  0.00     0.040 A 
ATOM     66  C   UNL A   1      41.066  36.608  36.644  1.00  0.00     0.040 A 
ATOM     67  F   UNL A   1      41.764  35.839  34.541  1.00  0.00    -0.206 F 
ATOM     68  C   UNL A   1      40.348  36.422  37.825  1.00  0.00     0.006 A 
ENDBRANCH  47  61
BRANCH  48  69
ATOM     69  C   UNL A   1      40.390  27.707  28.430  1.00  0.00     0.057 A 
ATOM     70  C   UNL A   1      41.074  27.989  27.241  1.00  0.00     0.134 A 
ATOM     71  C   UNL A   1      39.733  26.475  28.518  1.00  0.00     0.134 A 
ATOM     72  F   UNL A   1      41.709  29.162  27.090  1.00  0.00    -0.206 F 
ATOM     73  C   UNL A   1      41.086  27.091  26.172  1.00  0.00     0.040 A 
ATOM     74  C   UNL A   1      39.755  25.557  27.466  1.00  0.00     0.040 A 
ATOM     75  F   UNL A   1      39.068  26.142  29.634  1.00  0.00    -0.206 F 
ATOM     76  C   UNL A   1      40.428  25.868  26.286  1.00  0.00     0.006 A 
ENDBRANCH  48  69
BRANCH  60  77
ATOM     77  C   UNL A   1      44.293  28.595  34.121  1.00  0.00     0.057 A 
ATOM     78  C   UNL A   1      45.617  28.926  33.807  1.00  0.00     0.134 A 
ATOM     79  C   UNL A   1      44.081  27.544  35.021  1.00  0.00     0.134 A 
ATOM     80  F   UNL A   1      45.883  29.916  32.942  1.00  0.00    -0.206 F 
ATOM     81  C   UNL A   1      46.690  28.224  34.356  1.00  0.00     0.040 A 
ATOM     82  C   UNL A   1      45.147  26.850  35.594  1.00  0.00     0.040 A 
ATOM     83  F   UNL A   1      42.836  27.185  35.369  1.00  0.00    -0.206 F 
ATOM     84  C   UNL A   1      46.456  27.188  35.258  1.00  0.00     0.006 A 
ENDBRANCH  60  77
ENDBRANCH  34  35
ENDBRANCH  26  29
ENDBRANCH  24  25
ENDBRANCH  23  24
ENDBRANCH  22  23
ENDBRANCH   1  22
TORSDOF 16
ENDMDL
