MODEL 1
REMARK VINA RESULT:     -12.2      0.000      0.000
REMARK SMILES O=C(NCCCCNC(=O)[C@@H]1C=C[C@@H](NS(=O)(=O)c2ccc(F)c(F)c2F)C1)c1ccc(-c2c3nc(c(-c4c(F)cccc4F)c4ccc([nH]4)c(-c4c(F)cccc4F)c4nc(c(-c5c(F)cccc5F)c5ccc2[nH]5)C=C4)C=C3)cc1
REMARK SMILES IDX 6 1 5 2 4 3 3 4 1 5 2 6 29 8 30 9 82 10 31 11 81 12 32 13
REMARK SMILES IDX 33 14 34 15 75 16 35 17 80 18 74 19 76 20 36 21 79 22 73 23
REMARK SMILES IDX 72 24 37 26 63 27 46 28 62 29 47 30 50 31 61 32 77 33 48 34
REMARK SMILES IDX 49 35 60 37 78 38 51 39 38 40 39 41 44 42 40 43 41 44 43 45
REMARK SMILES IDX 45 46 42 47 64 48 65 49 70 50 66 51 67 52 69 53 71 54 68 55
REMARK SMILES IDX 52 56 53 57 58 58 54 59 55 60 57 61 59 62 56 63 7 64 8 65
REMARK SMILES IDX 9 66 10 68 11 69 12 70 28 71 13 72 14 73 15 74 16 76 17 77
REMARK SMILES IDX 18 78 19 79 20 80 26 81 21 82 24 83 27 84 22 85 25 86 23 87
REMARK H PARENT 3 7 76 25 50 36 8 67 15 75
REMARK Flexibility Score: inf
ROOT
ATOM      1  C   UNL A   1      37.067  20.715  24.699  1.00  0.00     0.023 C 
ENDROOT
BRANCH   1   2
ATOM      2  C   UNL A   1      38.056  19.585  24.982  1.00  0.00     0.023 C 
BRANCH   2   3
ATOM      3  C   UNL A   1      39.183  19.950  25.936  1.00  0.00     0.116 C 
BRANCH   3   4
ATOM      4  N   UNL A   1      40.274  18.988  25.913  1.00  0.00    -0.352 N 
ATOM      5  O   UNL A   1      42.427  18.307  25.869  1.00  0.00    -0.269 OA
ATOM      6  C   UNL A   1      41.622  19.210  26.069  1.00  0.00     0.251 C 
ATOM      7  H   UNL A   1      40.012  18.050  25.764  1.00  0.00     0.163 HD
BRANCH   6   8
ATOM      8  C   UNL A   1      42.091  20.555  26.456  1.00  0.00     0.039 A 
ATOM      9  C   UNL A   1      42.217  20.901  27.803  1.00  0.00     0.014 A 
ATOM     10  C   UNL A   1      42.392  21.485  25.457  1.00  0.00     0.014 A 
ATOM     11  C   UNL A   1      42.500  22.214  28.154  1.00  0.00     0.010 A 
ATOM     12  C   UNL A   1      42.773  22.780  25.814  1.00  0.00     0.010 A 
ATOM     13  C   UNL A   1      42.804  23.162  27.165  1.00  0.00    -0.014 A 
BRANCH  13  14
ATOM     14  C   UNL A   1      43.232  24.523  27.570  1.00  0.00     0.031 A 
ATOM     15  C   UNL A   1      42.237  25.560  28.001  1.00  0.00     0.074 A 
ATOM     16  C   UNL A   1      44.546  24.817  27.534  1.00  0.00     0.049 A 
ATOM     17  N   UNL A   1      42.445  26.803  28.354  1.00  0.00    -0.248 NA
ATOM     18  C   UNL A   1      40.825  25.155  28.030  1.00  0.00     0.031 C 
ATOM     19  C   UNL A   1      45.603  23.893  27.115  1.00  0.00     0.029 A 
ATOM     20  N   UNL A   1      45.218  25.969  27.850  1.00  0.00    -0.354 N 
ATOM     21  C   UNL A   1      41.193  27.337  28.628  1.00  0.00     0.074 A 
ATOM     22  C   UNL A   1      40.227  26.288  28.372  1.00  0.00     0.031 C 
ATOM     23  C   UNL A   1      46.790  24.506  27.222  1.00  0.00     0.029 A 
ATOM     24  C   UNL A   1      46.572  25.883  27.645  1.00  0.00     0.049 A 
ATOM     25  H   UNL A   1      44.773  26.778  28.192  1.00  0.00     0.167 HD
ATOM     26  C   UNL A   1      40.882  28.585  29.057  1.00  0.00     0.037 A 
ATOM     27  C   UNL A   1      47.534  26.817  27.748  1.00  0.00     0.037 A 
ATOM     28  C   UNL A   1      41.854  29.619  29.306  1.00  0.00     0.049 A 
ATOM     29  C   UNL A   1      47.161  28.202  28.186  1.00  0.00     0.074 A 
ATOM     30  C   UNL A   1      41.646  30.900  29.788  1.00  0.00     0.029 A 
ATOM     31  N   UNL A   1      43.218  29.499  29.074  1.00  0.00    -0.354 N 
ATOM     32  N   UNL A   1      45.980  28.677  28.496  1.00  0.00    -0.248 NA
ATOM     33  C   UNL A   1      48.252  29.179  28.291  1.00  0.00     0.031 C 
ATOM     34  C   UNL A   1      42.872  31.574  29.784  1.00  0.00     0.029 A 
ATOM     35  C   UNL A   1      43.857  30.694  29.365  1.00  0.00     0.049 A 
ATOM     36  H   UNL A   1      43.665  28.685  28.748  1.00  0.00     0.167 HD
ATOM     37  C   UNL A   1      46.184  30.004  28.850  1.00  0.00     0.074 A 
ATOM     38  C   UNL A   1      47.607  30.251  28.733  1.00  0.00     0.031 C 
ATOM     39  C   UNL A   1      45.275  30.930  29.240  1.00  0.00     0.037 A 
BRANCH  26  40
ATOM     40  C   UNL A   1      39.427  28.911  29.250  1.00  0.00     0.057 A 
ATOM     41  C   UNL A   1      38.626  29.407  28.212  1.00  0.00     0.134 A 
ATOM     42  C   UNL A   1      38.810  28.703  30.492  1.00  0.00     0.134 A 
ATOM     43  F   UNL A   1      39.152  29.637  26.998  1.00  0.00    -0.206 F 
ATOM     44  C   UNL A   1      37.279  29.718  28.410  1.00  0.00     0.040 A 
ATOM     45  C   UNL A   1      37.457  28.981  30.694  1.00  0.00     0.040 A 
ATOM     46  F   UNL A   1      39.510  28.220  31.529  1.00  0.00    -0.206 F 
ATOM     47  C   UNL A   1      36.689  29.499  29.654  1.00  0.00     0.006 A 
ENDBRANCH  26  40
BRANCH  27  48
ATOM     48  C   UNL A   1      48.932  26.462  27.400  1.00  0.00     0.057 A 
ATOM     49  C   UNL A   1      49.821  25.977  28.364  1.00  0.00     0.134 A 
ATOM     50  C   UNL A   1      49.397  26.562  26.082  1.00  0.00     0.134 A 
ATOM     51  F   UNL A   1      49.437  25.869  29.644  1.00  0.00    -0.206 F 
ATOM     52  C   UNL A   1      51.127  25.613  28.033  1.00  0.00     0.040 A 
ATOM     53  C   UNL A   1      50.690  26.174  25.731  1.00  0.00     0.040 A 
ATOM     54  F   UNL A   1      48.587  27.006  25.110  1.00  0.00    -0.206 F 
ATOM     55  C   UNL A   1      51.562  25.703  26.711  1.00  0.00     0.006 A 
ENDBRANCH  27  48
BRANCH  39  56
ATOM     56  C   UNL A   1      45.794  32.293  29.598  1.00  0.00     0.057 A 
ATOM     57  C   UNL A   1      45.844  33.337  28.665  1.00  0.00     0.134 A 
ATOM     58  C   UNL A   1      46.207  32.574  30.906  1.00  0.00     0.134 A 
ATOM     59  F   UNL A   1      45.479  33.130  27.391  1.00  0.00    -0.206 F 
ATOM     60  C   UNL A   1      46.305  34.607  29.018  1.00  0.00     0.040 A 
ATOM     61  C   UNL A   1      46.640  33.847  31.278  1.00  0.00     0.040 A 
ATOM     62  F   UNL A   1      46.178  31.621  31.850  1.00  0.00    -0.206 F 
ATOM     63  C   UNL A   1      46.695  34.867  30.330  1.00  0.00     0.006 A 
ENDBRANCH  39  56
ENDBRANCH  13  14
ENDBRANCH   6   8
ENDBRANCH   3   4
ENDBRANCH   2   3
ENDBRANCH   1   2
BRANCH   1  64
ATOM     64  C   UNL A   1      35.611  20.368  25.009  1.00  0.00     0.116 C 
BRANCH  64  65
ATOM     65  N   UNL A   1      35.141  21.064  26.192  1.00  0.00    -0.356 N 
ATOM     66  C   UNL A   1      34.610  22.321  26.286  1.00  0.00     0.226 C 
ATOM     67  H   UNL A   1      35.213  20.566  27.038  1.00  0.00     0.163 HD
ATOM     68  O   UNL A   1      34.376  22.778  27.405  1.00  0.00    -0.274 OA
BRANCH  66  69
ATOM     69  C   UNL A   1      34.321  23.088  24.996  1.00  0.00     0.103 C 
ATOM     70  C   UNL A   1      35.099  24.367  24.953  1.00  0.00    -0.016 C 
ATOM     71  C   UNL A   1      32.868  23.582  24.908  1.00  0.00     0.042 C 
ATOM     72  C   UNL A   1      34.319  25.435  25.125  1.00  0.00    -0.011 C 
ATOM     73  C   UNL A   1      32.890  25.069  25.306  1.00  0.00     0.093 C 
BRANCH  73  74
ATOM     74  N   UNL A   1      32.037  25.824  24.407  1.00  0.00    -0.204 NA
ATOM     75  H   UNL A   1      32.406  25.661  23.471  1.00  0.00     0.142 HD
BRANCH  74  76
ATOM     76  S   UNL A   1      30.392  25.600  24.290  1.00  0.00     0.244 S 
ATOM     77  O   UNL A   1      30.154  24.520  23.358  1.00  0.00    -0.207 OA
ATOM     78  O   UNL A   1      29.881  25.530  25.641  1.00  0.00    -0.207 OA
BRANCH  76  79
ATOM     79  C   UNL A   1      29.771  27.075  23.565  1.00  0.00     0.121 A 
ATOM     80  C   UNL A   1      30.667  27.982  22.980  1.00  0.00     0.028 A 
ATOM     81  C   UNL A   1      28.410  27.345  23.596  1.00  0.00     0.181 A 
ATOM     82  C   UNL A   1      30.184  29.165  22.421  1.00  0.00     0.044 A 
ATOM     83  C   UNL A   1      27.934  28.529  23.045  1.00  0.00     0.195 A 
ATOM     84  F   UNL A   1      27.546  26.495  24.169  1.00  0.00    -0.202 F 
ATOM     85  C   UNL A   1      28.818  29.431  22.460  1.00  0.00     0.161 A 
ATOM     86  F   UNL A   1      26.625  28.807  23.085  1.00  0.00    -0.200 F 
ATOM     87  F   UNL A   1      28.361  30.572  21.927  1.00  0.00    -0.204 F 
ENDBRANCH  76  79
ENDBRANCH  74  76
ENDBRANCH  73  74
ENDBRANCH  66  69
ENDBRANCH  64  65
ENDBRANCH   1  64
TORSDOF 14
ENDMDL
MODEL 2
REMARK VINA RESULT:     -12.1      5.213     10.251
REMARK SMILES O=C(NCCCCNC(=O)[C@@H]1C=C[C@@H](NS(=O)(=O)c2ccc(F)c(F)c2F)C1)c1ccc(-c2c3nc(c(-c4c(F)cccc4F)c4ccc([nH]4)c(-c4c(F)cccc4F)c4nc(c(-c5c(F)cccc5F)c5ccc2[nH]5)C=C4)C=C3)cc1
REMARK SMILES IDX 6 1 5 2 4 3 3 4 1 5 2 6 29 8 30 9 82 10 31 11 81 12 32 13
REMARK SMILES IDX 33 14 34 15 75 16 35 17 80 18 74 19 76 20 36 21 79 22 73 23
REMARK SMILES IDX 72 24 37 26 63 27 46 28 62 29 47 30 50 31 61 32 77 33 48 34
REMARK SMILES IDX 49 35 60 37 78 38 51 39 38 40 39 41 44 42 40 43 41 44 43 45
REMARK SMILES IDX 45 46 42 47 64 48 65 49 70 50 66 51 67 52 69 53 71 54 68 55
REMARK SMILES IDX 52 56 53 57 58 58 54 59 55 60 57 61 59 62 56 63 7 64 8 65
REMARK SMILES IDX 9 66 10 68 11 69 12 70 28 71 13 72 14 73 15 74 16 76 17 77
REMARK SMILES IDX 18 78 19 79 20 80 26 81 21 82 24 83 27 84 22 85 25 86 23 87
REMARK H PARENT 3 7 76 25 50 36 8 67 15 75
REMARK Flexibility Score: inf
ROOT
ATOM      1  C   UNL A   1      31.358  30.894  26.374  1.00  0.00     0.023 C 
ENDROOT
BRANCH   1   2
ATOM      2  C   UNL A   1      31.363  32.415  26.503  1.00  0.00     0.023 C 
BRANCH   2   3
ATOM      3  C   UNL A   1      32.556  32.985  27.256  1.00  0.00     0.116 C 
BRANCH   3   4
ATOM      4  N   UNL A   1      32.326  34.341  27.732  1.00  0.00    -0.352 N 
ATOM      5  O   UNL A   1      32.567  36.117  29.107  1.00  0.00    -0.269 OA
ATOM      6  C   UNL A   1      32.985  35.030  28.722  1.00  0.00     0.251 C 
ATOM      7  H   UNL A   1      31.598  34.832  27.284  1.00  0.00     0.163 HD
BRANCH   6   8
ATOM      8  C   UNL A   1      34.190  34.436  29.334  1.00  0.00     0.039 A 
ATOM      9  C   UNL A   1      35.446  34.626  28.753  1.00  0.00     0.014 A 
ATOM     10  C   UNL A   1      34.056  33.668  30.493  1.00  0.00     0.014 A 
ATOM     11  C   UNL A   1      36.543  33.930  29.243  1.00  0.00     0.010 A 
ATOM     12  C   UNL A   1      35.181  33.048  31.042  1.00  0.00     0.010 A 
ATOM     13  C   UNL A   1      36.428  33.152  30.405  1.00  0.00    -0.014 A 
BRANCH  13  14
ATOM     14  C   UNL A   1      37.641  32.526  30.984  1.00  0.00     0.031 A 
ATOM     15  C   UNL A   1      38.284  31.329  30.347  1.00  0.00     0.074 A 
ATOM     16  C   UNL A   1      38.159  33.053  32.111  1.00  0.00     0.049 A 
ATOM     17  N   UNL A   1      39.327  30.645  30.744  1.00  0.00    -0.248 NA
ATOM     18  C   UNL A   1      37.671  30.825  29.109  1.00  0.00     0.031 C 
ATOM     19  C   UNL A   1      37.608  34.206  32.827  1.00  0.00     0.029 A 
ATOM     20  N   UNL A   1      39.253  32.692  32.851  1.00  0.00    -0.354 N 
ATOM     21  C   UNL A   1      39.486  29.620  29.821  1.00  0.00     0.074 A 
ATOM     22  C   UNL A   1      38.412  29.755  28.858  1.00  0.00     0.031 C 
ATOM     23  C   UNL A   1      38.380  34.472  33.890  1.00  0.00     0.029 A 
ATOM     24  C   UNL A   1      39.433  33.467  33.970  1.00  0.00     0.049 A 
ATOM     25  H   UNL A   1      39.853  31.951  32.605  1.00  0.00     0.167 HD
ATOM     26  C   UNL A   1      40.442  28.660  29.781  1.00  0.00     0.037 A 
ATOM     27  C   UNL A   1      40.322  33.363  34.974  1.00  0.00     0.037 A 
ATOM     28  C   UNL A   1      41.504  28.537  30.748  1.00  0.00     0.049 A 
ATOM     29  C   UNL A   1      41.346  32.268  34.928  1.00  0.00     0.074 A 
ATOM     30  C   UNL A   1      42.550  27.630  30.770  1.00  0.00     0.029 A 
ATOM     31  N   UNL A   1      41.646  29.334  31.877  1.00  0.00    -0.354 N 
ATOM     32  N   UNL A   1      41.520  31.340  34.020  1.00  0.00    -0.248 NA
ATOM     33  C   UNL A   1      42.298  32.208  36.044  1.00  0.00     0.031 C 
ATOM     34  C   UNL A   1      43.283  27.835  31.944  1.00  0.00     0.029 A 
ATOM     35  C   UNL A   1      42.738  28.914  32.621  1.00  0.00     0.049 A 
ATOM     36  H   UNL A   1      41.057  30.086  32.114  1.00  0.00     0.167 HD
ATOM     37  C   UNL A   1      42.610  30.593  34.443  1.00  0.00     0.074 A 
ATOM     38  C   UNL A   1      43.068  31.190  35.682  1.00  0.00     0.031 C 
ATOM     39  C   UNL A   1      43.182  29.513  33.856  1.00  0.00     0.037 A 
BRANCH  26  40
ATOM     40  C   UNL A   1      40.362  27.645  28.675  1.00  0.00     0.057 A 
ATOM     41  C   UNL A   1      41.046  27.802  27.463  1.00  0.00     0.134 A 
ATOM     42  C   UNL A   1      39.604  26.476  28.837  1.00  0.00     0.134 A 
ATOM     43  F   UNL A   1      41.785  28.900  27.236  1.00  0.00    -0.206 F 
ATOM     44  C   UNL A   1      40.952  26.856  26.439  1.00  0.00     0.040 A 
ATOM     45  C   UNL A   1      39.527  25.509  27.833  1.00  0.00     0.040 A 
ATOM     46  F   UNL A   1      38.932  26.251  29.975  1.00  0.00    -0.206 F 
ATOM     47  C   UNL A   1      40.193  25.702  26.626  1.00  0.00     0.006 A 
ENDBRANCH  26  40
BRANCH  27  48
ATOM     48  C   UNL A   1      40.250  34.314  36.110  1.00  0.00     0.057 A 
ATOM     49  C   UNL A   1      40.889  35.557  36.059  1.00  0.00     0.134 A 
ATOM     50  C   UNL A   1      39.504  34.016  37.257  1.00  0.00     0.134 A 
ATOM     51  F   UNL A   1      41.626  35.895  34.992  1.00  0.00    -0.206 F 
ATOM     52  C   UNL A   1      40.797  36.466  37.115  1.00  0.00     0.040 A 
ATOM     53  C   UNL A   1      39.379  34.926  38.306  1.00  0.00     0.040 A 
ATOM     54  F   UNL A   1      38.856  32.846  37.358  1.00  0.00    -0.206 F 
ATOM     55  C   UNL A   1      40.032  36.155  38.239  1.00  0.00     0.006 A 
ENDBRANCH  27  48
BRANCH  39  56
ATOM     56  C   UNL A   1      44.386  28.922  34.530  1.00  0.00     0.057 A 
ATOM     57  C   UNL A   1      45.683  29.379  34.266  1.00  0.00     0.134 A 
ATOM     58  C   UNL A   1      44.238  27.912  35.489  1.00  0.00     0.134 A 
ATOM     59  F   UNL A   1      45.896  30.332  33.347  1.00  0.00    -0.206 F 
ATOM     60  C   UNL A   1      46.793  28.838  34.919  1.00  0.00     0.040 A 
ATOM     61  C   UNL A   1      45.336  27.385  36.170  1.00  0.00     0.040 A 
ATOM     62  F   UNL A   1      43.022  27.434  35.794  1.00  0.00    -0.206 F 
ATOM     63  C   UNL A   1      46.619  27.845  35.881  1.00  0.00     0.006 A 
ENDBRANCH  39  56
ENDBRANCH  13  14
ENDBRANCH   6   8
ENDBRANCH   3   4
ENDBRANCH   2   3
ENDBRANCH   1   2
BRANCH   1  64
ATOM     64  C   UNL A   1      32.749  30.258  26.366  1.00  0.00     0.116 C 
BRANCH  64  65
ATOM     65  N   UNL A   1      33.164  29.911  25.020  1.00  0.00    -0.356 N 
ATOM     66  C   UNL A   1      33.218  28.674  24.438  1.00  0.00     0.226 C 
ATOM     67  H   UNL A   1      33.445  30.663  24.451  1.00  0.00     0.163 HD
ATOM     68  O   UNL A   1      33.711  28.573  23.315  1.00  0.00    -0.274 OA
BRANCH  66  69
ATOM     69  C   UNL A   1      32.649  27.482  25.207  1.00  0.00     0.103 C 
ATOM     70  C   UNL A   1      33.705  26.844  26.056  1.00  0.00    -0.016 C 
ATOM     71  C   UNL A   1      32.222  26.326  24.288  1.00  0.00     0.042 C 
ATOM     72  C   UNL A   1      34.088  25.660  25.576  1.00  0.00    -0.011 C 
ATOM     73  C   UNL A   1      33.360  25.291  24.334  1.00  0.00     0.093 C 
BRANCH  73  74
ATOM     74  N   UNL A   1      32.799  23.957  24.430  1.00  0.00    -0.204 NA
ATOM     75  H   UNL A   1      32.031  24.027  25.097  1.00  0.00     0.142 HD
BRANCH  74  76
ATOM     76  S   UNL A   1      32.194  23.113  23.130  1.00  0.00     0.244 S 
ATOM     77  O   UNL A   1      30.786  23.424  23.012  1.00  0.00    -0.207 OA
ATOM     78  O   UNL A   1      33.094  23.348  22.022  1.00  0.00    -0.207 OA
BRANCH  76  79
ATOM     79  C   UNL A   1      32.330  21.418  23.571  1.00  0.00     0.121 A 
ATOM     80  C   UNL A   1      32.667  21.076  24.889  1.00  0.00     0.028 A 
ATOM     81  C   UNL A   1      32.127  20.433  22.614  1.00  0.00     0.181 A 
ATOM     82  C   UNL A   1      32.798  19.733  25.241  1.00  0.00     0.044 A 
ATOM     83  C   UNL A   1      32.265  19.096  22.968  1.00  0.00     0.195 A 
ATOM     84  F   UNL A   1      31.822  20.747  21.347  1.00  0.00    -0.202 F 
ATOM     85  C   UNL A   1      32.597  18.750  24.275  1.00  0.00     0.161 A 
ATOM     86  F   UNL A   1      32.089  18.138  22.048  1.00  0.00    -0.200 F 
ATOM     87  F   UNL A   1      32.730  17.463  24.618  1.00  0.00    -0.204 F 
ENDBRANCH  76  79
ENDBRANCH  74  76
ENDBRANCH  73  74
ENDBRANCH  66  69
ENDBRANCH  64  65
ENDBRANCH   1  64
TORSDOF 14
ENDMDL
MODEL 3
REMARK VINA RESULT:     -12.1      6.413     12.578
REMARK SMILES O=C(NCCCCNC(=O)[C@@H]1C=C[C@@H](NS(=O)(=O)c2ccc(F)c(F)c2F)C1)c1ccc(-c2c3nc(c(-c4c(F)cccc4F)c4ccc([nH]4)c(-c4c(F)cccc4F)c4nc(c(-c5c(F)cccc5F)c5ccc2[nH]5)C=C4)C=C3)cc1
REMARK SMILES IDX 6 1 5 2 4 3 3 4 1 5 2 6 29 8 30 9 82 10 31 11 81 12 32 13
REMARK SMILES IDX 33 14 34 15 75 16 35 17 80 18 74 19 76 20 36 21 79 22 73 23
REMARK SMILES IDX 72 24 37 26 63 27 46 28 62 29 47 30 50 31 61 32 77 33 48 34
REMARK SMILES IDX 49 35 60 37 78 38 51 39 38 40 39 41 44 42 40 43 41 44 43 45
REMARK SMILES IDX 45 46 42 47 64 48 65 49 70 50 66 51 67 52 69 53 71 54 68 55
REMARK SMILES IDX 52 56 53 57 58 58 54 59 55 60 57 61 59 62 56 63 7 64 8 65
REMARK SMILES IDX 9 66 10 68 11 69 12 70 28 71 13 72 14 73 15 74 16 76 17 77
REMARK SMILES IDX 18 78 19 79 20 80 26 81 21 82 24 83 27 84 22 85 25 86 23 87
REMARK H PARENT 3 7 76 25 50 36 8 67 15 75
REMARK Flexibility Score: inf
ROOT
ATOM      1  C   UNL A   1      33.807  36.177  33.281  1.00  0.00     0.023 C 
ENDROOT
BRANCH   1   2
ATOM      2  C   UNL A   1      32.801  35.964  32.151  1.00  0.00     0.023 C 
BRANCH   2   3
ATOM      3  C   UNL A   1      33.289  36.393  30.776  1.00  0.00     0.116 C 
BRANCH   3   4
ATOM      4  N   UNL A   1      32.670  35.638  29.698  1.00  0.00    -0.352 N 
ATOM      5  O   UNL A   1      32.597  34.181  27.974  1.00  0.00    -0.269 OA
ATOM      6  C   UNL A   1      33.197  34.610  28.952  1.00  0.00     0.251 C 
ATOM      7  H   UNL A   1      31.748  35.899  29.469  1.00  0.00     0.163 HD
BRANCH   6   8
ATOM      8  C   UNL A   1      34.509  34.045  29.329  1.00  0.00     0.039 A 
ATOM      9  C   UNL A   1      35.668  34.436  28.656  1.00  0.00     0.014 A 
ATOM     10  C   UNL A   1      34.573  33.101  30.357  1.00  0.00     0.014 A 
ATOM     11  C   UNL A   1      36.865  33.780  28.906  1.00  0.00     0.010 A 
ATOM     12  C   UNL A   1      35.799  32.512  30.675  1.00  0.00     0.010 A 
ATOM     13  C   UNL A   1      36.949  32.828  29.933  1.00  0.00    -0.014 A 
BRANCH  13  14
ATOM     14  C   UNL A   1      38.267  32.236  30.271  1.00  0.00     0.031 A 
ATOM     15  C   UNL A   1      39.260  32.973  31.121  1.00  0.00     0.074 A 
ATOM     16  C   UNL A   1      38.563  31.014  29.788  1.00  0.00     0.049 A 
ATOM     17  N   UNL A   1      40.465  32.610  31.481  1.00  0.00    -0.248 NA
ATOM     18  C   UNL A   1      38.855  34.293  31.625  1.00  0.00     0.031 C 
ATOM     19  C   UNL A   1      37.681  30.211  28.936  1.00  0.00     0.029 A 
ATOM     20  N   UNL A   1      39.680  30.235  29.937  1.00  0.00    -0.354 N 
ATOM     21  C   UNL A   1      40.971  33.660  32.234  1.00  0.00     0.074 A 
ATOM     22  C   UNL A   1      39.951  34.688  32.256  1.00  0.00     0.031 C 
ATOM     23  C   UNL A   1      38.281  29.046  28.658  1.00  0.00     0.029 A 
ATOM     24  C   UNL A   1      39.613  29.049  29.249  1.00  0.00     0.049 A 
ATOM     25  H   UNL A   1      40.454  30.499  30.485  1.00  0.00     0.167 HD
ATOM     26  C   UNL A   1      42.174  33.753  32.853  1.00  0.00     0.037 A 
ATOM     27  C   UNL A   1      40.533  28.084  29.076  1.00  0.00     0.037 A 
ATOM     28  C   UNL A   1      43.180  32.721  32.821  1.00  0.00     0.049 A 
ATOM     29  C   UNL A   1      41.872  28.227  29.738  1.00  0.00     0.074 A 
ATOM     30  C   UNL A   1      44.411  32.698  33.455  1.00  0.00     0.029 A 
ATOM     31  N   UNL A   1      43.082  31.538  32.101  1.00  0.00    -0.354 N 
ATOM     32  N   UNL A   1      42.317  29.200  30.494  1.00  0.00    -0.248 NA
ATOM     33  C   UNL A   1      42.834  27.139  29.525  1.00  0.00     0.031 C 
ATOM     34  C   UNL A   1      45.083  31.534  33.066  1.00  0.00     0.029 A 
ATOM     35  C   UNL A   1      44.244  30.797  32.244  1.00  0.00     0.049 A 
ATOM     36  H   UNL A   1      42.301  31.266  31.567  1.00  0.00     0.167 HD
ATOM     37  C   UNL A   1      43.604  28.837  30.863  1.00  0.00     0.074 A 
ATOM     38  C   UNL A   1      43.861  27.544  30.261  1.00  0.00     0.031 C 
ATOM     39  C   UNL A   1      44.491  29.512  31.634  1.00  0.00     0.037 A 
BRANCH  26  40
ATOM     40  C   UNL A   1      42.481  35.028  33.587  1.00  0.00     0.057 A 
ATOM     41  C   UNL A   1      42.163  35.210  34.940  1.00  0.00     0.134 A 
ATOM     42  C   UNL A   1      43.129  36.087  32.934  1.00  0.00     0.134 A 
ATOM     43  F   UNL A   1      41.536  34.241  35.627  1.00  0.00    -0.206 F 
ATOM     44  C   UNL A   1      42.443  36.406  35.605  1.00  0.00     0.040 A 
ATOM     45  C   UNL A   1      43.442  37.275  33.596  1.00  0.00     0.040 A 
ATOM     46  F   UNL A   1      43.475  35.981  31.642  1.00  0.00    -0.206 F 
ATOM     47  C   UNL A   1      43.089  37.441  34.933  1.00  0.00     0.006 A 
ENDBRANCH  26  40
BRANCH  27  48
ATOM     48  C   UNL A   1      40.211  26.919  28.217  1.00  0.00     0.057 A 
ATOM     49  C   UNL A   1      40.723  26.808  26.920  1.00  0.00     0.134 A 
ATOM     50  C   UNL A   1      39.416  25.867  28.691  1.00  0.00     0.134 A 
ATOM     51  F   UNL A   1      41.481  27.786  26.407  1.00  0.00    -0.206 F 
ATOM     52  C   UNL A   1      40.445  25.697  26.121  1.00  0.00     0.040 A 
ATOM     53  C   UNL A   1      39.156  24.738  27.915  1.00  0.00     0.040 A 
ATOM     54  F   UNL A   1      38.909  25.909  29.932  1.00  0.00    -0.206 F 
ATOM     55  C   UNL A   1      39.667  24.654  26.622  1.00  0.00     0.006 A 
ENDBRANCH  27  48
BRANCH  39  56
ATOM     56  C   UNL A   1      45.814  28.853  31.896  1.00  0.00     0.057 A 
ATOM     57  C   UNL A   1      46.933  29.086  31.086  1.00  0.00     0.134 A 
ATOM     58  C   UNL A   1      45.980  28.009  33.002  1.00  0.00     0.134 A 
ATOM     59  F   UNL A   1      46.838  29.871  30.002  1.00  0.00    -0.206 F 
ATOM     60  C   UNL A   1      48.165  28.486  31.356  1.00  0.00     0.040 A 
ATOM     61  C   UNL A   1      47.214  27.429  33.299  1.00  0.00     0.040 A 
ATOM     62  F   UNL A   1      44.951  27.749  33.822  1.00  0.00    -0.206 F 
ATOM     63  C   UNL A   1      48.310  27.663  32.471  1.00  0.00     0.006 A 
ENDBRANCH  39  56
ENDBRANCH  13  14
ENDBRANCH   6   8
ENDBRANCH   3   4
ENDBRANCH   2   3
ENDBRANCH   1   2
BRANCH   1  64
ATOM     64  C   UNL A   1      34.869  35.083  33.392  1.00  0.00     0.116 C 
BRANCH  64  65
ATOM     65  N   UNL A   1      35.045  34.653  34.766  1.00  0.00    -0.356 N 
ATOM     66  C   UNL A   1      36.042  33.879  35.295  1.00  0.00     0.226 C 
ATOM     67  H   UNL A   1      34.358  34.957  35.401  1.00  0.00     0.163 HD
ATOM     68  O   UNL A   1      35.951  33.526  36.470  1.00  0.00    -0.274 OA
BRANCH  66  69
ATOM     69  C   UNL A   1      37.225  33.505  34.402  1.00  0.00     0.103 C 
ATOM     70  C   UNL A   1      37.078  32.106  33.885  1.00  0.00    -0.016 C 
ATOM     71  C   UNL A   1      38.554  33.434  35.171  1.00  0.00     0.042 C 
ATOM     72  C   UNL A   1      37.941  31.266  34.458  1.00  0.00    -0.011 C 
ATOM     73  C   UNL A   1      38.817  31.943  35.449  1.00  0.00     0.093 C 
BRANCH  73  74
ATOM     74  N   UNL A   1      40.215  31.644  35.205  1.00  0.00    -0.204 NA
ATOM     75  H   UNL A   1      40.741  32.208  35.872  1.00  0.00     0.142 HD
BRANCH  74  76
ATOM     76  S   UNL A   1      40.862  30.114  35.298  1.00  0.00     0.244 S 
ATOM     77  O   UNL A   1      40.027  29.329  36.181  1.00  0.00    -0.207 OA
ATOM     78  O   UNL A   1      41.108  29.679  33.941  1.00  0.00    -0.207 OA
BRANCH  76  79
ATOM     79  C   UNL A   1      42.422  30.314  36.080  1.00  0.00     0.121 A 
ATOM     80  C   UNL A   1      42.816  31.589  36.512  1.00  0.00     0.028 A 
ATOM     81  C   UNL A   1      43.263  29.221  36.244  1.00  0.00     0.181 A 
ATOM     82  C   UNL A   1      44.062  31.761  37.114  1.00  0.00     0.044 A 
ATOM     83  C   UNL A   1      44.507  29.398  36.838  1.00  0.00     0.195 A 
ATOM     84  F   UNL A   1      42.907  28.001  35.819  1.00  0.00    -0.202 F 
ATOM     85  C   UNL A   1      44.901  30.661  37.271  1.00  0.00     0.161 A 
ATOM     86  F   UNL A   1      45.333  28.354  36.985  1.00  0.00    -0.200 F 
ATOM     87  F   UNL A   1      46.099  30.833  37.845  1.00  0.00    -0.204 F 
ENDBRANCH  76  79
ENDBRANCH  74  76
ENDBRANCH  73  74
ENDBRANCH  66  69
ENDBRANCH  64  65
ENDBRANCH   1  64
TORSDOF 14
ENDMDL
