MODEL 1
REMARK VINA RESULT:     -11.4      0.000      0.000
REMARK SMILES CC(C)CN(C)c1ccc([N+](=O)[O-])cc1C(=O)NCCCCNC(=O)c1ccc(-c2c3nc(c(-c4c(F)cccc4F)c4ccc([nH]4)c(-c4c(F)cccc4F)c4nc(c(-c5c(F)cccc5F)c5ccc2[nH]5)C=C4)C=C3)cc1
REMARK SMILES IDX 20 1 19 2 18 3 16 4 17 5 15 7 7 8 8 9 9 10 14 11 10 12 5 13
REMARK SMILES IDX 6 14 4 15 2 16 1 17 3 18 11 19 12 20 13 21 21 22 22 23 23 24
REMARK SMILES IDX 24 25 25 27 26 28 27 29 79 30 28 31 78 32 29 33 30 34 31 35
REMARK SMILES IDX 72 36 32 37 77 38 71 39 73 40 33 41 76 42 70 43 69 44 34 46
REMARK SMILES IDX 60 47 43 48 59 49 44 50 47 51 58 52 74 53 45 54 46 55 57 57
REMARK SMILES IDX 75 58 48 59 35 60 36 61 41 62 37 63 38 64 40 65 42 66 39 67
REMARK SMILES IDX 61 68 62 69 67 70 63 71 64 72 66 73 68 74 65 75 49 76 50 77
REMARK SMILES IDX 55 78 51 79 52 80 54 81 56 82 53 83
REMARK H PARENT 18 6 23 26 73 45 47 56
REMARK Flexibility Score: inf
ROOT
ATOM      1  C   UNL A   1      31.543  30.473  26.444  1.00  0.00     0.023 C 
ENDROOT
BRANCH   1   2
ATOM      2  C   UNL A   1      32.971  29.932  26.523  1.00  0.00     0.116 C 
BRANCH   2   3
ATOM      3  N   UNL A   1      33.571  29.452  25.301  1.00  0.00    -0.352 N 
ATOM      4  C   UNL A   1      33.218  28.367  24.516  1.00  0.00     0.253 C 
ATOM      5  O   UNL A   1      33.881  28.196  23.489  1.00  0.00    -0.269 OA
ATOM      6  H   UNL A   1      34.343  29.971  24.979  1.00  0.00     0.163 HD
BRANCH   4   7
ATOM      7  C   UNL A   1      32.136  27.359  24.835  1.00  0.00     0.069 A 
ATOM      8  C   UNL A   1      30.792  27.340  24.377  1.00  0.00     0.050 A 
ATOM      9  C   UNL A   1      29.916  26.369  24.928  1.00  0.00     0.034 A 
ATOM     10  C   UNL A   1      30.350  25.366  25.791  1.00  0.00     0.088 A 
ATOM     11  C   UNL A   1      32.586  26.283  25.647  1.00  0.00     0.101 A 
ATOM     12  C   UNL A   1      31.703  25.292  26.095  1.00  0.00     0.270 A 
BRANCH   8  13
ATOM     13  N   UNL A   1      30.282  28.168  23.374  1.00  0.00    -0.374 N 
ATOM     14  C   UNL A   1      30.715  27.856  22.004  1.00  0.00     0.143 C 
BRANCH  13  15
ATOM     15  C   UNL A   1      29.994  29.599  23.661  1.00  0.00     0.119 C 
BRANCH  15  16
ATOM     16  C   UNL A   1      28.732  30.168  22.973  1.00  0.00     0.002 C 
ATOM     17  C   UNL A   1      27.530  29.235  23.125  1.00  0.00     0.009 C 
ATOM     18  C   UNL A   1      28.336  31.553  23.501  1.00  0.00     0.009 C 
ENDBRANCH  15  16
ENDBRANCH  13  15
ENDBRANCH   8  13
BRANCH  12  19
ATOM     19  N   UNL A   1      32.198  24.145  26.861  1.00  0.00     0.062 N 
ATOM     20  O   UNL A   1      31.403  23.580  27.625  1.00  0.00    -0.258 OA
ATOM     21  O   UNL A   1      33.372  23.795  26.677  1.00  0.00    -0.258 OA
ENDBRANCH  12  19
ENDBRANCH   4   7
ENDBRANCH   2   3
ENDBRANCH   1   2
BRANCH   1  22
ATOM     22  C   UNL A   1      31.393  32.002  26.563  1.00  0.00     0.023 C 
BRANCH  22  23
ATOM     23  C   UNL A   1      32.569  32.799  27.143  1.00  0.00     0.116 C 
BRANCH  23  24
ATOM     24  N   UNL A   1      32.255  34.120  27.661  1.00  0.00    -0.352 N 
ATOM     25  C   UNL A   1      32.953  34.948  28.515  1.00  0.00     0.251 C 
ATOM     26  H   UNL A   1      31.397  34.487  27.350  1.00  0.00     0.163 HD
ATOM     27  O   UNL A   1      32.525  36.073  28.743  1.00  0.00    -0.269 OA
BRANCH  25  28
ATOM     28  C   UNL A   1      34.172  34.485  29.227  1.00  0.00     0.039 A 
ATOM     29  C   UNL A   1      34.004  33.951  30.509  1.00  0.00     0.014 A 
ATOM     30  C   UNL A   1      35.455  34.584  28.687  1.00  0.00     0.014 A 
ATOM     31  C   UNL A   1      35.099  33.422  31.200  1.00  0.00     0.010 A 
ATOM     32  C   UNL A   1      36.542  34.000  29.353  1.00  0.00     0.010 A 
ATOM     33  C   UNL A   1      36.371  33.387  30.606  1.00  0.00    -0.014 A 
BRANCH  33  34
ATOM     34  C   UNL A   1      37.491  32.652  31.261  1.00  0.00     0.031 A 
ATOM     35  C   UNL A   1      38.165  31.487  30.588  1.00  0.00     0.074 A 
ATOM     36  C   UNL A   1      37.877  33.010  32.504  1.00  0.00     0.049 A 
ATOM     37  N   UNL A   1      39.136  30.726  31.032  1.00  0.00    -0.248 NA
ATOM     38  C   UNL A   1      37.679  31.117  29.251  1.00  0.00     0.031 C 
ATOM     39  C   UNL A   1      37.280  34.090  33.295  1.00  0.00     0.029 A 
ATOM     40  N   UNL A   1      38.854  32.502  33.328  1.00  0.00    -0.354 N 
ATOM     41  C   UNL A   1      39.367  29.782  30.040  1.00  0.00     0.074 A 
ATOM     42  C   UNL A   1      38.411  30.044  28.984  1.00  0.00     0.031 C 
ATOM     43  C   UNL A   1      37.911  34.172  34.477  1.00  0.00     0.029 A 
ATOM     44  C   UNL A   1      38.929  33.129  34.550  1.00  0.00     0.049 A 
ATOM     45  H   UNL A   1      39.445  31.760  33.066  1.00  0.00     0.167 HD
ATOM     46  C   UNL A   1      40.297  28.797  30.005  1.00  0.00     0.037 A 
ATOM     47  C   UNL A   1      39.713  32.885  35.618  1.00  0.00     0.037 A 
ATOM     48  C   UNL A   1      41.266  28.547  31.045  1.00  0.00     0.049 A 
ATOM     49  C   UNL A   1      40.733  31.780  35.553  1.00  0.00     0.074 A 
ATOM     50  C   UNL A   1      42.297  27.622  31.055  1.00  0.00     0.029 A 
ATOM     51  N   UNL A   1      41.317  29.212  32.259  1.00  0.00    -0.354 N 
ATOM     52  N   UNL A   1      40.998  30.958  34.567  1.00  0.00    -0.248 NA
ATOM     53  C   UNL A   1      41.566  31.573  36.747  1.00  0.00     0.031 C 
ATOM     54  C   UNL A   1      42.931  27.684  32.299  1.00  0.00     0.029 A 
ATOM     55  C   UNL A   1      42.338  28.692  33.040  1.00  0.00     0.049 A 
ATOM     56  H   UNL A   1      40.717  29.945  32.529  1.00  0.00     0.167 HD
ATOM     57  C   UNL A   1      42.046  30.160  35.010  1.00  0.00     0.074 A 
ATOM     58  C   UNL A   1      42.380  30.607  36.344  1.00  0.00     0.031 C 
ATOM     59  C   UNL A   1      42.673  29.146  34.365  1.00  0.00     0.037 A 
BRANCH  46  60
ATOM     60  C   UNL A   1      40.321  27.894  28.805  1.00  0.00     0.057 A 
ATOM     61  C   UNL A   1      41.082  28.192  27.667  1.00  0.00     0.134 A 
ATOM     62  C   UNL A   1      39.638  26.671  28.821  1.00  0.00     0.134 A 
ATOM     63  F   UNL A   1      41.757  29.348  27.584  1.00  0.00    -0.206 F 
ATOM     64  C   UNL A   1      41.146  27.316  26.581  1.00  0.00     0.040 A 
ATOM     65  C   UNL A   1      39.717  25.774  27.753  1.00  0.00     0.040 A 
ATOM     66  F   UNL A   1      38.901  26.316  29.884  1.00  0.00    -0.206 F 
ATOM     67  C   UNL A   1      40.470  26.098  26.628  1.00  0.00     0.006 A 
ENDBRANCH  46  60
BRANCH  47  68
ATOM     68  C   UNL A   1      39.568  33.698  36.855  1.00  0.00     0.057 A 
ATOM     69  C   UNL A   1      40.270  34.896  37.027  1.00  0.00     0.134 A 
ATOM     70  C   UNL A   1      38.752  33.274  37.911  1.00  0.00     0.134 A 
ATOM     71  F   UNL A   1      41.085  35.346  36.061  1.00  0.00    -0.206 F 
ATOM     72  C   UNL A   1      40.192  35.627  38.214  1.00  0.00     0.040 A 
ATOM     73  C   UNL A   1      38.640  34.010  39.092  1.00  0.00     0.040 A 
ATOM     74  F   UNL A   1      38.046  32.138  37.809  1.00  0.00    -0.206 F 
ATOM     75  C   UNL A   1      39.371  35.185  39.250  1.00  0.00     0.006 A 
ENDBRANCH  47  68
BRANCH  59  76
ATOM     76  C   UNL A   1      43.815  28.475  35.076  1.00  0.00     0.057 A 
ATOM     77  C   UNL A   1      43.621  27.371  35.917  1.00  0.00     0.134 A 
ATOM     78  C   UNL A   1      45.130  28.917  34.886  1.00  0.00     0.134 A 
ATOM     79  F   UNL A   1      42.386  26.904  36.154  1.00  0.00    -0.206 F 
ATOM     80  C   UNL A   1      44.691  26.749  36.563  1.00  0.00     0.040 A 
ATOM     81  C   UNL A   1      46.212  28.284  35.502  1.00  0.00     0.040 A 
ATOM     82  F   UNL A   1      45.389  29.963  34.087  1.00  0.00    -0.206 F 
ATOM     83  C   UNL A   1      45.993  27.201  36.349  1.00  0.00     0.006 A 
ENDBRANCH  59  76
ENDBRANCH  33  34
ENDBRANCH  25  28
ENDBRANCH  23  24
ENDBRANCH  22  23
ENDBRANCH   1  22
TORSDOF 15
ENDMDL
MODEL 2
REMARK VINA RESULT:     -11.4      5.919     10.764
REMARK SMILES CC(C)CN(C)c1ccc([N+](=O)[O-])cc1C(=O)NCCCCNC(=O)c1ccc(-c2c3nc(c(-c4c(F)cccc4F)c4ccc([nH]4)c(-c4c(F)cccc4F)c4nc(c(-c5c(F)cccc5F)c5ccc2[nH]5)C=C4)C=C3)cc1
REMARK SMILES IDX 20 1 19 2 18 3 16 4 17 5 15 7 7 8 8 9 9 10 14 11 10 12 5 13
REMARK SMILES IDX 6 14 4 15 2 16 1 17 3 18 11 19 12 20 13 21 21 22 22 23 23 24
REMARK SMILES IDX 24 25 25 27 26 28 27 29 79 30 28 31 78 32 29 33 30 34 31 35
REMARK SMILES IDX 72 36 32 37 77 38 71 39 73 40 33 41 76 42 70 43 69 44 34 46
REMARK SMILES IDX 60 47 43 48 59 49 44 50 47 51 58 52 74 53 45 54 46 55 57 57
REMARK SMILES IDX 75 58 48 59 35 60 36 61 41 62 37 63 38 64 40 65 42 66 39 67
REMARK SMILES IDX 61 68 62 69 67 70 63 71 64 72 66 73 68 74 65 75 49 76 50 77
REMARK SMILES IDX 55 78 51 79 52 80 54 81 56 82 53 83
REMARK H PARENT 18 6 23 26 73 45 47 56
REMARK Flexibility Score: inf
ROOT
ATOM      1  C   UNL A   1      36.849  21.043  24.496  1.00  0.00     0.023 C 
ENDROOT
BRANCH   1   2
ATOM      2  C   UNL A   1      36.623  22.193  25.478  1.00  0.00     0.116 C 
BRANCH   2   3
ATOM      3  N   UNL A   1      35.674  21.981  26.546  1.00  0.00    -0.352 N 
ATOM      4  C   UNL A   1      34.393  21.459  26.492  1.00  0.00     0.253 C 
ATOM      5  O   UNL A   1      33.801  21.350  27.571  1.00  0.00    -0.269 OA
ATOM      6  H   UNL A   1      35.984  22.245  27.442  1.00  0.00     0.163 HD
BRANCH   4   7
ATOM      7  C   UNL A   1      33.648  21.067  25.235  1.00  0.00     0.069 A 
ATOM      8  C   UNL A   1      33.046  21.918  24.271  1.00  0.00     0.050 A 
ATOM      9  C   UNL A   1      32.274  21.317  23.243  1.00  0.00     0.034 A 
ATOM     10  C   UNL A   1      32.192  19.938  23.072  1.00  0.00     0.088 A 
ATOM     11  C   UNL A   1      33.628  19.666  25.002  1.00  0.00     0.101 A 
ATOM     12  C   UNL A   1      32.926  19.119  23.920  1.00  0.00     0.270 A 
BRANCH   8  13
ATOM     13  N   UNL A   1      33.211  23.305  24.221  1.00  0.00    -0.374 N 
ATOM     14  C   UNL A   1      34.284  23.791  23.340  1.00  0.00     0.143 C 
BRANCH  13  15
ATOM     15  C   UNL A   1      32.920  24.136  25.420  1.00  0.00     0.119 C 
BRANCH  15  16
ATOM     16  C   UNL A   1      31.423  24.438  25.664  1.00  0.00     0.002 C 
ATOM     17  C   UNL A   1      30.653  24.600  24.353  1.00  0.00     0.009 C 
ATOM     18  C   UNL A   1      30.725  23.359  26.502  1.00  0.00     0.009 C 
ENDBRANCH  15  16
ENDBRANCH  13  15
ENDBRANCH   8  13
BRANCH  12  19
ATOM     19  N   UNL A   1      32.985  17.681  23.645  1.00  0.00     0.062 N 
ATOM     20  O   UNL A   1      32.710  16.908  24.574  1.00  0.00    -0.258 OA
ATOM     21  O   UNL A   1      33.279  17.328  22.495  1.00  0.00    -0.258 OA
ENDBRANCH  12  19
ENDBRANCH   4   7
ENDBRANCH   2   3
ENDBRANCH   1   2
BRANCH   1  22
ATOM     22  C   UNL A   1      37.708  19.873  25.013  1.00  0.00     0.023 C 
BRANCH  22  23
ATOM     23  C   UNL A   1      39.013  20.206  25.747  1.00  0.00     0.116 C 
BRANCH  23  24
ATOM     24  N   UNL A   1      40.035  19.172  25.741  1.00  0.00    -0.352 N 
ATOM     25  C   UNL A   1      41.354  19.199  26.143  1.00  0.00     0.251 C 
ATOM     26  H   UNL A   1      39.734  18.304  25.389  1.00  0.00     0.163 HD
ATOM     27  O   UNL A   1      42.007  18.162  26.126  1.00  0.00    -0.269 OA
BRANCH  25  28
ATOM     28  C   UNL A   1      42.027  20.466  26.524  1.00  0.00     0.039 A 
ATOM     29  C   UNL A   1      42.597  21.227  25.497  1.00  0.00     0.014 A 
ATOM     30  C   UNL A   1      42.135  20.907  27.844  1.00  0.00     0.014 A 
ATOM     31  C   UNL A   1      43.173  22.470  25.777  1.00  0.00     0.010 A 
ATOM     32  C   UNL A   1      42.658  22.179  28.117  1.00  0.00     0.010 A 
ATOM     33  C   UNL A   1      43.159  22.987  27.083  1.00  0.00    -0.014 A 
BRANCH  33  34
ATOM     34  C   UNL A   1      43.597  24.388  27.345  1.00  0.00     0.031 A 
ATOM     35  C   UNL A   1      42.616  25.456  27.747  1.00  0.00     0.074 A 
ATOM     36  C   UNL A   1      44.895  24.716  27.174  1.00  0.00     0.049 A 
ATOM     37  N   UNL A   1      42.830  26.726  27.987  1.00  0.00    -0.248 NA
ATOM     38  C   UNL A   1      41.209  25.050  27.882  1.00  0.00     0.031 C 
ATOM     39  C   UNL A   1      45.948  23.793  26.741  1.00  0.00     0.029 A 
ATOM     40  N   UNL A   1      45.552  25.914  27.331  1.00  0.00    -0.354 N 
ATOM     41  C   UNL A   1      41.589  27.275  28.287  1.00  0.00     0.074 A 
ATOM     42  C   UNL A   1      40.621  26.205  28.165  1.00  0.00     0.031 C 
ATOM     43  C   UNL A   1      47.117  24.453  26.682  1.00  0.00     0.029 A 
ATOM     44  C   UNL A   1      46.894  25.853  27.031  1.00  0.00     0.049 A 
ATOM     45  H   UNL A   1      45.105  26.737  27.630  1.00  0.00     0.167 HD
ATOM     46  C   UNL A   1      41.287  28.546  28.644  1.00  0.00     0.037 A 
ATOM     47  C   UNL A   1      47.839  26.813  27.021  1.00  0.00     0.037 A 
ATOM     48  C   UNL A   1      42.253  29.608  28.789  1.00  0.00     0.049 A 
ATOM     49  C   UNL A   1      47.472  28.218  27.416  1.00  0.00     0.074 A 
ATOM     50  C   UNL A   1      42.044  30.906  29.225  1.00  0.00     0.029 A 
ATOM     51  N   UNL A   1      43.602  29.502  28.490  1.00  0.00    -0.354 N 
ATOM     52  N   UNL A   1      46.309  28.695  27.787  1.00  0.00    -0.248 NA
ATOM     53  C   UNL A   1      48.551  29.218  27.396  1.00  0.00     0.031 C 
ATOM     54  C   UNL A   1      43.252  31.602  29.131  1.00  0.00     0.029 A 
ATOM     55  C   UNL A   1      44.229  30.721  28.698  1.00  0.00     0.049 A 
ATOM     56  H   UNL A   1      44.049  28.683  28.177  1.00  0.00     0.167 HD
ATOM     57  C   UNL A   1      46.523  30.038  28.074  1.00  0.00     0.074 A 
ATOM     58  C   UNL A   1      47.929  30.296  27.851  1.00  0.00     0.031 C 
ATOM     59  C   UNL A   1      45.631  30.972  28.484  1.00  0.00     0.037 A 
BRANCH  46  60
ATOM     60  C   UNL A   1      39.846  28.881  28.902  1.00  0.00     0.057 A 
ATOM     61  C   UNL A   1      38.971  29.238  27.868  1.00  0.00     0.134 A 
ATOM     62  C   UNL A   1      39.307  28.766  30.191  1.00  0.00     0.134 A 
ATOM     63  F   UNL A   1      39.421  29.371  26.611  1.00  0.00    -0.206 F 
ATOM     64  C   UNL A   1      37.618  29.487  28.109  1.00  0.00     0.040 A 
ATOM     65  C   UNL A   1      37.951  28.985  30.440  1.00  0.00     0.040 A 
ATOM     66  F   UNL A   1      40.086  28.414  31.225  1.00  0.00    -0.206 F 
ATOM     67  C   UNL A   1      37.103  29.350  29.397  1.00  0.00     0.006 A 
ENDBRANCH  46  60
BRANCH  47  68
ATOM     68  C   UNL A   1      49.233  26.489  26.616  1.00  0.00     0.057 A 
ATOM     69  C   UNL A   1      49.678  26.695  25.306  1.00  0.00     0.134 A 
ATOM     70  C   UNL A   1      50.141  25.928  27.523  1.00  0.00     0.134 A 
ATOM     71  F   UNL A   1      48.851  27.210  24.384  1.00  0.00    -0.206 F 
ATOM     72  C   UNL A   1      50.964  26.328  24.903  1.00  0.00     0.040 A 
ATOM     73  C   UNL A   1      51.439  25.584  27.143  1.00  0.00     0.040 A 
ATOM     74  F   UNL A   1      49.780  25.711  28.797  1.00  0.00    -0.206 F 
ATOM     75  C   UNL A   1      51.849  25.773  25.825  1.00  0.00     0.006 A 
ENDBRANCH  47  68
BRANCH  59  76
ATOM     76  C   UNL A   1      46.153  32.354  28.760  1.00  0.00     0.057 A 
ATOM     77  C   UNL A   1      46.174  33.351  27.777  1.00  0.00     0.134 A 
ATOM     78  C   UNL A   1      46.607  32.700  30.039  1.00  0.00     0.134 A 
ATOM     79  F   UNL A   1      45.767  33.085  26.527  1.00  0.00    -0.206 F 
ATOM     80  C   UNL A   1      46.652  34.635  28.050  1.00  0.00     0.040 A 
ATOM     81  C   UNL A   1      47.058  33.989  30.332  1.00  0.00     0.040 A 
ATOM     82  F   UNL A   1      46.606  31.796  31.031  1.00  0.00    -0.206 F 
ATOM     83  C   UNL A   1      47.088  34.959  29.334  1.00  0.00     0.006 A 
ENDBRANCH  59  76
ENDBRANCH  33  34
ENDBRANCH  25  28
ENDBRANCH  23  24
ENDBRANCH  22  23
ENDBRANCH   1  22
TORSDOF 15
ENDMDL
MODEL 3
REMARK VINA RESULT:     -11.4      1.398      2.874
REMARK SMILES CC(C)CN(C)c1ccc([N+](=O)[O-])cc1C(=O)NCCCCNC(=O)c1ccc(-c2c3nc(c(-c4c(F)cccc4F)c4ccc([nH]4)c(-c4c(F)cccc4F)c4nc(c(-c5c(F)cccc5F)c5ccc2[nH]5)C=C4)C=C3)cc1
REMARK SMILES IDX 20 1 19 2 18 3 16 4 17 5 15 7 7 8 8 9 9 10 14 11 10 12 5 13
REMARK SMILES IDX 6 14 4 15 2 16 1 17 3 18 11 19 12 20 13 21 21 22 22 23 23 24
REMARK SMILES IDX 24 25 25 27 26 28 27 29 79 30 28 31 78 32 29 33 30 34 31 35
REMARK SMILES IDX 72 36 32 37 77 38 71 39 73 40 33 41 76 42 70 43 69 44 34 46
REMARK SMILES IDX 60 47 43 48 59 49 44 50 47 51 58 52 74 53 45 54 46 55 57 57
REMARK SMILES IDX 75 58 48 59 35 60 36 61 41 62 37 63 38 64 40 65 42 66 39 67
REMARK SMILES IDX 61 68 62 69 67 70 63 71 64 72 66 73 68 74 65 75 49 76 50 77
REMARK SMILES IDX 55 78 51 79 52 80 54 81 56 82 53 83
REMARK H PARENT 18 6 23 26 73 45 47 56
REMARK Flexibility Score: inf
ROOT
ATOM      1  C   UNL A   1      31.500  30.460  26.443  1.00  0.00     0.023 C 
ENDROOT
BRANCH   1   2
ATOM      2  C   UNL A   1      32.902  29.870  26.288  1.00  0.00     0.116 C 
BRANCH   2   3
ATOM      3  N   UNL A   1      33.431  29.750  24.951  1.00  0.00    -0.352 N 
ATOM      4  C   UNL A   1      32.856  29.186  23.825  1.00  0.00     0.253 C 
ATOM      5  O   UNL A   1      33.515  29.248  22.783  1.00  0.00    -0.269 OA
ATOM      6  H   UNL A   1      34.332  30.125  24.819  1.00  0.00     0.163 HD
BRANCH   4   7
ATOM      7  C   UNL A   1      31.528  28.462  23.779  1.00  0.00     0.069 A 
ATOM      8  C   UNL A   1      31.212  27.175  24.288  1.00  0.00     0.050 A 
ATOM      9  C   UNL A   1      29.929  26.642  23.999  1.00  0.00     0.034 A 
ATOM     10  C   UNL A   1      28.938  27.375  23.353  1.00  0.00     0.088 A 
ATOM     11  C   UNL A   1      30.484  29.231  23.197  1.00  0.00     0.101 A 
ATOM     12  C   UNL A   1      29.203  28.695  23.011  1.00  0.00     0.270 A 
BRANCH   8  13
ATOM     13  N   UNL A   1      32.050  26.419  25.112  1.00  0.00    -0.374 N 
ATOM     14  C   UNL A   1      31.804  26.538  26.557  1.00  0.00     0.143 C 
BRANCH  13  15
ATOM     15  C   UNL A   1      33.455  26.152  24.705  1.00  0.00     0.119 C 
BRANCH  15  16
ATOM     16  C   UNL A   1      33.812  24.660  24.507  1.00  0.00     0.002 C 
ATOM     17  C   UNL A   1      33.859  24.277  23.027  1.00  0.00     0.009 C 
ATOM     18  C   UNL A   1      35.152  24.276  25.147  1.00  0.00     0.009 C 
ENDBRANCH  15  16
ENDBRANCH  13  15
ENDBRANCH   8  13
BRANCH  12  19
ATOM     19  N   UNL A   1      28.116  29.527  22.489  1.00  0.00     0.062 N 
ATOM     20  O   UNL A   1      27.240  29.892  23.286  1.00  0.00    -0.258 OA
ATOM     21  O   UNL A   1      28.155  29.836  21.291  1.00  0.00    -0.258 OA
ENDBRANCH  12  19
ENDBRANCH   4   7
ENDBRANCH   2   3
ENDBRANCH   1   2
BRANCH   1  22
ATOM     22  C   UNL A   1      31.415  31.998  26.483  1.00  0.00     0.023 C 
BRANCH  22  23
ATOM     23  C   UNL A   1      32.570  32.767  27.138  1.00  0.00     0.116 C 
BRANCH  23  24
ATOM     24  N   UNL A   1      32.249  34.088  27.654  1.00  0.00    -0.352 N 
ATOM     25  C   UNL A   1      32.948  34.925  28.499  1.00  0.00     0.251 C 
ATOM     26  H   UNL A   1      31.386  34.446  27.349  1.00  0.00     0.163 HD
ATOM     27  O   UNL A   1      32.512  36.048  28.726  1.00  0.00    -0.269 OA
BRANCH  25  28
ATOM     28  C   UNL A   1      34.176  34.476  29.201  1.00  0.00     0.039 A 
ATOM     29  C   UNL A   1      34.018  33.878  30.457  1.00  0.00     0.014 A 
ATOM     30  C   UNL A   1      35.460  34.646  28.681  1.00  0.00     0.014 A 
ATOM     31  C   UNL A   1      35.125  33.358  31.135  1.00  0.00     0.010 A 
ATOM     32  C   UNL A   1      36.562  34.072  29.331  1.00  0.00     0.010 A 
ATOM     33  C   UNL A   1      36.403  33.397  30.553  1.00  0.00    -0.014 A 
BRANCH  33  34
ATOM     34  C   UNL A   1      37.543  32.674  31.186  1.00  0.00     0.031 A 
ATOM     35  C   UNL A   1      38.209  31.509  30.506  1.00  0.00     0.074 A 
ATOM     36  C   UNL A   1      37.957  33.045  32.417  1.00  0.00     0.049 A 
ATOM     37  N   UNL A   1      39.195  30.758  30.931  1.00  0.00    -0.248 NA
ATOM     38  C   UNL A   1      37.693  31.126  29.184  1.00  0.00     0.031 C 
ATOM     39  C   UNL A   1      37.372  34.126  33.214  1.00  0.00     0.029 A 
ATOM     40  N   UNL A   1      38.957  32.549  33.220  1.00  0.00    -0.354 N 
ATOM     41  C   UNL A   1      39.409  29.808  29.940  1.00  0.00     0.074 A 
ATOM     42  C   UNL A   1      38.426  30.056  28.907  1.00  0.00     0.031 C 
ATOM     43  C   UNL A   1      38.031  34.221  34.380  1.00  0.00     0.029 A 
ATOM     44  C   UNL A   1      39.057  33.185  34.436  1.00  0.00     0.049 A 
ATOM     45  H   UNL A   1      39.547  31.809  32.949  1.00  0.00     0.167 HD
ATOM     46  C   UNL A   1      40.345  28.829  29.891  1.00  0.00     0.037 A 
ATOM     47  C   UNL A   1      39.869  32.955  35.486  1.00  0.00     0.037 A 
ATOM     48  C   UNL A   1      41.340  28.594  30.908  1.00  0.00     0.049 A 
ATOM     49  C   UNL A   1      40.894  31.856  35.404  1.00  0.00     0.074 A 
ATOM     50  C   UNL A   1      42.377  27.676  30.900  1.00  0.00     0.029 A 
ATOM     51  N   UNL A   1      41.416  29.268  32.116  1.00  0.00    -0.354 N 
ATOM     52  N   UNL A   1      41.141  31.029  34.418  1.00  0.00    -0.248 NA
ATOM     53  C   UNL A   1      41.758  31.664  36.579  1.00  0.00     0.031 C 
ATOM     54  C   UNL A   1      43.042  27.751  32.127  1.00  0.00     0.029 A 
ATOM     55  C   UNL A   1      42.460  28.761  32.875  1.00  0.00     0.049 A 
ATOM     56  H   UNL A   1      40.818  29.999  32.395  1.00  0.00     0.167 HD
ATOM     57  C   UNL A   1      42.205  30.241  34.841  1.00  0.00     0.074 A 
ATOM     58  C   UNL A   1      42.568  30.701  36.164  1.00  0.00     0.031 C 
ATOM     59  C   UNL A   1      42.824  29.227  34.189  1.00  0.00     0.037 A 
BRANCH  46  60
ATOM     60  C   UNL A   1      40.346  27.918  28.697  1.00  0.00     0.057 A 
ATOM     61  C   UNL A   1      41.070  28.217  27.536  1.00  0.00     0.134 A 
ATOM     62  C   UNL A   1      39.679  26.686  28.741  1.00  0.00     0.134 A 
ATOM     63  F   UNL A   1      41.728  29.380  27.424  1.00  0.00    -0.206 F 
ATOM     64  C   UNL A   1      41.114  27.333  26.455  1.00  0.00     0.040 A 
ATOM     65  C   UNL A   1      39.739  25.782  27.678  1.00  0.00     0.040 A 
ATOM     66  F   UNL A   1      38.978  26.330  29.828  1.00  0.00    -0.206 F 
ATOM     67  C   UNL A   1      40.456  26.107  26.529  1.00  0.00     0.006 A 
ENDBRANCH  46  60
BRANCH  47  68
ATOM     68  C   UNL A   1      39.748  33.776  36.720  1.00  0.00     0.057 A 
ATOM     69  C   UNL A   1      38.898  33.400  37.766  1.00  0.00     0.134 A 
ATOM     70  C   UNL A   1      40.453  34.978  36.865  1.00  0.00     0.134 A 
ATOM     71  F   UNL A   1      38.180  32.270  37.680  1.00  0.00    -0.206 F 
ATOM     72  C   UNL A   1      38.729  34.202  38.897  1.00  0.00     0.040 A 
ATOM     73  C   UNL A   1      40.316  35.775  38.003  1.00  0.00     0.040 A 
ATOM     74  F   UNL A   1      41.290  35.393  35.903  1.00  0.00    -0.206 F 
ATOM     75  C   UNL A   1      39.442  35.392  39.018  1.00  0.00     0.006 A 
ENDBRANCH  47  68
BRANCH  59  76
ATOM     76  C   UNL A   1      43.986  28.569  34.877  1.00  0.00     0.057 A 
ATOM     77  C   UNL A   1      43.829  27.432  35.680  1.00  0.00     0.134 A 
ATOM     78  C   UNL A   1      45.287  29.059  34.702  1.00  0.00     0.134 A 
ATOM     79  F   UNL A   1      42.610  26.918  35.901  1.00  0.00    -0.206 F 
ATOM     80  C   UNL A   1      44.919  26.823  36.304  1.00  0.00     0.040 A 
ATOM     81  C   UNL A   1      46.389  28.441  35.296  1.00  0.00     0.040 A 
ATOM     82  F   UNL A   1      45.512  30.139  33.938  1.00  0.00    -0.206 F 
ATOM     83  C   UNL A   1      46.205  27.323  36.106  1.00  0.00     0.006 A 
ENDBRANCH  59  76
ENDBRANCH  33  34
ENDBRANCH  25  28
ENDBRANCH  23  24
ENDBRANCH  22  23
ENDBRANCH   1  22
TORSDOF 15
ENDMDL
