MODEL 1
REMARK VINA RESULT:     -12.8      0.000      0.000
REMARK SMILES O=C(NCCCCNC(=O)[C@@H]1CC=CC[C@@H]1C(=O)Nc1sc2c(c1C(=O)N1CCCCC1)CCCC2)c1ccc(-c2c3nc(c(-c4c(F)cccc4F)c4ccc([nH]4)c(-c4c(F)cccc4F)c4nc(c(-c5c(F)cccc5F)c5ccc2[nH]5)C=C4)C=C3)cc1
REMARK SMILES IDX 6 1 5 2 4 3 3 4 1 5 2 6 37 8 38 9 90 10 39 11 89 12 40 13
REMARK SMILES IDX 41 14 42 15 83 16 43 17 88 18 82 19 84 20 44 21 87 22 81 23
REMARK SMILES IDX 80 24 45 26 71 27 54 28 70 29 55 30 58 31 69 32 85 33 56 34
REMARK SMILES IDX 57 35 68 37 86 38 59 39 46 40 47 41 52 42 48 43 49 44 51 45
REMARK SMILES IDX 53 46 50 47 72 48 73 49 78 50 74 51 75 52 77 53 79 54 76 55
REMARK SMILES IDX 60 56 61 57 66 58 62 59 63 60 65 61 67 62 64 63 7 64 8 65
REMARK SMILES IDX 9 66 10 68 11 69 12 70 16 71 13 72 15 73 14 74 17 75 18 76
REMARK SMILES IDX 19 77 20 79 21 80 24 81 22 82 23 83 36 84 33 85 35 86 34 87
REMARK SMILES IDX 25 88 26 89 27 90 28 91 32 92 29 93 31 94 30 95
REMARK H PARENT 3 7 84 25 58 36 8 67 19 78
REMARK Flexibility Score: inf
ROOT
ATOM      1  C   UNL A   1      31.400  30.492  25.710  1.00  0.00     0.023 C 
ENDROOT
BRANCH   1   2
ATOM      2  C   UNL A   1      31.256  31.792  26.499  1.00  0.00     0.023 C 
BRANCH   2   3
ATOM      3  C   UNL A   1      32.542  32.324  27.124  1.00  0.00     0.116 C 
BRANCH   3   4
ATOM      4  N   UNL A   1      32.432  33.712  27.542  1.00  0.00    -0.352 N 
ATOM      5  O   UNL A   1      32.829  35.543  28.793  1.00  0.00    -0.269 OA
ATOM      6  C   UNL A   1      33.178  34.413  28.456  1.00  0.00     0.251 C 
ATOM      7  H   UNL A   1      31.714  34.225  27.104  1.00  0.00     0.163 HD
BRANCH   6   8
ATOM      8  C   UNL A   1      34.387  33.812  29.058  1.00  0.00     0.039 A 
ATOM      9  C   UNL A   1      35.664  34.291  28.748  1.00  0.00     0.014 A 
ATOM     10  C   UNL A   1      34.235  32.771  29.977  1.00  0.00     0.014 A 
ATOM     11  C   UNL A   1      36.791  33.650  29.261  1.00  0.00     0.010 A 
ATOM     12  C   UNL A   1      35.363  32.177  30.548  1.00  0.00     0.010 A 
ATOM     13  C   UNL A   1      36.651  32.596  30.176  1.00  0.00    -0.014 A 
BRANCH  13  14
ATOM     14  C   UNL A   1      37.848  31.967  30.787  1.00  0.00     0.031 A 
ATOM     15  C   UNL A   1      38.610  30.897  30.060  1.00  0.00     0.074 A 
ATOM     16  C   UNL A   1      38.219  32.333  32.028  1.00  0.00     0.049 A 
ATOM     17  N   UNL A   1      39.614  30.167  30.477  1.00  0.00    -0.248 NA
ATOM     18  C   UNL A   1      38.179  30.597  28.687  1.00  0.00     0.031 C 
ATOM     19  C   UNL A   1      37.555  33.355  32.837  1.00  0.00     0.029 A 
ATOM     20  N   UNL A   1      39.231  31.874  32.832  1.00  0.00    -0.354 N 
ATOM     21  C   UNL A   1      39.921  29.308  29.431  1.00  0.00     0.074 A 
ATOM     22  C   UNL A   1      38.978  29.589  28.368  1.00  0.00     0.031 C 
ATOM     23  C   UNL A   1      38.174  33.445  34.023  1.00  0.00     0.029 A 
ATOM     24  C   UNL A   1      39.236  32.446  34.081  1.00  0.00     0.049 A 
ATOM     25  H   UNL A   1      39.889  31.200  32.545  1.00  0.00     0.167 HD
ATOM     26  C   UNL A   1      40.900  28.373  29.363  1.00  0.00     0.037 A 
ATOM     27  C   UNL A   1      39.981  32.174  35.167  1.00  0.00     0.037 A 
ATOM     28  C   UNL A   1      41.833  28.102  30.429  1.00  0.00     0.049 A 
ATOM     29  C   UNL A   1      41.031  31.105  35.090  1.00  0.00     0.074 A 
ATOM     30  C   UNL A   1      42.892  27.211  30.441  1.00  0.00     0.029 A 
ATOM     31  N   UNL A   1      41.807  28.708  31.678  1.00  0.00    -0.354 N 
ATOM     32  N   UNL A   1      41.344  30.330  34.079  1.00  0.00    -0.248 NA
ATOM     33  C   UNL A   1      41.832  30.869  36.298  1.00  0.00     0.031 C 
ATOM     34  C   UNL A   1      43.465  27.230  31.717  1.00  0.00     0.029 A 
ATOM     35  C   UNL A   1      42.808  28.183  32.480  1.00  0.00     0.049 A 
ATOM     36  H   UNL A   1      41.171  29.407  31.953  1.00  0.00     0.167 HD
ATOM     37  C   UNL A   1      42.394  29.535  34.519  1.00  0.00     0.074 A 
ATOM     38  C   UNL A   1      42.666  29.922  35.888  1.00  0.00     0.031 C 
ATOM     39  C   UNL A   1      43.075  28.579  33.841  1.00  0.00     0.037 A 
BRANCH  26  40
ATOM     40  C   UNL A   1      40.984  27.548  28.110  1.00  0.00     0.057 A 
ATOM     41  C   UNL A   1      41.755  27.940  27.007  1.00  0.00     0.134 A 
ATOM     42  C   UNL A   1      40.288  26.336  28.009  1.00  0.00     0.134 A 
ATOM     43  F   UNL A   1      42.443  29.091  27.031  1.00  0.00    -0.206 F 
ATOM     44  C   UNL A   1      41.797  27.178  25.837  1.00  0.00     0.040 A 
ATOM     45  C   UNL A   1      40.346  25.551  26.856  1.00  0.00     0.040 A 
ATOM     46  F   UNL A   1      39.541  25.892  29.031  1.00  0.00    -0.206 F 
ATOM     47  C   UNL A   1      41.093  25.978  25.761  1.00  0.00     0.006 A 
ENDBRANCH  26  40
BRANCH  27  48
ATOM     48  C   UNL A   1      39.732  32.928  36.421  1.00  0.00     0.057 A 
ATOM     49  C   UNL A   1      40.458  34.081  36.732  1.00  0.00     0.134 A 
ATOM     50  C   UNL A   1      38.716  32.543  37.306  1.00  0.00     0.134 A 
ATOM     51  F   UNL A   1      41.451  34.490  35.929  1.00  0.00    -0.206 F 
ATOM     52  C   UNL A   1      40.184  34.827  37.879  1.00  0.00     0.040 A 
ATOM     53  C   UNL A   1      38.414  33.293  38.442  1.00  0.00     0.040 A 
ATOM     54  F   UNL A   1      37.977  31.452  37.055  1.00  0.00    -0.206 F 
ATOM     55  C   UNL A   1      39.153  34.438  38.732  1.00  0.00     0.006 A 
ENDBRANCH  27  48
BRANCH  39  56
ATOM     56  C   UNL A   1      44.213  27.903  34.547  1.00  0.00     0.057 A 
ATOM     57  C   UNL A   1      45.491  28.470  34.610  1.00  0.00     0.134 A 
ATOM     58  C   UNL A   1      44.001  26.705  35.244  1.00  0.00     0.134 A 
ATOM     59  F   UNL A   1      45.765  29.608  33.954  1.00  0.00    -0.206 F 
ATOM     60  C   UNL A   1      46.520  27.867  35.337  1.00  0.00     0.040 A 
ATOM     61  C   UNL A   1      45.014  26.107  35.995  1.00  0.00     0.040 A 
ATOM     62  F   UNL A   1      42.797  26.113  35.229  1.00  0.00    -0.206 F 
ATOM     63  C   UNL A   1      46.278  26.689  36.041  1.00  0.00     0.006 A 
ENDBRANCH  39  56
ENDBRANCH  13  14
ENDBRANCH   6   8
ENDBRANCH   3   4
ENDBRANCH   2   3
ENDBRANCH   1   2
BRANCH   1  64
ATOM     64  C   UNL A   1      32.311  29.439  26.334  1.00  0.00     0.116 C 
BRANCH  64  65
ATOM     65  N   UNL A   1      31.604  28.259  26.804  1.00  0.00    -0.356 N 
ATOM     66  C   UNL A   1      31.470  27.035  26.199  1.00  0.00     0.224 C 
ATOM     67  H   UNL A   1      31.157  28.351  27.677  1.00  0.00     0.163 HD
ATOM     68  O   UNL A   1      31.165  26.080  26.908  1.00  0.00    -0.275 OA
BRANCH  66  69
ATOM     69  C   UNL A   1      31.722  26.935  24.704  1.00  0.00     0.095 C 
ATOM     70  C   UNL A   1      30.436  27.196  23.895  1.00  0.00     0.041 C 
ATOM     71  C   UNL A   1      32.468  25.659  24.227  1.00  0.00     0.095 C 
ATOM     72  C   UNL A   1      30.635  26.986  22.419  1.00  0.00    -0.030 C 
ATOM     73  C   UNL A   1      32.885  25.967  22.766  1.00  0.00     0.041 C 
ATOM     74  C   UNL A   1      31.757  26.462  21.907  1.00  0.00    -0.030 C 
BRANCH  71  75
ATOM     75  C   UNL A   1      31.643  24.362  24.364  1.00  0.00     0.229 C 
ATOM     76  O   UNL A   1      30.477  24.300  23.957  1.00  0.00    -0.274 OA
ATOM     77  N   UNL A   1      32.150  23.200  24.885  1.00  0.00    -0.317 N 
ATOM     78  H   UNL A   1      31.494  22.481  25.027  1.00  0.00     0.170 HD
BRANCH  77  79
ATOM     79  C   UNL A   1      33.448  22.894  25.239  1.00  0.00     0.108 A 
ATOM     80  S   UNL A   1      34.365  24.032  26.098  1.00  0.00    -0.122 S 
ATOM     81  C   UNL A   1      34.114  21.688  25.010  1.00  0.00     0.078 A 
ATOM     82  C   UNL A   1      35.784  23.151  25.805  1.00  0.00     0.011 A 
ATOM     83  C   UNL A   1      35.532  21.875  25.315  1.00  0.00    -0.019 A 
ATOM     84  C   UNL A   1      37.136  23.745  26.074  1.00  0.00     0.047 C 
ATOM     85  C   UNL A   1      36.681  20.941  25.050  1.00  0.00     0.037 C 
ATOM     86  C   UNL A   1      38.234  22.920  25.393  1.00  0.00     0.006 C 
ATOM     87  C   UNL A   1      38.016  21.428  25.631  1.00  0.00     0.005 C 
BRANCH  81  88
ATOM     88  C   UNL A   1      33.391  20.573  24.343  1.00  0.00     0.257 C 
ATOM     89  O   UNL A   1      32.574  20.791  23.445  1.00  0.00    -0.269 OA
ATOM     90  N   UNL A   1      33.750  19.265  24.640  1.00  0.00    -0.339 N 
ATOM     91  C   UNL A   1      33.976  18.349  23.526  1.00  0.00     0.120 C 
ATOM     92  C   UNL A   1      33.398  18.660  25.918  1.00  0.00     0.120 C 
ATOM     93  C   UNL A   1      32.877  17.298  23.387  1.00  0.00     0.022 C 
ATOM     94  C   UNL A   1      32.289  17.618  25.791  1.00  0.00     0.022 C 
ATOM     95  C   UNL A   1      32.635  16.591  24.717  1.00  0.00     0.004 C 
ENDBRANCH  81  88
ENDBRANCH  77  79
ENDBRANCH  71  75
ENDBRANCH  66  69
ENDBRANCH  64  65
ENDBRANCH   1  64
TORSDOF 14
ENDMDL
MODEL 2
REMARK VINA RESULT:     -12.5      5.196     11.197
REMARK SMILES O=C(NCCCCNC(=O)[C@@H]1CC=CC[C@@H]1C(=O)Nc1sc2c(c1C(=O)N1CCCCC1)CCCC2)c1ccc(-c2c3nc(c(-c4c(F)cccc4F)c4ccc([nH]4)c(-c4c(F)cccc4F)c4nc(c(-c5c(F)cccc5F)c5ccc2[nH]5)C=C4)C=C3)cc1
REMARK SMILES IDX 6 1 5 2 4 3 3 4 1 5 2 6 37 8 38 9 90 10 39 11 89 12 40 13
REMARK SMILES IDX 41 14 42 15 83 16 43 17 88 18 82 19 84 20 44 21 87 22 81 23
REMARK SMILES IDX 80 24 45 26 71 27 54 28 70 29 55 30 58 31 69 32 85 33 56 34
REMARK SMILES IDX 57 35 68 37 86 38 59 39 46 40 47 41 52 42 48 43 49 44 51 45
REMARK SMILES IDX 53 46 50 47 72 48 73 49 78 50 74 51 75 52 77 53 79 54 76 55
REMARK SMILES IDX 60 56 61 57 66 58 62 59 63 60 65 61 67 62 64 63 7 64 8 65
REMARK SMILES IDX 9 66 10 68 11 69 12 70 16 71 13 72 15 73 14 74 17 75 18 76
REMARK SMILES IDX 19 77 20 79 21 80 24 81 22 82 23 83 36 84 33 85 35 86 34 87
REMARK SMILES IDX 25 88 26 89 27 90 28 91 32 92 29 93 31 94 30 95
REMARK H PARENT 3 7 84 25 58 36 8 67 19 78
REMARK Flexibility Score: inf
ROOT
ATOM      1  C   UNL A   1      36.094  33.155  31.833  1.00  0.00     0.023 C 
ENDROOT
BRANCH   1   2
ATOM      2  C   UNL A   1      35.127  32.260  31.059  1.00  0.00     0.023 C 
BRANCH   2   3
ATOM      3  C   UNL A   1      35.048  32.524  29.560  1.00  0.00     0.116 C 
BRANCH   3   4
ATOM      4  N   UNL A   1      34.348  31.472  28.840  1.00  0.00    -0.352 N 
ATOM      5  O   UNL A   1      34.110  29.643  27.547  1.00  0.00    -0.269 OA
ATOM      6  C   UNL A   1      34.842  30.335  28.252  1.00  0.00     0.251 C 
ATOM      7  H   UNL A   1      33.374  31.595  28.763  1.00  0.00     0.163 HD
BRANCH   6   8
ATOM      8  C   UNL A   1      36.257  29.946  28.440  1.00  0.00     0.039 A 
ATOM      9  C   UNL A   1      37.205  30.159  27.434  1.00  0.00     0.014 A 
ATOM     10  C   UNL A   1      36.646  29.391  29.661  1.00  0.00     0.014 A 
ATOM     11  C   UNL A   1      38.511  29.703  27.602  1.00  0.00     0.010 A 
ATOM     12  C   UNL A   1      37.973  29.002  29.856  1.00  0.00     0.010 A 
ATOM     13  C   UNL A   1      38.911  29.133  28.820  1.00  0.00    -0.014 A 
BRANCH  13  14
ATOM     14  C   UNL A   1      40.322  28.723  29.031  1.00  0.00     0.031 A 
ATOM     15  C   UNL A   1      41.335  29.700  29.556  1.00  0.00     0.074 A 
ATOM     16  C   UNL A   1      40.699  27.475  28.701  1.00  0.00     0.049 A 
ATOM     17  N   UNL A   1      42.627  29.550  29.708  1.00  0.00    -0.248 NA
ATOM     18  C   UNL A   1      40.832  31.024  29.949  1.00  0.00     0.031 C 
ATOM     19  C   UNL A   1      39.808  26.438  28.176  1.00  0.00     0.029 A 
ATOM     20  N   UNL A   1      41.929  26.870  28.739  1.00  0.00    -0.354 N 
ATOM     21  C   UNL A   1      43.096  30.763  30.192  1.00  0.00     0.074 A 
ATOM     22  C   UNL A   1      41.953  31.649  30.283  1.00  0.00     0.031 C 
ATOM     23  C   UNL A   1      40.520  25.328  27.939  1.00  0.00     0.029 A 
ATOM     24  C   UNL A   1      41.925  25.593  28.235  1.00  0.00     0.049 A 
ATOM     25  H   UNL A   1      42.738  27.308  29.092  1.00  0.00     0.167 HD
ATOM     26  C   UNL A   1      44.364  31.106  30.530  1.00  0.00     0.037 A 
ATOM     27  C   UNL A   1      42.938  24.740  27.997  1.00  0.00     0.037 A 
ATOM     28  C   UNL A   1      45.494  30.216  30.435  1.00  0.00     0.049 A 
ATOM     29  C   UNL A   1      44.341  25.152  28.335  1.00  0.00     0.074 A 
ATOM     30  C   UNL A   1      46.808  30.451  30.799  1.00  0.00     0.029 A 
ATOM     31  N   UNL A   1      45.445  28.927  29.922  1.00  0.00    -0.354 N 
ATOM     32  N   UNL A   1      44.767  26.286  28.837  1.00  0.00    -0.248 NA
ATOM     33  C   UNL A   1      45.403  24.171  28.078  1.00  0.00     0.031 C 
ATOM     34  C   UNL A   1      47.566  29.329  30.448  1.00  0.00     0.029 A 
ATOM     35  C   UNL A   1      46.714  28.368  29.927  1.00  0.00     0.049 A 
ATOM     36  H   UNL A   1      44.631  28.477  29.603  1.00  0.00     0.167 HD
ATOM     37  C   UNL A   1      46.140  26.147  28.981  1.00  0.00     0.074 A 
ATOM     38  C   UNL A   1      46.477  24.817  28.514  1.00  0.00     0.031 C 
ATOM     39  C   UNL A   1      47.038  27.040  29.466  1.00  0.00     0.037 A 
BRANCH  26  40
ATOM     40  C   UNL A   1      44.598  32.516  30.997  1.00  0.00     0.057 A 
ATOM     41  C   UNL A   1      44.342  32.921  32.314  1.00  0.00     0.134 A 
ATOM     42  C   UNL A   1      45.098  33.482  30.113  1.00  0.00     0.134 A 
ATOM     43  F   UNL A   1      43.857  32.049  33.212  1.00  0.00    -0.206 F 
ATOM     44  C   UNL A   1      44.535  34.242  32.723  1.00  0.00     0.040 A 
ATOM     45  C   UNL A   1      45.323  34.799  30.519  1.00  0.00     0.040 A 
ATOM     46  F   UNL A   1      45.378  33.163  28.841  1.00  0.00    -0.206 F 
ATOM     47  C   UNL A   1      45.030  35.185  31.824  1.00  0.00     0.006 A 
ENDBRANCH  26  40
BRANCH  27  48
ATOM     48  C   UNL A   1      42.642  23.421  27.386  1.00  0.00     0.057 A 
ATOM     49  C   UNL A   1      42.756  23.216  26.008  1.00  0.00     0.134 A 
ATOM     50  C   UNL A   1      42.299  22.318  28.179  1.00  0.00     0.134 A 
ATOM     51  F   UNL A   1      43.069  24.237  25.198  1.00  0.00    -0.206 F 
ATOM     52  C   UNL A   1      42.538  21.961  25.438  1.00  0.00     0.040 A 
ATOM     53  C   UNL A   1      42.104  21.052  27.626  1.00  0.00     0.040 A 
ATOM     54  F   UNL A   1      42.187  22.449  29.510  1.00  0.00    -0.206 F 
ATOM     55  C   UNL A   1      42.221  20.873  26.250  1.00  0.00     0.006 A 
ENDBRANCH  27  48
BRANCH  39  56
ATOM     56  C   UNL A   1      48.470  26.605  29.561  1.00  0.00     0.057 A 
ATOM     57  C   UNL A   1      49.404  26.892  28.560  1.00  0.00     0.134 A 
ATOM     58  C   UNL A   1      48.936  25.959  30.715  1.00  0.00     0.134 A 
ATOM     59  F   UNL A   1      49.021  27.496  27.425  1.00  0.00    -0.206 F 
ATOM     60  C   UNL A   1      50.750  26.549  28.699  1.00  0.00     0.040 A 
ATOM     61  C   UNL A   1      50.284  25.634  30.877  1.00  0.00     0.040 A 
ATOM     62  F   UNL A   1      48.094  25.659  31.715  1.00  0.00    -0.206 F 
ATOM     63  C   UNL A   1      51.195  25.929  29.865  1.00  0.00     0.006 A 
ENDBRANCH  39  56
ENDBRANCH  13  14
ENDBRANCH   6   8
ENDBRANCH   3   4
ENDBRANCH   2   3
ENDBRANCH   1   2
BRANCH   1  64
ATOM     64  C   UNL A   1      37.474  32.562  32.096  1.00  0.00     0.116 C 
BRANCH  64  65
ATOM     65  N   UNL A   1      37.984  32.839  33.429  1.00  0.00    -0.356 N 
ATOM     66  C   UNL A   1      39.101  32.338  34.047  1.00  0.00     0.224 C 
ATOM     67  H   UNL A   1      37.453  33.474  33.963  1.00  0.00     0.163 HD
ATOM     68  O   UNL A   1      39.554  32.965  35.001  1.00  0.00    -0.275 OA
BRANCH  66  69
ATOM     69  C   UNL A   1      39.714  31.057  33.507  1.00  0.00     0.095 C 
ATOM     70  C   UNL A   1      38.653  29.950  33.339  1.00  0.00     0.041 C 
ATOM     71  C   UNL A   1      40.982  30.549  34.246  1.00  0.00     0.095 C 
ATOM     72  C   UNL A   1      39.257  28.638  32.918  1.00  0.00    -0.030 C 
ATOM     73  C   UNL A   1      41.577  29.464  33.312  1.00  0.00     0.041 C 
ATOM     74  C   UNL A   1      40.580  28.430  32.873  1.00  0.00    -0.030 C 
BRANCH  71  75
ATOM     75  C   UNL A   1      40.711  30.038  35.676  1.00  0.00     0.229 C 
ATOM     76  O   UNL A   1      39.561  29.804  36.065  1.00  0.00    -0.274 OA
ATOM     77  N   UNL A   1      41.707  29.761  36.577  1.00  0.00    -0.317 N 
ATOM     78  H   UNL A   1      41.404  29.555  37.490  1.00  0.00     0.170 HD
BRANCH  77  79
ATOM     79  C   UNL A   1      43.073  29.730  36.387  1.00  0.00     0.108 A 
ATOM     80  S   UNL A   1      43.924  31.190  36.243  1.00  0.00    -0.122 S 
ATOM     81  C   UNL A   1      43.886  28.596  36.348  1.00  0.00     0.078 A 
ATOM     82  C   UNL A   1      45.298  30.365  35.689  1.00  0.00     0.011 A 
ATOM     83  C   UNL A   1      45.214  28.992  35.881  1.00  0.00    -0.019 A 
ATOM     84  C   UNL A   1      46.450  31.104  35.071  1.00  0.00     0.047 C 
ATOM     85  C   UNL A   1      46.372  28.115  35.491  1.00  0.00     0.037 C 
ATOM     86  C   UNL A   1      47.377  30.135  34.328  1.00  0.00     0.006 C 
ATOM     87  C   UNL A   1      47.656  28.896  35.174  1.00  0.00     0.005 C 
BRANCH  81  88
ATOM     88  C   UNL A   1      43.274  27.255  36.551  1.00  0.00     0.257 C 
ATOM     89  O   UNL A   1      42.880  26.896  37.663  1.00  0.00    -0.269 OA
ATOM     90  N   UNL A   1      43.016  26.459  35.442  1.00  0.00    -0.339 N 
ATOM     91  C   UNL A   1      41.694  25.851  35.331  1.00  0.00     0.120 C 
ATOM     92  C   UNL A   1      44.097  25.801  34.721  1.00  0.00     0.120 C 
ATOM     93  C   UNL A   1      41.711  24.342  35.564  1.00  0.00     0.022 C 
ATOM     94  C   UNL A   1      44.132  24.293  34.960  1.00  0.00     0.022 C 
ATOM     95  C   UNL A   1      42.765  23.673  34.687  1.00  0.00     0.004 C 
ENDBRANCH  81  88
ENDBRANCH  77  79
ENDBRANCH  71  75
ENDBRANCH  66  69
ENDBRANCH  64  65
ENDBRANCH   1  64
TORSDOF 14
ENDMDL
MODEL 3
REMARK VINA RESULT:     -12.5      5.014     11.321
REMARK SMILES O=C(NCCCCNC(=O)[C@@H]1CC=CC[C@@H]1C(=O)Nc1sc2c(c1C(=O)N1CCCCC1)CCCC2)c1ccc(-c2c3nc(c(-c4c(F)cccc4F)c4ccc([nH]4)c(-c4c(F)cccc4F)c4nc(c(-c5c(F)cccc5F)c5ccc2[nH]5)C=C4)C=C3)cc1
REMARK SMILES IDX 6 1 5 2 4 3 3 4 1 5 2 6 37 8 38 9 90 10 39 11 89 12 40 13
REMARK SMILES IDX 41 14 42 15 83 16 43 17 88 18 82 19 84 20 44 21 87 22 81 23
REMARK SMILES IDX 80 24 45 26 71 27 54 28 70 29 55 30 58 31 69 32 85 33 56 34
REMARK SMILES IDX 57 35 68 37 86 38 59 39 46 40 47 41 52 42 48 43 49 44 51 45
REMARK SMILES IDX 53 46 50 47 72 48 73 49 78 50 74 51 75 52 77 53 79 54 76 55
REMARK SMILES IDX 60 56 61 57 66 58 62 59 63 60 65 61 67 62 64 63 7 64 8 65
REMARK SMILES IDX 9 66 10 68 11 69 12 70 16 71 13 72 15 73 14 74 17 75 18 76
REMARK SMILES IDX 19 77 20 79 21 80 24 81 22 82 23 83 36 84 33 85 35 86 34 87
REMARK SMILES IDX 25 88 26 89 27 90 28 91 32 92 29 93 31 94 30 95
REMARK H PARENT 3 7 84 25 58 36 8 67 19 78
REMARK Flexibility Score: inf
ROOT
ATOM      1  C   UNL A   1      37.247  33.095  29.566  1.00  0.00     0.023 C 
ENDROOT
BRANCH   1   2
ATOM      2  C   UNL A   1      35.730  33.062  29.387  1.00  0.00     0.023 C 
BRANCH   2   3
ATOM      3  C   UNL A   1      35.245  32.832  27.960  1.00  0.00     0.116 C 
BRANCH   3   4
ATOM      4  N   UNL A   1      34.393  31.660  27.839  1.00  0.00    -0.352 N 
ATOM      5  O   UNL A   1      33.880  29.481  27.580  1.00  0.00    -0.269 OA
ATOM      6  C   UNL A   1      34.726  30.329  27.859  1.00  0.00     0.251 C 
ATOM      7  H   UNL A   1      33.433  31.850  27.726  1.00  0.00     0.163 HD
BRANCH   6   8
ATOM      8  C   UNL A   1      36.104  29.904  28.191  1.00  0.00     0.039 A 
ATOM      9  C   UNL A   1      36.414  29.368  29.445  1.00  0.00     0.014 A 
ATOM     10  C   UNL A   1      37.095  30.013  27.213  1.00  0.00     0.014 A 
ATOM     11  C   UNL A   1      37.735  29.058  29.761  1.00  0.00     0.010 A 
ATOM     12  C   UNL A   1      38.406  29.632  27.507  1.00  0.00     0.010 A 
ATOM     13  C   UNL A   1      38.742  29.175  28.792  1.00  0.00    -0.014 A 
BRANCH  13  14
ATOM     14  C   UNL A   1      40.135  28.766  29.100  1.00  0.00     0.031 A 
ATOM     15  C   UNL A   1      41.094  29.728  29.740  1.00  0.00     0.074 A 
ATOM     16  C   UNL A   1      40.548  27.533  28.756  1.00  0.00     0.049 A 
ATOM     17  N   UNL A   1      42.371  29.581  29.990  1.00  0.00    -0.248 NA
ATOM     18  C   UNL A   1      40.550  31.034  30.141  1.00  0.00     0.031 C 
ATOM     19  C   UNL A   1      39.711  26.512  28.123  1.00  0.00     0.029 A 
ATOM     20  N   UNL A   1      41.776  26.935  28.870  1.00  0.00    -0.354 N 
ATOM     21  C   UNL A   1      42.789  30.778  30.554  1.00  0.00     0.074 A 
ATOM     22  C   UNL A   1      41.634  31.652  30.586  1.00  0.00     0.031 C 
ATOM     23  C   UNL A   1      40.450  25.415  27.903  1.00  0.00     0.029 A 
ATOM     24  C   UNL A   1      41.824  25.677  28.320  1.00  0.00     0.049 A 
ATOM     25  H   UNL A   1      42.550  27.364  29.303  1.00  0.00     0.167 HD
ATOM     26  C   UNL A   1      44.022  31.115  31.006  1.00  0.00     0.037 A 
ATOM     27  C   UNL A   1      42.860  24.840  28.133  1.00  0.00     0.037 A 
ATOM     28  C   UNL A   1      45.164  30.236  30.969  1.00  0.00     0.049 A 
ATOM     29  C   UNL A   1      44.228  25.247  28.598  1.00  0.00     0.074 A 
ATOM     30  C   UNL A   1      46.443  30.464  31.445  1.00  0.00     0.029 A 
ATOM     31  N   UNL A   1      45.168  28.966  30.407  1.00  0.00    -0.354 N 
ATOM     32  N   UNL A   1      44.603  26.364  29.174  1.00  0.00    -0.248 NA
ATOM     33  C   UNL A   1      45.316  24.283  28.391  1.00  0.00     0.031 C 
ATOM     34  C   UNL A   1      47.237  29.362  31.115  1.00  0.00     0.029 A 
ATOM     35  C   UNL A   1      46.437  28.415  30.493  1.00  0.00     0.049 A 
ATOM     36  H   UNL A   1      44.386  28.524  30.007  1.00  0.00     0.167 HD
ATOM     37  C   UNL A   1      45.961  26.228  29.422  1.00  0.00     0.074 A 
ATOM     38  C   UNL A   1      46.346  24.919  28.935  1.00  0.00     0.031 C 
ATOM     39  C   UNL A   1      46.809  27.107  30.010  1.00  0.00     0.037 A 
BRANCH  26  40
ATOM     40  C   UNL A   1      44.206  32.507  31.541  1.00  0.00     0.057 A 
ATOM     41  C   UNL A   1      44.162  32.794  32.912  1.00  0.00     0.134 A 
ATOM     42  C   UNL A   1      44.441  33.578  30.668  1.00  0.00     0.134 A 
ATOM     43  F   UNL A   1      43.936  31.818  33.805  1.00  0.00    -0.206 F 
ATOM     44  C   UNL A   1      44.302  34.099  33.391  1.00  0.00     0.040 A 
ATOM     45  C   UNL A   1      44.613  34.882  31.137  1.00  0.00     0.040 A 
ATOM     46  F   UNL A   1      44.509  33.377  29.344  1.00  0.00    -0.206 F 
ATOM     47  C   UNL A   1      44.532  35.147  32.502  1.00  0.00     0.006 A 
ENDBRANCH  26  40
BRANCH  27  48
ATOM     48  C   UNL A   1      42.626  23.543  27.453  1.00  0.00     0.057 A 
ATOM     49  C   UNL A   1      42.798  23.405  26.072  1.00  0.00     0.134 A 
ATOM     50  C   UNL A   1      42.285  22.395  28.181  1.00  0.00     0.134 A 
ATOM     51  F   UNL A   1      43.111  24.470  25.322  1.00  0.00    -0.206 F 
ATOM     52  C   UNL A   1      42.638  22.172  25.438  1.00  0.00     0.040 A 
ATOM     53  C   UNL A   1      42.148  21.152  27.564  1.00  0.00     0.040 A 
ATOM     54  F   UNL A   1      42.119  22.462  29.510  1.00  0.00    -0.206 F 
ATOM     55  C   UNL A   1      42.322  21.039  26.187  1.00  0.00     0.006 A 
ENDBRANCH  27  48
BRANCH  39  56
ATOM     56  C   UNL A   1      48.233  26.678  30.204  1.00  0.00     0.057 A 
ATOM     57  C   UNL A   1      48.635  25.908  31.301  1.00  0.00     0.134 A 
ATOM     58  C   UNL A   1      49.198  26.973  29.232  1.00  0.00     0.134 A 
ATOM     59  F   UNL A   1      47.764  25.602  32.275  1.00  0.00    -0.206 F 
ATOM     60  C   UNL A   1      49.948  25.450  31.428  1.00  0.00     0.040 A 
ATOM     61  C   UNL A   1      50.508  26.500  29.334  1.00  0.00     0.040 A 
ATOM     62  F   UNL A   1      48.878  27.702  28.152  1.00  0.00    -0.206 F 
ATOM     63  C   UNL A   1      50.885  25.736  30.436  1.00  0.00     0.006 A 
ENDBRANCH  39  56
ENDBRANCH  13  14
ENDBRANCH   6   8
ENDBRANCH   3   4
ENDBRANCH   2   3
ENDBRANCH   1   2
BRANCH   1  64
ATOM     64  C   UNL A   1      37.877  34.484  29.602  1.00  0.00     0.116 C 
BRANCH  64  65
ATOM     65  N   UNL A   1      38.479  34.820  30.882  1.00  0.00    -0.356 N 
ATOM     66  C   UNL A   1      38.025  34.545  32.147  1.00  0.00     0.224 C 
ATOM     67  H   UNL A   1      39.330  35.314  30.835  1.00  0.00     0.163 HD
ATOM     68  O   UNL A   1      38.841  34.577  33.064  1.00  0.00    -0.275 OA
BRANCH  66  69
ATOM     69  C   UNL A   1      36.556  34.203  32.331  1.00  0.00     0.095 C 
ATOM     70  C   UNL A   1      35.751  35.420  32.829  1.00  0.00     0.041 C 
ATOM     71  C   UNL A   1      36.258  32.922  33.157  1.00  0.00     0.095 C 
ATOM     72  C   UNL A   1      34.319  35.074  33.130  1.00  0.00    -0.030 C 
ATOM     73  C   UNL A   1      34.756  32.628  32.904  1.00  0.00     0.041 C 
ATOM     74  C   UNL A   1      33.862  33.814  33.130  1.00  0.00    -0.030 C 
BRANCH  71  75
ATOM     75  C   UNL A   1      36.609  33.046  34.655  1.00  0.00     0.229 C 
ATOM     76  O   UNL A   1      35.848  33.615  35.445  1.00  0.00    -0.274 OA
ATOM     77  N   UNL A   1      37.737  32.498  35.210  1.00  0.00    -0.317 N 
ATOM     78  H   UNL A   1      37.907  32.745  36.147  1.00  0.00     0.170 HD
BRANCH  77  79
ATOM     79  C   UNL A   1      38.667  31.651  34.643  1.00  0.00     0.108 A 
ATOM     80  S   UNL A   1      38.219  30.691  33.321  1.00  0.00    -0.122 S 
ATOM     81  C   UNL A   1      40.008  31.518  35.011  1.00  0.00     0.078 A 
ATOM     82  C   UNL A   1      39.631  29.765  33.480  1.00  0.00     0.011 A 
ATOM     83  C   UNL A   1      40.561  30.347  34.332  1.00  0.00    -0.019 A 
ATOM     84  C   UNL A   1      39.794  28.467  32.744  1.00  0.00     0.047 C 
ATOM     85  C   UNL A   1      41.893  29.680  34.545  1.00  0.00     0.037 C 
ATOM     86  C   UNL A   1      40.958  27.657  33.330  1.00  0.00     0.006 C 
ATOM     87  C   UNL A   1      42.179  28.546  33.550  1.00  0.00     0.005 C 
BRANCH  81  88
ATOM     88  C   UNL A   1      40.551  32.370  36.102  1.00  0.00     0.257 C 
ATOM     89  O   UNL A   1      40.207  32.201  37.274  1.00  0.00    -0.269 OA
ATOM     90  N   UNL A   1      41.567  33.271  35.810  1.00  0.00    -0.339 N 
ATOM     91  C   UNL A   1      42.737  33.287  36.682  1.00  0.00     0.120 C 
ATOM     92  C   UNL A   1      41.298  34.492  35.060  1.00  0.00     0.120 C 
ATOM     93  C   UNL A   1      42.808  34.534  37.560  1.00  0.00     0.022 C 
ATOM     94  C   UNL A   1      41.351  35.743  35.934  1.00  0.00     0.022 C 
ATOM     95  C   UNL A   1      42.659  35.797  36.718  1.00  0.00     0.004 C 
ENDBRANCH  81  88
ENDBRANCH  77  79
ENDBRANCH  71  75
ENDBRANCH  66  69
ENDBRANCH  64  65
ENDBRANCH   1  64
TORSDOF 14
ENDMDL
