MODEL 1
REMARK VINA RESULT:     -11.8      0.000      0.000
REMARK SMILES Cc1ccc(/C=C/C(=O)N2CCC[C@@H](C(=O)NCCCCNC(=O)c3ccc(-c4c5nc(c(-c6c(F)cccc6F)c6ccc([nH]6)c(-c6c(F)cccc6F)c6nc(c(-c7c(F)cccc7F)c7ccc4[nH]7)C=C6)C=C5)cc3)C2)s1
REMARK SMILES IDX 19 1 18 2 17 3 15 4 16 5 14 7 10 8 11 9 79 10 12 11 13 12
REMARK SMILES IDX 8 13 9 14 7 15 6 16 5 17 1 18 2 19 3 20 80 21 4 22 20 23
REMARK SMILES IDX 21 24 22 25 23 26 24 28 25 29 26 30 78 31 27 32 77 33 28 34
REMARK SMILES IDX 29 35 30 36 71 37 31 38 76 39 70 40 72 41 32 42 75 43 69 44
REMARK SMILES IDX 68 45 33 47 59 48 42 49 58 50 43 51 46 52 57 53 73 54 44 55
REMARK SMILES IDX 45 56 56 58 74 59 47 60 34 61 35 62 40 63 36 64 37 65 39 66
REMARK SMILES IDX 41 67 38 68 60 69 61 70 66 71 62 72 63 73 65 74 67 75 64 76
REMARK SMILES IDX 48 77 49 78 54 79 50 80 51 81 53 82 55 83 52 84
REMARK H PARENT 17 6 22 27 72 46 46 57
REMARK Flexibility Score: inf
ROOT
ATOM      1  C   UNL A   1      31.497  29.946  25.677  1.00  0.00     0.023 C 
ENDROOT
BRANCH   1   2
ATOM      2  C   UNL A   1      31.033  29.592  24.267  1.00  0.00     0.116 C 
BRANCH   2   3
ATOM      3  N   UNL A   1      32.154  29.375  23.369  1.00  0.00    -0.356 N 
ATOM      4  C   UNL A   1      32.934  28.276  23.164  1.00  0.00     0.224 C 
ATOM      5  O   UNL A   1      33.844  28.367  22.337  1.00  0.00    -0.275 OA
ATOM      6  H   UNL A   1      32.391  30.152  22.814  1.00  0.00     0.163 HD
BRANCH   4   7
ATOM      7  C   UNL A   1      32.696  26.976  23.916  1.00  0.00     0.098 C 
ATOM      8  N   UNL A   1      32.599  24.498  23.536  1.00  0.00    -0.338 N 
ATOM      9  C   UNL A   1      33.759  24.312  24.399  1.00  0.00     0.120 C 
ATOM     10  C   UNL A   1      32.436  25.821  22.935  1.00  0.00     0.133 C 
ATOM     11  C   UNL A   1      33.763  25.324  25.530  1.00  0.00     0.022 C 
ATOM     12  C   UNL A   1      33.781  26.743  24.979  1.00  0.00     0.017 C 
BRANCH   8  13
ATOM     13  C   UNL A   1      31.768  23.413  23.323  1.00  0.00     0.246 C 
ATOM     14  O   UNL A   1      30.543  23.508  23.274  1.00  0.00    -0.270 OA
BRANCH  13  15
ATOM     15  C   UNL A   1      32.354  22.054  23.203  1.00  0.00     0.073 C 
ATOM     16  C   UNL A   1      32.113  21.109  24.125  1.00  0.00     0.024 C 
BRANCH  16  17
ATOM     17  C   UNL A   1      32.428  19.726  23.960  1.00  0.00     0.027 A 
ATOM     18  C   UNL A   1      33.886  16.151  24.766  1.00  0.00     0.056 C 
ATOM     19  C   UNL A   1      33.286  17.400  24.216  1.00  0.00     0.002 A 
ATOM     20  C   UNL A   1      32.915  17.676  22.919  1.00  0.00     0.016 A 
ATOM     21  S   UNL A   1      32.994  18.729  25.248  1.00  0.00    -0.141 S 
ATOM     22  C   UNL A   1      32.426  19.006  22.775  1.00  0.00     0.020 A 
ENDBRANCH  16  17
ENDBRANCH  13  15
ENDBRANCH   8  13
ENDBRANCH   4   7
ENDBRANCH   2   3
ENDBRANCH   1   2
BRANCH   1  23
ATOM     23  C   UNL A   1      31.386  31.429  26.030  1.00  0.00     0.023 C 
BRANCH  23  24
ATOM     24  C   UNL A   1      32.300  31.894  27.157  1.00  0.00     0.116 C 
BRANCH  24  25
ATOM     25  N   UNL A   1      32.164  33.313  27.446  1.00  0.00    -0.352 N 
ATOM     26  C   UNL A   1      32.975  34.131  28.194  1.00  0.00     0.251 C 
ATOM     27  H   UNL A   1      31.377  33.751  27.050  1.00  0.00     0.163 HD
ATOM     28  O   UNL A   1      32.618  35.280  28.446  1.00  0.00    -0.269 OA
BRANCH  26  29
ATOM     29  C   UNL A   1      34.261  33.626  28.717  1.00  0.00     0.039 A 
ATOM     30  C   UNL A   1      34.258  32.881  29.898  1.00  0.00     0.014 A 
ATOM     31  C   UNL A   1      35.464  33.887  28.056  1.00  0.00     0.014 A 
ATOM     32  C   UNL A   1      35.454  32.356  30.387  1.00  0.00     0.010 A 
ATOM     33  C   UNL A   1      36.642  33.290  28.495  1.00  0.00     0.010 A 
ATOM     34  C   UNL A   1      36.654  32.532  29.675  1.00  0.00    -0.014 A 
BRANCH  34  35
ATOM     35  C   UNL A   1      37.924  31.946  30.173  1.00  0.00     0.031 A 
ATOM     36  C   UNL A   1      38.651  32.581  31.327  1.00  0.00     0.074 A 
ATOM     37  C   UNL A   1      38.437  30.856  29.569  1.00  0.00     0.049 A 
ATOM     38  N   UNL A   1      39.762  32.206  31.910  1.00  0.00    -0.248 NA
ATOM     39  C   UNL A   1      38.070  33.812  31.885  1.00  0.00     0.031 C 
ATOM     40  C   UNL A   1      37.860  30.183  28.404  1.00  0.00     0.029 A 
ATOM     41  N   UNL A   1      39.559  30.122  29.856  1.00  0.00    -0.354 N 
ATOM     42  C   UNL A   1      40.014  33.157  32.892  1.00  0.00     0.074 A 
ATOM     43  C   UNL A   1      38.979  34.160  32.782  1.00  0.00     0.031 C 
ATOM     44  C   UNL A   1      38.610  29.113  28.099  1.00  0.00     0.029 A 
ATOM     45  C   UNL A   1      39.736  29.042  29.025  1.00  0.00     0.049 A 
ATOM     46  H   UNL A   1      40.179  30.347  30.586  1.00  0.00     0.167 HD
ATOM     47  C   UNL A   1      40.998  33.177  33.821  1.00  0.00     0.037 A 
ATOM     48  C   UNL A   1      40.695  28.096  29.016  1.00  0.00     0.037 A 
ATOM     49  C   UNL A   1      42.018  32.167  33.941  1.00  0.00     0.049 A 
ATOM     50  C   UNL A   1      41.773  28.137  30.064  1.00  0.00     0.074 A 
ATOM     51  C   UNL A   1      43.029  32.068  34.881  1.00  0.00     0.029 A 
ATOM     52  N   UNL A   1      42.156  31.082  33.090  1.00  0.00    -0.354 N 
ATOM     53  N   UNL A   1      41.954  28.999  31.035  1.00  0.00    -0.248 NA
ATOM     54  C   UNL A   1      42.774  27.062  30.021  1.00  0.00     0.031 C 
ATOM     55  C   UNL A   1      43.806  30.948  34.570  1.00  0.00     0.029 A 
ATOM     56  C   UNL A   1      43.247  30.317  33.472  1.00  0.00     0.049 A 
ATOM     57  H   UNL A   1      41.565  30.882  32.327  1.00  0.00     0.167 HD
ATOM     58  C   UNL A   1      43.066  28.554  31.737  1.00  0.00     0.074 A 
ATOM     59  C   UNL A   1      43.506  27.335  31.091  1.00  0.00     0.031 C 
ATOM     60  C   UNL A   1      43.671  29.104  32.819  1.00  0.00     0.037 A 
BRANCH  47  61
ATOM     61  C   UNL A   1      41.014  34.329  34.786  1.00  0.00     0.057 A 
ATOM     62  C   UNL A   1      41.696  35.520  34.503  1.00  0.00     0.134 A 
ATOM     63  C   UNL A   1      40.322  34.256  36.001  1.00  0.00     0.134 A 
ATOM     64  F   UNL A   1      42.392  35.652  33.364  1.00  0.00    -0.206 F 
ATOM     65  C   UNL A   1      41.715  36.586  35.406  1.00  0.00     0.040 A 
ATOM     66  C   UNL A   1      40.307  35.327  36.899  1.00  0.00     0.040 A 
ATOM     67  F   UNL A   1      39.643  33.148  36.334  1.00  0.00    -0.206 F 
ATOM     68  C   UNL A   1      41.012  36.492  36.606  1.00  0.00     0.006 A 
ENDBRANCH  47  61
BRANCH  48  69
ATOM     69  C   UNL A   1      40.660  27.007  28.007  1.00  0.00     0.057 A 
ATOM     70  C   UNL A   1      41.372  27.110  26.806  1.00  0.00     0.134 A 
ATOM     71  C   UNL A   1      39.901  25.848  28.208  1.00  0.00     0.134 A 
ATOM     72  F   UNL A   1      42.104  28.203  26.548  1.00  0.00    -0.206 F 
ATOM     73  C   UNL A   1      41.310  26.114  25.831  1.00  0.00     0.040 A 
ATOM     74  C   UNL A   1      39.851  24.832  27.253  1.00  0.00     0.040 A 
ATOM     75  F   UNL A   1      39.203  25.683  29.341  1.00  0.00    -0.206 F 
ATOM     76  C   UNL A   1      40.551  24.968  26.055  1.00  0.00     0.006 A 
ENDBRANCH  48  69
BRANCH  60  77
ATOM     77  C   UNL A   1      44.849  28.367  33.391  1.00  0.00     0.057 A 
ATOM     78  C   UNL A   1      46.163  28.638  32.989  1.00  0.00     0.134 A 
ATOM     79  C   UNL A   1      44.662  27.377  34.364  1.00  0.00     0.134 A 
ATOM     80  F   UNL A   1      46.411  29.565  32.052  1.00  0.00    -0.206 F 
ATOM     81  C   UNL A   1      47.246  27.923  33.506  1.00  0.00     0.040 A 
ATOM     82  C   UNL A   1      45.740  26.679  34.912  1.00  0.00     0.040 A 
ATOM     83  F   UNL A   1      43.432  27.075  34.805  1.00  0.00    -0.206 F 
ATOM     84  C   UNL A   1      47.036  26.943  34.473  1.00  0.00     0.006 A 
ENDBRANCH  60  77
ENDBRANCH  34  35
ENDBRANCH  26  29
ENDBRANCH  24  25
ENDBRANCH  23  24
ENDBRANCH   1  23
TORSDOF 14
ENDMDL
MODEL 2
REMARK VINA RESULT:     -11.8      1.498      2.405
REMARK SMILES Cc1ccc(/C=C/C(=O)N2CCC[C@@H](C(=O)NCCCCNC(=O)c3ccc(-c4c5nc(c(-c6c(F)cccc6F)c6ccc([nH]6)c(-c6c(F)cccc6F)c6nc(c(-c7c(F)cccc7F)c7ccc4[nH]7)C=C6)C=C5)cc3)C2)s1
REMARK SMILES IDX 19 1 18 2 17 3 15 4 16 5 14 7 10 8 11 9 79 10 12 11 13 12
REMARK SMILES IDX 8 13 9 14 7 15 6 16 5 17 1 18 2 19 3 20 80 21 4 22 20 23
REMARK SMILES IDX 21 24 22 25 23 26 24 28 25 29 26 30 78 31 27 32 77 33 28 34
REMARK SMILES IDX 29 35 30 36 71 37 31 38 76 39 70 40 72 41 32 42 75 43 69 44
REMARK SMILES IDX 68 45 33 47 59 48 42 49 58 50 43 51 46 52 57 53 73 54 44 55
REMARK SMILES IDX 45 56 56 58 74 59 47 60 34 61 35 62 40 63 36 64 37 65 39 66
REMARK SMILES IDX 41 67 38 68 60 69 61 70 66 71 62 72 63 73 65 74 67 75 64 76
REMARK SMILES IDX 48 77 49 78 54 79 50 80 51 81 53 82 55 83 52 84
REMARK H PARENT 17 6 22 27 72 46 46 57
REMARK Flexibility Score: inf
ROOT
ATOM      1  C   UNL A   1      31.182  31.279  26.318  1.00  0.00     0.023 C 
ENDROOT
BRANCH   1   2
ATOM      2  C   UNL A   1      32.303  30.372  26.816  1.00  0.00     0.116 C 
BRANCH   2   3
ATOM      3  N   UNL A   1      31.803  29.069  27.219  1.00  0.00    -0.356 N 
ATOM      4  C   UNL A   1      31.562  27.941  26.493  1.00  0.00     0.224 C 
ATOM      5  O   UNL A   1      31.118  26.960  27.093  1.00  0.00    -0.275 OA
ATOM      6  H   UNL A   1      31.606  28.985  28.180  1.00  0.00     0.163 HD
BRANCH   4   7
ATOM      7  C   UNL A   1      31.835  27.880  24.998  1.00  0.00     0.098 C 
ATOM      8  N   UNL A   1      32.218  26.220  23.156  1.00  0.00    -0.338 N 
ATOM      9  C   UNL A   1      30.988  26.649  22.504  1.00  0.00     0.120 C 
ATOM     10  C   UNL A   1      32.322  26.480  24.592  1.00  0.00     0.133 C 
ATOM     11  C   UNL A   1      30.749  28.132  22.712  1.00  0.00     0.022 C 
ATOM     12  C   UNL A   1      30.658  28.458  24.196  1.00  0.00     0.017 C 
BRANCH   8  13
ATOM     13  C   UNL A   1      33.171  25.577  22.387  1.00  0.00     0.246 C 
ATOM     14  O   UNL A   1      33.808  26.142  21.500  1.00  0.00    -0.270 OA
BRANCH  13  15
ATOM     15  C   UNL A   1      33.414  24.126  22.585  1.00  0.00     0.073 C 
ATOM     16  C   UNL A   1      34.184  23.681  23.591  1.00  0.00     0.024 C 
BRANCH  16  17
ATOM     17  C   UNL A   1      34.266  22.315  23.997  1.00  0.00     0.027 A 
ATOM     18  C   UNL A   1      33.091  18.707  25.074  1.00  0.00     0.056 C 
ATOM     19  C   UNL A   1      33.782  19.985  24.737  1.00  0.00     0.002 A 
ATOM     20  C   UNL A   1      35.090  20.342  24.973  1.00  0.00     0.016 A 
ATOM     21  S   UNL A   1      32.918  21.240  23.966  1.00  0.00    -0.141 S 
ATOM     22  C   UNL A   1      35.364  21.675  24.550  1.00  0.00     0.020 A 
ENDBRANCH  16  17
ENDBRANCH  13  15
ENDBRANCH   8  13
ENDBRANCH   4   7
ENDBRANCH   2   3
ENDBRANCH   1   2
BRANCH   1  23
ATOM     23  C   UNL A   1      31.479  32.775  26.424  1.00  0.00     0.023 C 
BRANCH  23  24
ATOM     24  C   UNL A   1      32.524  33.152  27.467  1.00  0.00     0.116 C 
BRANCH  24  25
ATOM     25  N   UNL A   1      32.394  34.526  27.928  1.00  0.00    -0.352 N 
ATOM     26  C   UNL A   1      33.156  35.215  28.837  1.00  0.00     0.251 C 
ATOM     27  H   UNL A   1      31.651  35.035  27.531  1.00  0.00     0.163 HD
ATOM     28  O   UNL A   1      32.803  36.332  29.209  1.00  0.00    -0.269 OA
BRANCH  26  29
ATOM     29  C   UNL A   1      34.383  34.607  29.391  1.00  0.00     0.039 A 
ATOM     30  C   UNL A   1      34.329  34.020  30.657  1.00  0.00     0.014 A 
ATOM     31  C   UNL A   1      35.584  34.619  28.675  1.00  0.00     0.014 A 
ATOM     32  C   UNL A   1      35.464  33.401  31.181  1.00  0.00     0.010 A 
ATOM     33  C   UNL A   1      36.688  33.925  29.159  1.00  0.00     0.010 A 
ATOM     34  C   UNL A   1      36.647  33.323  30.425  1.00  0.00    -0.014 A 
BRANCH  34  35
ATOM     35  C   UNL A   1      37.847  32.635  30.964  1.00  0.00     0.031 A 
ATOM     36  C   UNL A   1      38.494  33.119  32.233  1.00  0.00     0.074 A 
ATOM     37  C   UNL A   1      38.371  31.588  30.296  1.00  0.00     0.049 A 
ATOM     38  N   UNL A   1      39.536  32.640  32.864  1.00  0.00    -0.248 NA
ATOM     39  C   UNL A   1      37.911  34.315  32.863  1.00  0.00     0.031 C 
ATOM     40  C   UNL A   1      37.873  31.059  29.024  1.00  0.00     0.029 A 
ATOM     41  N   UNL A   1      39.437  30.779  30.598  1.00  0.00    -0.354 N 
ATOM     42  C   UNL A   1      39.736  33.477  33.955  1.00  0.00     0.074 A 
ATOM     43  C   UNL A   1      38.750  34.532  33.863  1.00  0.00     0.031 C 
ATOM     44  C   UNL A   1      38.608  29.992  28.675  1.00  0.00     0.029 A 
ATOM     45  C   UNL A   1      39.647  29.780  29.679  1.00  0.00     0.049 A 
ATOM     46  H   UNL A   1      39.999  30.903  31.396  1.00  0.00     0.167 HD
ATOM     47  C   UNL A   1      40.635  33.361  34.960  1.00  0.00     0.037 A 
ATOM     48  C   UNL A   1      40.568  28.798  29.653  1.00  0.00     0.037 A 
ATOM     49  C   UNL A   1      41.603  32.300  35.061  1.00  0.00     0.049 A 
ATOM     50  C   UNL A   1      41.552  28.687  30.785  1.00  0.00     0.074 A 
ATOM     51  C   UNL A   1      42.525  32.064  36.065  1.00  0.00     0.029 A 
ATOM     52  N   UNL A   1      41.776  31.299  34.117  1.00  0.00    -0.354 N 
ATOM     53  N   UNL A   1      41.678  29.440  31.851  1.00  0.00    -0.248 NA
ATOM     54  C   UNL A   1      42.513  27.578  30.716  1.00  0.00     0.031 C 
ATOM     55  C   UNL A   1      43.286  30.947  35.707  1.00  0.00     0.029 A 
ATOM     56  C   UNL A   1      42.802  30.452  34.508  1.00  0.00     0.049 A 
ATOM     57  H   UNL A   1      41.247  31.202  33.291  1.00  0.00     0.167 HD
ATOM     58  C   UNL A   1      42.709  28.879  32.594  1.00  0.00     0.074 A 
ATOM     59  C   UNL A   1      43.159  27.711  31.865  1.00  0.00     0.031 C 
ATOM     60  C   UNL A   1      43.237  29.292  33.772  1.00  0.00     0.037 A 
BRANCH  47  61
ATOM     61  C   UNL A   1      40.609  34.411  36.036  1.00  0.00     0.057 A 
ATOM     62  C   UNL A   1      41.397  35.567  35.959  1.00  0.00     0.134 A 
ATOM     63  C   UNL A   1      39.771  34.275  37.149  1.00  0.00     0.134 A 
ATOM     64  F   UNL A   1      42.234  35.754  34.927  1.00  0.00    -0.206 F 
ATOM     65  C   UNL A   1      41.375  36.536  36.965  1.00  0.00     0.040 A 
ATOM     66  C   UNL A   1      39.717  35.252  38.146  1.00  0.00     0.040 A 
ATOM     67  F   UNL A   1      38.985  33.196  37.285  1.00  0.00    -0.206 F 
ATOM     68  C   UNL A   1      40.527  36.383  38.059  1.00  0.00     0.006 A 
ENDBRANCH  47  61
BRANCH  48  69
ATOM     69  C   UNL A   1      40.581  27.817  28.539  1.00  0.00     0.057 A 
ATOM     70  C   UNL A   1      39.819  26.644  28.597  1.00  0.00     0.134 A 
ATOM     71  C   UNL A   1      41.368  28.017  27.398  1.00  0.00     0.134 A 
ATOM     72  F   UNL A   1      39.057  26.388  29.671  1.00  0.00    -0.206 F 
ATOM     73  C   UNL A   1      39.858  25.694  27.576  1.00  0.00     0.040 A 
ATOM     74  C   UNL A   1      41.396  27.087  26.357  1.00  0.00     0.040 A 
ATOM     75  F   UNL A   1      42.115  29.124  27.275  1.00  0.00    -0.206 F 
ATOM     76  C   UNL A   1      40.646  25.916  26.450  1.00  0.00     0.006 A 
ENDBRANCH  48  69
BRANCH  60  77
ATOM     77  C   UNL A   1      44.333  28.451  34.362  1.00  0.00     0.057 A 
ATOM     78  C   UNL A   1      44.064  27.341  35.174  1.00  0.00     0.134 A 
ATOM     79  C   UNL A   1      45.676  28.753  34.105  1.00  0.00     0.134 A 
ATOM     80  F   UNL A   1      42.800  27.004  35.469  1.00  0.00    -0.206 F 
ATOM     81  C   UNL A   1      45.094  26.587  35.742  1.00  0.00     0.040 A 
ATOM     82  C   UNL A   1      46.713  27.987  34.641  1.00  0.00     0.040 A 
ATOM     83  F   UNL A   1      46.006  29.794  33.326  1.00  0.00    -0.206 F 
ATOM     84  C   UNL A   1      46.422  26.907  35.472  1.00  0.00     0.006 A 
ENDBRANCH  60  77
ENDBRANCH  34  35
ENDBRANCH  26  29
ENDBRANCH  24  25
ENDBRANCH  23  24
ENDBRANCH   1  23
TORSDOF 14
ENDMDL
MODEL 3
REMARK VINA RESULT:     -11.8      1.705      2.421
REMARK SMILES Cc1ccc(/C=C/C(=O)N2CCC[C@@H](C(=O)NCCCCNC(=O)c3ccc(-c4c5nc(c(-c6c(F)cccc6F)c6ccc([nH]6)c(-c6c(F)cccc6F)c6nc(c(-c7c(F)cccc7F)c7ccc4[nH]7)C=C6)C=C5)cc3)C2)s1
REMARK SMILES IDX 19 1 18 2 17 3 15 4 16 5 14 7 10 8 11 9 79 10 12 11 13 12
REMARK SMILES IDX 8 13 9 14 7 15 6 16 5 17 1 18 2 19 3 20 80 21 4 22 20 23
REMARK SMILES IDX 21 24 22 25 23 26 24 28 25 29 26 30 78 31 27 32 77 33 28 34
REMARK SMILES IDX 29 35 30 36 71 37 31 38 76 39 70 40 72 41 32 42 75 43 69 44
REMARK SMILES IDX 68 45 33 47 59 48 42 49 58 50 43 51 46 52 57 53 73 54 44 55
REMARK SMILES IDX 45 56 56 58 74 59 47 60 34 61 35 62 40 63 36 64 37 65 39 66
REMARK SMILES IDX 41 67 38 68 60 69 61 70 66 71 62 72 63 73 65 74 67 75 64 76
REMARK SMILES IDX 48 77 49 78 54 79 50 80 51 81 53 82 55 83 52 84
REMARK H PARENT 17 6 22 27 72 46 46 57
REMARK Flexibility Score: inf
ROOT
ATOM      1  C   UNL A   1      31.772  30.561  26.660  1.00  0.00     0.023 C 
ENDROOT
BRANCH   1   2
ATOM      2  C   UNL A   1      31.110  29.973  25.417  1.00  0.00     0.116 C 
BRANCH   2   3
ATOM      3  N   UNL A   1      32.050  29.835  24.319  1.00  0.00    -0.356 N 
ATOM      4  C   UNL A   1      32.425  28.742  23.596  1.00  0.00     0.224 C 
ATOM      5  O   UNL A   1      33.268  28.904  22.711  1.00  0.00    -0.275 OA
ATOM      6  H   UNL A   1      32.492  30.673  24.049  1.00  0.00     0.163 HD
BRANCH   4   7
ATOM      7  C   UNL A   1      31.825  27.369  23.856  1.00  0.00     0.098 C 
ATOM      8  N   UNL A   1      31.586  25.663  25.680  1.00  0.00    -0.338 N 
ATOM      9  C   UNL A   1      30.140  25.846  25.672  1.00  0.00     0.120 C 
ATOM     10  C   UNL A   1      32.388  26.767  25.154  1.00  0.00     0.133 C 
ATOM     11  C   UNL A   1      29.637  26.141  24.271  1.00  0.00     0.022 C 
ATOM     12  C   UNL A   1      30.295  27.397  23.718  1.00  0.00     0.017 C 
BRANCH   8  13
ATOM     13  C   UNL A   1      32.089  24.489  26.210  1.00  0.00     0.246 C 
ATOM     14  O   UNL A   1      31.634  23.964  27.224  1.00  0.00    -0.270 OA
BRANCH  13  15
ATOM     15  C   UNL A   1      33.265  23.844  25.575  1.00  0.00     0.073 C 
ATOM     16  C   UNL A   1      34.456  23.806  26.196  1.00  0.00     0.024 C 
BRANCH  16  17
ATOM     17  C   UNL A   1      35.557  23.002  25.773  1.00  0.00     0.027 A 
ATOM     18  C   UNL A   1      37.660  19.775  24.926  1.00  0.00     0.056 C 
ATOM     19  C   UNL A   1      37.099  21.126  25.210  1.00  0.00     0.002 A 
ATOM     20  C   UNL A   1      37.766  22.322  25.348  1.00  0.00     0.016 A 
ATOM     21  S   UNL A   1      35.415  21.320  25.422  1.00  0.00    -0.141 S 
ATOM     22  C   UNL A   1      36.883  23.393  25.671  1.00  0.00     0.020 A 
ENDBRANCH  16  17
ENDBRANCH  13  15
ENDBRANCH   8  13
ENDBRANCH   4   7
ENDBRANCH   2   3
ENDBRANCH   1   2
BRANCH   1  23
ATOM     23  C   UNL A   1      31.488  32.045  26.891  1.00  0.00     0.023 C 
BRANCH  23  24
ATOM     24  C   UNL A   1      32.724  32.929  27.004  1.00  0.00     0.116 C 
BRANCH  24  25
ATOM     25  N   UNL A   1      32.455  34.195  27.667  1.00  0.00    -0.352 N 
ATOM     26  C   UNL A   1      33.124  34.794  28.705  1.00  0.00     0.251 C 
ATOM     27  H   UNL A   1      31.681  34.696  27.322  1.00  0.00     0.163 HD
ATOM     28  O   UNL A   1      32.660  35.803  29.230  1.00  0.00    -0.269 OA
BRANCH  26  29
ATOM     29  C   UNL A   1      34.385  34.212  29.211  1.00  0.00     0.039 A 
ATOM     30  C   UNL A   1      34.332  33.337  30.297  1.00  0.00     0.014 A 
ATOM     31  C   UNL A   1      35.614  34.528  28.625  1.00  0.00     0.014 A 
ATOM     32  C   UNL A   1      35.503  32.741  30.763  1.00  0.00     0.010 A 
ATOM     33  C   UNL A   1      36.768  33.866  29.033  1.00  0.00     0.010 A 
ATOM     34  C   UNL A   1      36.730  32.978  30.117  1.00  0.00    -0.014 A 
BRANCH  34  35
ATOM     35  C   UNL A   1      37.974  32.320  30.587  1.00  0.00     0.031 A 
ATOM     36  C   UNL A   1      38.738  32.884  31.755  1.00  0.00     0.074 A 
ATOM     37  C   UNL A   1      38.433  31.227  29.946  1.00  0.00     0.049 A 
ATOM     38  N   UNL A   1      39.833  32.441  32.317  1.00  0.00    -0.248 NA
ATOM     39  C   UNL A   1      38.217  34.123  32.354  1.00  0.00     0.031 C 
ATOM     40  C   UNL A   1      37.819  30.617  28.765  1.00  0.00     0.029 A 
ATOM     41  N   UNL A   1      39.522  30.433  30.202  1.00  0.00    -0.354 N 
ATOM     42  C   UNL A   1      40.135  33.348  33.326  1.00  0.00     0.074 A 
ATOM     43  C   UNL A   1      39.146  34.401  33.255  1.00  0.00     0.031 C 
ATOM     44  C   UNL A   1      38.517  29.524  28.422  1.00  0.00     0.029 A 
ATOM     45  C   UNL A   1      39.645  29.373  29.336  1.00  0.00     0.049 A 
ATOM     46  H   UNL A   1      40.156  30.607  30.933  1.00  0.00     0.167 HD
ATOM     47  C   UNL A   1      41.124  33.294  34.249  1.00  0.00     0.037 A 
ATOM     48  C   UNL A   1      40.559  28.384  29.291  1.00  0.00     0.037 A 
ATOM     49  C   UNL A   1      42.097  32.236  34.330  1.00  0.00     0.049 A 
ATOM     50  C   UNL A   1      41.644  28.343  30.332  1.00  0.00     0.074 A 
ATOM     51  C   UNL A   1      43.108  32.062  35.258  1.00  0.00     0.029 A 
ATOM     52  N   UNL A   1      42.179  31.172  33.445  1.00  0.00    -0.354 N 
ATOM     53  N   UNL A   1      41.870  29.166  31.328  1.00  0.00    -0.248 NA
ATOM     54  C   UNL A   1      42.594  27.226  30.249  1.00  0.00     0.031 C 
ATOM     55  C   UNL A   1      43.831  30.917  34.907  1.00  0.00     0.029 A 
ATOM     56  C   UNL A   1      43.237  30.347  33.794  1.00  0.00     0.049 A 
ATOM     57  H   UNL A   1      41.576  31.024  32.680  1.00  0.00     0.167 HD
ATOM     58  C   UNL A   1      42.965  28.649  32.008  1.00  0.00     0.074 A 
ATOM     59  C   UNL A   1      43.344  27.431  31.321  1.00  0.00     0.031 C 
ATOM     60  C   UNL A   1      43.601  29.136  33.102  1.00  0.00     0.037 A 
BRANCH  47  61
ATOM     61  C   UNL A   1      41.199  34.414  35.249  1.00  0.00     0.057 A 
ATOM     62  C   UNL A   1      40.506  34.365  36.466  1.00  0.00     0.134 A 
ATOM     63  C   UNL A   1      41.989  35.543  35.003  1.00  0.00     0.134 A 
ATOM     64  F   UNL A   1      39.718  33.319  36.759  1.00  0.00    -0.206 F 
ATOM     65  C   UNL A   1      40.573  35.411  37.389  1.00  0.00     0.040 A 
ATOM     66  C   UNL A   1      42.089  36.581  35.932  1.00  0.00     0.040 A 
ATOM     67  F   UNL A   1      42.684  35.654  33.861  1.00  0.00    -0.206 F 
ATOM     68  C   UNL A   1      41.372  36.521  37.125  1.00  0.00     0.006 A 
ENDBRANCH  47  61
BRANCH  48  69
ATOM     69  C   UNL A   1      40.467  27.331  28.250  1.00  0.00     0.057 A 
ATOM     70  C   UNL A   1      41.114  27.474  27.017  1.00  0.00     0.134 A 
ATOM     71  C   UNL A   1      39.717  26.166  28.452  1.00  0.00     0.134 A 
ATOM     72  F   UNL A   1      41.834  28.575  26.757  1.00  0.00    -0.206 F 
ATOM     73  C   UNL A   1      40.999  26.511  26.013  1.00  0.00     0.040 A 
ATOM     74  C   UNL A   1      39.615  25.182  27.467  1.00  0.00     0.040 A 
ATOM     75  F   UNL A   1      39.080  25.963  29.615  1.00  0.00    -0.206 F 
ATOM     76  C   UNL A   1      40.250  25.358  26.239  1.00  0.00     0.006 A 
ENDBRANCH  48  69
BRANCH  60  77
ATOM     77  C   UNL A   1      44.747  28.329  33.642  1.00  0.00     0.057 A 
ATOM     78  C   UNL A   1      44.555  27.283  34.554  1.00  0.00     0.134 A 
ATOM     79  C   UNL A   1      46.060  28.600  33.237  1.00  0.00     0.134 A 
ATOM     80  F   UNL A   1      43.324  26.979  34.992  1.00  0.00    -0.206 F 
ATOM     81  C   UNL A   1      45.632  26.562  35.073  1.00  0.00     0.040 A 
ATOM     82  C   UNL A   1      47.141  27.864  33.724  1.00  0.00     0.040 A 
ATOM     83  F   UNL A   1      46.315  29.580  32.357  1.00  0.00    -0.206 F 
ATOM     84  C   UNL A   1      46.930  26.849  34.655  1.00  0.00     0.006 A 
ENDBRANCH  60  77
ENDBRANCH  34  35
ENDBRANCH  26  29
ENDBRANCH  24  25
ENDBRANCH  23  24
ENDBRANCH   1  23
TORSDOF 14
ENDMDL
