MODEL 1
REMARK VINA RESULT:     -12.5      0.000      0.000
REMARK SMILES COc1cc(/C=C2/S/C(=[NH+]\C(C)=O)NC2=O)cc(Br)c1OCC(=O)NCCCCNC(=O)c1ccc(-c2c3nc(c(-c4c(F)cccc4F)c4ccc([nH]4)c(-c4c(F)cccc4F)c4nc(c(-c5c(F)cccc5F)c5ccc2[nH]5)C=C4)C=C3)cc1
REMARK SMILES IDX 27 1 26 2 25 3 23 4 24 5 22 7 21 8 20 9 3 10 4 11 5 12 18 13
REMARK SMILES IDX 17 14 19 15 2 16 1 17 6 18 7 19 8 20 15 21 9 22 14 23 16 24
REMARK SMILES IDX 10 25 11 27 12 29 13 30 28 31 29 32 30 33 31 34 32 36 33 37
REMARK SMILES IDX 34 38 86 39 35 40 85 41 36 42 37 43 38 44 79 45 39 46 84 47
REMARK SMILES IDX 78 48 80 49 40 50 83 51 77 52 76 53 41 55 67 56 50 57 66 58
REMARK SMILES IDX 51 59 54 60 65 61 81 62 52 63 53 64 64 66 82 67 55 68 42 69
REMARK SMILES IDX 43 70 48 71 44 72 45 73 47 74 49 75 46 76 68 77 69 78 74 79
REMARK SMILES IDX 70 80 71 81 73 82 75 83 72 84 56 85 57 86 62 87 58 88 59 89
REMARK SMILES IDX 61 90 63 91 60 92
REMARK H PARENT 25 6 14 26 10 28 30 35 80 54 54 65
REMARK Flexibility Score: inf
ROOT
ATOM      1  C   UNL A   1      36.861  20.858  24.582  1.00  0.00     0.023 C 
ENDROOT
BRANCH   1   2
ATOM      2  C   UNL A   1      35.714  21.074  25.565  1.00  0.00     0.116 C 
BRANCH   2   3
ATOM      3  N   UNL A   1      34.423  20.851  24.950  1.00  0.00    -0.353 N 
ATOM      4  C   UNL A   1      33.184  21.128  25.451  1.00  0.00     0.257 C 
ATOM      5  O   UNL A   1      32.211  20.937  24.719  1.00  0.00    -0.271 OA
ATOM      6  H   UNL A   1      34.440  20.447  24.053  1.00  0.00     0.163 HD
BRANCH   4   7
ATOM      7  C   UNL A   1      33.045  21.741  26.853  1.00  0.00     0.329 C 
BRANCH   7   8
ATOM      8  O   UNL A   1      33.113  23.139  27.061  1.00  0.00    -0.479 OA
BRANCH   8   9
ATOM      9  C   UNL A   1      32.641  24.015  26.119  1.00  0.00     0.176 A 
ATOM     10  C   UNL A   1      31.282  24.383  26.299  1.00  0.00     0.162 A 
ATOM     11  C   UNL A   1      30.667  25.295  25.430  1.00  0.00     0.058 A 
ATOM     12  C   UNL A   1      31.378  25.842  24.365  1.00  0.00    -0.019 A 
ATOM     13  C   UNL A   1      33.368  24.633  25.090  1.00  0.00     0.064 A 
ATOM     14  C   UNL A   1      32.728  25.518  24.208  1.00  0.00     0.028 A 
ATOM     15  Br  UNL A   1      35.250  24.513  24.847  1.00  0.00    -0.047 Br
BRANCH  10  16
ATOM     16  O   UNL A   1      30.636  23.812  27.373  1.00  0.00    -0.493 OA
ATOM     17  C   UNL A   1      29.603  22.872  27.092  1.00  0.00     0.278 C 
ENDBRANCH  10  16
BRANCH  12  18
ATOM     18  C   UNL A   1      30.716  26.768  23.440  1.00  0.00     0.032 C 
ATOM     19  C   UNL A   1      30.711  28.100  23.582  1.00  0.00     0.110 C 
ATOM     20  S   UNL A   1      29.817  29.181  22.560  1.00  0.00     0.007 SA
ATOM     21  C   UNL A   1      31.370  28.890  24.660  1.00  0.00     0.346 C 
ATOM     22  C   UNL A   1      29.964  30.496  23.686  1.00  0.00     0.324 C 
ATOM     23  N   UNL A   1      30.850  30.153  24.657  1.00  0.00    -0.199 N 
ATOM     24  O   UNL A   1      32.239  28.503  25.417  1.00  0.00    -0.240 OA
ATOM     25  N   UNL A   1      29.431  31.657  23.759  1.00  0.00    -0.204 N 
ATOM     26  H   UNL A   1      31.112  30.803  25.349  1.00  0.00     0.316 HD
ATOM     27  C   UNL A   1      28.572  32.270  22.889  1.00  0.00     0.304 C 
ATOM     28  H   UNL A   1      29.675  32.184  24.553  1.00  0.00     0.316 HD
ATOM     29  C   UNL A   1      27.576  31.516  22.050  1.00  0.00     0.144 C 
ATOM     30  O   UNL A   1      28.543  33.501  22.831  1.00  0.00    -0.247 OA
ENDBRANCH  12  18
ENDBRANCH   8   9
ENDBRANCH   7   8
ENDBRANCH   4   7
ENDBRANCH   2   3
ENDBRANCH   1   2
BRANCH   1  31
ATOM     31  C   UNL A   1      37.858  19.762  24.963  1.00  0.00     0.023 C 
BRANCH  31  32
ATOM     32  C   UNL A   1      39.033  20.207  25.826  1.00  0.00     0.116 C 
BRANCH  32  33
ATOM     33  N   UNL A   1      40.142  19.267  25.806  1.00  0.00    -0.352 N 
ATOM     34  C   UNL A   1      41.471  19.478  26.081  1.00  0.00     0.251 C 
ATOM     35  H   UNL A   1      39.905  18.344  25.560  1.00  0.00     0.163 HD
ATOM     36  O   UNL A   1      42.286  18.583  25.879  1.00  0.00    -0.269 OA
BRANCH  34  37
ATOM     37  C   UNL A   1      41.931  20.792  26.586  1.00  0.00     0.039 A 
ATOM     38  C   UNL A   1      42.324  21.763  25.661  1.00  0.00     0.014 A 
ATOM     39  C   UNL A   1      41.983  21.072  27.954  1.00  0.00     0.014 A 
ATOM     40  C   UNL A   1      42.707  23.030  26.106  1.00  0.00     0.010 A 
ATOM     41  C   UNL A   1      42.283  22.361  28.390  1.00  0.00     0.010 A 
ATOM     42  C   UNL A   1      42.655  23.353  27.473  1.00  0.00    -0.014 A 
BRANCH  42  43
ATOM     43  C   UNL A   1      42.982  24.726  27.941  1.00  0.00     0.031 A 
ATOM     44  C   UNL A   1      44.412  25.147  28.150  1.00  0.00     0.074 A 
ATOM     45  C   UNL A   1      41.983  25.590  28.213  1.00  0.00     0.049 A 
ATOM     46  N   UNL A   1      44.884  26.305  28.540  1.00  0.00    -0.248 NA
ATOM     47  C   UNL A   1      45.446  24.128  27.914  1.00  0.00     0.031 C 
ATOM     48  C   UNL A   1      40.554  25.289  28.113  1.00  0.00     0.029 A 
ATOM     49  N   UNL A   1      42.017  26.898  28.626  1.00  0.00    -0.354 N 
ATOM     50  C   UNL A   1      46.264  26.150  28.600  1.00  0.00     0.074 A 
ATOM     51  C   UNL A   1      46.548  24.771  28.270  1.00  0.00     0.031 C 
ATOM     52  C   UNL A   1      39.849  26.389  28.417  1.00  0.00     0.029 A 
ATOM     53  C   UNL A   1      40.773  27.464  28.768  1.00  0.00     0.049 A 
ATOM     54  H   UNL A   1      42.854  27.385  28.804  1.00  0.00     0.167 HD
ATOM     55  C   UNL A   1      47.211  27.079  28.877  1.00  0.00     0.037 A 
ATOM     56  C   UNL A   1      40.415  28.709  29.135  1.00  0.00     0.037 A 
ATOM     57  C   UNL A   1      46.927  28.455  29.195  1.00  0.00     0.049 A 
ATOM     58  C   UNL A   1      41.484  29.721  29.437  1.00  0.00     0.074 A 
ATOM     59  C   UNL A   1      47.820  29.485  29.441  1.00  0.00     0.029 A 
ATOM     60  N   UNL A   1      45.655  28.992  29.317  1.00  0.00    -0.354 N 
ATOM     61  N   UNL A   1      42.788  29.582  29.412  1.00  0.00    -0.248 NA
ATOM     62  C   UNL A   1      41.032  31.069  29.806  1.00  0.00     0.031 C 
ATOM     63  C   UNL A   1      47.086  30.632  29.764  1.00  0.00     0.029 A 
ATOM     64  C   UNL A   1      45.737  30.334  29.655  1.00  0.00     0.049 A 
ATOM     65  H   UNL A   1      44.816  28.494  29.183  1.00  0.00     0.167 HD
ATOM     66  C   UNL A   1      43.311  30.830  29.726  1.00  0.00     0.074 A 
ATOM     67  C   UNL A   1      42.182  31.717  29.920  1.00  0.00     0.031 C 
ATOM     68  C   UNL A   1      44.607  31.209  29.840  1.00  0.00     0.037 A 
BRANCH  55  69
ATOM     69  C   UNL A   1      48.647  26.635  28.847  1.00  0.00     0.057 A 
ATOM     70  C   UNL A   1      49.414  26.692  27.675  1.00  0.00     0.134 A 
ATOM     71  C   UNL A   1      49.281  26.175  30.008  1.00  0.00     0.134 A 
ATOM     72  F   UNL A   1      48.869  27.113  26.523  1.00  0.00    -0.206 F 
ATOM     73  C   UNL A   1      50.749  26.282  27.652  1.00  0.00     0.040 A 
ATOM     74  C   UNL A   1      50.624  25.793  30.006  1.00  0.00     0.040 A 
ATOM     75  F   UNL A   1      48.610  26.100  31.167  1.00  0.00    -0.206 F 
ATOM     76  C   UNL A   1      51.359  25.838  28.823  1.00  0.00     0.006 A 
ENDBRANCH  55  69
BRANCH  56  77
ATOM     77  C   UNL A   1      38.977  29.082  29.204  1.00  0.00     0.057 A 
ATOM     78  C   UNL A   1      38.247  28.930  30.389  1.00  0.00     0.134 A 
ATOM     79  C   UNL A   1      38.297  29.582  28.088  1.00  0.00     0.134 A 
ATOM     80  F   UNL A   1      38.837  28.438  31.488  1.00  0.00    -0.206 F 
ATOM     81  C   UNL A   1      36.886  29.235  30.454  1.00  0.00     0.040 A 
ATOM     82  C   UNL A   1      36.944  29.920  28.148  1.00  0.00     0.040 A 
ATOM     83  F   UNL A   1      38.941  29.761  26.926  1.00  0.00    -0.206 F 
ATOM     84  C   UNL A   1      36.232  29.738  29.332  1.00  0.00     0.006 A 
ENDBRANCH  56  77
BRANCH  68  85
ATOM     85  C   UNL A   1      44.875  32.657  30.141  1.00  0.00     0.057 A 
ATOM     86  C   UNL A   1      45.018  33.134  31.451  1.00  0.00     0.134 A 
ATOM     87  C   UNL A   1      45.002  33.586  29.100  1.00  0.00     0.134 A 
ATOM     88  F   UNL A   1      44.898  32.301  32.495  1.00  0.00    -0.206 F 
ATOM     89  C   UNL A   1      45.238  34.487  31.715  1.00  0.00     0.040 A 
ATOM     90  C   UNL A   1      45.255  34.935  29.350  1.00  0.00     0.040 A 
ATOM     91  F   UNL A   1      44.887  33.198  27.820  1.00  0.00    -0.206 F 
ATOM     92  C   UNL A   1      45.362  35.391  30.662  1.00  0.00     0.006 A 
ENDBRANCH  68  85
ENDBRANCH  42  43
ENDBRANCH  34  37
ENDBRANCH  32  33
ENDBRANCH  31  32
ENDBRANCH   1  31
TORSDOF 15
ENDMDL
MODEL 2
REMARK VINA RESULT:     -12.3      1.018      6.043
REMARK SMILES COc1cc(/C=C2/S/C(=[NH+]\C(C)=O)NC2=O)cc(Br)c1OCC(=O)NCCCCNC(=O)c1ccc(-c2c3nc(c(-c4c(F)cccc4F)c4ccc([nH]4)c(-c4c(F)cccc4F)c4nc(c(-c5c(F)cccc5F)c5ccc2[nH]5)C=C4)C=C3)cc1
REMARK SMILES IDX 27 1 26 2 25 3 23 4 24 5 22 7 21 8 20 9 3 10 4 11 5 12 18 13
REMARK SMILES IDX 17 14 19 15 2 16 1 17 6 18 7 19 8 20 15 21 9 22 14 23 16 24
REMARK SMILES IDX 10 25 11 27 12 29 13 30 28 31 29 32 30 33 31 34 32 36 33 37
REMARK SMILES IDX 34 38 86 39 35 40 85 41 36 42 37 43 38 44 79 45 39 46 84 47
REMARK SMILES IDX 78 48 80 49 40 50 83 51 77 52 76 53 41 55 67 56 50 57 66 58
REMARK SMILES IDX 51 59 54 60 65 61 81 62 52 63 53 64 64 66 82 67 55 68 42 69
REMARK SMILES IDX 43 70 48 71 44 72 45 73 47 74 49 75 46 76 68 77 69 78 74 79
REMARK SMILES IDX 70 80 71 81 73 82 75 83 72 84 56 85 57 86 62 87 58 88 59 89
REMARK SMILES IDX 61 90 63 91 60 92
REMARK H PARENT 25 6 14 26 10 28 30 35 80 54 54 65
REMARK Flexibility Score: inf
ROOT
ATOM      1  C   UNL A   1      36.975  20.745  24.573  1.00  0.00     0.023 C 
ENDROOT
BRANCH   1   2
ATOM      2  C   UNL A   1      35.783  20.929  25.508  1.00  0.00     0.116 C 
BRANCH   2   3
ATOM      3  N   UNL A   1      34.521  20.801  24.811  1.00  0.00    -0.353 N 
ATOM      4  C   UNL A   1      33.273  21.141  25.244  1.00  0.00     0.257 C 
ATOM      5  O   UNL A   1      32.337  21.028  24.450  1.00  0.00    -0.271 OA
ATOM      6  H   UNL A   1      34.569  20.418  23.906  1.00  0.00     0.163 HD
BRANCH   4   7
ATOM      7  C   UNL A   1      33.085  21.728  26.652  1.00  0.00     0.329 C 
BRANCH   7   8
ATOM      8  O   UNL A   1      33.140  23.121  26.888  1.00  0.00    -0.479 OA
BRANCH   8   9
ATOM      9  C   UNL A   1      32.679  24.013  25.955  1.00  0.00     0.176 A 
ATOM     10  C   UNL A   1      31.337  24.426  26.162  1.00  0.00     0.162 A 
ATOM     11  C   UNL A   1      30.734  25.358  25.306  1.00  0.00     0.058 A 
ATOM     12  C   UNL A   1      31.441  25.880  24.226  1.00  0.00    -0.019 A 
ATOM     13  C   UNL A   1      33.404  24.605  24.910  1.00  0.00     0.064 A 
ATOM     14  C   UNL A   1      32.776  25.511  24.041  1.00  0.00     0.028 A 
ATOM     15  Br  UNL A   1      35.276  24.423  24.628  1.00  0.00    -0.047 Br
BRANCH  10  16
ATOM     16  O   UNL A   1      30.694  23.877  27.251  1.00  0.00    -0.493 OA
ATOM     17  C   UNL A   1      29.645  22.950  26.992  1.00  0.00     0.278 C 
ENDBRANCH  10  16
BRANCH  12  18
ATOM     18  C   UNL A   1      30.792  26.827  23.313  1.00  0.00     0.032 C 
ATOM     19  C   UNL A   1      30.773  28.155  23.493  1.00  0.00     0.110 C 
ATOM     20  S   UNL A   1      29.893  29.258  22.484  1.00  0.00     0.007 SA
ATOM     21  C   UNL A   1      31.404  28.918  24.606  1.00  0.00     0.346 C 
ATOM     22  C   UNL A   1      30.006  30.542  23.649  1.00  0.00     0.324 C 
ATOM     23  N   UNL A   1      30.874  30.178  24.629  1.00  0.00    -0.199 N 
ATOM     24  O   UNL A   1      32.260  28.517  25.370  1.00  0.00    -0.240 OA
ATOM     25  N   UNL A   1      29.462  31.697  23.743  1.00  0.00    -0.204 N 
ATOM     26  H   UNL A   1      31.116  30.809  25.344  1.00  0.00     0.316 HD
ATOM     27  C   UNL A   1      28.616  32.328  22.874  1.00  0.00     0.304 C 
ATOM     28  H   UNL A   1      29.685  32.202  24.558  1.00  0.00     0.316 HD
ATOM     29  C   UNL A   1      27.644  31.591  21.993  1.00  0.00     0.144 C 
ATOM     30  O   UNL A   1      28.579  33.559  22.851  1.00  0.00    -0.247 OA
ENDBRANCH  12  18
ENDBRANCH   8   9
ENDBRANCH   7   8
ENDBRANCH   4   7
ENDBRANCH   2   3
ENDBRANCH   1   2
BRANCH   1  31
ATOM     31  C   UNL A   1      37.952  19.634  24.961  1.00  0.00     0.023 C 
BRANCH  31  32
ATOM     32  C   UNL A   1      39.174  20.076  25.756  1.00  0.00     0.116 C 
BRANCH  32  33
ATOM     33  N   UNL A   1      40.202  19.050  25.839  1.00  0.00    -0.352 N 
ATOM     34  C   UNL A   1      41.549  19.180  26.073  1.00  0.00     0.251 C 
ATOM     35  H   UNL A   1      39.885  18.127  25.707  1.00  0.00     0.163 HD
ATOM     36  O   UNL A   1      42.283  18.201  25.972  1.00  0.00    -0.269 OA
BRANCH  34  37
ATOM     37  C   UNL A   1      42.126  20.501  26.411  1.00  0.00     0.039 A 
ATOM     38  C   UNL A   1      42.572  21.321  25.371  1.00  0.00     0.014 A 
ATOM     39  C   UNL A   1      42.234  20.933  27.735  1.00  0.00     0.014 A 
ATOM     40  C   UNL A   1      43.067  22.595  25.657  1.00  0.00     0.010 A 
ATOM     41  C   UNL A   1      42.648  22.235  28.012  1.00  0.00     0.010 A 
ATOM     42  C   UNL A   1      43.076  23.079  26.978  1.00  0.00    -0.014 A 
BRANCH  42  43
ATOM     43  C   UNL A   1      43.524  24.466  27.275  1.00  0.00     0.031 A 
ATOM     44  C   UNL A   1      42.537  25.516  27.705  1.00  0.00     0.074 A 
ATOM     45  C   UNL A   1      44.824  24.789  27.123  1.00  0.00     0.049 A 
ATOM     46  N   UNL A   1      42.749  26.771  28.018  1.00  0.00    -0.248 NA
ATOM     47  C   UNL A   1      41.123  25.115  27.770  1.00  0.00     0.031 C 
ATOM     48  C   UNL A   1      45.872  23.882  26.652  1.00  0.00     0.029 A 
ATOM     49  N   UNL A   1      45.486  25.969  27.351  1.00  0.00    -0.354 N 
ATOM     50  C   UNL A   1      41.499  27.305  28.309  1.00  0.00     0.074 A 
ATOM     51  C   UNL A   1      40.529  26.259  28.074  1.00  0.00     0.031 C 
ATOM     52  C   UNL A   1      47.050  24.525  26.664  1.00  0.00     0.029 A 
ATOM     53  C   UNL A   1      46.836  25.900  27.107  1.00  0.00     0.049 A 
ATOM     54  H   UNL A   1      45.036  26.788  27.660  1.00  0.00     0.167 HD
ATOM     55  C   UNL A   1      41.190  28.545  28.759  1.00  0.00     0.037 A 
ATOM     56  C   UNL A   1      47.797  26.835  27.231  1.00  0.00     0.037 A 
ATOM     57  C   UNL A   1      42.158  29.582  29.004  1.00  0.00     0.049 A 
ATOM     58  C   UNL A   1      47.428  28.204  27.732  1.00  0.00     0.074 A 
ATOM     59  C   UNL A   1      41.951  30.855  29.508  1.00  0.00     0.029 A 
ATOM     60  N   UNL A   1      43.518  29.469  28.756  1.00  0.00    -0.354 N 
ATOM     61  N   UNL A   1      46.253  28.670  28.080  1.00  0.00    -0.248 NA
ATOM     62  C   UNL A   1      48.524  29.173  27.871  1.00  0.00     0.031 C 
ATOM     63  C   UNL A   1      43.177  31.530  29.516  1.00  0.00     0.029 A 
ATOM     64  C   UNL A   1      44.159  30.656  29.078  1.00  0.00     0.049 A 
ATOM     65  H   UNL A   1      43.963  28.665  28.405  1.00  0.00     0.167 HD
ATOM     66  C   UNL A   1      46.473  29.972  28.512  1.00  0.00     0.074 A 
ATOM     67  C   UNL A   1      47.896  30.214  28.398  1.00  0.00     0.031 C 
ATOM     68  C   UNL A   1      45.578  30.884  28.965  1.00  0.00     0.037 A 
BRANCH  55  69
ATOM     69  C   UNL A   1      39.740  28.847  29.019  1.00  0.00     0.057 A 
ATOM     70  C   UNL A   1      39.167  28.689  30.289  1.00  0.00     0.134 A 
ATOM     71  C   UNL A   1      38.914  29.331  27.997  1.00  0.00     0.134 A 
ATOM     72  F   UNL A   1      39.898  28.219  31.312  1.00  0.00    -0.206 F 
ATOM     73  C   UNL A   1      37.821  28.974  30.526  1.00  0.00     0.040 A 
ATOM     74  C   UNL A   1      37.574  29.651  28.229  1.00  0.00     0.040 A 
ATOM     75  F   UNL A   1      39.396  29.514  26.759  1.00  0.00    -0.206 F 
ATOM     76  C   UNL A   1      37.023  29.464  29.495  1.00  0.00     0.006 A 
ENDBRANCH  55  69
BRANCH  56  77
ATOM     77  C   UNL A   1      49.209  26.502  26.907  1.00  0.00     0.057 A 
ATOM     78  C   UNL A   1      50.075  25.995  27.884  1.00  0.00     0.134 A 
ATOM     79  C   UNL A   1      49.731  26.695  25.623  1.00  0.00     0.134 A 
ATOM     80  F   UNL A   1      49.640  25.804  29.138  1.00  0.00    -0.206 F 
ATOM     81  C   UNL A   1      51.414  25.719  27.604  1.00  0.00     0.040 A 
ATOM     82  C   UNL A   1      51.060  26.395  25.321  1.00  0.00     0.040 A 
ATOM     83  F   UNL A   1      48.951  27.168  24.640  1.00  0.00    -0.206 F 
ATOM     84  C   UNL A   1      51.909  25.915  26.316  1.00  0.00     0.006 A 
ENDBRANCH  56  77
BRANCH  68  85
ATOM     85  C   UNL A   1      46.120  32.211  29.419  1.00  0.00     0.057 A 
ATOM     86  C   UNL A   1      46.557  32.428  30.732  1.00  0.00     0.134 A 
ATOM     87  C   UNL A   1      46.215  33.282  28.522  1.00  0.00     0.134 A 
ATOM     88  F   UNL A   1      46.485  31.449  31.645  1.00  0.00    -0.206 F 
ATOM     89  C   UNL A   1      47.032  33.675  31.146  1.00  0.00     0.040 A 
ATOM     90  C   UNL A   1      46.719  34.523  28.915  1.00  0.00     0.040 A 
ATOM     91  F   UNL A   1      45.825  33.141  27.245  1.00  0.00    -0.206 F 
ATOM     92  C   UNL A   1      47.118  34.725  30.234  1.00  0.00     0.006 A 
ENDBRANCH  68  85
ENDBRANCH  42  43
ENDBRANCH  34  37
ENDBRANCH  32  33
ENDBRANCH  31  32
ENDBRANCH   1  31
TORSDOF 15
ENDMDL
MODEL 3
REMARK VINA RESULT:     -12.1      1.893      2.281
REMARK SMILES COc1cc(/C=C2/S/C(=[NH+]\C(C)=O)NC2=O)cc(Br)c1OCC(=O)NCCCCNC(=O)c1ccc(-c2c3nc(c(-c4c(F)cccc4F)c4ccc([nH]4)c(-c4c(F)cccc4F)c4nc(c(-c5c(F)cccc5F)c5ccc2[nH]5)C=C4)C=C3)cc1
REMARK SMILES IDX 27 1 26 2 25 3 23 4 24 5 22 7 21 8 20 9 3 10 4 11 5 12 18 13
REMARK SMILES IDX 17 14 19 15 2 16 1 17 6 18 7 19 8 20 15 21 9 22 14 23 16 24
REMARK SMILES IDX 10 25 11 27 12 29 13 30 28 31 29 32 30 33 31 34 32 36 33 37
REMARK SMILES IDX 34 38 86 39 35 40 85 41 36 42 37 43 38 44 79 45 39 46 84 47
REMARK SMILES IDX 78 48 80 49 40 50 83 51 77 52 76 53 41 55 67 56 50 57 66 58
REMARK SMILES IDX 51 59 54 60 65 61 81 62 52 63 53 64 64 66 82 67 55 68 42 69
REMARK SMILES IDX 43 70 48 71 44 72 45 73 47 74 49 75 46 76 68 77 69 78 74 79
REMARK SMILES IDX 70 80 71 81 73 82 75 83 72 84 56 85 57 86 62 87 58 88 59 89
REMARK SMILES IDX 61 90 63 91 60 92
REMARK H PARENT 25 6 14 26 10 28 30 35 80 54 54 65
REMARK Flexibility Score: inf
ROOT
ATOM      1  C   UNL A   1      36.362  20.031  25.000  1.00  0.00     0.023 C 
ENDROOT
BRANCH   1   2
ATOM      2  C   UNL A   1      35.860  21.460  25.181  1.00  0.00     0.116 C 
BRANCH   2   3
ATOM      3  N   UNL A   1      35.168  21.638  26.440  1.00  0.00    -0.353 N 
ATOM      4  C   UNL A   1      33.835  21.514  26.702  1.00  0.00     0.257 C 
ATOM      5  O   UNL A   1      33.465  21.624  27.872  1.00  0.00    -0.271 OA
ATOM      6  H   UNL A   1      35.734  21.879  27.208  1.00  0.00     0.163 HD
BRANCH   4   7
ATOM      7  C   UNL A   1      32.862  21.161  25.566  1.00  0.00     0.329 C 
BRANCH   7   8
ATOM      8  O   UNL A   1      31.653  21.871  25.377  1.00  0.00    -0.479 OA
BRANCH   8   9
ATOM      9  C   UNL A   1      31.654  23.230  25.202  1.00  0.00     0.176 A 
ATOM     10  C   UNL A   1      31.091  23.954  26.285  1.00  0.00     0.162 A 
ATOM     11  C   UNL A   1      31.048  25.355  26.264  1.00  0.00     0.058 A 
ATOM     12  C   UNL A   1      31.544  26.057  25.168  1.00  0.00    -0.019 A 
ATOM     13  C   UNL A   1      32.221  23.952  24.141  1.00  0.00     0.064 A 
ATOM     14  C   UNL A   1      32.139  25.353  24.119  1.00  0.00     0.028 A 
ATOM     15  Br  UNL A   1      33.273  23.210  22.742  1.00  0.00    -0.047 Br
BRANCH  10  16
ATOM     16  O   UNL A   1      30.623  23.202  27.340  1.00  0.00    -0.493 OA
ATOM     17  C   UNL A   1      29.293  22.702  27.249  1.00  0.00     0.278 C 
ENDBRANCH  10  16
BRANCH  12  18
ATOM     18  C   UNL A   1      31.462  27.522  25.138  1.00  0.00     0.032 C 
ATOM     19  C   UNL A   1      32.395  28.339  25.645  1.00  0.00     0.110 C 
ATOM     20  S   UNL A   1      32.232  30.065  25.725  1.00  0.00     0.007 SA
ATOM     21  C   UNL A   1      33.672  27.944  26.302  1.00  0.00     0.346 C 
ATOM     22  C   UNL A   1      33.525  30.215  26.876  1.00  0.00     0.324 C 
ATOM     23  N   UNL A   1      34.166  29.022  26.983  1.00  0.00    -0.199 N 
ATOM     24  O   UNL A   1      34.214  26.858  26.244  1.00  0.00    -0.240 OA
ATOM     25  N   UNL A   1      33.961  31.183  27.590  1.00  0.00    -0.204 N 
ATOM     26  H   UNL A   1      34.971  28.934  27.542  1.00  0.00     0.316 HD
ATOM     27  C   UNL A   1      33.547  32.486  27.625  1.00  0.00     0.304 C 
ATOM     28  H   UNL A   1      34.699  30.958  28.201  1.00  0.00     0.316 HD
ATOM     29  C   UNL A   1      32.127  32.905  27.356  1.00  0.00     0.144 C 
ATOM     30  O   UNL A   1      34.341  33.365  27.965  1.00  0.00    -0.247 OA
ENDBRANCH  12  18
ENDBRANCH   8   9
ENDBRANCH   7   8
ENDBRANCH   4   7
ENDBRANCH   2   3
ENDBRANCH   1   2
BRANCH   1  31
ATOM     31  C   UNL A   1      37.836  19.893  24.615  1.00  0.00     0.023 C 
BRANCH  31  32
ATOM     32  C   UNL A   1      38.837  20.101  25.745  1.00  0.00     0.116 C 
BRANCH  32  33
ATOM     33  N   UNL A   1      39.898  19.107  25.756  1.00  0.00    -0.352 N 
ATOM     34  C   UNL A   1      41.244  19.267  25.983  1.00  0.00     0.251 C 
ATOM     35  H   UNL A   1      39.610  18.183  25.574  1.00  0.00     0.163 HD
ATOM     36  O   UNL A   1      42.008  18.321  25.816  1.00  0.00    -0.269 OA
BRANCH  34  37
ATOM     37  C   UNL A   1      41.781  20.585  26.392  1.00  0.00     0.039 A 
ATOM     38  C   UNL A   1      42.103  21.514  25.398  1.00  0.00     0.014 A 
ATOM     39  C   UNL A   1      41.974  20.909  27.737  1.00  0.00     0.014 A 
ATOM     40  C   UNL A   1      42.557  22.784  25.757  1.00  0.00     0.010 A 
ATOM     41  C   UNL A   1      42.346  22.203  28.095  1.00  0.00     0.010 A 
ATOM     42  C   UNL A   1      42.648  23.154  27.111  1.00  0.00    -0.014 A 
BRANCH  42  43
ATOM     43  C   UNL A   1      43.051  24.533  27.495  1.00  0.00     0.031 A 
ATOM     44  C   UNL A   1      44.495  24.955  27.438  1.00  0.00     0.074 A 
ATOM     45  C   UNL A   1      42.115  25.401  27.929  1.00  0.00     0.049 A 
ATOM     46  N   UNL A   1      45.027  26.118  27.722  1.00  0.00    -0.248 NA
ATOM     47  C   UNL A   1      45.472  23.933  27.035  1.00  0.00     0.031 C 
ATOM     48  C   UNL A   1      40.692  25.100  28.091  1.00  0.00     0.029 A 
ATOM     49  N   UNL A   1      42.220  26.715  28.312  1.00  0.00    -0.354 N 
ATOM     50  C   UNL A   1      46.396  25.964  27.537  1.00  0.00     0.074 A 
ATOM     51  C   UNL A   1      46.618  24.580  27.180  1.00  0.00     0.031 C 
ATOM     52  C   UNL A   1      40.051  26.205  28.501  1.00  0.00     0.029 A 
ATOM     53  C   UNL A   1      41.021  27.283  28.667  1.00  0.00     0.049 A 
ATOM     54  H   UNL A   1      43.075  27.204  28.332  1.00  0.00     0.167 HD
ATOM     55  C   UNL A   1      47.376  26.896  27.628  1.00  0.00     0.037 A 
ATOM     56  C   UNL A   1      40.732  28.533  29.075  1.00  0.00     0.037 A 
ATOM     57  C   UNL A   1      47.151  28.275  27.972  1.00  0.00     0.049 A 
ATOM     58  C   UNL A   1      41.837  29.548  29.168  1.00  0.00     0.074 A 
ATOM     59  C   UNL A   1      48.071  29.308  28.041  1.00  0.00     0.029 A 
ATOM     60  N   UNL A   1      45.920  28.815  28.313  1.00  0.00    -0.354 N 
ATOM     61  N   UNL A   1      43.115  29.408  28.912  1.00  0.00    -0.248 NA
ATOM     62  C   UNL A   1      41.456  30.902  29.594  1.00  0.00     0.031 C 
ATOM     63  C   UNL A   1      47.405  30.460  28.475  1.00  0.00     0.029 A 
ATOM     64  C   UNL A   1      46.059  30.162  28.613  1.00  0.00     0.049 A 
ATOM     65  H   UNL A   1      45.072  28.316  28.338  1.00  0.00     0.167 HD
ATOM     66  C   UNL A   1      43.684  30.660  29.111  1.00  0.00     0.074 A 
ATOM     67  C   UNL A   1      42.607  31.550  29.492  1.00  0.00     0.031 C 
ATOM     68  C   UNL A   1      44.979  31.040  28.986  1.00  0.00     0.037 A 
BRANCH  55  69
ATOM     69  C   UNL A   1      48.784  26.450  27.346  1.00  0.00     0.057 A 
ATOM     70  C   UNL A   1      49.633  25.996  28.364  1.00  0.00     0.134 A 
ATOM     71  C   UNL A   1      49.287  26.445  26.039  1.00  0.00     0.134 A 
ATOM     72  F   UNL A   1      49.221  25.983  29.641  1.00  0.00    -0.206 F 
ATOM     73  C   UNL A   1      50.940  25.579  28.097  1.00  0.00     0.040 A 
ATOM     74  C   UNL A   1      50.580  26.001  25.755  1.00  0.00     0.040 A 
ATOM     75  F   UNL A   1      48.527  26.860  25.014  1.00  0.00    -0.206 F 
ATOM     76  C   UNL A   1      51.413  25.575  26.787  1.00  0.00     0.006 A 
ENDBRANCH  55  69
BRANCH  56  77
ATOM     77  C   UNL A   1      39.330  28.908  29.396  1.00  0.00     0.057 A 
ATOM     78  C   UNL A   1      38.802  28.708  30.678  1.00  0.00     0.134 A 
ATOM     79  C   UNL A   1      38.480  29.458  28.429  1.00  0.00     0.134 A 
ATOM     80  F   UNL A   1      39.560  28.167  31.643  1.00  0.00    -0.206 F 
ATOM     81  C   UNL A   1      37.474  29.015  30.979  1.00  0.00     0.040 A 
ATOM     82  C   UNL A   1      37.159  29.799  28.725  1.00  0.00     0.040 A 
ATOM     83  F   UNL A   1      38.927  29.685  27.185  1.00  0.00    -0.206 F 
ATOM     84  C   UNL A   1      36.650  29.568  30.001  1.00  0.00     0.006 A 
ENDBRANCH  56  77
BRANCH  68  85
ATOM     85  C   UNL A   1      45.294  32.492  29.215  1.00  0.00     0.057 A 
ATOM     86  C   UNL A   1      45.701  32.979  30.464  1.00  0.00     0.134 A 
ATOM     87  C   UNL A   1      45.197  33.412  28.164  1.00  0.00     0.134 A 
ATOM     88  F   UNL A   1      45.804  32.155  31.516  1.00  0.00    -0.206 F 
ATOM     89  C   UNL A   1      45.962  34.336  30.667  1.00  0.00     0.040 A 
ATOM     90  C   UNL A   1      45.488  34.765  28.347  1.00  0.00     0.040 A 
ATOM     91  F   UNL A   1      44.824  33.013  26.938  1.00  0.00    -0.206 F 
ATOM     92  C   UNL A   1      45.861  35.232  29.605  1.00  0.00     0.006 A 
ENDBRANCH  68  85
ENDBRANCH  42  43
ENDBRANCH  34  37
ENDBRANCH  32  33
ENDBRANCH  31  32
ENDBRANCH   1  31
TORSDOF 15
ENDMDL
