MODEL 1
REMARK VINA RESULT:     -11.6      0.000      0.000
REMARK SMILES C[C@@]1(O)N(CC(=O)NCCCCNC(=O)c2ccc(-c3c4nc(c(-c5c(F)cccc5F)c5ccc([nH]5)c(-c5c(F)cccc5F)c5nc(c(-c6c(F)cccc6F)c6ccc3[nH]6)C=C5)C=C4)cc2)C(=O)OC12CCCCC2
REMARK SMILES IDX 10 1 9 2 8 3 6 4 7 5 5 7 4 8 1 9 2 10 73 11 70 12 72 13
REMARK SMILES IDX 74 14 78 15 71 16 75 17 77 18 76 19 3 20 11 22 12 23 13 24
REMARK SMILES IDX 14 25 15 27 16 28 17 29 69 30 18 31 68 32 19 33 20 34 21 35
REMARK SMILES IDX 62 36 22 37 67 38 61 39 63 40 23 41 66 42 60 43 59 44 24 46
REMARK SMILES IDX 50 47 33 48 49 49 34 50 37 51 48 52 64 53 35 54 36 55 47 57
REMARK SMILES IDX 65 58 38 59 25 60 26 61 31 62 27 63 28 64 30 65 32 66 29 67
REMARK SMILES IDX 51 68 52 69 57 70 53 71 54 72 56 73 58 74 55 75 39 76 40 77
REMARK SMILES IDX 45 78 41 79 42 80 44 81 46 82 43 83
REMARK H PARENT 8 6 3 21 13 26 63 45 37 56
REMARK Flexibility Score: inf
ROOT
ATOM      1  C   UNL A   1      37.091  21.181  24.765  1.00  0.00     0.023 C 
ENDROOT
BRANCH   1   2
ATOM      2  C   UNL A   1      35.657  20.846  25.166  1.00  0.00     0.116 C 
BRANCH   2   3
ATOM      3  N   UNL A   1      35.308  21.395  26.462  1.00  0.00    -0.355 N 
ATOM      4  C   UNL A   1      34.177  22.062  26.832  1.00  0.00     0.239 C 
ATOM      5  O   UNL A   1      34.024  22.356  28.018  1.00  0.00    -0.273 OA
ATOM      6  H   UNL A   1      35.980  21.269  27.172  1.00  0.00     0.163 HD
BRANCH   4   7
ATOM      7  C   UNL A   1      33.106  22.367  25.791  1.00  0.00     0.226 C 
BRANCH   7   8
ATOM      8  N   UNL A   1      32.703  23.766  25.721  1.00  0.00    -0.267 N 
ATOM      9  C   UNL A   1      34.889  24.678  25.017  1.00  0.00     0.072 C 
ATOM     10  C   UNL A   1      33.367  24.768  24.934  1.00  0.00     0.181 C 
ATOM     11  C   UNL A   1      32.724  26.097  25.460  1.00  0.00     0.161 C 
ATOM     12  C   UNL A   1      31.799  24.306  26.590  1.00  0.00     0.413 C 
ATOM     13  O   UNL A   1      31.758  25.655  26.451  1.00  0.00    -0.438 OA
ATOM     14  C   UNL A   1      33.716  27.029  26.181  1.00  0.00     0.054 C 
ATOM     15  C   UNL A   1      31.903  26.872  24.408  1.00  0.00     0.054 C 
ATOM     16  O   UNL A   1      31.108  23.692  27.388  1.00  0.00    -0.224 OA
ATOM     17  C   UNL A   1      33.071  28.308  26.714  1.00  0.00     0.004 C 
ATOM     18  C   UNL A   1      31.271  28.150  24.972  1.00  0.00     0.004 C 
ATOM     19  C   UNL A   1      32.315  29.049  25.620  1.00  0.00     0.000 C 
BRANCH  10  20
ATOM     20  O   UNL A   1      33.046  24.524  23.574  1.00  0.00    -0.367 OA
ATOM     21  H   UNL A   1      33.835  24.662  23.027  1.00  0.00     0.213 HD
ENDBRANCH  10  20
ENDBRANCH   7   8
ENDBRANCH   4   7
ENDBRANCH   2   3
ENDBRANCH   1   2
BRANCH   1  22
ATOM     22  C   UNL A   1      38.069  20.013  24.902  1.00  0.00     0.023 C 
BRANCH  22  23
ATOM     23  C   UNL A   1      39.091  20.194  26.016  1.00  0.00     0.116 C 
BRANCH  23  24
ATOM     24  N   UNL A   1      40.230  19.301  25.865  1.00  0.00    -0.352 N 
ATOM     25  C   UNL A   1      41.567  19.579  25.986  1.00  0.00     0.251 C 
ATOM     26  H   UNL A   1      40.010  18.367  25.645  1.00  0.00     0.163 HD
ATOM     27  O   UNL A   1      42.407  18.759  25.634  1.00  0.00    -0.269 OA
BRANCH  25  28
ATOM     28  C   UNL A   1      41.983  20.890  26.521  1.00  0.00     0.039 A 
ATOM     29  C   UNL A   1      42.334  21.904  25.629  1.00  0.00     0.014 A 
ATOM     30  C   UNL A   1      41.996  21.119  27.899  1.00  0.00     0.014 A 
ATOM     31  C   UNL A   1      42.642  23.172  26.121  1.00  0.00     0.010 A 
ATOM     32  C   UNL A   1      42.215  22.403  28.380  1.00  0.00     0.010 A 
ATOM     33  C   UNL A   1      42.546  23.442  27.497  1.00  0.00    -0.014 A 
BRANCH  33  34
ATOM     34  C   UNL A   1      42.796  24.802  28.032  1.00  0.00     0.031 A 
ATOM     35  C   UNL A   1      44.177  25.189  28.484  1.00  0.00     0.074 A 
ATOM     36  C   UNL A   1      41.771  25.666  28.161  1.00  0.00     0.049 A 
ATOM     37  N   UNL A   1      44.581  26.299  29.046  1.00  0.00    -0.248 NA
ATOM     38  C   UNL A   1      45.240  24.185  28.306  1.00  0.00     0.031 C 
ATOM     39  C   UNL A   1      40.377  25.389  27.804  1.00  0.00     0.029 A 
ATOM     40  N   UNL A   1      41.740  26.951  28.641  1.00  0.00    -0.354 N 
ATOM     41  C   UNL A   1      45.938  26.126  29.287  1.00  0.00     0.074 A 
ATOM     42  C   UNL A   1      46.276  24.782  28.877  1.00  0.00     0.031 C 
ATOM     43  C   UNL A   1      39.633  26.478  28.057  1.00  0.00     0.029 A 
ATOM     44  C   UNL A   1      40.486  27.513  28.635  1.00  0.00     0.049 A 
ATOM     45  H   UNL A   1      42.541  27.427  28.959  1.00  0.00     0.167 HD
ATOM     46  C   UNL A   1      46.830  27.019  29.778  1.00  0.00     0.037 A 
ATOM     47  C   UNL A   1      40.068  28.719  29.060  1.00  0.00     0.037 A 
ATOM     48  C   UNL A   1      46.493  28.361  30.173  1.00  0.00     0.049 A 
ATOM     49  C   UNL A   1      41.076  29.682  29.627  1.00  0.00     0.074 A 
ATOM     50  C   UNL A   1      47.329  29.354  30.651  1.00  0.00     0.029 A 
ATOM     51  N   UNL A   1      45.216  28.898  30.133  1.00  0.00    -0.354 N 
ATOM     52  N   UNL A   1      42.368  29.526  29.792  1.00  0.00    -0.248 NA
ATOM     53  C   UNL A   1      40.571  30.993  30.058  1.00  0.00     0.031 C 
ATOM     54  C   UNL A   1      46.552  30.477  30.945  1.00  0.00     0.029 A 
ATOM     55  C   UNL A   1      45.239  30.203  30.596  1.00  0.00     0.049 A 
ATOM     56  H   UNL A   1      44.412  28.423  29.824  1.00  0.00     0.167 HD
ATOM     57  C   UNL A   1      42.832  30.727  30.315  1.00  0.00     0.074 A 
ATOM     58  C   UNL A   1      41.688  31.607  30.421  1.00  0.00     0.031 C 
ATOM     59  C   UNL A   1      44.092  31.071  30.678  1.00  0.00     0.037 A 
BRANCH  46  60
ATOM     60  C   UNL A   1      48.260  26.580  29.898  1.00  0.00     0.057 A 
ATOM     61  C   UNL A   1      48.717  25.864  31.013  1.00  0.00     0.134 A 
ATOM     62  C   UNL A   1      49.178  26.824  28.869  1.00  0.00     0.134 A 
ATOM     63  F   UNL A   1      47.893  25.607  32.041  1.00  0.00    -0.206 F 
ATOM     64  C   UNL A   1      50.039  25.425  31.110  1.00  0.00     0.040 A 
ATOM     65  C   UNL A   1      50.493  26.365  28.940  1.00  0.00     0.040 A 
ATOM     66  F   UNL A   1      48.807  27.500  27.771  1.00  0.00    -0.206 F 
ATOM     67  C   UNL A   1      50.929  25.666  30.065  1.00  0.00     0.006 A 
ENDBRANCH  46  60
BRANCH  47  68
ATOM     68  C   UNL A   1      38.632  29.094  28.971  1.00  0.00     0.057 A 
ATOM     69  C   UNL A   1      38.077  29.571  27.778  1.00  0.00     0.134 A 
ATOM     70  C   UNL A   1      37.790  29.023  30.088  1.00  0.00     0.134 A 
ATOM     71  F   UNL A   1      38.835  29.679  26.676  1.00  0.00    -0.206 F 
ATOM     72  C   UNL A   1      36.750  29.998  27.706  1.00  0.00     0.040 A 
ATOM     73  C   UNL A   1      36.453  29.415  30.023  1.00  0.00     0.040 A 
ATOM     74  F   UNL A   1      38.255  28.565  31.259  1.00  0.00    -0.206 F 
ATOM     75  C   UNL A   1      35.932  29.919  28.832  1.00  0.00     0.006 A 
ENDBRANCH  47  68
BRANCH  59  76
ATOM     76  C   UNL A   1      44.307  32.470  31.177  1.00  0.00     0.057 A 
ATOM     77  C   UNL A   1      44.590  33.533  30.309  1.00  0.00     0.134 A 
ATOM     78  C   UNL A   1      44.191  32.764  32.542  1.00  0.00     0.134 A 
ATOM     79  F   UNL A   1      44.727  33.318  28.992  1.00  0.00    -0.206 F 
ATOM     80  C   UNL A   1      44.776  34.832  30.785  1.00  0.00     0.040 A 
ATOM     81  C   UNL A   1      44.343  34.064  33.025  1.00  0.00     0.040 A 
ATOM     82  F   UNL A   1      43.910  31.794  33.426  1.00  0.00    -0.206 F 
ATOM     83  C   UNL A   1      44.646  35.101  32.146  1.00  0.00     0.006 A 
ENDBRANCH  59  76
ENDBRANCH  33  34
ENDBRANCH  25  28
ENDBRANCH  23  24
ENDBRANCH  22  23
ENDBRANCH   1  22
TORSDOF 13
ENDMDL
MODEL 2
REMARK VINA RESULT:     -11.6      0.191      1.631
REMARK SMILES C[C@@]1(O)N(CC(=O)NCCCCNC(=O)c2ccc(-c3c4nc(c(-c5c(F)cccc5F)c5ccc([nH]5)c(-c5c(F)cccc5F)c5nc(c(-c6c(F)cccc6F)c6ccc3[nH]6)C=C5)C=C4)cc2)C(=O)OC12CCCCC2
REMARK SMILES IDX 10 1 9 2 8 3 6 4 7 5 5 7 4 8 1 9 2 10 73 11 70 12 72 13
REMARK SMILES IDX 74 14 78 15 71 16 75 17 77 18 76 19 3 20 11 22 12 23 13 24
REMARK SMILES IDX 14 25 15 27 16 28 17 29 69 30 18 31 68 32 19 33 20 34 21 35
REMARK SMILES IDX 62 36 22 37 67 38 61 39 63 40 23 41 66 42 60 43 59 44 24 46
REMARK SMILES IDX 50 47 33 48 49 49 34 50 37 51 48 52 64 53 35 54 36 55 47 57
REMARK SMILES IDX 65 58 38 59 25 60 26 61 31 62 27 63 28 64 30 65 32 66 29 67
REMARK SMILES IDX 51 68 52 69 57 70 53 71 54 72 56 73 58 74 55 75 39 76 40 77
REMARK SMILES IDX 45 78 41 79 42 80 44 81 46 82 43 83
REMARK H PARENT 8 6 3 21 13 26 63 45 37 56
REMARK Flexibility Score: inf
ROOT
ATOM      1  C   UNL A   1      36.707  20.984  24.623  1.00  0.00     0.023 C 
ENDROOT
BRANCH   1   2
ATOM      2  C   UNL A   1      35.294  20.650  25.095  1.00  0.00     0.116 C 
BRANCH   2   3
ATOM      3  N   UNL A   1      34.997  21.234  26.388  1.00  0.00    -0.355 N 
ATOM      4  C   UNL A   1      33.926  21.996  26.757  1.00  0.00     0.239 C 
ATOM      5  O   UNL A   1      33.802  22.308  27.942  1.00  0.00    -0.273 OA
ATOM      6  H   UNL A   1      35.657  21.056  27.097  1.00  0.00     0.163 HD
BRANCH   4   7
ATOM      7  C   UNL A   1      32.882  22.383  25.717  1.00  0.00     0.226 C 
BRANCH   7   8
ATOM      8  N   UNL A   1      32.566  23.805  25.668  1.00  0.00    -0.267 N 
ATOM      9  C   UNL A   1      34.803  24.589  24.970  1.00  0.00     0.072 C 
ATOM     10  C   UNL A   1      33.289  24.775  24.893  1.00  0.00     0.181 C 
ATOM     11  C   UNL A   1      32.732  26.134  25.440  1.00  0.00     0.161 C 
ATOM     12  C   UNL A   1      31.700  24.388  26.547  1.00  0.00     0.413 C 
ATOM     13  O   UNL A   1      31.743  25.738  26.428  1.00  0.00    -0.438 OA
ATOM     14  C   UNL A   1      33.782  26.992  26.171  1.00  0.00     0.054 C 
ATOM     15  C   UNL A   1      31.958  26.974  24.402  1.00  0.00     0.054 C 
ATOM     16  O   UNL A   1      30.974  23.807  27.339  1.00  0.00    -0.224 OA
ATOM     17  C   UNL A   1      33.219  28.301  26.724  1.00  0.00     0.004 C 
ATOM     18  C   UNL A   1      31.409  28.280  24.986  1.00  0.00     0.004 C 
ATOM     19  C   UNL A   1      32.508  29.103  25.643  1.00  0.00     0.000 C 
BRANCH  10  20
ATOM     20  O   UNL A   1      32.951  24.571  23.531  1.00  0.00    -0.367 OA
ATOM     21  H   UNL A   1      33.055  23.633  23.310  1.00  0.00     0.213 HD
ENDBRANCH  10  20
ENDBRANCH   7   8
ENDBRANCH   4   7
ENDBRANCH   2   3
ENDBRANCH   1   2
BRANCH   1  22
ATOM     22  C   UNL A   1      37.739  19.893  24.913  1.00  0.00     0.023 C 
BRANCH  22  23
ATOM     23  C   UNL A   1      38.927  20.373  25.735  1.00  0.00     0.116 C 
BRANCH  23  24
ATOM     24  N   UNL A   1      39.995  19.386  25.781  1.00  0.00    -0.352 N 
ATOM     25  C   UNL A   1      41.324  19.565  26.072  1.00  0.00     0.251 C 
ATOM     26  H   UNL A   1      39.727  18.461  25.576  1.00  0.00     0.163 HD
ATOM     27  O   UNL A   1      42.130  18.662  25.876  1.00  0.00    -0.269 OA
BRANCH  25  28
ATOM     28  C   UNL A   1      41.775  20.866  26.599  1.00  0.00     0.039 A 
ATOM     29  C   UNL A   1      42.254  21.828  25.709  1.00  0.00     0.014 A 
ATOM     30  C   UNL A   1      41.696  21.140  27.967  1.00  0.00     0.014 A 
ATOM     31  C   UNL A   1      42.599  23.091  26.187  1.00  0.00     0.010 A 
ATOM     32  C   UNL A   1      41.954  22.425  28.427  1.00  0.00     0.010 A 
ATOM     33  C   UNL A   1      42.414  23.412  27.542  1.00  0.00    -0.014 A 
BRANCH  33  34
ATOM     34  C   UNL A   1      42.704  24.773  28.057  1.00  0.00     0.031 A 
ATOM     35  C   UNL A   1      44.100  25.133  28.485  1.00  0.00     0.074 A 
ATOM     36  C   UNL A   1      41.701  25.663  28.187  1.00  0.00     0.049 A 
ATOM     37  N   UNL A   1      44.537  26.240  29.027  1.00  0.00    -0.248 NA
ATOM     38  C   UNL A   1      45.136  24.101  28.307  1.00  0.00     0.031 C 
ATOM     39  C   UNL A   1      40.297  25.415  27.852  1.00  0.00     0.029 A 
ATOM     40  N   UNL A   1      41.708  26.955  28.650  1.00  0.00    -0.354 N 
ATOM     41  C   UNL A   1      45.893  26.038  29.253  1.00  0.00     0.074 A 
ATOM     42  C   UNL A   1      46.193  24.680  28.856  1.00  0.00     0.031 C 
ATOM     43  C   UNL A   1      39.583  26.525  28.100  1.00  0.00     0.029 A 
ATOM     44  C   UNL A   1      40.467  27.546  28.652  1.00  0.00     0.049 A 
ATOM     45  H   UNL A   1      42.524  27.415  28.951  1.00  0.00     0.167 HD
ATOM     46  C   UNL A   1      46.812  26.915  29.719  1.00  0.00     0.037 A 
ATOM     47  C   UNL A   1      40.084  28.768  29.067  1.00  0.00     0.037 A 
ATOM     48  C   UNL A   1      46.513  28.270  30.101  1.00  0.00     0.049 A 
ATOM     49  C   UNL A   1      41.122  29.714  29.608  1.00  0.00     0.074 A 
ATOM     50  C   UNL A   1      47.379  29.248  30.555  1.00  0.00     0.029 A 
ATOM     51  N   UNL A   1      45.248  28.837  30.071  1.00  0.00    -0.354 N 
ATOM     52  N   UNL A   1      42.412  29.529  29.758  1.00  0.00    -0.248 NA
ATOM     53  C   UNL A   1      40.654  31.042  30.028  1.00  0.00     0.031 C 
ATOM     54  C   UNL A   1      46.632  30.394  30.844  1.00  0.00     0.029 A 
ATOM     55  C   UNL A   1      45.309  30.147  30.515  1.00  0.00     0.049 A 
ATOM     56  H   UNL A   1      44.429  28.377  29.778  1.00  0.00     0.167 HD
ATOM     57  C   UNL A   1      42.911  30.725  30.259  1.00  0.00     0.074 A 
ATOM     58  C   UNL A   1      41.790  31.634  30.368  1.00  0.00     0.031 C 
ATOM     59  C   UNL A   1      44.184  31.043  30.601  1.00  0.00     0.037 A 
BRANCH  46  60
ATOM     60  C   UNL A   1      48.233  26.443  29.827  1.00  0.00     0.057 A 
ATOM     61  C   UNL A   1      49.157  26.652  28.795  1.00  0.00     0.134 A 
ATOM     62  C   UNL A   1      48.699  25.822  30.993  1.00  0.00     0.134 A 
ATOM     63  F   UNL A   1      48.773  27.230  27.645  1.00  0.00    -0.206 F 
ATOM     64  C   UNL A   1      50.487  26.245  28.908  1.00  0.00     0.040 A 
ATOM     65  C   UNL A   1      50.032  25.436  31.131  1.00  0.00     0.040 A 
ATOM     66  F   UNL A   1      47.870  25.594  32.022  1.00  0.00    -0.206 F 
ATOM     67  C   UNL A   1      50.931  25.644  30.085  1.00  0.00     0.006 A 
ENDBRANCH  46  60
BRANCH  47  68
ATOM     68  C   UNL A   1      38.656  29.176  28.992  1.00  0.00     0.057 A 
ATOM     69  C   UNL A   1      37.821  29.110  30.113  1.00  0.00     0.134 A 
ATOM     70  C   UNL A   1      38.083  29.603  27.787  1.00  0.00     0.134 A 
ATOM     71  F   UNL A   1      38.305  28.692  31.293  1.00  0.00    -0.206 F 
ATOM     72  C   UNL A   1      36.461  29.416  30.033  1.00  0.00     0.040 A 
ATOM     73  C   UNL A   1      36.732  29.944  27.700  1.00  0.00     0.040 A 
ATOM     74  F   UNL A   1      38.829  29.699  26.678  1.00  0.00    -0.206 F 
ATOM     75  C   UNL A   1      35.914  29.838  28.823  1.00  0.00     0.006 A 
ENDBRANCH  47  68
BRANCH  59  76
ATOM     76  C   UNL A   1      44.439  32.443  31.078  1.00  0.00     0.057 A 
ATOM     77  C   UNL A   1      44.430  32.778  32.438  1.00  0.00     0.134 A 
ATOM     78  C   UNL A   1      44.737  33.462  30.163  1.00  0.00     0.134 A 
ATOM     79  F   UNL A   1      44.140  31.852  33.365  1.00  0.00    -0.206 F 
ATOM     80  C   UNL A   1      44.681  34.082  32.869  1.00  0.00     0.040 A 
ATOM     81  C   UNL A   1      45.021  34.762  30.584  1.00  0.00     0.040 A 
ATOM     82  F   UNL A   1      44.774  33.207  28.846  1.00  0.00    -0.206 F 
ATOM     83  C   UNL A   1      44.984  35.076  31.941  1.00  0.00     0.006 A 
ENDBRANCH  59  76
ENDBRANCH  33  34
ENDBRANCH  25  28
ENDBRANCH  23  24
ENDBRANCH  22  23
ENDBRANCH   1  22
TORSDOF 13
ENDMDL
MODEL 3
REMARK VINA RESULT:     -11.4      0.769      6.333
REMARK SMILES C[C@@]1(O)N(CC(=O)NCCCCNC(=O)c2ccc(-c3c4nc(c(-c5c(F)cccc5F)c5ccc([nH]5)c(-c5c(F)cccc5F)c5nc(c(-c6c(F)cccc6F)c6ccc3[nH]6)C=C5)C=C4)cc2)C(=O)OC12CCCCC2
REMARK SMILES IDX 10 1 9 2 8 3 6 4 7 5 5 7 4 8 1 9 2 10 73 11 70 12 72 13
REMARK SMILES IDX 74 14 78 15 71 16 75 17 77 18 76 19 3 20 11 22 12 23 13 24
REMARK SMILES IDX 14 25 15 27 16 28 17 29 69 30 18 31 68 32 19 33 20 34 21 35
REMARK SMILES IDX 62 36 22 37 67 38 61 39 63 40 23 41 66 42 60 43 59 44 24 46
REMARK SMILES IDX 50 47 33 48 49 49 34 50 37 51 48 52 64 53 35 54 36 55 47 57
REMARK SMILES IDX 65 58 38 59 25 60 26 61 31 62 27 63 28 64 30 65 32 66 29 67
REMARK SMILES IDX 51 68 52 69 57 70 53 71 54 72 56 73 58 74 55 75 39 76 40 77
REMARK SMILES IDX 45 78 41 79 42 80 44 81 46 82 43 83
REMARK H PARENT 8 6 3 21 13 26 63 45 37 56
REMARK Flexibility Score: inf
ROOT
ATOM      1  C   UNL A   1      36.405  21.187  25.028  1.00  0.00     0.023 C 
ENDROOT
BRANCH   1   2
ATOM      2  C   UNL A   1      35.009  20.587  25.169  1.00  0.00     0.116 C 
BRANCH   2   3
ATOM      3  N   UNL A   1      34.342  21.030  26.378  1.00  0.00    -0.355 N 
ATOM      4  C   UNL A   1      33.430  22.033  26.532  1.00  0.00     0.239 C 
ATOM      5  O   UNL A   1      32.896  22.184  27.632  1.00  0.00    -0.273 OA
ATOM      6  H   UNL A   1      34.579  20.540  27.199  1.00  0.00     0.163 HD
BRANCH   4   7
ATOM      7  C   UNL A   1      33.046  22.895  25.335  1.00  0.00     0.226 C 
BRANCH   7   8
ATOM      8  N   UNL A   1      33.110  24.332  25.571  1.00  0.00    -0.267 N 
ATOM      9  C   UNL A   1      30.855  24.879  24.719  1.00  0.00     0.072 C 
ATOM     10  C   UNL A   1      31.964  25.185  25.724  1.00  0.00     0.181 C 
ATOM     11  C   UNL A   1      32.592  26.619  25.643  1.00  0.00     0.161 C 
ATOM     12  C   UNL A   1      34.266  25.042  25.424  1.00  0.00     0.413 C 
ATOM     13  O   UNL A   1      34.015  26.373  25.489  1.00  0.00    -0.438 OA
ATOM     14  C   UNL A   1      32.138  27.433  24.417  1.00  0.00     0.054 C 
ATOM     15  C   UNL A   1      32.458  27.449  26.938  1.00  0.00     0.054 C 
ATOM     16  O   UNL A   1      35.383  24.577  25.258  1.00  0.00    -0.224 OA
ATOM     17  C   UNL A   1      32.780  28.818  24.336  1.00  0.00     0.004 C 
ATOM     18  C   UNL A   1      33.109  28.833  26.824  1.00  0.00     0.004 C 
ATOM     19  C   UNL A   1      32.576  29.603  25.624  1.00  0.00     0.000 C 
BRANCH  10  20
ATOM     20  O   UNL A   1      31.403  24.920  26.999  1.00  0.00    -0.367 OA
ATOM     21  H   UNL A   1      32.078  25.054  27.683  1.00  0.00     0.213 HD
ENDBRANCH  10  20
ENDBRANCH   7   8
ENDBRANCH   4   7
ENDBRANCH   2   3
ENDBRANCH   1   2
BRANCH   1  22
ATOM     22  C   UNL A   1      37.530  20.153  24.975  1.00  0.00     0.023 C 
BRANCH  22  23
ATOM     23  C   UNL A   1      38.828  20.622  25.618  1.00  0.00     0.116 C 
BRANCH  23  24
ATOM     24  N   UNL A   1      39.808  19.551  25.718  1.00  0.00    -0.352 N 
ATOM     25  C   UNL A   1      41.132  19.622  26.068  1.00  0.00     0.251 C 
ATOM     26  H   UNL A   1      39.474  18.649  25.506  1.00  0.00     0.163 HD
ATOM     27  O   UNL A   1      41.869  18.654  25.913  1.00  0.00    -0.269 OA
BRANCH  25  28
ATOM     28  C   UNL A   1      41.666  20.887  26.608  1.00  0.00     0.039 A 
ATOM     29  C   UNL A   1      42.188  21.833  25.725  1.00  0.00     0.014 A 
ATOM     30  C   UNL A   1      41.620  21.144  27.981  1.00  0.00     0.014 A 
ATOM     31  C   UNL A   1      42.612  23.067  26.216  1.00  0.00     0.010 A 
ATOM     32  C   UNL A   1      41.959  22.405  28.455  1.00  0.00     0.010 A 
ATOM     33  C   UNL A   1      42.464  23.377  27.579  1.00  0.00    -0.014 A 
BRANCH  33  34
ATOM     34  C   UNL A   1      42.840  24.711  28.109  1.00  0.00     0.031 A 
ATOM     35  C   UNL A   1      41.784  25.762  28.313  1.00  0.00     0.074 A 
ATOM     36  C   UNL A   1      44.135  24.990  28.354  1.00  0.00     0.049 A 
ATOM     37  N   UNL A   1      41.922  27.006  28.695  1.00  0.00    -0.248 NA
ATOM     38  C   UNL A   1      40.394  25.374  28.022  1.00  0.00     0.031 C 
ATOM     39  C   UNL A   1      45.255  24.068  28.148  1.00  0.00     0.029 A 
ATOM     40  N   UNL A   1      44.730  26.135  28.818  1.00  0.00    -0.354 N 
ATOM     41  C   UNL A   1      40.641  27.544  28.690  1.00  0.00     0.074 A 
ATOM     42  C   UNL A   1      39.749  26.516  28.201  1.00  0.00     0.031 C 
ATOM     43  C   UNL A   1      46.397  24.677  28.504  1.00  0.00     0.029 A 
ATOM     44  C   UNL A   1      46.097  26.044  28.920  1.00  0.00     0.049 A 
ATOM     45  H   UNL A   1      44.225  26.946  29.056  1.00  0.00     0.167 HD
ATOM     46  C   UNL A   1      40.239  28.774  29.088  1.00  0.00     0.037 A 
ATOM     47  C   UNL A   1      47.007  26.963  29.293  1.00  0.00     0.037 A 
ATOM     48  C   UNL A   1      41.128  29.790  29.586  1.00  0.00     0.049 A 
ATOM     49  C   UNL A   1      46.536  28.331  29.704  1.00  0.00     0.074 A 
ATOM     50  C   UNL A   1      40.816  31.057  30.045  1.00  0.00     0.029 A 
ATOM     51  N   UNL A   1      42.504  29.653  29.693  1.00  0.00    -0.354 N 
ATOM     52  N   UNL A   1      45.314  28.807  29.752  1.00  0.00    -0.248 NA
ATOM     53  C   UNL A   1      47.569  29.291  30.121  1.00  0.00     0.031 C 
ATOM     54  C   UNL A   1      42.007  31.705  30.387  1.00  0.00     0.029 A 
ATOM     55  C   UNL A   1      43.056  30.819  30.194  1.00  0.00     0.049 A 
ATOM     56  H   UNL A   1      43.012  28.846  29.448  1.00  0.00     0.167 HD
ATOM     57  C   UNL A   1      45.430  30.104  30.234  1.00  0.00     0.074 A 
ATOM     58  C   UNL A   1      46.837  30.335  30.481  1.00  0.00     0.031 C 
ATOM     59  C   UNL A   1      44.459  31.025  30.450  1.00  0.00     0.037 A 
BRANCH  46  60
ATOM     60  C   UNL A   1      38.773  29.085  29.016  1.00  0.00     0.057 A 
ATOM     61  C   UNL A   1      37.942  28.971  30.139  1.00  0.00     0.134 A 
ATOM     62  C   UNL A   1      38.192  29.553  27.830  1.00  0.00     0.134 A 
ATOM     63  F   UNL A   1      38.431  28.516  31.303  1.00  0.00    -0.206 F 
ATOM     64  C   UNL A   1      36.585  29.293  30.082  1.00  0.00     0.040 A 
ATOM     65  C   UNL A   1      36.845  29.906  27.767  1.00  0.00     0.040 A 
ATOM     66  F   UNL A   1      38.930  29.689  26.718  1.00  0.00    -0.206 F 
ATOM     67  C   UNL A   1      36.035  29.773  28.894  1.00  0.00     0.006 A 
ENDBRANCH  46  60
BRANCH  47  68
ATOM     68  C   UNL A   1      48.456  26.629  29.299  1.00  0.00     0.057 A 
ATOM     69  C   UNL A   1      49.270  26.903  28.193  1.00  0.00     0.134 A 
ATOM     70  C   UNL A   1      49.053  25.991  30.393  1.00  0.00     0.134 A 
ATOM     71  F   UNL A   1      48.755  27.498  27.106  1.00  0.00    -0.206 F 
ATOM     72  C   UNL A   1      50.613  26.524  28.159  1.00  0.00     0.040 A 
ATOM     73  C   UNL A   1      50.402  25.635  30.387  1.00  0.00     0.040 A 
ATOM     74  F   UNL A   1      48.333  25.710  31.489  1.00  0.00    -0.206 F 
ATOM     75  C   UNL A   1      51.184  25.889  29.261  1.00  0.00     0.006 A 
ENDBRANCH  47  68
BRANCH  59  76
ATOM     76  C   UNL A   1      44.879  32.347  31.025  1.00  0.00     0.057 A 
ATOM     77  C   UNL A   1      45.208  33.439  30.213  1.00  0.00     0.134 A 
ATOM     78  C   UNL A   1      44.915  32.538  32.413  1.00  0.00     0.134 A 
ATOM     79  F   UNL A   1      45.204  33.320  28.877  1.00  0.00    -0.206 F 
ATOM     80  C   UNL A   1      45.585  34.667  30.761  1.00  0.00     0.040 A 
ATOM     81  C   UNL A   1      45.260  33.769  32.972  1.00  0.00     0.040 A 
ATOM     82  F   UNL A   1      44.601  31.536  33.248  1.00  0.00    -0.206 F 
ATOM     83  C   UNL A   1      45.605  34.835  32.144  1.00  0.00     0.006 A 
ENDBRANCH  59  76
ENDBRANCH  33  34
ENDBRANCH  25  28
ENDBRANCH  23  24
ENDBRANCH  22  23
ENDBRANCH   1  22
TORSDOF 13
ENDMDL
