MODEL 1
REMARK VINA RESULT:     -13.2      0.000      0.000
REMARK SMILES C[C@@H](C(=O)NCCCCNC(=O)c1ccc(-c2c3nc(c(-c4c(F)cccc4F)c4ccc([nH]4)c(-c4c(F)cccc4F)c4nc(c(-c5c(F)cccc5F)c5ccc2[nH]5)C=C4)C=C3)cc1)c1ccc2c3cc(Cl)ccc3n(C(=O)c3ccc(Cl)cc3)c2c1
REMARK SMILES IDX 7 1 6 2 5 3 3 4 4 5 2 7 1 8 67 9 68 10 89 11 69 12 88 13
REMARK SMILES IDX 70 14 78 15 71 16 77 17 72 18 76 19 73 20 75 21 74 22 79 23
REMARK SMILES IDX 80 24 81 25 82 26 87 27 83 28 86 29 84 30 85 31 8 32 9 33
REMARK SMILES IDX 10 34 11 35 12 37 13 38 14 39 66 40 15 41 65 42 16 43 17 44
REMARK SMILES IDX 18 45 59 46 19 47 64 48 58 49 60 50 20 51 63 52 57 53 56 54
REMARK SMILES IDX 21 56 47 57 30 58 46 59 31 60 34 61 45 62 61 63 32 64 33 65
REMARK SMILES IDX 44 67 62 68 35 69 22 70 23 71 28 72 24 73 25 74 27 75 29 76
REMARK SMILES IDX 26 77 48 78 49 79 54 80 50 81 51 82 53 83 55 84 52 85 36 86
REMARK SMILES IDX 37 87 42 88 38 89 39 90 41 91 43 92 40 93
REMARK H PARENT 5 6 10 36 60 55 34 66
REMARK Flexibility Score: inf
ROOT
ATOM      1  C   UNL A   1      32.010  29.547  27.135  1.00  0.00     0.023 C 
ENDROOT
BRANCH   1   2
ATOM      2  C   UNL A   1      31.635  28.557  26.028  1.00  0.00     0.116 C 
BRANCH   2   3
ATOM      3  N   UNL A   1      31.054  27.366  26.606  1.00  0.00    -0.356 N 
ATOM      4  C   UNL A   1      30.748  26.182  25.991  1.00  0.00     0.227 C 
ATOM      5  O   UNL A   1      29.933  25.457  26.564  1.00  0.00    -0.274 OA
ATOM      6  H   UNL A   1      30.853  27.412  27.569  1.00  0.00     0.163 HD
BRANCH   4   7
ATOM      7  C   UNL A   1      31.445  25.811  24.664  1.00  0.00     0.105 C 
ATOM      8  C   UNL A   1      30.444  25.135  23.719  1.00  0.00     0.023 C 
BRANCH   7   9
ATOM      9  C   UNL A   1      32.729  24.992  24.863  1.00  0.00    -0.034 A 
ATOM     10  C   UNL A   1      33.945  25.585  25.212  1.00  0.00     0.005 A 
ATOM     11  C   UNL A   1      32.682  23.590  24.731  1.00  0.00     0.032 A 
ATOM     12  C   UNL A   1      35.086  24.820  25.449  1.00  0.00     0.011 A 
ATOM     13  C   UNL A   1      33.864  22.826  24.848  1.00  0.00     0.057 A 
ATOM     14  C   UNL A   1      35.045  23.427  25.262  1.00  0.00     0.008 A 
ATOM     15  N   UNL A   1      34.121  21.458  24.611  1.00  0.00    -0.276 N 
ATOM     16  C   UNL A   1      36.028  22.416  25.372  1.00  0.00     0.009 A 
ATOM     17  C   UNL A   1      35.491  21.235  24.842  1.00  0.00     0.057 A 
ATOM     18  C   UNL A   1      37.371  22.465  25.801  1.00  0.00     0.031 A 
ATOM     19  C   UNL A   1      36.347  20.148  24.573  1.00  0.00     0.029 A 
ATOM     20  C   UNL A   1      38.187  21.362  25.603  1.00  0.00     0.041 A 
ATOM     21  C   UNL A   1      37.695  20.231  24.966  1.00  0.00     0.023 A 
ATOM     22  Cl  UNL A   1      39.833  21.431  26.104  1.00  0.00    -0.084 Cl
BRANCH  15  23
ATOM     23  C   UNL A   1      33.124  20.553  24.143  1.00  0.00     0.262 C 
ATOM     24  O   UNL A   1      32.187  21.055  23.517  1.00  0.00    -0.268 OA
BRANCH  23  25
ATOM     25  C   UNL A   1      32.994  19.080  24.327  1.00  0.00     0.040 A 
ATOM     26  C   UNL A   1      32.619  18.637  25.615  1.00  0.00     0.015 A 
ATOM     27  C   UNL A   1      33.387  18.126  23.385  1.00  0.00     0.015 A 
ATOM     28  C   UNL A   1      32.638  17.284  25.958  1.00  0.00     0.021 A 
ATOM     29  C   UNL A   1      33.373  16.760  23.719  1.00  0.00     0.021 A 
ATOM     30  C   UNL A   1      33.014  16.348  25.004  1.00  0.00     0.041 A 
ATOM     31  Cl  UNL A   1      33.074  14.683  25.426  1.00  0.00    -0.084 Cl
ENDBRANCH  23  25
ENDBRANCH  15  23
ENDBRANCH   7   9
ENDBRANCH   4   7
ENDBRANCH   2   3
ENDBRANCH   1   2
BRANCH   1  32
ATOM     32  C   UNL A   1      31.580  30.989  26.866  1.00  0.00     0.023 C 
BRANCH  32  33
ATOM     33  C   UNL A   1      32.727  31.979  26.742  1.00  0.00     0.116 C 
BRANCH  33  34
ATOM     34  N   UNL A   1      32.389  33.291  27.268  1.00  0.00    -0.352 N 
ATOM     35  C   UNL A   1      33.038  34.045  28.212  1.00  0.00     0.251 C 
ATOM     36  H   UNL A   1      31.576  33.698  26.891  1.00  0.00     0.163 HD
ATOM     37  O   UNL A   1      32.515  35.063  28.645  1.00  0.00    -0.269 OA
BRANCH  35  38
ATOM     38  C   UNL A   1      34.353  33.608  28.725  1.00  0.00     0.039 A 
ATOM     39  C   UNL A   1      34.382  32.757  29.831  1.00  0.00     0.014 A 
ATOM     40  C   UNL A   1      35.546  34.031  28.132  1.00  0.00     0.014 A 
ATOM     41  C   UNL A   1      35.606  32.293  30.310  1.00  0.00     0.010 A 
ATOM     42  C   UNL A   1      36.760  33.498  28.555  1.00  0.00     0.010 A 
ATOM     43  C   UNL A   1      36.804  32.632  29.655  1.00  0.00    -0.014 A 
BRANCH  43  44
ATOM     44  C   UNL A   1      38.095  32.070  30.123  1.00  0.00     0.031 A 
ATOM     45  C   UNL A   1      38.866  32.732  31.230  1.00  0.00     0.074 A 
ATOM     46  C   UNL A   1      38.575  30.955  29.536  1.00  0.00     0.049 A 
ATOM     47  N   UNL A   1      39.981  32.350  31.800  1.00  0.00    -0.248 NA
ATOM     48  C   UNL A   1      38.333  34.001  31.751  1.00  0.00     0.031 C 
ATOM     49  C   UNL A   1      37.954  30.262  28.405  1.00  0.00     0.029 A 
ATOM     50  N   UNL A   1      39.689  30.206  29.814  1.00  0.00    -0.354 N 
ATOM     51  C   UNL A   1      40.274  33.321  32.748  1.00  0.00     0.074 A 
ATOM     52  C   UNL A   1      39.263  34.348  32.628  1.00  0.00     0.031 C 
ATOM     53  C   UNL A   1      38.673  29.168  28.112  1.00  0.00     0.029 A 
ATOM     54  C   UNL A   1      39.820  29.099  29.011  1.00  0.00     0.049 A 
ATOM     55  H   UNL A   1      40.332  30.438  30.522  1.00  0.00     0.167 HD
ATOM     56  C   UNL A   1      41.274  33.339  33.662  1.00  0.00     0.037 A 
ATOM     57  C   UNL A   1      40.758  28.133  29.004  1.00  0.00     0.037 A 
ATOM     58  C   UNL A   1      42.278  32.314  33.781  1.00  0.00     0.049 A 
ATOM     59  C   UNL A   1      41.856  28.176  30.029  1.00  0.00     0.074 A 
ATOM     60  C   UNL A   1      43.315  32.223  34.694  1.00  0.00     0.029 A 
ATOM     61  N   UNL A   1      42.374  31.203  32.956  1.00  0.00    -0.354 N 
ATOM     62  N   UNL A   1      42.075  29.061  30.972  1.00  0.00    -0.248 NA
ATOM     63  C   UNL A   1      42.829  27.076  30.000  1.00  0.00     0.031 C 
ATOM     64  C   UNL A   1      44.065  31.080  34.393  1.00  0.00     0.029 A 
ATOM     65  C   UNL A   1      43.463  30.429  33.329  1.00  0.00     0.049 A 
ATOM     66  H   UNL A   1      41.760  30.994  32.216  1.00  0.00     0.167 HD
ATOM     67  C   UNL A   1      43.196  28.615  31.659  1.00  0.00     0.074 A 
ATOM     68  C   UNL A   1      43.590  27.365  31.045  1.00  0.00     0.031 C 
ATOM     69  C   UNL A   1      43.847  29.190  32.700  1.00  0.00     0.037 A 
BRANCH  56  70
ATOM     70  C   UNL A   1      41.318  34.498  34.617  1.00  0.00     0.057 A 
ATOM     71  C   UNL A   1      40.707  34.437  35.877  1.00  0.00     0.134 A 
ATOM     72  C   UNL A   1      42.010  35.673  34.294  1.00  0.00     0.134 A 
ATOM     73  F   UNL A   1      40.016  33.347  36.246  1.00  0.00    -0.206 F 
ATOM     74  C   UNL A   1      40.761  35.508  36.771  1.00  0.00     0.040 A 
ATOM     75  C   UNL A   1      42.097  36.739  35.192  1.00  0.00     0.040 A 
ATOM     76  F   UNL A   1      42.623  35.799  33.108  1.00  0.00    -0.206 F 
ATOM     77  C   UNL A   1      41.466  36.660  36.432  1.00  0.00     0.006 A 
ENDBRANCH  56  70
BRANCH  57  78
ATOM     78  C   UNL A   1      40.688  27.034  28.007  1.00  0.00     0.057 A 
ATOM     79  C   UNL A   1      41.412  27.087  26.811  1.00  0.00     0.134 A 
ATOM     80  C   UNL A   1      39.879  25.912  28.221  1.00  0.00     0.134 A 
ATOM     81  F   UNL A   1      42.194  28.142  26.540  1.00  0.00    -0.206 F 
ATOM     82  C   UNL A   1      41.312  26.079  25.850  1.00  0.00     0.040 A 
ATOM     83  C   UNL A   1      39.793  24.881  27.284  1.00  0.00     0.040 A 
ATOM     84  F   UNL A   1      39.168  25.794  29.353  1.00  0.00    -0.206 F 
ATOM     85  C   UNL A   1      40.503  24.970  26.088  1.00  0.00     0.006 A 
ENDBRANCH  57  78
BRANCH  69  86
ATOM     86  C   UNL A   1      45.036  28.453  33.248  1.00  0.00     0.057 A 
ATOM     87  C   UNL A   1      46.336  28.696  32.784  1.00  0.00     0.134 A 
ATOM     88  C   UNL A   1      44.878  27.489  34.252  1.00  0.00     0.134 A 
ATOM     89  F   UNL A   1      46.555  29.598  31.815  1.00  0.00    -0.206 F 
ATOM     90  C   UNL A   1      47.430  27.976  33.268  1.00  0.00     0.040 A 
ATOM     91  C   UNL A   1      45.969  26.787  34.768  1.00  0.00     0.040 A 
ATOM     92  F   UNL A   1      43.664  27.216  34.752  1.00  0.00    -0.206 F 
ATOM     93  C   UNL A   1      47.247  27.020  34.265  1.00  0.00     0.006 A 
ENDBRANCH  69  86
ENDBRANCH  43  44
ENDBRANCH  35  38
ENDBRANCH  33  34
ENDBRANCH  32  33
ENDBRANCH   1  32
TORSDOF 14
ENDMDL
MODEL 2
REMARK VINA RESULT:     -13.1      1.621      3.386
REMARK SMILES C[C@@H](C(=O)NCCCCNC(=O)c1ccc(-c2c3nc(c(-c4c(F)cccc4F)c4ccc([nH]4)c(-c4c(F)cccc4F)c4nc(c(-c5c(F)cccc5F)c5ccc2[nH]5)C=C4)C=C3)cc1)c1ccc2c3cc(Cl)ccc3n(C(=O)c3ccc(Cl)cc3)c2c1
REMARK SMILES IDX 7 1 6 2 5 3 3 4 4 5 2 7 1 8 67 9 68 10 89 11 69 12 88 13
REMARK SMILES IDX 70 14 78 15 71 16 77 17 72 18 76 19 73 20 75 21 74 22 79 23
REMARK SMILES IDX 80 24 81 25 82 26 87 27 83 28 86 29 84 30 85 31 8 32 9 33
REMARK SMILES IDX 10 34 11 35 12 37 13 38 14 39 66 40 15 41 65 42 16 43 17 44
REMARK SMILES IDX 18 45 59 46 19 47 64 48 58 49 60 50 20 51 63 52 57 53 56 54
REMARK SMILES IDX 21 56 47 57 30 58 46 59 31 60 34 61 45 62 61 63 32 64 33 65
REMARK SMILES IDX 44 67 62 68 35 69 22 70 23 71 28 72 24 73 25 74 27 75 29 76
REMARK SMILES IDX 26 77 48 78 49 79 54 80 50 81 51 82 53 83 55 84 52 85 36 86
REMARK SMILES IDX 37 87 42 88 38 89 39 90 41 91 43 92 40 93
REMARK H PARENT 5 6 10 36 60 55 34 66
REMARK Flexibility Score: inf
ROOT
ATOM      1  C   UNL A   1      31.568  30.467  25.567  1.00  0.00     0.023 C 
ENDROOT
BRANCH   1   2
ATOM      2  C   UNL A   1      32.664  29.454  25.914  1.00  0.00     0.116 C 
BRANCH   2   3
ATOM      3  N   UNL A   1      32.085  28.306  26.574  1.00  0.00    -0.356 N 
ATOM      4  C   UNL A   1      31.371  27.276  26.023  1.00  0.00     0.227 C 
ATOM      5  O   UNL A   1      30.664  26.622  26.791  1.00  0.00    -0.274 OA
ATOM      6  H   UNL A   1      32.221  28.258  27.548  1.00  0.00     0.163 HD
BRANCH   4   7
ATOM      7  C   UNL A   1      31.511  26.974  24.514  1.00  0.00     0.105 C 
ATOM      8  C   UNL A   1      30.341  27.601  23.745  1.00  0.00     0.023 C 
BRANCH   7   9
ATOM      9  C   UNL A   1      31.698  25.482  24.210  1.00  0.00    -0.034 A 
ATOM     10  C   UNL A   1      30.825  24.775  23.379  1.00  0.00     0.005 A 
ATOM     11  C   UNL A   1      32.808  24.800  24.748  1.00  0.00     0.032 A 
ATOM     12  C   UNL A   1      31.045  23.435  23.064  1.00  0.00     0.011 A 
ATOM     13  C   UNL A   1      32.963  23.412  24.530  1.00  0.00     0.057 A 
ATOM     14  C   UNL A   1      32.122  22.747  23.648  1.00  0.00     0.008 A 
ATOM     15  N   UNL A   1      33.871  22.477  25.071  1.00  0.00    -0.276 N 
ATOM     16  C   UNL A   1      32.561  21.405  23.564  1.00  0.00     0.009 A 
ATOM     17  C   UNL A   1      33.549  21.214  24.540  1.00  0.00     0.057 A 
ATOM     18  C   UNL A   1      32.106  20.323  22.782  1.00  0.00     0.031 A 
ATOM     19  C   UNL A   1      33.958  19.904  24.861  1.00  0.00     0.029 A 
ATOM     20  C   UNL A   1      32.573  19.046  23.053  1.00  0.00     0.041 A 
ATOM     21  C   UNL A   1      33.459  18.831  24.100  1.00  0.00     0.023 A 
ATOM     22  Cl  UNL A   1      31.998  17.722  22.115  1.00  0.00    -0.084 Cl
BRANCH  15  23
ATOM     23  C   UNL A   1      34.858  22.826  26.038  1.00  0.00     0.262 C 
ATOM     24  O   UNL A   1      34.433  23.243  27.119  1.00  0.00    -0.268 OA
BRANCH  23  25
ATOM     25  C   UNL A   1      36.346  22.818  25.948  1.00  0.00     0.040 A 
ATOM     26  C   UNL A   1      36.946  21.600  25.556  1.00  0.00     0.015 A 
ATOM     27  C   UNL A   1      37.172  23.853  26.390  1.00  0.00     0.015 A 
ATOM     28  C   UNL A   1      38.329  21.416  25.608  1.00  0.00     0.021 A 
ATOM     29  C   UNL A   1      38.567  23.680  26.410  1.00  0.00     0.021 A 
ATOM     30  C   UNL A   1      39.136  22.461  26.033  1.00  0.00     0.041 A 
ATOM     31  Cl  UNL A   1      40.837  22.234  26.132  1.00  0.00    -0.084 Cl
ENDBRANCH  23  25
ENDBRANCH  15  23
ENDBRANCH   7   9
ENDBRANCH   4   7
ENDBRANCH   2   3
ENDBRANCH   1   2
BRANCH   1  32
ATOM     32  C   UNL A   1      31.398  31.590  26.591  1.00  0.00     0.023 C 
BRANCH  32  33
ATOM     33  C   UNL A   1      32.683  32.318  26.950  1.00  0.00     0.116 C 
BRANCH  33  34
ATOM     34  N   UNL A   1      32.442  33.673  27.419  1.00  0.00    -0.352 N 
ATOM     35  C   UNL A   1      33.081  34.379  28.405  1.00  0.00     0.251 C 
ATOM     36  H   UNL A   1      31.715  34.153  26.961  1.00  0.00     0.163 HD
ATOM     37  O   UNL A   1      32.635  35.459  28.770  1.00  0.00    -0.269 OA
BRANCH  35  38
ATOM     38  C   UNL A   1      34.290  33.820  29.045  1.00  0.00     0.039 A 
ATOM     39  C   UNL A   1      34.137  32.747  29.925  1.00  0.00     0.014 A 
ATOM     40  C   UNL A   1      35.562  34.343  28.789  1.00  0.00     0.014 A 
ATOM     41  C   UNL A   1      35.264  32.171  30.509  1.00  0.00     0.010 A 
ATOM     42  C   UNL A   1      36.690  33.711  29.303  1.00  0.00     0.010 A 
ATOM     43  C   UNL A   1      36.552  32.625  30.177  1.00  0.00    -0.014 A 
BRANCH  43  44
ATOM     44  C   UNL A   1      37.749  31.954  30.742  1.00  0.00     0.031 A 
ATOM     45  C   UNL A   1      38.199  32.239  32.147  1.00  0.00     0.074 A 
ATOM     46  C   UNL A   1      38.436  31.086  29.973  1.00  0.00     0.049 A 
ATOM     47  N   UNL A   1      39.188  31.704  32.820  1.00  0.00    -0.248 NA
ATOM     48  C   UNL A   1      37.463  33.275  32.889  1.00  0.00     0.031 C 
ATOM     49  C   UNL A   1      38.141  30.781  28.572  1.00  0.00     0.029 A 
ATOM     50  N   UNL A   1      39.518  30.295  30.264  1.00  0.00    -0.354 N 
ATOM     51  C   UNL A   1      39.183  32.328  34.060  1.00  0.00     0.074 A 
ATOM     52  C   UNL A   1      38.144  33.333  34.023  1.00  0.00     0.031 C 
ATOM     53  C   UNL A   1      38.993  29.840  28.138  1.00  0.00     0.029 A 
ATOM     54  C   UNL A   1      39.914  29.499  29.217  1.00  0.00     0.049 A 
ATOM     55  H   UNL A   1      39.968  30.297  31.140  1.00  0.00     0.167 HD
ATOM     56  C   UNL A   1      39.951  32.065  35.144  1.00  0.00     0.037 A 
ATOM     57  C   UNL A   1      40.906  28.593  29.136  1.00  0.00     0.037 A 
ATOM     58  C   UNL A   1      40.984  31.063  35.178  1.00  0.00     0.049 A 
ATOM     59  C   UNL A   1      41.742  28.317  30.354  1.00  0.00     0.074 A 
ATOM     60  C   UNL A   1      41.797  30.696  36.237  1.00  0.00     0.029 A 
ATOM     61  N   UNL A   1      41.351  30.269  34.101  1.00  0.00    -0.354 N 
ATOM     62  N   UNL A   1      41.674  28.862  31.546  1.00  0.00    -0.248 NA
ATOM     63  C   UNL A   1      42.784  27.291  30.221  1.00  0.00     0.031 C 
ATOM     64  C   UNL A   1      42.686  29.712  35.788  1.00  0.00     0.029 A 
ATOM     65  C   UNL A   1      42.389  29.426  34.465  1.00  0.00     0.049 A 
ATOM     66  H   UNL A   1      40.935  30.300  33.209  1.00  0.00     0.167 HD
ATOM     67  C   UNL A   1      42.647  28.230  32.308  1.00  0.00     0.074 A 
ATOM     68  C   UNL A   1      43.269  27.240  31.453  1.00  0.00     0.031 C 
ATOM     69  C   UNL A   1      43.002  28.451  33.598  1.00  0.00     0.037 A 
BRANCH  56  70
ATOM     70  C   UNL A   1      39.688  32.864  36.389  1.00  0.00     0.057 A 
ATOM     71  C   UNL A   1      38.688  32.496  37.301  1.00  0.00     0.134 A 
ATOM     72  C   UNL A   1      40.464  33.986  36.704  1.00  0.00     0.134 A 
ATOM     73  F   UNL A   1      37.899  31.439  37.056  1.00  0.00    -0.206 F 
ATOM     74  C   UNL A   1      38.454  33.229  38.467  1.00  0.00     0.040 A 
ATOM     75  C   UNL A   1      40.259  34.710  37.880  1.00  0.00     0.040 A 
ATOM     76  F   UNL A   1      41.442  34.392  35.879  1.00  0.00    -0.206 F 
ATOM     77  C   UNL A   1      39.247  34.335  38.763  1.00  0.00     0.006 A 
ENDBRANCH  56  70
BRANCH  57  78
ATOM     78  C   UNL A   1      41.148  27.864  27.865  1.00  0.00     0.057 A 
ATOM     79  C   UNL A   1      40.606  26.594  27.637  1.00  0.00     0.134 A 
ATOM     80  C   UNL A   1      41.944  28.415  26.854  1.00  0.00     0.134 A 
ATOM     81  F   UNL A   1      39.847  26.006  28.573  1.00  0.00    -0.206 F 
ATOM     82  C   UNL A   1      40.870  25.885  26.463  1.00  0.00     0.040 A 
ATOM     83  C   UNL A   1      42.192  27.731  25.662  1.00  0.00     0.040 A 
ATOM     84  F   UNL A   1      42.484  29.634  27.004  1.00  0.00    -0.206 F 
ATOM     85  C   UNL A   1      41.663  26.457  25.470  1.00  0.00     0.006 A 
ENDBRANCH  57  78
BRANCH  69  86
ATOM     86  C   UNL A   1      44.096  27.589  34.159  1.00  0.00     0.057 A 
ATOM     87  C   UNL A   1      45.443  27.975  34.112  1.00  0.00     0.134 A 
ATOM     88  C   UNL A   1      43.800  26.356  34.754  1.00  0.00     0.134 A 
ATOM     89  F   UNL A   1      45.797  29.138  33.544  1.00  0.00    -0.206 F 
ATOM     90  C   UNL A   1      46.457  27.147  34.596  1.00  0.00     0.040 A 
ATOM     91  C   UNL A   1      44.802  25.534  35.272  1.00  0.00     0.040 A 
ATOM     92  F   UNL A   1      42.531  25.929  34.845  1.00  0.00    -0.206 F 
ATOM     93  C   UNL A   1      46.137  25.924  35.181  1.00  0.00     0.006 A 
ENDBRANCH  69  86
ENDBRANCH  43  44
ENDBRANCH  35  38
ENDBRANCH  33  34
ENDBRANCH  32  33
ENDBRANCH   1  32
TORSDOF 14
ENDMDL
MODEL 3
REMARK VINA RESULT:     -13.1      4.619     10.167
REMARK SMILES C[C@@H](C(=O)NCCCCNC(=O)c1ccc(-c2c3nc(c(-c4c(F)cccc4F)c4ccc([nH]4)c(-c4c(F)cccc4F)c4nc(c(-c5c(F)cccc5F)c5ccc2[nH]5)C=C4)C=C3)cc1)c1ccc2c3cc(Cl)ccc3n(C(=O)c3ccc(Cl)cc3)c2c1
REMARK SMILES IDX 7 1 6 2 5 3 3 4 4 5 2 7 1 8 67 9 68 10 89 11 69 12 88 13
REMARK SMILES IDX 70 14 78 15 71 16 77 17 72 18 76 19 73 20 75 21 74 22 79 23
REMARK SMILES IDX 80 24 81 25 82 26 87 27 83 28 86 29 84 30 85 31 8 32 9 33
REMARK SMILES IDX 10 34 11 35 12 37 13 38 14 39 66 40 15 41 65 42 16 43 17 44
REMARK SMILES IDX 18 45 59 46 19 47 64 48 58 49 60 50 20 51 63 52 57 53 56 54
REMARK SMILES IDX 21 56 47 57 30 58 46 59 31 60 34 61 45 62 61 63 32 64 33 65
REMARK SMILES IDX 44 67 62 68 35 69 22 70 23 71 28 72 24 73 25 74 27 75 29 76
REMARK SMILES IDX 26 77 48 78 49 79 54 80 50 81 51 82 53 83 55 84 52 85 36 86
REMARK SMILES IDX 37 87 42 88 38 89 39 90 41 91 43 92 40 93
REMARK H PARENT 5 6 10 36 60 55 34 66
REMARK Flexibility Score: inf
ROOT
ATOM      1  C   UNL A   1      36.293  20.365  25.028  1.00  0.00     0.023 C 
ENDROOT
BRANCH   1   2
ATOM      2  C   UNL A   1      36.058  21.761  25.616  1.00  0.00     0.116 C 
BRANCH   2   3
ATOM      3  N   UNL A   1      36.121  22.756  24.569  1.00  0.00    -0.356 N 
ATOM      4  C   UNL A   1      35.099  23.263  23.813  1.00  0.00     0.227 C 
ATOM      5  O   UNL A   1      35.414  23.801  22.750  1.00  0.00    -0.274 OA
ATOM      6  H   UNL A   1      37.016  23.116  24.375  1.00  0.00     0.163 HD
BRANCH   4   7
ATOM      7  C   UNL A   1      33.647  23.167  24.332  1.00  0.00     0.105 C 
ATOM      8  C   UNL A   1      33.026  21.832  23.902  1.00  0.00     0.023 C 
BRANCH   7   9
ATOM      9  C   UNL A   1      32.786  24.379  23.951  1.00  0.00    -0.034 A 
ATOM     10  C   UNL A   1      32.221  24.523  22.682  1.00  0.00     0.005 A 
ATOM     11  C   UNL A   1      32.517  25.367  24.919  1.00  0.00     0.032 A 
ATOM     12  C   UNL A   1      31.390  25.599  22.373  1.00  0.00     0.011 A 
ATOM     13  C   UNL A   1      31.779  26.520  24.570  1.00  0.00     0.057 A 
ATOM     14  C   UNL A   1      31.171  26.609  23.325  1.00  0.00     0.008 A 
ATOM     15  N   UNL A   1      31.508  27.708  25.283  1.00  0.00    -0.276 N 
ATOM     16  C   UNL A   1      30.438  27.818  23.289  1.00  0.00     0.009 A 
ATOM     17  C   UNL A   1      30.758  28.550  24.441  1.00  0.00     0.057 A 
ATOM     18  C   UNL A   1      29.600  28.370  22.297  1.00  0.00     0.031 A 
ATOM     19  C   UNL A   1      30.386  29.907  24.522  1.00  0.00     0.029 A 
ATOM     20  C   UNL A   1      29.174  29.684  22.424  1.00  0.00     0.041 A 
ATOM     21  C   UNL A   1      29.589  30.455  23.501  1.00  0.00     0.023 A 
ATOM     22  Cl  UNL A   1      28.173  30.365  21.201  1.00  0.00    -0.084 Cl
BRANCH  15  23
ATOM     23  C   UNL A   1      32.012  27.957  26.593  1.00  0.00     0.262 C 
ATOM     24  O   UNL A   1      31.498  27.304  27.505  1.00  0.00    -0.268 OA
BRANCH  23  25
ATOM     25  C   UNL A   1      33.042  28.927  27.063  1.00  0.00     0.040 A 
ATOM     26  C   UNL A   1      32.601  30.248  27.298  1.00  0.00     0.015 A 
ATOM     27  C   UNL A   1      34.413  28.666  27.110  1.00  0.00     0.015 A 
ATOM     28  C   UNL A   1      33.500  31.283  27.566  1.00  0.00     0.021 A 
ATOM     29  C   UNL A   1      35.315  29.700  27.415  1.00  0.00     0.021 A 
ATOM     30  C   UNL A   1      34.857  31.002  27.626  1.00  0.00     0.041 A 
ATOM     31  Cl  UNL A   1      35.975  32.274  27.923  1.00  0.00    -0.084 Cl
ENDBRANCH  23  25
ENDBRANCH  15  23
ENDBRANCH   7   9
ENDBRANCH   4   7
ENDBRANCH   2   3
ENDBRANCH   1   2
BRANCH   1  32
ATOM     32  C   UNL A   1      37.747  20.072  24.659  1.00  0.00     0.023 C 
BRANCH  32  33
ATOM     33  C   UNL A   1      38.756  20.406  25.745  1.00  0.00     0.116 C 
BRANCH  33  34
ATOM     34  N   UNL A   1      39.805  19.406  25.858  1.00  0.00    -0.352 N 
ATOM     35  C   UNL A   1      41.143  19.573  26.103  1.00  0.00     0.251 C 
ATOM     36  H   UNL A   1      39.511  18.474  25.741  1.00  0.00     0.163 HD
ATOM     37  O   UNL A   1      41.905  18.620  26.005  1.00  0.00    -0.269 OA
BRANCH  35  38
ATOM     38  C   UNL A   1      41.666  20.910  26.455  1.00  0.00     0.039 A 
ATOM     39  C   UNL A   1      41.844  21.841  25.430  1.00  0.00     0.014 A 
ATOM     40  C   UNL A   1      41.984  21.246  27.774  1.00  0.00     0.014 A 
ATOM     41  C   UNL A   1      42.294  23.124  25.739  1.00  0.00     0.010 A 
ATOM     42  C   UNL A   1      42.347  22.551  28.090  1.00  0.00     0.010 A 
ATOM     43  C   UNL A   1      42.517  23.501  27.075  1.00  0.00    -0.014 A 
BRANCH  43  44
ATOM     44  C   UNL A   1      42.918  24.892  27.400  1.00  0.00     0.031 A 
ATOM     45  C   UNL A   1      44.264  25.420  26.990  1.00  0.00     0.074 A 
ATOM     46  C   UNL A   1      42.060  25.679  28.079  1.00  0.00     0.049 A 
ATOM     47  N   UNL A   1      44.758  26.623  27.143  1.00  0.00    -0.248 NA
ATOM     48  C   UNL A   1      45.187  24.472  26.345  1.00  0.00     0.031 C 
ATOM     49  C   UNL A   1      40.755  25.259  28.595  1.00  0.00     0.029 A 
ATOM     50  N   UNL A   1      42.152  26.998  28.445  1.00  0.00    -0.354 N 
ATOM     51  C   UNL A   1      46.038  26.578  26.606  1.00  0.00     0.074 A 
ATOM     52  C   UNL A   1      46.274  25.213  26.192  1.00  0.00     0.031 C 
ATOM     53  C   UNL A   1      40.152  26.309  29.173  1.00  0.00     0.029 A 
ATOM     54  C   UNL A   1      41.038  27.466  29.098  1.00  0.00     0.049 A 
ATOM     55  H   UNL A   1      42.941  27.556  28.256  1.00  0.00     0.167 HD
ATOM     56  C   UNL A   1      46.924  27.589  26.441  1.00  0.00     0.037 A 
ATOM     57  C   UNL A   1      40.760  28.691  29.579  1.00  0.00     0.037 A 
ATOM     58  C   UNL A   1      46.686  28.948  26.854  1.00  0.00     0.049 A 
ATOM     59  C   UNL A   1      41.759  29.797  29.381  1.00  0.00     0.074 A 
ATOM     60  C   UNL A   1      47.507  30.052  26.704  1.00  0.00     0.029 A 
ATOM     61  N   UNL A   1      45.542  29.386  27.505  1.00  0.00    -0.354 N 
ATOM     62  N   UNL A   1      42.935  29.756  28.801  1.00  0.00    -0.248 NA
ATOM     63  C   UNL A   1      41.387  31.122  29.892  1.00  0.00     0.031 C 
ATOM     64  C   UNL A   1      46.879  31.150  27.303  1.00  0.00     0.029 A 
ATOM     65  C   UNL A   1      45.643  30.742  27.777  1.00  0.00     0.049 A 
ATOM     66  H   UNL A   1      44.772  28.819  27.739  1.00  0.00     0.167 HD
ATOM     67  C   UNL A   1      43.432  31.051  28.858  1.00  0.00     0.074 A 
ATOM     68  C   UNL A   1      42.416  31.858  29.501  1.00  0.00     0.031 C 
ATOM     69  C   UNL A   1      44.624  31.530  28.425  1.00  0.00     0.037 A 
BRANCH  56  70
ATOM     70  C   UNL A   1      48.228  27.264  25.769  1.00  0.00     0.057 A 
ATOM     71  C   UNL A   1      48.384  27.364  24.379  1.00  0.00     0.134 A 
ATOM     72  C   UNL A   1      49.351  26.885  26.516  1.00  0.00     0.134 A 
ATOM     73  F   UNL A   1      47.346  27.709  23.601  1.00  0.00    -0.206 F 
ATOM     74  C   UNL A   1      49.600  27.078  23.755  1.00  0.00     0.040 A 
ATOM     75  C   UNL A   1      50.580  26.625  25.907  1.00  0.00     0.040 A 
ATOM     76  F   UNL A   1      49.276  26.774  27.851  1.00  0.00    -0.206 F 
ATOM     77  C   UNL A   1      50.705  26.715  24.521  1.00  0.00     0.006 A 
ENDBRANCH  56  70
BRANCH  57  78
ATOM     78  C   UNL A   1      39.472  28.944  30.275  1.00  0.00     0.057 A 
ATOM     79  C   UNL A   1      39.304  28.644  31.632  1.00  0.00     0.134 A 
ATOM     80  C   UNL A   1      38.372  29.477  29.593  1.00  0.00     0.134 A 
ATOM     81  F   UNL A   1      40.316  28.118  32.337  1.00  0.00    -0.206 F 
ATOM     82  C   UNL A   1      38.082  28.835  32.278  1.00  0.00     0.040 A 
ATOM     83  C   UNL A   1      37.152  29.702  30.233  1.00  0.00     0.040 A 
ATOM     84  F   UNL A   1      38.469  29.797  28.294  1.00  0.00    -0.206 F 
ATOM     85  C   UNL A   1      37.002  29.370  31.578  1.00  0.00     0.006 A 
ENDBRANCH  57  78
BRANCH  69  86
ATOM     86  C   UNL A   1      44.875  32.999  28.616  1.00  0.00     0.057 A 
ATOM     87  C   UNL A   1      45.539  33.497  29.745  1.00  0.00     0.134 A 
ATOM     88  C   UNL A   1      44.447  33.926  27.657  1.00  0.00     0.134 A 
ATOM     89  F   UNL A   1      45.965  32.664  30.706  1.00  0.00    -0.206 F 
ATOM     90  C   UNL A   1      45.729  34.867  29.934  1.00  0.00     0.040 A 
ATOM     91  C   UNL A   1      44.661  35.296  27.819  1.00  0.00     0.040 A 
ATOM     92  F   UNL A   1      43.817  33.518  26.546  1.00  0.00    -0.206 F 
ATOM     93  C   UNL A   1      45.292  35.771  28.967  1.00  0.00     0.006 A 
ENDBRANCH  69  86
ENDBRANCH  43  44
ENDBRANCH  35  38
ENDBRANCH  33  34
ENDBRANCH  32  33
ENDBRANCH   1  32
TORSDOF 14
ENDMDL
