MODEL 1
REMARK VINA RESULT:     -12.5      0.000      0.000
REMARK SMILES Cc1ccccc1OCc1nc2cc(C(=O)NCCCCNC(=O)c3ccc(-c4c5nc(c(-c6c(F)cccc6F)c6ccc([nH]6)c(-c6c(F)cccc6F)c6nc(c(-c7c(F)cccc7F)c7ccc4[nH]7)C=C6)C=C5)cc3)ccc2n1C[C@H](C)O
REMARK SMILES IDX 19 1 18 2 17 3 15 4 16 5 14 7 10 8 11 9 82 10 12 11 81 12
REMARK SMILES IDX 13 13 80 14 79 15 9 16 8 17 7 18 1 19 2 20 3 21 4 22 6 23
REMARK SMILES IDX 5 24 83 25 84 26 85 27 86 28 20 30 21 31 22 32 23 33 24 35
REMARK SMILES IDX 25 36 26 37 78 38 27 39 77 40 28 41 29 42 30 43 71 44 31 45
REMARK SMILES IDX 76 46 70 47 72 48 32 49 75 50 69 51 68 52 33 54 59 55 42 56
REMARK SMILES IDX 58 57 43 58 46 59 57 60 73 61 44 62 45 63 56 65 74 66 47 67
REMARK SMILES IDX 34 68 35 69 40 70 36 71 37 72 39 73 41 74 38 75 60 76 61 77
REMARK SMILES IDX 66 78 62 79 63 80 65 81 67 82 64 83 48 84 49 85 54 86 50 87
REMARK SMILES IDX 51 88 53 89 55 90 52 91
REMARK H PARENT 17 6 86 29 22 34 72 53 46 64
REMARK Flexibility Score: inf
ROOT
ATOM      1  C   UNL A   1      31.848  29.608  26.613  1.00  0.00     0.023 C 
ENDROOT
BRANCH   1   2
ATOM      2  C   UNL A   1      31.770  29.532  25.083  1.00  0.00     0.116 C 
BRANCH   2   3
ATOM      3  N   UNL A   1      30.676  30.346  24.552  1.00  0.00    -0.352 N 
ATOM      4  C   UNL A   1      29.828  30.055  23.497  1.00  0.00     0.251 C 
ATOM      5  O   UNL A   1      28.968  30.831  23.118  1.00  0.00    -0.269 OA
ATOM      6  H   UNL A   1      30.524  31.208  25.002  1.00  0.00     0.163 HD
BRANCH   4   7
ATOM      7  C   UNL A   1      29.927  28.688  22.952  1.00  0.00     0.042 A 
ATOM      8  C   UNL A   1      32.583  25.144  22.595  1.00  0.00     0.148 A 
ATOM      9  N   UNL A   1      32.629  26.318  21.976  1.00  0.00    -0.229 NA
ATOM     10  N   UNL A   1      31.760  25.257  23.688  1.00  0.00    -0.322 N 
ATOM     11  C   UNL A   1      31.526  27.001  22.447  1.00  0.00     0.090 A 
ATOM     12  C   UNL A   1      30.816  26.199  23.333  1.00  0.00     0.068 A 
ATOM     13  C   UNL A   1      31.084  28.312  22.244  1.00  0.00     0.044 A 
ATOM     14  C   UNL A   1      29.548  26.488  23.838  1.00  0.00     0.029 A 
ATOM     15  C   UNL A   1      29.091  27.772  23.602  1.00  0.00     0.016 A 
BRANCH   8  16
ATOM     16  C   UNL A   1      32.955  23.797  22.053  1.00  0.00     0.304 C 
BRANCH  16  17
ATOM     17  O   UNL A   1      34.236  23.500  22.653  1.00  0.00    -0.485 OA
BRANCH  17  18
ATOM     18  C   UNL A   1      34.228  22.529  23.617  1.00  0.00     0.122 A 
ATOM     19  C   UNL A   1      36.188  23.651  24.819  1.00  0.00     0.048 C 
ATOM     20  C   UNL A   1      35.140  22.589  24.687  1.00  0.00    -0.009 A 
ATOM     21  C   UNL A   1      35.076  21.616  25.695  1.00  0.00     0.007 A 
ATOM     22  C   UNL A   1      34.062  20.663  25.693  1.00  0.00     0.001 A 
ATOM     23  C   UNL A   1      33.207  21.579  23.622  1.00  0.00     0.047 A 
ATOM     24  C   UNL A   1      33.118  20.657  24.667  1.00  0.00     0.004 A 
ENDBRANCH  17  18
ENDBRANCH  16  17
ENDBRANCH   8  16
BRANCH  10  25
ATOM     25  C   UNL A   1      32.104  25.038  25.086  1.00  0.00     0.155 C 
BRANCH  25  26
ATOM     26  C   UNL A   1      31.171  24.160  25.917  1.00  0.00     0.131 C 
ATOM     27  C   UNL A   1      31.965  23.418  26.983  1.00  0.00     0.040 C 
BRANCH  26  28
ATOM     28  O   UNL A   1      30.528  23.224  25.048  1.00  0.00    -0.392 OA
ATOM     29  H   UNL A   1      30.723  22.321  25.343  1.00  0.00     0.211 HD
ENDBRANCH  26  28
ENDBRANCH  25  26
ENDBRANCH  10  25
ENDBRANCH   4   7
ENDBRANCH   2   3
ENDBRANCH   1   2
BRANCH   1  30
ATOM     30  C   UNL A   1      32.713  30.769  27.101  1.00  0.00     0.023 C 
BRANCH  30  31
ATOM     31  C   UNL A   1      34.171  30.372  27.269  1.00  0.00     0.116 C 
BRANCH  31  32
ATOM     32  N   UNL A   1      35.003  31.387  27.896  1.00  0.00    -0.352 N 
ATOM     33  C   UNL A   1      36.243  31.281  28.511  1.00  0.00     0.251 C 
ATOM     34  H   UNL A   1      34.627  32.296  27.881  1.00  0.00     0.163 HD
ATOM     35  O   UNL A   1      36.709  32.246  29.083  1.00  0.00    -0.269 OA
BRANCH  33  36
ATOM     36  C   UNL A   1      37.080  30.058  28.323  1.00  0.00     0.039 A 
ATOM     37  C   UNL A   1      37.049  29.104  29.352  1.00  0.00     0.014 A 
ATOM     38  C   UNL A   1      38.056  29.969  27.341  1.00  0.00     0.014 A 
ATOM     39  C   UNL A   1      38.156  28.289  29.563  1.00  0.00     0.010 A 
ATOM     40  C   UNL A   1      39.208  29.270  27.621  1.00  0.00     0.010 A 
ATOM     41  C   UNL A   1      39.283  28.498  28.781  1.00  0.00    -0.014 A 
BRANCH  41  42
ATOM     42  C   UNL A   1      40.621  28.057  29.144  1.00  0.00     0.031 A 
ATOM     43  C   UNL A   1      41.163  26.819  28.563  1.00  0.00     0.074 A 
ATOM     44  C   UNL A   1      41.393  28.894  29.871  1.00  0.00     0.049 A 
ATOM     45  N   UNL A   1      42.242  26.238  28.957  1.00  0.00    -0.248 NA
ATOM     46  C   UNL A   1      40.471  26.089  27.509  1.00  0.00     0.031 C 
ATOM     47  C   UNL A   1      42.843  28.863  30.027  1.00  0.00     0.029 A 
ATOM     48  N   UNL A   1      40.961  29.842  30.808  1.00  0.00    -0.354 N 
ATOM     49  C   UNL A   1      42.530  25.225  28.068  1.00  0.00     0.074 A 
ATOM     50  C   UNL A   1      41.353  25.123  27.243  1.00  0.00     0.031 C 
ATOM     51  C   UNL A   1      43.172  29.523  31.149  1.00  0.00     0.029 A 
ATOM     52  C   UNL A   1      41.927  29.838  31.832  1.00  0.00     0.049 A 
ATOM     53  H   UNL A   1      40.149  30.397  30.760  1.00  0.00     0.167 HD
ATOM     54  C   UNL A   1      43.785  24.691  28.082  1.00  0.00     0.037 A 
ATOM     55  C   UNL A   1      41.620  29.439  33.102  1.00  0.00     0.037 A 
ATOM     56  C   UNL A   1      44.528  25.174  29.251  1.00  0.00     0.049 A 
ATOM     57  C   UNL A   1      42.457  28.271  33.563  1.00  0.00     0.074 A 
ATOM     58  C   UNL A   1      45.471  26.174  29.424  1.00  0.00     0.029 A 
ATOM     59  N   UNL A   1      44.093  24.820  30.527  1.00  0.00    -0.354 N 
ATOM     60  N   UNL A   1      43.009  27.406  32.756  1.00  0.00    -0.248 NA
ATOM     61  C   UNL A   1      42.759  28.004  34.966  1.00  0.00     0.031 C 
ATOM     62  C   UNL A   1      45.548  26.469  30.810  1.00  0.00     0.029 A 
ATOM     63  C   UNL A   1      44.677  25.628  31.484  1.00  0.00     0.049 A 
ATOM     64  H   UNL A   1      43.457  24.095  30.720  1.00  0.00     0.167 HD
ATOM     65  C   UNL A   1      43.715  26.487  33.488  1.00  0.00     0.074 A 
ATOM     66  C   UNL A   1      43.537  26.913  34.864  1.00  0.00     0.031 C 
ATOM     67  C   UNL A   1      44.384  25.450  32.901  1.00  0.00     0.037 A 
BRANCH  54  68
ATOM     68  C   UNL A   1      44.441  23.949  26.925  1.00  0.00     0.057 A 
ATOM     69  C   UNL A   1      45.384  24.605  26.103  1.00  0.00     0.134 A 
ATOM     70  C   UNL A   1      44.145  22.640  26.500  1.00  0.00     0.134 A 
ATOM     71  F   UNL A   1      45.843  25.829  26.396  1.00  0.00    -0.206 F 
ATOM     72  C   UNL A   1      45.904  24.044  24.925  1.00  0.00     0.040 A 
ATOM     73  C   UNL A   1      44.637  22.077  25.312  1.00  0.00     0.040 A 
ATOM     74  F   UNL A   1      43.401  21.801  27.220  1.00  0.00    -0.206 F 
ATOM     75  C   UNL A   1      45.512  22.784  24.509  1.00  0.00     0.006 A 
ENDBRANCH  54  68
BRANCH  55  76
ATOM     76  C   UNL A   1      40.198  29.683  33.473  1.00  0.00     0.057 A 
ATOM     77  C   UNL A   1      39.824  30.973  33.886  1.00  0.00     0.134 A 
ATOM     78  C   UNL A   1      39.172  28.839  33.044  1.00  0.00     0.134 A 
ATOM     79  F   UNL A   1      40.740  31.811  34.390  1.00  0.00    -0.206 F 
ATOM     80  C   UNL A   1      38.529  31.467  33.710  1.00  0.00     0.040 A 
ATOM     81  C   UNL A   1      37.858  29.308  32.904  1.00  0.00     0.040 A 
ATOM     82  F   UNL A   1      39.439  27.592  32.637  1.00  0.00    -0.206 F 
ATOM     83  C   UNL A   1      37.547  30.640  33.180  1.00  0.00     0.006 A 
ENDBRANCH  55  76
BRANCH  67  84
ATOM     84  C   UNL A   1      44.903  24.217  33.609  1.00  0.00     0.057 A 
ATOM     85  C   UNL A   1      46.254  23.997  33.925  1.00  0.00     0.134 A 
ATOM     86  C   UNL A   1      44.006  23.269  34.154  1.00  0.00     0.134 A 
ATOM     87  F   UNL A   1      47.210  24.870  33.583  1.00  0.00    -0.206 F 
ATOM     88  C   UNL A   1      46.684  22.892  34.671  1.00  0.00     0.040 A 
ATOM     89  C   UNL A   1      44.421  22.196  34.949  1.00  0.00     0.040 A 
ATOM     90  F   UNL A   1      42.682  23.357  33.967  1.00  0.00    -0.206 F 
ATOM     91  C   UNL A   1      45.768  21.994  35.198  1.00  0.00     0.006 A 
ENDBRANCH  67  84
ENDBRANCH  41  42
ENDBRANCH  33  36
ENDBRANCH  31  32
ENDBRANCH  30  31
ENDBRANCH   1  30
TORSDOF 17
ENDMDL
MODEL 2
REMARK VINA RESULT:     -12.5      3.788      9.360
REMARK SMILES Cc1ccccc1OCc1nc2cc(C(=O)NCCCCNC(=O)c3ccc(-c4c5nc(c(-c6c(F)cccc6F)c6ccc([nH]6)c(-c6c(F)cccc6F)c6nc(c(-c7c(F)cccc7F)c7ccc4[nH]7)C=C6)C=C5)cc3)ccc2n1C[C@H](C)O
REMARK SMILES IDX 19 1 18 2 17 3 15 4 16 5 14 7 10 8 11 9 82 10 12 11 81 12
REMARK SMILES IDX 13 13 80 14 79 15 9 16 8 17 7 18 1 19 2 20 3 21 4 22 6 23
REMARK SMILES IDX 5 24 83 25 84 26 85 27 86 28 20 30 21 31 22 32 23 33 24 35
REMARK SMILES IDX 25 36 26 37 78 38 27 39 77 40 28 41 29 42 30 43 71 44 31 45
REMARK SMILES IDX 76 46 70 47 72 48 32 49 75 50 69 51 68 52 33 54 59 55 42 56
REMARK SMILES IDX 58 57 43 58 46 59 57 60 73 61 44 62 45 63 56 65 74 66 47 67
REMARK SMILES IDX 34 68 35 69 40 70 36 71 37 72 39 73 41 74 38 75 60 76 61 77
REMARK SMILES IDX 66 78 62 79 63 80 65 81 67 82 64 83 48 84 49 85 54 86 50 87
REMARK SMILES IDX 51 88 53 89 55 90 52 91
REMARK H PARENT 17 6 86 29 22 34 72 53 46 64
REMARK Flexibility Score: inf
ROOT
ATOM      1  C   UNL A   1      36.947  21.297  24.459  1.00  0.00     0.023 C 
ENDROOT
BRANCH   1   2
ATOM      2  C   UNL A   1      35.624  20.830  25.079  1.00  0.00     0.116 C 
BRANCH   2   3
ATOM      3  N   UNL A   1      35.347  19.425  24.776  1.00  0.00    -0.352 N 
ATOM      4  C   UNL A   1      34.115  18.809  24.634  1.00  0.00     0.251 C 
ATOM      5  O   UNL A   1      34.005  17.615  24.414  1.00  0.00    -0.269 OA
ATOM      6  H   UNL A   1      36.135  18.847  24.658  1.00  0.00     0.163 HD
BRANCH   4   7
ATOM      7  C   UNL A   1      32.946  19.707  24.617  1.00  0.00     0.042 A 
ATOM      8  C   UNL A   1      31.497  23.746  25.772  1.00  0.00     0.148 A 
ATOM      9  N   UNL A   1      31.744  22.675  26.518  1.00  0.00    -0.229 NA
ATOM     10  N   UNL A   1      32.093  23.573  24.548  1.00  0.00    -0.322 N 
ATOM     11  C   UNL A   1      32.121  21.703  25.615  1.00  0.00     0.090 A 
ATOM     12  C   UNL A   1      32.067  22.212  24.322  1.00  0.00     0.068 A 
ATOM     13  C   UNL A   1      32.591  20.397  25.791  1.00  0.00     0.044 A 
ATOM     14  C   UNL A   1      32.183  21.455  23.156  1.00  0.00     0.029 A 
ATOM     15  C   UNL A   1      32.609  20.150  23.332  1.00  0.00     0.016 A 
BRANCH   8  16
ATOM     16  C   UNL A   1      30.432  24.783  25.966  1.00  0.00     0.304 C 
BRANCH  16  17
ATOM     17  O   UNL A   1      31.134  25.939  26.478  1.00  0.00    -0.485 OA
BRANCH  17  18
ATOM     18  C   UNL A   1      31.032  27.076  25.724  1.00  0.00     0.122 A 
ATOM     19  C   UNL A   1      32.740  28.264  27.213  1.00  0.00     0.048 C 
ATOM     20  C   UNL A   1      31.812  28.203  26.038  1.00  0.00    -0.009 A 
ATOM     21  C   UNL A   1      31.734  29.339  25.218  1.00  0.00     0.007 A 
ATOM     22  C   UNL A   1      30.976  29.316  24.051  1.00  0.00     0.001 A 
ATOM     23  C   UNL A   1      30.279  27.053  24.550  1.00  0.00     0.047 A 
ATOM     24  C   UNL A   1      30.264  28.167  23.709  1.00  0.00     0.004 A 
ENDBRANCH  17  18
ENDBRANCH  16  17
ENDBRANCH   8  16
BRANCH  10  25
ATOM     25  C   UNL A   1      33.113  24.410  23.930  1.00  0.00     0.155 C 
BRANCH  25  26
ATOM     26  C   UNL A   1      32.832  24.951  22.529  1.00  0.00     0.131 C 
ATOM     27  C   UNL A   1      33.267  26.407  22.435  1.00  0.00     0.040 C 
BRANCH  26  28
ATOM     28  O   UNL A   1      31.430  24.842  22.268  1.00  0.00    -0.392 OA
ATOM     29  H   UNL A   1      31.178  23.906  22.241  1.00  0.00     0.211 HD
ENDBRANCH  26  28
ENDBRANCH  25  26
ENDBRANCH  10  25
ENDBRANCH   4   7
ENDBRANCH   2   3
ENDBRANCH   1   2
BRANCH   1  30
ATOM     30  C   UNL A   1      38.107  21.264  25.453  1.00  0.00     0.023 C 
BRANCH  30  31
ATOM     31  C   UNL A   1      38.654  22.652  25.750  1.00  0.00     0.116 C 
BRANCH  31  32
ATOM     32  N   UNL A   1      39.936  22.661  26.436  1.00  0.00    -0.352 N 
ATOM     33  C   UNL A   1      40.640  23.707  27.016  1.00  0.00     0.251 C 
ATOM     34  H   UNL A   1      40.375  21.783  26.500  1.00  0.00     0.163 HD
ATOM     35  O   UNL A   1      41.763  23.509  27.434  1.00  0.00    -0.269 OA
BRANCH  33  36
ATOM     36  C   UNL A   1      39.967  25.012  27.292  1.00  0.00     0.039 A 
ATOM     37  C   UNL A   1      40.293  26.084  26.447  1.00  0.00     0.014 A 
ATOM     38  C   UNL A   1      39.277  25.258  28.470  1.00  0.00     0.014 A 
ATOM     39  C   UNL A   1      40.216  27.386  26.933  1.00  0.00     0.010 A 
ATOM     40  C   UNL A   1      39.326  26.524  29.008  1.00  0.00     0.010 A 
ATOM     41  C   UNL A   1      39.878  27.569  28.266  1.00  0.00    -0.014 A 
BRANCH  41  42
ATOM     42  C   UNL A   1      40.167  28.777  29.021  1.00  0.00     0.031 A 
ATOM     43  C   UNL A   1      39.115  29.789  29.211  1.00  0.00     0.074 A 
ATOM     44  C   UNL A   1      41.347  28.854  29.677  1.00  0.00     0.049 A 
ATOM     45  N   UNL A   1      39.313  30.968  29.687  1.00  0.00    -0.248 NA
ATOM     46  C   UNL A   1      37.736  29.558  28.803  1.00  0.00     0.031 C 
ATOM     47  C   UNL A   1      41.702  29.744  30.776  1.00  0.00     0.029 A 
ATOM     48  N   UNL A   1      42.557  28.250  29.310  1.00  0.00    -0.354 N 
ATOM     49  C   UNL A   1      38.083  31.556  29.890  1.00  0.00     0.074 A 
ATOM     50  C   UNL A   1      37.148  30.672  29.243  1.00  0.00     0.031 C 
ATOM     51  C   UNL A   1      43.040  29.849  30.833  1.00  0.00     0.029 A 
ATOM     52  C   UNL A   1      43.565  29.169  29.659  1.00  0.00     0.049 A 
ATOM     53  H   UNL A   1      42.677  27.366  28.893  1.00  0.00     0.167 HD
ATOM     54  C   UNL A   1      38.019  32.661  30.690  1.00  0.00     0.037 A 
ATOM     55  C   UNL A   1      44.352  29.760  28.712  1.00  0.00     0.037 A 
ATOM     56  C   UNL A   1      39.371  33.145  30.992  1.00  0.00     0.049 A 
ATOM     57  C   UNL A   1      44.251  31.265  28.727  1.00  0.00     0.074 A 
ATOM     58  C   UNL A   1      40.207  32.991  32.087  1.00  0.00     0.029 A 
ATOM     59  N   UNL A   1      40.166  33.633  29.957  1.00  0.00    -0.354 N 
ATOM     60  N   UNL A   1      43.212  31.921  29.170  1.00  0.00    -0.248 NA
ATOM     61  C   UNL A   1      45.320  32.147  28.271  1.00  0.00     0.031 C 
ATOM     62  C   UNL A   1      41.525  33.323  31.680  1.00  0.00     0.029 A 
ATOM     63  C   UNL A   1      41.488  33.709  30.350  1.00  0.00     0.049 A 
ATOM     64  H   UNL A   1      39.831  33.888  29.066  1.00  0.00     0.167 HD
ATOM     65  C   UNL A   1      43.446  33.268  29.065  1.00  0.00     0.074 A 
ATOM     66  C   UNL A   1      44.784  33.356  28.508  1.00  0.00     0.031 C 
ATOM     67  C   UNL A   1      42.517  34.197  29.440  1.00  0.00     0.037 A 
BRANCH  54  68
ATOM     68  C   UNL A   1      36.775  33.155  31.415  1.00  0.00     0.057 A 
ATOM     69  C   UNL A   1      36.559  32.815  32.768  1.00  0.00     0.134 A 
ATOM     70  C   UNL A   1      35.712  33.881  30.845  1.00  0.00     0.134 A 
ATOM     71  F   UNL A   1      37.493  32.190  33.496  1.00  0.00    -0.206 F 
ATOM     72  C   UNL A   1      35.363  33.092  33.453  1.00  0.00     0.040 A 
ATOM     73  C   UNL A   1      34.503  34.142  31.508  1.00  0.00     0.040 A 
ATOM     74  F   UNL A   1      35.783  34.428  29.631  1.00  0.00    -0.206 F 
ATOM     75  C   UNL A   1      34.317  33.735  32.815  1.00  0.00     0.006 A 
ENDBRANCH  54  68
BRANCH  55  76
ATOM     76  C   UNL A   1      44.552  28.919  27.497  1.00  0.00     0.057 A 
ATOM     77  C   UNL A   1      45.503  27.886  27.545  1.00  0.00     0.134 A 
ATOM     78  C   UNL A   1      43.583  28.835  26.495  1.00  0.00     0.134 A 
ATOM     79  F   UNL A   1      46.512  27.940  28.424  1.00  0.00    -0.206 F 
ATOM     80  C   UNL A   1      45.393  26.735  26.762  1.00  0.00     0.040 A 
ATOM     81  C   UNL A   1      43.488  27.705  25.672  1.00  0.00     0.040 A 
ATOM     82  F   UNL A   1      42.641  29.780  26.376  1.00  0.00    -0.206 F 
ATOM     83  C   UNL A   1      44.356  26.626  25.845  1.00  0.00     0.006 A 
ENDBRANCH  55  76
BRANCH  67  84
ATOM     84  C   UNL A   1      42.532  35.664  29.068  1.00  0.00     0.057 A 
ATOM     85  C   UNL A   1      43.362  36.625  29.668  1.00  0.00     0.134 A 
ATOM     86  C   UNL A   1      41.808  36.129  27.945  1.00  0.00     0.134 A 
ATOM     87  F   UNL A   1      44.198  36.310  30.666  1.00  0.00    -0.206 F 
ATOM     88  C   UNL A   1      43.421  37.954  29.228  1.00  0.00     0.040 A 
ATOM     89  C   UNL A   1      41.906  37.437  27.462  1.00  0.00     0.040 A 
ATOM     90  F   UNL A   1      40.994  35.325  27.245  1.00  0.00    -0.206 F 
ATOM     91  C   UNL A   1      42.704  38.361  28.114  1.00  0.00     0.006 A 
ENDBRANCH  67  84
ENDBRANCH  41  42
ENDBRANCH  33  36
ENDBRANCH  31  32
ENDBRANCH  30  31
ENDBRANCH   1  30
TORSDOF 17
ENDMDL
MODEL 3
REMARK VINA RESULT:     -12.5      2.436      3.984
REMARK SMILES Cc1ccccc1OCc1nc2cc(C(=O)NCCCCNC(=O)c3ccc(-c4c5nc(c(-c6c(F)cccc6F)c6ccc([nH]6)c(-c6c(F)cccc6F)c6nc(c(-c7c(F)cccc7F)c7ccc4[nH]7)C=C6)C=C5)cc3)ccc2n1C[C@H](C)O
REMARK SMILES IDX 19 1 18 2 17 3 15 4 16 5 14 7 10 8 11 9 82 10 12 11 81 12
REMARK SMILES IDX 13 13 80 14 79 15 9 16 8 17 7 18 1 19 2 20 3 21 4 22 6 23
REMARK SMILES IDX 5 24 83 25 84 26 85 27 86 28 20 30 21 31 22 32 23 33 24 35
REMARK SMILES IDX 25 36 26 37 78 38 27 39 77 40 28 41 29 42 30 43 71 44 31 45
REMARK SMILES IDX 76 46 70 47 72 48 32 49 75 50 69 51 68 52 33 54 59 55 42 56
REMARK SMILES IDX 58 57 43 58 46 59 57 60 73 61 44 62 45 63 56 65 74 66 47 67
REMARK SMILES IDX 34 68 35 69 40 70 36 71 37 72 39 73 41 74 38 75 60 76 61 77
REMARK SMILES IDX 66 78 62 79 63 80 65 81 67 82 64 83 48 84 49 85 54 86 50 87
REMARK SMILES IDX 51 88 53 89 55 90 52 91
REMARK H PARENT 17 6 86 29 22 34 72 53 46 64
REMARK Flexibility Score: inf
ROOT
ATOM      1  C   UNL A   1      32.847  28.390  27.012  1.00  0.00     0.023 C 
ENDROOT
BRANCH   1   2
ATOM      2  C   UNL A   1      32.061  27.676  25.905  1.00  0.00     0.116 C 
BRANCH   2   3
ATOM      3  N   UNL A   1      31.040  26.780  26.453  1.00  0.00    -0.352 N 
ATOM      4  C   UNL A   1      30.928  25.410  26.287  1.00  0.00     0.251 C 
ATOM      5  O   UNL A   1      30.010  24.768  26.766  1.00  0.00    -0.269 OA
ATOM      6  H   UNL A   1      30.349  27.205  27.009  1.00  0.00     0.163 HD
BRANCH   4   7
ATOM      7  C   UNL A   1      32.065  24.748  25.621  1.00  0.00     0.042 A 
ATOM      8  C   UNL A   1      34.444  20.999  25.448  1.00  0.00     0.148 A 
ATOM      9  N   UNL A   1      34.428  21.966  26.358  1.00  0.00    -0.229 NA
ATOM     10  N   UNL A   1      33.324  21.118  24.664  1.00  0.00    -0.322 N 
ATOM     11  C   UNL A   1      33.537  22.894  25.862  1.00  0.00     0.090 A 
ATOM     12  C   UNL A   1      33.047  22.470  24.632  1.00  0.00     0.068 A 
ATOM     13  C   UNL A   1      33.025  24.079  26.403  1.00  0.00     0.044 A 
ATOM     14  C   UNL A   1      32.290  23.249  23.757  1.00  0.00     0.029 A 
ATOM     15  C   UNL A   1      31.817  24.441  24.277  1.00  0.00     0.016 A 
BRANCH   8  16
ATOM     16  C   UNL A   1      35.609  20.170  24.998  1.00  0.00     0.304 C 
BRANCH  16  17
ATOM     17  O   UNL A   1      36.576  21.129  24.512  1.00  0.00    -0.485 OA
BRANCH  17  18
ATOM     18  C   UNL A   1      37.820  21.053  25.077  1.00  0.00     0.122 A 
ATOM     19  C   UNL A   1      37.649  23.476  25.878  1.00  0.00     0.048 C 
ATOM     20  C   UNL A   1      38.353  22.158  25.763  1.00  0.00    -0.009 A 
ATOM     21  C   UNL A   1      39.605  22.040  26.384  1.00  0.00     0.007 A 
ATOM     22  C   UNL A   1      40.267  20.816  26.408  1.00  0.00     0.001 A 
ATOM     23  C   UNL A   1      38.482  19.825  25.110  1.00  0.00     0.047 A 
ATOM     24  C   UNL A   1      39.696  19.706  25.788  1.00  0.00     0.004 A 
ENDBRANCH  17  18
ENDBRANCH  16  17
ENDBRANCH   8  16
BRANCH  10  25
ATOM     25  C   UNL A   1      32.264  20.137  24.472  1.00  0.00     0.155 C 
BRANCH  25  26
ATOM     26  C   UNL A   1      32.675  18.714  24.099  1.00  0.00     0.131 C 
ATOM     27  C   UNL A   1      32.390  18.458  22.626  1.00  0.00     0.040 C 
BRANCH  26  28
ATOM     28  O   UNL A   1      31.934  17.796  24.907  1.00  0.00    -0.392 OA
ATOM     29  H   UNL A   1      31.406  17.216  24.336  1.00  0.00     0.211 HD
ENDBRANCH  26  28
ENDBRANCH  25  26
ENDBRANCH  10  25
ENDBRANCH   4   7
ENDBRANCH   2   3
ENDBRANCH   1   2
BRANCH   1  30
ATOM     30  C   UNL A   1      34.331  28.534  26.680  1.00  0.00     0.023 C 
BRANCH  30  31
ATOM     31  C   UNL A   1      34.982  29.685  27.431  1.00  0.00     0.116 C 
BRANCH  31  32
ATOM     32  N   UNL A   1      34.257  30.943  27.354  1.00  0.00    -0.352 N 
ATOM     33  C   UNL A   1      34.356  32.088  28.131  1.00  0.00     0.251 C 
ATOM     34  H   UNL A   1      33.589  30.990  26.633  1.00  0.00     0.163 HD
ATOM     35  O   UNL A   1      33.559  32.990  27.967  1.00  0.00    -0.269 OA
BRANCH  33  36
ATOM     36  C   UNL A   1      35.530  32.294  29.031  1.00  0.00     0.039 A 
ATOM     37  C   UNL A   1      36.625  32.989  28.496  1.00  0.00     0.014 A 
ATOM     38  C   UNL A   1      35.677  31.609  30.229  1.00  0.00     0.014 A 
ATOM     39  C   UNL A   1      37.903  32.730  28.980  1.00  0.00     0.010 A 
ATOM     40  C   UNL A   1      36.943  31.241  30.624  1.00  0.00     0.010 A 
ATOM     41  C   UNL A   1      38.053  31.739  29.939  1.00  0.00    -0.014 A 
BRANCH  41  42
ATOM     42  C   UNL A   1      39.308  31.062  30.223  1.00  0.00     0.031 A 
ATOM     43  C   UNL A   1      39.620  29.791  29.548  1.00  0.00     0.074 A 
ATOM     44  C   UNL A   1      40.230  31.710  30.969  1.00  0.00     0.049 A 
ATOM     45  N   UNL A   1      40.598  29.017  29.865  1.00  0.00    -0.248 NA
ATOM     46  C   UNL A   1      38.787  29.256  28.481  1.00  0.00     0.031 C 
ATOM     47  C   UNL A   1      41.658  31.431  31.066  1.00  0.00     0.029 A 
ATOM     48  N   UNL A   1      39.988  32.653  31.976  1.00  0.00    -0.354 N 
ATOM     49  C   UNL A   1      40.687  28.030  28.907  1.00  0.00     0.074 A 
ATOM     50  C   UNL A   1      39.487  28.178  28.123  1.00  0.00     0.031 C 
ATOM     51  C   UNL A   1      42.124  31.953  32.213  1.00  0.00     0.029 A 
ATOM     52  C   UNL A   1      40.969  32.423  32.961  1.00  0.00     0.049 A 
ATOM     53  H   UNL A   1      39.279  33.337  31.993  1.00  0.00     0.167 HD
ATOM     54  C   UNL A   1      41.836  27.297  28.840  1.00  0.00     0.037 A 
ATOM     55  C   UNL A   1      40.635  31.998  34.215  1.00  0.00     0.037 A 
ATOM     56  C   UNL A   1      42.681  27.574  30.007  1.00  0.00     0.049 A 
ATOM     57  C   UNL A   1      41.278  30.681  34.573  1.00  0.00     0.074 A 
ATOM     58  C   UNL A   1      43.783  28.392  30.202  1.00  0.00     0.029 A 
ATOM     59  N   UNL A   1      42.230  27.214  31.275  1.00  0.00    -0.354 N 
ATOM     60  N   UNL A   1      41.655  29.791  33.695  1.00  0.00    -0.248 NA
ATOM     61  C   UNL A   1      41.570  30.277  35.944  1.00  0.00     0.031 C 
ATOM     62  C   UNL A   1      43.947  28.578  31.600  1.00  0.00     0.029 A 
ATOM     63  C   UNL A   1      42.967  27.851  32.255  1.00  0.00     0.049 A 
ATOM     64  H   UNL A   1      41.487  26.592  31.449  1.00  0.00     0.167 HD
ATOM     65  C   UNL A   1      42.218  28.723  34.343  1.00  0.00     0.074 A 
ATOM     66  C   UNL A   1      42.153  29.081  35.748  1.00  0.00     0.031 C 
ATOM     67  C   UNL A   1      42.688  27.631  33.669  1.00  0.00     0.037 A 
BRANCH  54  68
ATOM     68  C   UNL A   1      42.327  26.534  27.617  1.00  0.00     0.057 A 
ATOM     69  C   UNL A   1      43.090  27.192  26.628  1.00  0.00     0.134 A 
ATOM     70  C   UNL A   1      42.025  25.198  27.292  1.00  0.00     0.134 A 
ATOM     71  F   UNL A   1      43.534  28.445  26.798  1.00  0.00    -0.206 F 
ATOM     72  C   UNL A   1      43.435  26.604  25.400  1.00  0.00     0.040 A 
ATOM     73  C   UNL A   1      42.341  24.606  26.059  1.00  0.00     0.040 A 
ATOM     74  F   UNL A   1      41.449  24.360  28.154  1.00  0.00    -0.206 F 
ATOM     75  C   UNL A   1      43.038  25.313  25.098  1.00  0.00     0.006 A 
ENDBRANCH  54  68
BRANCH  55  76
ATOM     76  C   UNL A   1      39.284  32.449  34.655  1.00  0.00     0.057 A 
ATOM     77  C   UNL A   1      39.140  33.757  35.146  1.00  0.00     0.134 A 
ATOM     78  C   UNL A   1      38.121  31.808  34.225  1.00  0.00     0.134 A 
ATOM     79  F   UNL A   1      40.196  34.406  35.654  1.00  0.00    -0.206 F 
ATOM     80  C   UNL A   1      37.939  34.463  35.047  1.00  0.00     0.040 A 
ATOM     81  C   UNL A   1      36.898  32.490  34.162  1.00  0.00     0.040 A 
ATOM     82  F   UNL A   1      38.167  30.558  33.746  1.00  0.00    -0.206 F 
ATOM     83  C   UNL A   1      36.819  33.837  34.516  1.00  0.00     0.006 A 
ENDBRANCH  55  76
BRANCH  67  84
ATOM     84  C   UNL A   1      43.015  26.286  34.282  1.00  0.00     0.057 A 
ATOM     85  C   UNL A   1      42.081  25.469  34.940  1.00  0.00     0.134 A 
ATOM     86  C   UNL A   1      44.279  25.687  34.072  1.00  0.00     0.134 A 
ATOM     87  F   UNL A   1      40.807  25.846  35.107  1.00  0.00    -0.206 F 
ATOM     88  C   UNL A   1      42.396  24.185  35.405  1.00  0.00     0.040 A 
ATOM     89  C   UNL A   1      44.584  24.385  34.480  1.00  0.00     0.040 A 
ATOM     90  F   UNL A   1      45.269  26.328  33.433  1.00  0.00    -0.206 F 
ATOM     91  C   UNL A   1      43.645  23.633  35.164  1.00  0.00     0.006 A 
ENDBRANCH  67  84
ENDBRANCH  41  42
ENDBRANCH  33  36
ENDBRANCH  31  32
ENDBRANCH  30  31
ENDBRANCH   1  30
TORSDOF 17
ENDMDL
