MODEL 1
REMARK VINA RESULT:     -12.3      0.000      0.000
REMARK SMILES CCc1ccsc1CNC(=O)N1[C@H]2CC[C@@H]1[C@H](C(=O)NCCCCNC(=O)c1ccc(-c3c4nc(c(-c5c(F)cccc5F)c5ccc([nH]5)c(-c5c(F)cccc5F)c5nc(c(-c6c(F)cccc6F)c6ccc3[nH]6)C=C5)C=C4)cc1)C2
REMARK SMILES IDX 21 1 20 2 18 3 19 4 17 6 12 7 13 8 16 9 14 10 82 11 15 12
REMARK SMILES IDX 10 13 9 14 11 16 8 17 7 18 3 19 4 20 5 21 6 22 2 23 1 24
REMARK SMILES IDX 22 25 23 26 24 27 25 28 26 29 27 31 28 32 29 33 81 34 30 35
REMARK SMILES IDX 80 36 31 37 32 38 33 39 74 40 34 41 79 42 73 43 75 44 35 45
REMARK SMILES IDX 78 46 72 47 71 48 36 50 62 51 45 52 61 53 46 54 49 55 60 56
REMARK SMILES IDX 76 57 47 58 48 59 59 61 77 62 50 63 37 64 38 65 43 66 39 67
REMARK SMILES IDX 40 68 42 69 44 70 41 71 63 72 64 73 69 74 65 75 66 76 68 77
REMARK SMILES IDX 70 78 67 79 51 80 52 81 57 82 53 83 54 84 56 85 58 86 55 87
REMARK H PARENT 20 5 9 15 25 30 75 49 49 60
REMARK Flexibility Score: inf
ROOT
ATOM      1  C   UNL A   1      36.010  21.348  25.462  1.00  0.00     0.116 C 
ENDROOT
BRANCH   1   2
ATOM      2  N   UNL A   1      35.071  20.309  25.124  1.00  0.00    -0.356 N 
ATOM      3  C   UNL A   1      33.724  20.304  25.027  1.00  0.00     0.225 C 
ATOM      4  O   UNL A   1      33.205  19.188  24.902  1.00  0.00    -0.275 OA
ATOM      5  H   UNL A   1      35.490  19.440  24.926  1.00  0.00     0.163 HD
BRANCH   3   6
ATOM      6  C   UNL A   1      32.837  21.534  25.058  1.00  0.00     0.103 C 
ATOM      7  N   UNL A   1      31.626  23.230  25.909  1.00  0.00    -0.318 N 
ATOM      8  C   UNL A   1      32.646  23.923  25.140  1.00  0.00     0.088 C 
ATOM      9  C   UNL A   1      32.413  22.122  26.416  1.00  0.00     0.099 C 
ATOM     10  C   UNL A   1      33.705  24.152  26.232  1.00  0.00     0.027 C 
ATOM     11  C   UNL A   1      33.129  22.792  24.204  1.00  0.00     0.040 C 
ATOM     12  C   UNL A   1      33.506  22.918  27.138  1.00  0.00     0.028 C 
BRANCH   7  13
ATOM     13  C   UNL A   1      30.546  23.740  26.548  1.00  0.00     0.318 C 
ATOM     14  N   UNL A   1      30.011  24.889  26.074  1.00  0.00    -0.333 N 
ATOM     15  H   UNL A   1      29.350  25.327  26.658  1.00  0.00     0.165 HD
ATOM     16  O   UNL A   1      29.984  23.158  27.474  1.00  0.00    -0.249 OA
BRANCH  14  17
ATOM     17  C   UNL A   1      30.282  25.557  24.825  1.00  0.00     0.165 C 
BRANCH  17  18
ATOM     18  C   UNL A   1      30.785  26.969  24.994  1.00  0.00     0.027 A 
ATOM     19  C   UNL A   1      30.554  28.049  24.146  1.00  0.00    -0.033 A 
ATOM     20  C   UNL A   1      31.097  29.263  24.686  1.00  0.00     0.016 A 
ATOM     21  C   UNL A   1      31.707  29.079  25.903  1.00  0.00     0.065 A 
ATOM     22  S   UNL A   1      31.644  27.455  26.401  1.00  0.00    -0.147 S 
BRANCH  19  23
ATOM     23  C   UNL A   1      29.823  27.986  22.832  1.00  0.00     0.033 C 
ATOM     24  C   UNL A   1      28.549  28.819  22.815  1.00  0.00     0.009 C 
ENDBRANCH  19  23
ENDBRANCH  17  18
ENDBRANCH  14  17
ENDBRANCH   7  13
ENDBRANCH   3   6
ENDBRANCH   1   2
BRANCH   1  25
ATOM     25  C   UNL A   1      37.307  21.182  24.671  1.00  0.00     0.023 C 
BRANCH  25  26
ATOM     26  C   UNL A   1      38.101  19.926  24.990  1.00  0.00     0.023 C 
BRANCH  26  27
ATOM     27  C   UNL A   1      39.377  20.165  25.775  1.00  0.00     0.116 C 
BRANCH  27  28
ATOM     28  N   UNL A   1      40.283  19.025  25.807  1.00  0.00    -0.352 N 
ATOM     29  C   UNL A   1      41.631  19.031  26.102  1.00  0.00     0.251 C 
ATOM     30  H   UNL A   1      39.889  18.149  25.591  1.00  0.00     0.163 HD
ATOM     31  O   UNL A   1      42.303  18.021  26.039  1.00  0.00    -0.269 OA
BRANCH  29  32
ATOM     32  C   UNL A   1      42.240  20.331  26.450  1.00  0.00     0.039 A 
ATOM     33  C   UNL A   1      42.688  21.161  25.423  1.00  0.00     0.014 A 
ATOM     34  C   UNL A   1      42.225  20.768  27.777  1.00  0.00     0.014 A 
ATOM     35  C   UNL A   1      43.053  22.474  25.722  1.00  0.00     0.010 A 
ATOM     36  C   UNL A   1      42.492  22.099  28.053  1.00  0.00     0.010 A 
ATOM     37  C   UNL A   1      42.917  22.963  27.032  1.00  0.00    -0.014 A 
BRANCH  37  38
ATOM     38  C   UNL A   1      43.247  24.367  27.372  1.00  0.00     0.031 A 
ATOM     39  C   UNL A   1      44.678  24.820  27.313  1.00  0.00     0.074 A 
ATOM     40  C   UNL A   1      42.284  25.204  27.803  1.00  0.00     0.049 A 
ATOM     41  N   UNL A   1      45.200  25.966  27.664  1.00  0.00    -0.248 NA
ATOM     42  C   UNL A   1      45.664  23.834  26.834  1.00  0.00     0.031 C 
ATOM     43  C   UNL A   1      40.868  24.865  27.966  1.00  0.00     0.029 A 
ATOM     44  N   UNL A   1      42.355  26.518  28.192  1.00  0.00    -0.354 N 
ATOM     45  C   UNL A   1      46.570  25.826  27.480  1.00  0.00     0.074 A 
ATOM     46  C   UNL A   1      46.806  24.469  27.045  1.00  0.00     0.031 C 
ATOM     47  C   UNL A   1      40.201  25.951  28.391  1.00  0.00     0.029 A 
ATOM     48  C   UNL A   1      41.144  27.053  28.559  1.00  0.00     0.049 A 
ATOM     49  H   UNL A   1      43.196  27.030  28.208  1.00  0.00     0.167 HD
ATOM     50  C   UNL A   1      47.542  26.756  27.625  1.00  0.00     0.037 A 
ATOM     51  C   UNL A   1      40.833  28.295  28.976  1.00  0.00     0.037 A 
ATOM     52  C   UNL A   1      47.297  28.121  27.999  1.00  0.00     0.049 A 
ATOM     53  C   UNL A   1      41.924  29.324  29.079  1.00  0.00     0.074 A 
ATOM     54  C   UNL A   1      48.202  29.161  28.114  1.00  0.00     0.029 A 
ATOM     55  N   UNL A   1      46.047  28.639  28.303  1.00  0.00    -0.354 N 
ATOM     56  N   UNL A   1      43.208  29.195  28.844  1.00  0.00    -0.248 NA
ATOM     57  C   UNL A   1      41.522  30.676  29.493  1.00  0.00     0.031 C 
ATOM     58  C   UNL A   1      47.501  30.305  28.507  1.00  0.00     0.029 A 
ATOM     59  C   UNL A   1      46.156  29.985  28.604  1.00  0.00     0.049 A 
ATOM     60  H   UNL A   1      45.207  28.126  28.304  1.00  0.00     0.167 HD
ATOM     61  C   UNL A   1      43.760  30.452  29.051  1.00  0.00     0.074 A 
ATOM     62  C   UNL A   1      42.671  31.332  29.420  1.00  0.00     0.031 C 
ATOM     63  C   UNL A   1      45.053  30.844  28.945  1.00  0.00     0.037 A 
BRANCH  50  64
ATOM     64  C   UNL A   1      48.951  26.322  27.354  1.00  0.00     0.057 A 
ATOM     65  C   UNL A   1      49.785  25.849  28.376  1.00  0.00     0.134 A 
ATOM     66  C   UNL A   1      49.479  26.370  26.058  1.00  0.00     0.134 A 
ATOM     67  F   UNL A   1      49.344  25.798  29.643  1.00  0.00    -0.206 F 
ATOM     68  C   UNL A   1      51.103  25.467  28.125  1.00  0.00     0.040 A 
ATOM     69  C   UNL A   1      50.788  25.965  25.790  1.00  0.00     0.040 A 
ATOM     70  F   UNL A   1      48.734  26.812  25.034  1.00  0.00    -0.206 F 
ATOM     71  C   UNL A   1      51.605  25.518  26.826  1.00  0.00     0.006 A 
ENDBRANCH  50  64
BRANCH  51  72
ATOM     72  C   UNL A   1      39.425  28.651  29.282  1.00  0.00     0.057 A 
ATOM     73  C   UNL A   1      38.589  29.182  28.291  1.00  0.00     0.134 A 
ATOM     74  C   UNL A   1      38.888  28.492  30.563  1.00  0.00     0.134 A 
ATOM     75  F   UNL A   1      39.054  29.374  27.048  1.00  0.00    -0.206 F 
ATOM     76  C   UNL A   1      37.276  29.563  28.570  1.00  0.00     0.040 A 
ATOM     77  C   UNL A   1      37.569  28.848  30.850  1.00  0.00     0.040 A 
ATOM     78  F   UNL A   1      39.635  27.981  31.553  1.00  0.00    -0.206 F 
ATOM     79  C   UNL A   1      36.761  29.393  29.854  1.00  0.00     0.006 A 
ENDBRANCH  51  72
BRANCH  63  80
ATOM     80  C   UNL A   1      45.350  32.293  29.185  1.00  0.00     0.057 A 
ATOM     81  C   UNL A   1      45.270  33.242  28.160  1.00  0.00     0.134 A 
ATOM     82  C   UNL A   1      45.675  32.746  30.469  1.00  0.00     0.134 A 
ATOM     83  F   UNL A   1      44.975  32.866  26.906  1.00  0.00    -0.206 F 
ATOM     84  C   UNL A   1      45.524  34.593  28.400  1.00  0.00     0.040 A 
ATOM     85  C   UNL A   1      45.907  34.098  30.726  1.00  0.00     0.040 A 
ATOM     86  F   UNL A   1      45.758  31.886  31.495  1.00  0.00    -0.206 F 
ATOM     87  C   UNL A   1      45.836  35.025  29.688  1.00  0.00     0.006 A 
ENDBRANCH  63  80
ENDBRANCH  37  38
ENDBRANCH  29  32
ENDBRANCH  27  28
ENDBRANCH  26  27
ENDBRANCH  25  26
ENDBRANCH   1  25
TORSDOF 15
ENDMDL
MODEL 2
REMARK VINA RESULT:     -12.3      1.513      6.320
REMARK SMILES CCc1ccsc1CNC(=O)N1[C@H]2CC[C@@H]1[C@H](C(=O)NCCCCNC(=O)c1ccc(-c3c4nc(c(-c5c(F)cccc5F)c5ccc([nH]5)c(-c5c(F)cccc5F)c5nc(c(-c6c(F)cccc6F)c6ccc3[nH]6)C=C5)C=C4)cc1)C2
REMARK SMILES IDX 21 1 20 2 18 3 19 4 17 6 12 7 13 8 16 9 14 10 82 11 15 12
REMARK SMILES IDX 10 13 9 14 11 16 8 17 7 18 3 19 4 20 5 21 6 22 2 23 1 24
REMARK SMILES IDX 22 25 23 26 24 27 25 28 26 29 27 31 28 32 29 33 81 34 30 35
REMARK SMILES IDX 80 36 31 37 32 38 33 39 74 40 34 41 79 42 73 43 75 44 35 45
REMARK SMILES IDX 78 46 72 47 71 48 36 50 62 51 45 52 61 53 46 54 49 55 60 56
REMARK SMILES IDX 76 57 47 58 48 59 59 61 77 62 50 63 37 64 38 65 43 66 39 67
REMARK SMILES IDX 40 68 42 69 44 70 41 71 63 72 64 73 69 74 65 75 66 76 68 77
REMARK SMILES IDX 70 78 67 79 51 80 52 81 57 82 53 83 54 84 56 85 58 86 55 87
REMARK H PARENT 20 5 9 15 25 30 75 49 49 60
REMARK Flexibility Score: inf
ROOT
ATOM      1  C   UNL A   1      35.287  20.865  25.500  1.00  0.00     0.116 C 
ENDROOT
BRANCH   1   2
ATOM      2  N   UNL A   1      34.185  19.965  25.276  1.00  0.00    -0.356 N 
ATOM      3  C   UNL A   1      32.853  20.170  25.193  1.00  0.00     0.225 C 
ATOM      4  O   UNL A   1      32.158  19.146  25.186  1.00  0.00    -0.275 OA
ATOM      5  H   UNL A   1      34.453  19.024  25.163  1.00  0.00     0.163 HD
BRANCH   3   6
ATOM      6  C   UNL A   1      32.176  21.525  25.109  1.00  0.00     0.103 C 
ATOM      7  N   UNL A   1      31.209  23.436  25.800  1.00  0.00    -0.318 N 
ATOM      8  C   UNL A   1      32.371  23.914  25.070  1.00  0.00     0.088 C 
ATOM      9  C   UNL A   1      31.775  22.247  26.408  1.00  0.00     0.099 C 
ATOM     10  C   UNL A   1      33.388  24.033  26.219  1.00  0.00     0.027 C 
ATOM     11  C   UNL A   1      32.718  22.671  24.221  1.00  0.00     0.040 C 
ATOM     12  C   UNL A   1      32.938  22.899  27.164  1.00  0.00     0.028 C 
BRANCH   7  13
ATOM     13  C   UNL A   1      30.191  24.146  26.342  1.00  0.00     0.318 C 
ATOM     14  N   UNL A   1      29.791  25.272  25.706  1.00  0.00    -0.333 N 
ATOM     15  H   UNL A   1      29.181  25.856  26.211  1.00  0.00     0.165 HD
ATOM     16  O   UNL A   1      29.562  23.763  27.326  1.00  0.00    -0.249 OA
BRANCH  14  17
ATOM     17  C   UNL A   1      30.142  25.729  24.383  1.00  0.00     0.165 C 
BRANCH  17  18
ATOM     18  C   UNL A   1      30.287  27.227  24.282  1.00  0.00     0.027 A 
ATOM     19  C   UNL A   1      31.175  28.033  24.989  1.00  0.00    -0.033 A 
ATOM     20  C   UNL A   1      31.105  29.398  24.549  1.00  0.00     0.016 A 
ATOM     21  C   UNL A   1      30.191  29.586  23.541  1.00  0.00     0.065 A 
ATOM     22  S   UNL A   1      29.405  28.139  23.122  1.00  0.00    -0.147 S 
BRANCH  19  23
ATOM     23  C   UNL A   1      32.109  27.562  26.071  1.00  0.00     0.033 C 
ATOM     24  C   UNL A   1      31.671  27.987  27.466  1.00  0.00     0.009 C 
ENDBRANCH  19  23
ENDBRANCH  17  18
ENDBRANCH  14  17
ENDBRANCH   7  13
ENDBRANCH   3   6
ENDBRANCH   1   2
BRANCH   1  25
ATOM     25  C   UNL A   1      36.593  20.258  24.988  1.00  0.00     0.023 C 
BRANCH  25  26
ATOM     26  C   UNL A   1      37.730  21.246  24.790  1.00  0.00     0.023 C 
BRANCH  26  27
ATOM     27  C   UNL A   1      38.836  21.156  25.825  1.00  0.00     0.116 C 
BRANCH  27  28
ATOM     28  N   UNL A   1      39.686  19.980  25.693  1.00  0.00    -0.352 N 
ATOM     29  C   UNL A   1      41.023  19.870  26.014  1.00  0.00     0.251 C 
ATOM     30  H   UNL A   1      39.257  19.171  25.331  1.00  0.00     0.163 HD
ATOM     31  O   UNL A   1      41.648  18.849  25.805  1.00  0.00    -0.269 OA
BRANCH  29  32
ATOM     32  C   UNL A   1      41.683  21.064  26.579  1.00  0.00     0.039 A 
ATOM     33  C   UNL A   1      42.128  22.061  25.713  1.00  0.00     0.014 A 
ATOM     34  C   UNL A   1      41.717  21.244  27.965  1.00  0.00     0.014 A 
ATOM     35  C   UNL A   1      42.544  23.284  26.240  1.00  0.00     0.010 A 
ATOM     36  C   UNL A   1      42.033  22.492  28.477  1.00  0.00     0.010 A 
ATOM     37  C   UNL A   1      42.458  23.521  27.622  1.00  0.00    -0.014 A 
BRANCH  37  38
ATOM     38  C   UNL A   1      42.842  24.827  28.208  1.00  0.00     0.031 A 
ATOM     39  C   UNL A   1      41.783  25.868  28.438  1.00  0.00     0.074 A 
ATOM     40  C   UNL A   1      44.136  25.103  28.460  1.00  0.00     0.049 A 
ATOM     41  N   UNL A   1      41.911  27.105  28.842  1.00  0.00    -0.248 NA
ATOM     42  C   UNL A   1      40.396  25.478  28.129  1.00  0.00     0.031 C 
ATOM     43  C   UNL A   1      45.264  24.200  28.218  1.00  0.00     0.029 A 
ATOM     44  N   UNL A   1      44.722  26.233  28.969  1.00  0.00    -0.354 N 
ATOM     45  C   UNL A   1      40.632  27.645  28.804  1.00  0.00     0.074 A 
ATOM     46  C   UNL A   1      39.753  26.625  28.282  1.00  0.00     0.031 C 
ATOM     47  C   UNL A   1      46.400  24.800  28.609  1.00  0.00     0.029 A 
ATOM     48  C   UNL A   1      46.087  26.139  29.100  1.00  0.00     0.049 A 
ATOM     49  H   UNL A   1      44.213  27.039  29.218  1.00  0.00     0.167 HD
ATOM     50  C   UNL A   1      40.220  28.870  29.203  1.00  0.00     0.037 A 
ATOM     51  C   UNL A   1      46.979  27.031  29.569  1.00  0.00     0.037 A 
ATOM     52  C   UNL A   1      41.087  29.861  29.779  1.00  0.00     0.049 A 
ATOM     53  C   UNL A   1      46.488  28.367  30.055  1.00  0.00     0.074 A 
ATOM     54  C   UNL A   1      40.761  31.110  30.275  1.00  0.00     0.029 A 
ATOM     55  N   UNL A   1      42.454  29.702  29.950  1.00  0.00    -0.354 N 
ATOM     56  N   UNL A   1      45.266  28.844  30.069  1.00  0.00    -0.248 NA
ATOM     57  C   UNL A   1      47.497  29.285  30.601  1.00  0.00     0.031 C 
ATOM     58  C   UNL A   1      41.936  31.717  30.729  1.00  0.00     0.029 A 
ATOM     59  C   UNL A   1      42.987  30.831  30.546  1.00  0.00     0.049 A 
ATOM     60  H   UNL A   1      42.968  28.906  29.688  1.00  0.00     0.167 HD
ATOM     61  C   UNL A   1      45.356  30.101  30.653  1.00  0.00     0.074 A 
ATOM     62  C   UNL A   1      46.749  30.308  30.989  1.00  0.00     0.031 C 
ATOM     63  C   UNL A   1      44.374  31.003  30.891  1.00  0.00     0.037 A 
BRANCH  50  64
ATOM     64  C   UNL A   1      38.763  29.188  29.048  1.00  0.00     0.057 A 
ATOM     65  C   UNL A   1      38.217  29.553  27.810  1.00  0.00     0.134 A 
ATOM     66  C   UNL A   1      37.894  29.121  30.144  1.00  0.00     0.134 A 
ATOM     67  F   UNL A   1      39.002  29.655  26.726  1.00  0.00    -0.206 F 
ATOM     68  C   UNL A   1      36.866  29.869  27.673  1.00  0.00     0.040 A 
ATOM     69  C   UNL A   1      36.534  29.408  30.013  1.00  0.00     0.040 A 
ATOM     70  F   UNL A   1      38.351  28.776  31.357  1.00  0.00    -0.206 F 
ATOM     71  C   UNL A   1      36.018  29.790  28.776  1.00  0.00     0.006 A 
ENDBRANCH  50  64
BRANCH  51  72
ATOM     72  C   UNL A   1      48.418  26.679  29.650  1.00  0.00     0.057 A 
ATOM     73  C   UNL A   1      49.303  27.039  28.624  1.00  0.00     0.134 A 
ATOM     74  C   UNL A   1      48.941  25.964  30.731  1.00  0.00     0.134 A 
ATOM     75  F   UNL A   1      48.855  27.709  27.553  1.00  0.00    -0.206 F 
ATOM     76  C   UNL A   1      50.650  26.679  28.661  1.00  0.00     0.040 A 
ATOM     77  C   UNL A   1      50.292  25.618  30.792  1.00  0.00     0.040 A 
ATOM     78  F   UNL A   1      48.148  25.598  31.749  1.00  0.00    -0.206 F 
ATOM     79  C   UNL A   1      51.149  25.968  29.751  1.00  0.00     0.006 A 
ENDBRANCH  51  72
BRANCH  63  80
ATOM     80  C   UNL A   1      44.764  32.272  31.586  1.00  0.00     0.057 A 
ATOM     81  C   UNL A   1      45.144  33.416  30.875  1.00  0.00     0.134 A 
ATOM     82  C   UNL A   1      44.712  32.359  32.983  1.00  0.00     0.134 A 
ATOM     83  F   UNL A   1      45.224  33.389  29.537  1.00  0.00    -0.206 F 
ATOM     84  C   UNL A   1      45.481  34.600  31.532  1.00  0.00     0.040 A 
ATOM     85  C   UNL A   1      45.023  33.545  33.649  1.00  0.00     0.040 A 
ATOM     86  F   UNL A   1      44.346  31.299  33.719  1.00  0.00    -0.206 F 
ATOM     87  C   UNL A   1      45.413  34.668  32.923  1.00  0.00     0.006 A 
ENDBRANCH  63  80
ENDBRANCH  37  38
ENDBRANCH  29  32
ENDBRANCH  27  28
ENDBRANCH  26  27
ENDBRANCH  25  26
ENDBRANCH   1  25
TORSDOF 15
ENDMDL
MODEL 3
REMARK VINA RESULT:     -12.3      0.981      1.913
REMARK SMILES CCc1ccsc1CNC(=O)N1[C@H]2CC[C@@H]1[C@H](C(=O)NCCCCNC(=O)c1ccc(-c3c4nc(c(-c5c(F)cccc5F)c5ccc([nH]5)c(-c5c(F)cccc5F)c5nc(c(-c6c(F)cccc6F)c6ccc3[nH]6)C=C5)C=C4)cc1)C2
REMARK SMILES IDX 21 1 20 2 18 3 19 4 17 6 12 7 13 8 16 9 14 10 82 11 15 12
REMARK SMILES IDX 10 13 9 14 11 16 8 17 7 18 3 19 4 20 5 21 6 22 2 23 1 24
REMARK SMILES IDX 22 25 23 26 24 27 25 28 26 29 27 31 28 32 29 33 81 34 30 35
REMARK SMILES IDX 80 36 31 37 32 38 33 39 74 40 34 41 79 42 73 43 75 44 35 45
REMARK SMILES IDX 78 46 72 47 71 48 36 50 62 51 45 52 61 53 46 54 49 55 60 56
REMARK SMILES IDX 76 57 47 58 48 59 59 61 77 62 50 63 37 64 38 65 43 66 39 67
REMARK SMILES IDX 40 68 42 69 44 70 41 71 63 72 64 73 69 74 65 75 66 76 68 77
REMARK SMILES IDX 70 78 67 79 51 80 52 81 57 82 53 83 54 84 56 85 58 86 55 87
REMARK H PARENT 20 5 9 15 25 30 75 49 49 60
REMARK Flexibility Score: inf
ROOT
ATOM      1  C   UNL A   1      36.884  22.530  24.825  1.00  0.00     0.116 C 
ENDROOT
BRANCH   1   2
ATOM      2  N   UNL A   1      36.105  22.856  23.658  1.00  0.00    -0.356 N 
ATOM      3  C   UNL A   1      34.838  23.300  23.512  1.00  0.00     0.225 C 
ATOM      4  O   UNL A   1      34.405  23.299  22.353  1.00  0.00    -0.275 OA
ATOM      5  H   UNL A   1      36.586  22.733  22.808  1.00  0.00     0.163 HD
BRANCH   3   6
ATOM      6  C   UNL A   1      33.942  23.786  24.637  1.00  0.00     0.103 C 
ATOM      7  N   UNL A   1      32.195  23.844  26.054  1.00  0.00    -0.318 N 
ATOM      8  C   UNL A   1      33.328  23.696  26.952  1.00  0.00     0.088 C 
ATOM      9  C   UNL A   1      32.647  23.016  24.952  1.00  0.00     0.099 C 
ATOM     10  C   UNL A   1      33.369  22.164  27.092  1.00  0.00     0.027 C 
ATOM     11  C   UNL A   1      34.490  24.146  26.039  1.00  0.00     0.040 C 
ATOM     12  C   UNL A   1      32.853  21.702  25.713  1.00  0.00     0.028 C 
BRANCH   7  13
ATOM     13  C   UNL A   1      30.890  24.051  26.354  1.00  0.00     0.318 C 
ATOM     14  N   UNL A   1      30.181  24.888  25.562  1.00  0.00    -0.333 N 
ATOM     15  H   UNL A   1      29.298  25.157  25.905  1.00  0.00     0.165 HD
ATOM     16  O   UNL A   1      30.309  23.443  27.251  1.00  0.00    -0.249 OA
BRANCH  14  17
ATOM     17  C   UNL A   1      30.549  25.438  24.280  1.00  0.00     0.165 C 
BRANCH  17  18
ATOM     18  C   UNL A   1      30.552  26.946  24.251  1.00  0.00     0.027 A 
ATOM     19  C   UNL A   1      31.357  27.797  25.003  1.00  0.00    -0.033 A 
ATOM     20  C   UNL A   1      31.161  29.169  24.628  1.00  0.00     0.016 A 
ATOM     21  C   UNL A   1      30.239  29.319  23.621  1.00  0.00     0.065 A 
ATOM     22  S   UNL A   1      29.595  27.826  23.127  1.00  0.00    -0.147 S 
BRANCH  19  23
ATOM     23  C   UNL A   1      32.325  27.365  26.071  1.00  0.00     0.033 C 
ATOM     24  C   UNL A   1      33.744  27.860  25.828  1.00  0.00     0.009 C 
ENDBRANCH  19  23
ENDBRANCH  17  18
ENDBRANCH  14  17
ENDBRANCH   7  13
ENDBRANCH   3   6
ENDBRANCH   1   2
BRANCH   1  25
ATOM     25  C   UNL A   1      36.725  21.054  25.184  1.00  0.00     0.023 C 
BRANCH  25  26
ATOM     26  C   UNL A   1      37.917  20.174  24.843  1.00  0.00     0.023 C 
BRANCH  26  27
ATOM     27  C   UNL A   1      39.119  20.354  25.751  1.00  0.00     0.116 C 
BRANCH  27  28
ATOM     28  N   UNL A   1      40.012  19.205  25.798  1.00  0.00    -0.352 N 
ATOM     29  C   UNL A   1      41.361  19.200  26.089  1.00  0.00     0.251 C 
ATOM     30  H   UNL A   1      39.607  18.330  25.597  1.00  0.00     0.163 HD
ATOM     31  O   UNL A   1      42.021  18.181  26.041  1.00  0.00    -0.269 OA
BRANCH  29  32
ATOM     32  C   UNL A   1      41.986  20.498  26.415  1.00  0.00     0.039 A 
ATOM     33  C   UNL A   1      42.306  21.371  25.376  1.00  0.00     0.014 A 
ATOM     34  C   UNL A   1      42.111  20.888  27.751  1.00  0.00     0.014 A 
ATOM     35  C   UNL A   1      42.683  22.679  25.680  1.00  0.00     0.010 A 
ATOM     36  C   UNL A   1      42.387  22.215  28.044  1.00  0.00     0.010 A 
ATOM     37  C   UNL A   1      42.685  23.120  27.013  1.00  0.00    -0.014 A 
BRANCH  37  38
ATOM     38  C   UNL A   1      43.030  24.518  27.366  1.00  0.00     0.031 A 
ATOM     39  C   UNL A   1      44.465  24.959  27.295  1.00  0.00     0.074 A 
ATOM     40  C   UNL A   1      42.079  25.357  27.818  1.00  0.00     0.049 A 
ATOM     41  N   UNL A   1      45.000  26.097  27.653  1.00  0.00    -0.248 NA
ATOM     42  C   UNL A   1      45.436  23.972  26.793  1.00  0.00     0.031 C 
ATOM     43  C   UNL A   1      40.663  25.027  27.995  1.00  0.00     0.029 A 
ATOM     44  N   UNL A   1      42.166  26.666  28.222  1.00  0.00    -0.354 N 
ATOM     45  C   UNL A   1      46.366  25.949  27.450  1.00  0.00     0.074 A 
ATOM     46  C   UNL A   1      46.586  24.595  26.997  1.00  0.00     0.031 C 
ATOM     47  C   UNL A   1      40.010  26.114  28.440  1.00  0.00     0.029 A 
ATOM     48  C   UNL A   1      40.963  27.206  28.609  1.00  0.00     0.049 A 
ATOM     49  H   UNL A   1      43.011  27.171  28.233  1.00  0.00     0.167 HD
ATOM     50  C   UNL A   1      47.347  26.869  27.594  1.00  0.00     0.037 A 
ATOM     51  C   UNL A   1      40.668  28.445  29.045  1.00  0.00     0.037 A 
ATOM     52  C   UNL A   1      47.118  28.232  27.987  1.00  0.00     0.049 A 
ATOM     53  C   UNL A   1      41.768  29.465  29.146  1.00  0.00     0.074 A 
ATOM     54  C   UNL A   1      48.032  29.263  28.103  1.00  0.00     0.029 A 
ATOM     55  N   UNL A   1      45.876  28.756  28.312  1.00  0.00    -0.354 N 
ATOM     56  N   UNL A   1      43.048  29.328  28.895  1.00  0.00    -0.248 NA
ATOM     57  C   UNL A   1      41.383  30.815  29.581  1.00  0.00     0.031 C 
ATOM     58  C   UNL A   1      47.346  30.409  28.517  1.00  0.00     0.029 A 
ATOM     59  C   UNL A   1      45.999  30.097  28.627  1.00  0.00     0.049 A 
ATOM     60  H   UNL A   1      45.032  28.250  28.317  1.00  0.00     0.167 HD
ATOM     61  C   UNL A   1      43.613  30.579  29.109  1.00  0.00     0.074 A 
ATOM     62  C   UNL A   1      42.536  31.463  29.501  1.00  0.00     0.031 C 
ATOM     63  C   UNL A   1      44.907  30.962  28.992  1.00  0.00     0.037 A 
BRANCH  50  64
ATOM     64  C   UNL A   1      48.749  26.428  27.301  1.00  0.00     0.057 A 
ATOM     65  C   UNL A   1      49.278  26.472  26.004  1.00  0.00     0.134 A 
ATOM     66  C   UNL A   1      49.583  25.962  28.324  1.00  0.00     0.134 A 
ATOM     67  F   UNL A   1      48.523  26.890  24.977  1.00  0.00    -0.206 F 
ATOM     68  C   UNL A   1      50.576  26.040  25.730  1.00  0.00     0.040 A 
ATOM     69  C   UNL A   1      50.893  25.552  28.067  1.00  0.00     0.040 A 
ATOM     70  F   UNL A   1      49.140  25.895  29.589  1.00  0.00    -0.206 F 
ATOM     71  C   UNL A   1      51.390  25.585  26.766  1.00  0.00     0.006 A 
ENDBRANCH  50  64
BRANCH  51  72
ATOM     72  C   UNL A   1      39.267  28.809  29.371  1.00  0.00     0.057 A 
ATOM     73  C   UNL A   1      38.435  29.397  28.410  1.00  0.00     0.134 A 
ATOM     74  C   UNL A   1      38.731  28.600  30.646  1.00  0.00     0.134 A 
ATOM     75  F   UNL A   1      38.900  29.639  27.175  1.00  0.00    -0.206 F 
ATOM     76  C   UNL A   1      37.130  29.786  28.710  1.00  0.00     0.040 A 
ATOM     77  C   UNL A   1      37.418  28.963  30.954  1.00  0.00     0.040 A 
ATOM     78  F   UNL A   1      39.473  28.033  31.609  1.00  0.00    -0.206 F 
ATOM     79  C   UNL A   1      36.617  29.566  29.987  1.00  0.00     0.006 A 
ENDBRANCH  51  72
BRANCH  63  80
ATOM     80  C   UNL A   1      45.219  32.405  29.244  1.00  0.00     0.057 A 
ATOM     81  C   UNL A   1      45.615  32.865  30.505  1.00  0.00     0.134 A 
ATOM     82  C   UNL A   1      45.167  33.335  28.198  1.00  0.00     0.134 A 
ATOM     83  F   UNL A   1      45.672  32.024  31.549  1.00  0.00    -0.206 F 
ATOM     84  C   UNL A   1      45.928  34.207  30.723  1.00  0.00     0.040 A 
ATOM     85  C   UNL A   1      45.501  34.674  28.399  1.00  0.00     0.040 A 
ATOM     86  F   UNL A   1      44.804  32.953  26.965  1.00  0.00    -0.206 F 
ATOM     87  C   UNL A   1      45.878  35.114  29.666  1.00  0.00     0.006 A 
ENDBRANCH  63  80
ENDBRANCH  37  38
ENDBRANCH  29  32
ENDBRANCH  27  28
ENDBRANCH  26  27
ENDBRANCH  25  26
ENDBRANCH   1  25
TORSDOF 15
ENDMDL
