MODEL 1
REMARK VINA RESULT:     -12.2      0.000      0.000
REMARK SMILES O=C(NCCCCNC(=O)c1occc1Cn1ccc2ccc([N+](=O)[O-])cc21)c1ccc(-c2c3nc(c(-c4c(F)cccc4F)c4ccc([nH]4)c(-c4c(F)cccc4F)c4nc(c(-c5c(F)cccc5F)c5ccc2[nH]5)C=C4)C=C3)cc1
REMARK SMILES IDX 6 1 5 2 4 3 3 4 1 5 2 6 29 8 30 9 82 10 31 11 81 12 32 13
REMARK SMILES IDX 33 14 34 15 75 16 35 17 80 18 74 19 76 20 36 21 79 22 73 23
REMARK SMILES IDX 72 24 37 26 63 27 46 28 62 29 47 30 50 31 61 32 77 33 48 34
REMARK SMILES IDX 49 35 60 37 78 38 51 39 38 40 39 41 44 42 40 43 41 44 43 45
REMARK SMILES IDX 45 46 42 47 64 48 65 49 70 50 66 51 67 52 69 53 71 54 68 55
REMARK SMILES IDX 52 56 53 57 58 58 54 59 55 60 57 61 59 62 56 63 7 64 8 65
REMARK SMILES IDX 9 66 10 68 11 69 12 70 15 71 13 72 14 73 16 74 17 75 18 76
REMARK SMILES IDX 28 77 19 78 20 79 27 80 21 81 23 82 22 83 24 84 25 85 26 86
REMARK H PARENT 3 7 76 25 50 36 8 67
REMARK Flexibility Score: inf
ROOT
ATOM      1  C   UNL A   1      39.608  22.465  26.466  1.00  0.00     0.023 C 
ENDROOT
BRANCH   1   2
ATOM      2  C   UNL A   1      39.987  20.994  26.262  1.00  0.00     0.023 C 
BRANCH   2   3
ATOM      3  C   UNL A   1      41.136  20.475  27.118  1.00  0.00     0.116 C 
BRANCH   3   4
ATOM      4  N   UNL A   1      42.190  19.790  26.367  1.00  0.00    -0.352 N 
ATOM      5  O   UNL A   1      43.761  19.751  24.713  1.00  0.00    -0.269 OA
ATOM      6  C   UNL A   1      43.169  20.373  25.564  1.00  0.00     0.251 C 
ATOM      7  H   UNL A   1      42.211  18.808  26.437  1.00  0.00     0.163 HD
BRANCH   6   8
ATOM      8  C   UNL A   1      43.466  21.800  25.806  1.00  0.00     0.039 A 
ATOM      9  C   UNL A   1      42.969  22.816  24.988  1.00  0.00     0.014 A 
ATOM     10  C   UNL A   1      44.124  22.094  26.989  1.00  0.00     0.014 A 
ATOM     11  C   UNL A   1      43.026  24.134  25.449  1.00  0.00     0.010 A 
ATOM     12  C   UNL A   1      43.994  23.353  27.517  1.00  0.00     0.010 A 
ATOM     13  C   UNL A   1      43.498  24.403  26.745  1.00  0.00    -0.014 A 
BRANCH  13  14
ATOM     14  C   UNL A   1      43.410  25.748  27.333  1.00  0.00     0.031 A 
ATOM     15  C   UNL A   1      44.460  26.740  26.950  1.00  0.00     0.074 A 
ATOM     16  C   UNL A   1      42.347  26.183  28.050  1.00  0.00     0.049 A 
ATOM     17  N   UNL A   1      45.330  27.296  27.731  1.00  0.00    -0.248 NA
ATOM     18  C   UNL A   1      44.597  27.131  25.540  1.00  0.00     0.031 C 
ATOM     19  C   UNL A   1      41.093  25.483  28.364  1.00  0.00     0.029 A 
ATOM     20  N   UNL A   1      42.128  27.424  28.573  1.00  0.00    -0.354 N 
ATOM     21  C   UNL A   1      46.009  28.240  26.962  1.00  0.00     0.074 A 
ATOM     22  C   UNL A   1      45.604  28.007  25.598  1.00  0.00     0.031 C 
ATOM     23  C   UNL A   1      40.166  26.368  28.781  1.00  0.00     0.029 A 
ATOM     24  C   UNL A   1      40.819  27.647  28.973  1.00  0.00     0.049 A 
ATOM     25  H   UNL A   1      42.837  28.101  28.659  1.00  0.00     0.167 HD
ATOM     26  C   UNL A   1      46.698  29.267  27.539  1.00  0.00     0.037 A 
ATOM     27  C   UNL A   1      40.285  28.784  29.471  1.00  0.00     0.037 A 
ATOM     28  C   UNL A   1      46.935  29.024  28.940  1.00  0.00     0.049 A 
ATOM     29  C   UNL A   1      41.396  29.579  30.036  1.00  0.00     0.074 A 
ATOM     30  C   UNL A   1      47.557  28.031  29.674  1.00  0.00     0.029 A 
ATOM     31  N   UNL A   1      46.194  29.734  29.854  1.00  0.00    -0.354 N 
ATOM     32  N   UNL A   1      42.059  29.235  31.104  1.00  0.00    -0.248 NA
ATOM     33  C   UNL A   1      42.054  30.552  29.180  1.00  0.00     0.031 C 
ATOM     34  C   UNL A   1      46.757  27.887  30.848  1.00  0.00     0.029 A 
ATOM     35  C   UNL A   1      45.734  28.831  30.775  1.00  0.00     0.049 A 
ATOM     36  H   UNL A   1      46.026  30.704  29.846  1.00  0.00     0.167 HD
ATOM     37  C   UNL A   1      43.371  29.589  30.830  1.00  0.00     0.074 A 
ATOM     38  C   UNL A   1      43.286  30.504  29.696  1.00  0.00     0.031 C 
ATOM     39  C   UNL A   1      44.418  28.890  31.364  1.00  0.00     0.037 A 
BRANCH  26  40
ATOM     40  C   UNL A   1      46.858  30.651  26.949  1.00  0.00     0.057 A 
ATOM     41  C   UNL A   1      45.780  31.509  26.657  1.00  0.00     0.134 A 
ATOM     42  C   UNL A   1      48.123  31.271  26.974  1.00  0.00     0.134 A 
ATOM     43  F   UNL A   1      44.510  31.087  26.658  1.00  0.00    -0.206 F 
ATOM     44  C   UNL A   1      45.940  32.883  26.451  1.00  0.00     0.040 A 
ATOM     45  C   UNL A   1      48.289  32.653  26.819  1.00  0.00     0.040 A 
ATOM     46  F   UNL A   1      49.232  30.564  27.242  1.00  0.00    -0.206 F 
ATOM     47  C   UNL A   1      47.192  33.466  26.569  1.00  0.00     0.006 A 
ENDBRANCH  26  40
BRANCH  27  48
ATOM     48  C   UNL A   1      38.895  29.265  29.380  1.00  0.00     0.057 A 
ATOM     49  C   UNL A   1      38.024  29.190  30.483  1.00  0.00     0.134 A 
ATOM     50  C   UNL A   1      38.309  29.583  28.149  1.00  0.00     0.134 A 
ATOM     51  F   UNL A   1      38.472  28.833  31.695  1.00  0.00    -0.206 F 
ATOM     52  C   UNL A   1      36.647  29.400  30.366  1.00  0.00     0.040 A 
ATOM     53  C   UNL A   1      36.930  29.789  28.016  1.00  0.00     0.040 A 
ATOM     54  F   UNL A   1      39.053  29.649  27.036  1.00  0.00    -0.206 F 
ATOM     55  C   UNL A   1      36.093  29.686  29.124  1.00  0.00     0.006 A 
ENDBRANCH  27  48
BRANCH  39  56
ATOM     56  C   UNL A   1      44.117  27.915  32.467  1.00  0.00     0.057 A 
ATOM     57  C   UNL A   1      44.172  28.355  33.794  1.00  0.00     0.134 A 
ATOM     58  C   UNL A   1      43.899  26.544  32.265  1.00  0.00     0.134 A 
ATOM     59  F   UNL A   1      44.439  29.641  34.070  1.00  0.00    -0.206 F 
ATOM     60  C   UNL A   1      43.992  27.480  34.869  1.00  0.00     0.040 A 
ATOM     61  C   UNL A   1      43.685  25.663  33.329  1.00  0.00     0.040 A 
ATOM     62  F   UNL A   1      43.939  26.009  31.040  1.00  0.00    -0.206 F 
ATOM     63  C   UNL A   1      43.733  26.131  34.637  1.00  0.00     0.006 A 
ENDBRANCH  39  56
ENDBRANCH  13  14
ENDBRANCH   6   8
ENDBRANCH   3   4
ENDBRANCH   2   3
ENDBRANCH   1   2
BRANCH   1  64
ATOM     64  C   UNL A   1      38.171  22.871  26.140  1.00  0.00     0.116 C 
BRANCH  64  65
ATOM     65  N   UNL A   1      37.846  22.834  24.728  1.00  0.00    -0.349 N 
ATOM     66  C   UNL A   1      36.642  23.073  24.097  1.00  0.00     0.287 C 
ATOM     67  H   UNL A   1      38.595  22.606  24.130  1.00  0.00     0.163 HD
ATOM     68  O   UNL A   1      36.593  22.894  22.881  1.00  0.00    -0.266 OA
BRANCH  66  69
ATOM     69  C   UNL A   1      35.510  23.502  24.888  1.00  0.00     0.196 A 
ATOM     70  O   UNL A   1      35.288  24.851  24.962  1.00  0.00    -0.459 OA
ATOM     71  C   UNL A   1      34.539  22.817  25.618  1.00  0.00     0.023 A 
ATOM     72  C   UNL A   1      34.156  25.040  25.674  1.00  0.00     0.196 A 
ATOM     73  C   UNL A   1      33.649  23.835  26.087  1.00  0.00     0.048 A 
BRANCH  71  74
ATOM     74  C   UNL A   1      34.424  21.332  25.789  1.00  0.00     0.162 C 
BRANCH  74  75
ATOM     75  N   UNL A   1      33.649  20.681  24.732  1.00  0.00    -0.343 N 
ATOM     76  C   UNL A   1      32.829  21.347  23.854  1.00  0.00     0.087 A 
ATOM     77  C   UNL A   1      33.567  19.319  24.508  1.00  0.00     0.055 A 
ATOM     78  C   UNL A   1      32.281  20.419  22.998  1.00  0.00     0.028 A 
ATOM     79  C   UNL A   1      32.771  19.139  23.373  1.00  0.00     0.000 A 
ATOM     80  C   UNL A   1      34.153  18.234  25.181  1.00  0.00     0.112 A 
ATOM     81  C   UNL A   1      32.598  17.838  22.853  1.00  0.00     0.017 A 
ATOM     82  C   UNL A   1      34.020  16.961  24.605  1.00  0.00     0.271 A 
ATOM     83  C   UNL A   1      33.251  16.757  23.458  1.00  0.00     0.086 A 
BRANCH  82  84
ATOM     84  N   UNL A   1      34.754  15.837  25.203  1.00  0.00     0.062 N 
ATOM     85  O   UNL A   1      35.924  16.040  25.560  1.00  0.00    -0.258 OA
ATOM     86  O   UNL A   1      34.169  14.748  25.299  1.00  0.00    -0.258 OA
ENDBRANCH  82  84
ENDBRANCH  74  75
ENDBRANCH  71  74
ENDBRANCH  66  69
ENDBRANCH  64  65
ENDBRANCH   1  64
TORSDOF 14
ENDMDL
MODEL 2
REMARK VINA RESULT:     -11.9      4.898      9.782
REMARK SMILES O=C(NCCCCNC(=O)c1occc1Cn1ccc2ccc([N+](=O)[O-])cc21)c1ccc(-c2c3nc(c(-c4c(F)cccc4F)c4ccc([nH]4)c(-c4c(F)cccc4F)c4nc(c(-c5c(F)cccc5F)c5ccc2[nH]5)C=C4)C=C3)cc1
REMARK SMILES IDX 6 1 5 2 4 3 3 4 1 5 2 6 29 8 30 9 82 10 31 11 81 12 32 13
REMARK SMILES IDX 33 14 34 15 75 16 35 17 80 18 74 19 76 20 36 21 79 22 73 23
REMARK SMILES IDX 72 24 37 26 63 27 46 28 62 29 47 30 50 31 61 32 77 33 48 34
REMARK SMILES IDX 49 35 60 37 78 38 51 39 38 40 39 41 44 42 40 43 41 44 43 45
REMARK SMILES IDX 45 46 42 47 64 48 65 49 70 50 66 51 67 52 69 53 71 54 68 55
REMARK SMILES IDX 52 56 53 57 58 58 54 59 55 60 57 61 59 62 56 63 7 64 8 65
REMARK SMILES IDX 9 66 10 68 11 69 12 70 15 71 13 72 14 73 16 74 17 75 18 76
REMARK SMILES IDX 28 77 19 78 20 79 27 80 21 81 23 82 22 83 24 84 25 85 26 86
REMARK H PARENT 3 7 76 25 50 36 8 67
REMARK Flexibility Score: inf
ROOT
ATOM      1  C   UNL A   1      33.911  33.495  28.698  1.00  0.00     0.023 C 
ENDROOT
BRANCH   1   2
ATOM      2  C   UNL A   1      32.945  34.684  28.773  1.00  0.00     0.023 C 
BRANCH   2   3
ATOM      3  C   UNL A   1      33.450  35.908  29.527  1.00  0.00     0.116 C 
BRANCH   3   4
ATOM      4  N   UNL A   1      32.622  36.300  30.670  1.00  0.00    -0.352 N 
ATOM      5  O   UNL A   1      31.651  35.844  32.683  1.00  0.00    -0.269 OA
ATOM      6  C   UNL A   1      32.587  35.706  31.930  1.00  0.00     0.251 C 
ATOM      7  H   UNL A   1      32.024  37.070  30.533  1.00  0.00     0.163 HD
BRANCH   6   8
ATOM      8  C   UNL A   1      33.760  34.897  32.319  1.00  0.00     0.039 A 
ATOM      9  C   UNL A   1      33.745  33.502  32.303  1.00  0.00     0.014 A 
ATOM     10  C   UNL A   1      34.937  35.596  32.535  1.00  0.00     0.014 A 
ATOM     11  C   UNL A   1      34.963  32.819  32.376  1.00  0.00     0.010 A 
ATOM     12  C   UNL A   1      36.130  34.931  32.403  1.00  0.00     0.010 A 
ATOM     13  C   UNL A   1      36.170  33.537  32.377  1.00  0.00    -0.014 A 
BRANCH  13  14
ATOM     14  C   UNL A   1      37.470  32.858  32.273  1.00  0.00     0.031 A 
ATOM     15  C   UNL A   1      38.301  32.762  33.512  1.00  0.00     0.074 A 
ATOM     16  C   UNL A   1      37.870  32.170  31.178  1.00  0.00     0.049 A 
ATOM     17  N   UNL A   1      39.464  33.293  33.714  1.00  0.00    -0.248 NA
ATOM     18  C   UNL A   1      37.772  32.037  34.676  1.00  0.00     0.031 C 
ATOM     19  C   UNL A   1      37.142  31.918  29.926  1.00  0.00     0.029 A 
ATOM     20  N   UNL A   1      39.013  31.445  31.002  1.00  0.00    -0.354 N 
ATOM     21  C   UNL A   1      39.903  32.830  34.953  1.00  0.00     0.074 A 
ATOM     22  C   UNL A   1      38.773  32.164  35.551  1.00  0.00     0.031 C 
ATOM     23  C   UNL A   1      37.729  30.912  29.249  1.00  0.00     0.029 A 
ATOM     24  C   UNL A   1      38.986  30.603  29.901  1.00  0.00     0.049 A 
ATOM     25  H   UNL A   1      39.788  31.514  31.604  1.00  0.00     0.167 HD
ATOM     26  C   UNL A   1      41.223  32.861  35.299  1.00  0.00     0.037 A 
ATOM     27  C   UNL A   1      39.934  29.727  29.501  1.00  0.00     0.037 A 
ATOM     28  C   UNL A   1      41.976  33.734  34.434  1.00  0.00     0.049 A 
ATOM     29  C   UNL A   1      41.218  30.178  30.079  1.00  0.00     0.074 A 
ATOM     30  C   UNL A   1      41.909  35.071  34.088  1.00  0.00     0.029 A 
ATOM     31  N   UNL A   1      42.800  33.161  33.496  1.00  0.00    -0.354 N 
ATOM     32  N   UNL A   1      41.836  31.263  29.704  1.00  0.00    -0.248 NA
ATOM     33  C   UNL A   1      41.618  29.647  31.372  1.00  0.00     0.031 C 
ATOM     34  C   UNL A   1      42.254  35.108  32.703  1.00  0.00     0.029 A 
ATOM     35  C   UNL A   1      42.556  33.804  32.312  1.00  0.00     0.049 A 
ATOM     36  H   UNL A   1      43.441  32.429  33.647  1.00  0.00     0.167 HD
ATOM     37  C   UNL A   1      42.358  31.790  30.875  1.00  0.00     0.074 A 
ATOM     38  C   UNL A   1      42.303  30.694  31.840  1.00  0.00     0.031 C 
ATOM     39  C   UNL A   1      42.522  33.138  31.032  1.00  0.00     0.037 A 
BRANCH  26  40
ATOM     40  C   UNL A   1      41.917  31.846  36.181  1.00  0.00     0.057 A 
ATOM     41  C   UNL A   1      42.024  30.477  35.869  1.00  0.00     0.134 A 
ATOM     42  C   UNL A   1      42.779  32.294  37.202  1.00  0.00     0.134 A 
ATOM     43  F   UNL A   1      41.319  29.912  34.881  1.00  0.00    -0.206 F 
ATOM     44  C   UNL A   1      42.946  29.629  36.491  1.00  0.00     0.040 A 
ATOM     45  C   UNL A   1      43.740  31.465  37.795  1.00  0.00     0.040 A 
ATOM     46  F   UNL A   1      42.777  33.578  37.592  1.00  0.00    -0.206 F 
ATOM     47  C   UNL A   1      43.835  30.129  37.430  1.00  0.00     0.006 A 
ENDBRANCH  26  40
BRANCH  27  48
ATOM     48  C   UNL A   1      39.768  28.470  28.750  1.00  0.00     0.057 A 
ATOM     49  C   UNL A   1      39.265  27.312  29.372  1.00  0.00     0.134 A 
ATOM     50  C   UNL A   1      40.324  28.297  27.477  1.00  0.00     0.134 A 
ATOM     51  F   UNL A   1      38.768  27.355  30.617  1.00  0.00    -0.206 F 
ATOM     52  C   UNL A   1      39.329  26.051  28.771  1.00  0.00     0.040 A 
ATOM     53  C   UNL A   1      40.400  27.040  26.865  1.00  0.00     0.040 A 
ATOM     54  F   UNL A   1      40.855  29.337  26.819  1.00  0.00    -0.206 F 
ATOM     55  C   UNL A   1      39.912  25.910  27.518  1.00  0.00     0.006 A 
ENDBRANCH  27  48
BRANCH  39  56
ATOM     56  C   UNL A   1      42.388  34.005  29.812  1.00  0.00     0.057 A 
ATOM     57  C   UNL A   1      43.530  34.291  29.056  1.00  0.00     0.134 A 
ATOM     58  C   UNL A   1      41.203  34.656  29.439  1.00  0.00     0.134 A 
ATOM     59  F   UNL A   1      44.715  33.756  29.389  1.00  0.00    -0.206 F 
ATOM     60  C   UNL A   1      43.491  35.163  27.964  1.00  0.00     0.040 A 
ATOM     61  C   UNL A   1      41.143  35.505  28.329  1.00  0.00     0.040 A 
ATOM     62  F   UNL A   1      40.086  34.533  30.164  1.00  0.00    -0.206 F 
ATOM     63  C   UNL A   1      42.290  35.761  27.588  1.00  0.00     0.006 A 
ENDBRANCH  39  56
ENDBRANCH  13  14
ENDBRANCH   6   8
ENDBRANCH   3   4
ENDBRANCH   2   3
ENDBRANCH   1   2
BRANCH   1  64
ATOM     64  C   UNL A   1      33.646  32.444  27.620  1.00  0.00     0.116 C 
BRANCH  64  65
ATOM     65  N   UNL A   1      34.332  31.185  27.832  1.00  0.00    -0.349 N 
ATOM     66  C   UNL A   1      34.072  29.942  27.293  1.00  0.00     0.287 C 
ATOM     67  H   UNL A   1      35.096  31.221  28.453  1.00  0.00     0.163 HD
ATOM     68  O   UNL A   1      34.746  28.995  27.697  1.00  0.00    -0.266 OA
BRANCH  66  69
ATOM     69  C   UNL A   1      33.026  29.812  26.303  1.00  0.00     0.196 A 
ATOM     70  O   UNL A   1      31.948  30.644  26.435  1.00  0.00    -0.459 OA
ATOM     71  C   UNL A   1      32.866  28.996  25.183  1.00  0.00     0.023 A 
ATOM     72  C   UNL A   1      31.128  30.421  25.384  1.00  0.00     0.196 A 
ATOM     73  C   UNL A   1      31.645  29.438  24.581  1.00  0.00     0.048 A 
BRANCH  71  74
ATOM     74  C   UNL A   1      33.820  27.950  24.689  1.00  0.00     0.162 C 
BRANCH  74  75
ATOM     75  N   UNL A   1      33.201  26.972  23.794  1.00  0.00    -0.343 N 
ATOM     76  C   UNL A   1      33.256  27.036  22.422  1.00  0.00     0.087 A 
ATOM     77  C   UNL A   1      32.419  25.900  24.182  1.00  0.00     0.055 A 
ATOM     78  C   UNL A   1      32.580  25.947  21.920  1.00  0.00     0.028 A 
ATOM     79  C   UNL A   1      32.081  25.199  23.020  1.00  0.00     0.000 A 
ATOM     80  C   UNL A   1      32.010  25.465  25.453  1.00  0.00     0.112 A 
ATOM     81  C   UNL A   1      31.362  23.990  23.130  1.00  0.00     0.017 A 
ATOM     82  C   UNL A   1      31.354  24.228  25.540  1.00  0.00     0.271 A 
ATOM     83  C   UNL A   1      31.027  23.495  24.397  1.00  0.00     0.086 A 
BRANCH  82  84
ATOM     84  N   UNL A   1      31.057  23.678  26.870  1.00  0.00     0.062 N 
ATOM     85  O   UNL A   1      29.877  23.703  27.252  1.00  0.00    -0.258 OA
ATOM     86  O   UNL A   1      32.003  23.240  27.541  1.00  0.00    -0.258 OA
ENDBRANCH  82  84
ENDBRANCH  74  75
ENDBRANCH  71  74
ENDBRANCH  66  69
ENDBRANCH  64  65
ENDBRANCH   1  64
TORSDOF 14
ENDMDL
MODEL 3
REMARK VINA RESULT:     -11.8      2.891      6.948
REMARK SMILES O=C(NCCCCNC(=O)c1occc1Cn1ccc2ccc([N+](=O)[O-])cc21)c1ccc(-c2c3nc(c(-c4c(F)cccc4F)c4ccc([nH]4)c(-c4c(F)cccc4F)c4nc(c(-c5c(F)cccc5F)c5ccc2[nH]5)C=C4)C=C3)cc1
REMARK SMILES IDX 6 1 5 2 4 3 3 4 1 5 2 6 29 8 30 9 82 10 31 11 81 12 32 13
REMARK SMILES IDX 33 14 34 15 75 16 35 17 80 18 74 19 76 20 36 21 79 22 73 23
REMARK SMILES IDX 72 24 37 26 63 27 46 28 62 29 47 30 50 31 61 32 77 33 48 34
REMARK SMILES IDX 49 35 60 37 78 38 51 39 38 40 39 41 44 42 40 43 41 44 43 45
REMARK SMILES IDX 45 46 42 47 64 48 65 49 70 50 66 51 67 52 69 53 71 54 68 55
REMARK SMILES IDX 52 56 53 57 58 58 54 59 55 60 57 61 59 62 56 63 7 64 8 65
REMARK SMILES IDX 9 66 10 68 11 69 12 70 15 71 13 72 14 73 16 74 17 75 18 76
REMARK SMILES IDX 28 77 19 78 20 79 27 80 21 81 23 82 22 83 24 84 25 85 26 86
REMARK H PARENT 3 7 76 25 50 36 8 67
REMARK Flexibility Score: inf
ROOT
ATOM      1  C   UNL A   1      33.496  28.334  25.325  1.00  0.00     0.023 C 
ENDROOT
BRANCH   1   2
ATOM      2  C   UNL A   1      33.980  29.414  26.300  1.00  0.00     0.023 C 
BRANCH   2   3
ATOM      3  C   UNL A   1      34.818  28.925  27.476  1.00  0.00     0.116 C 
BRANCH   3   4
ATOM      4  N   UNL A   1      35.148  29.962  28.457  1.00  0.00    -0.352 N 
ATOM      5  O   UNL A   1      36.349  30.707  30.247  1.00  0.00    -0.269 OA
ATOM      6  C   UNL A   1      36.303  30.053  29.231  1.00  0.00     0.251 C 
ATOM      7  H   UNL A   1      34.479  30.673  28.584  1.00  0.00     0.163 HD
BRANCH   6   8
ATOM      8  C   UNL A   1      37.490  29.318  28.748  1.00  0.00     0.039 A 
ATOM      9  C   UNL A   1      38.178  29.687  27.591  1.00  0.00     0.014 A 
ATOM     10  C   UNL A   1      37.990  28.345  29.596  1.00  0.00     0.014 A 
ATOM     11  C   UNL A   1      39.451  29.153  27.371  1.00  0.00     0.010 A 
ATOM     12  C   UNL A   1      39.309  27.986  29.478  1.00  0.00     0.010 A 
ATOM     13  C   UNL A   1      40.044  28.333  28.345  1.00  0.00    -0.014 A 
BRANCH  13  14
ATOM     14  C   UNL A   1      41.445  27.897  28.236  1.00  0.00     0.031 A 
ATOM     15  C   UNL A   1      41.720  26.637  27.482  1.00  0.00     0.074 A 
ATOM     16  C   UNL A   1      42.497  28.656  28.622  1.00  0.00     0.049 A 
ATOM     17  N   UNL A   1      42.222  25.540  27.951  1.00  0.00    -0.248 NA
ATOM     18  C   UNL A   1      41.359  26.559  26.058  1.00  0.00     0.031 C 
ATOM     19  C   UNL A   1      42.503  30.020  29.170  1.00  0.00     0.029 A 
ATOM     20  N   UNL A   1      43.828  28.386  28.498  1.00  0.00    -0.354 N 
ATOM     21  C   UNL A   1      42.414  24.692  26.862  1.00  0.00     0.074 A 
ATOM     22  C   UNL A   1      41.752  25.321  25.747  1.00  0.00     0.031 C 
ATOM     23  C   UNL A   1      43.742  30.542  29.088  1.00  0.00     0.029 A 
ATOM     24  C   UNL A   1      44.651  29.486  28.691  1.00  0.00     0.049 A 
ATOM     25  H   UNL A   1      44.175  27.488  28.289  1.00  0.00     0.167 HD
ATOM     26  C   UNL A   1      43.275  23.635  26.924  1.00  0.00     0.037 A 
ATOM     27  C   UNL A   1      45.996  29.547  28.580  1.00  0.00     0.037 A 
ATOM     28  C   UNL A   1      43.622  23.315  28.286  1.00  0.00     0.049 A 
ATOM     29  C   UNL A   1      46.513  28.174  28.758  1.00  0.00     0.074 A 
ATOM     30  C   UNL A   1      42.917  22.967  29.424  1.00  0.00     0.029 A 
ATOM     31  N   UNL A   1      44.876  23.657  28.732  1.00  0.00    -0.354 N 
ATOM     32  N   UNL A   1      46.478  27.530  29.891  1.00  0.00    -0.248 NA
ATOM     33  C   UNL A   1      46.697  27.346  27.576  1.00  0.00     0.031 C 
ATOM     34  C   UNL A   1      43.607  23.613  30.494  1.00  0.00     0.029 A 
ATOM     35  C   UNL A   1      44.709  24.268  29.947  1.00  0.00     0.049 A 
ATOM     36  H   UNL A   1      45.728  23.496  28.267  1.00  0.00     0.167 HD
ATOM     37  C   UNL A   1      46.185  26.222  29.541  1.00  0.00     0.074 A 
ATOM     38  C   UNL A   1      46.458  26.144  28.108  1.00  0.00     0.031 C 
ATOM     39  C   UNL A   1      45.484  25.404  30.383  1.00  0.00     0.037 A 
BRANCH  26  40
ATOM     40  C   UNL A   1      44.091  23.105  25.766  1.00  0.00     0.057 A 
ATOM     41  C   UNL A   1      45.051  23.864  25.070  1.00  0.00     0.134 A 
ATOM     42  C   UNL A   1      44.158  21.714  25.547  1.00  0.00     0.134 A 
ATOM     43  F   UNL A   1      45.160  25.190  25.219  1.00  0.00    -0.206 F 
ATOM     44  C   UNL A   1      46.030  23.284  24.255  1.00  0.00     0.040 A 
ATOM     45  C   UNL A   1      45.164  21.120  24.775  1.00  0.00     0.040 A 
ATOM     46  F   UNL A   1      43.300  20.879  26.153  1.00  0.00    -0.206 F 
ATOM     47  C   UNL A   1      46.113  21.906  24.135  1.00  0.00     0.006 A 
ENDBRANCH  26  40
BRANCH  27  48
ATOM     48  C   UNL A   1      46.838  30.700  28.215  1.00  0.00     0.057 A 
ATOM     49  C   UNL A   1      47.489  31.467  29.199  1.00  0.00     0.134 A 
ATOM     50  C   UNL A   1      46.832  31.232  26.920  1.00  0.00     0.134 A 
ATOM     51  F   UNL A   1      47.500  31.080  30.483  1.00  0.00    -0.206 F 
ATOM     52  C   UNL A   1      48.083  32.700  28.917  1.00  0.00     0.040 A 
ATOM     53  C   UNL A   1      47.417  32.469  26.624  1.00  0.00     0.040 A 
ATOM     54  F   UNL A   1      46.211  30.588  25.922  1.00  0.00    -0.206 F 
ATOM     55  C   UNL A   1      48.035  33.212  27.626  1.00  0.00     0.006 A 
ENDBRANCH  27  48
BRANCH  39  56
ATOM     56  C   UNL A   1      45.284  25.866  31.799  1.00  0.00     0.057 A 
ATOM     57  C   UNL A   1      44.147  26.619  32.111  1.00  0.00     0.134 A 
ATOM     58  C   UNL A   1      46.229  25.696  32.821  1.00  0.00     0.134 A 
ATOM     59  F   UNL A   1      43.227  26.879  31.169  1.00  0.00    -0.206 F 
ATOM     60  C   UNL A   1      43.946  27.155  33.386  1.00  0.00     0.040 A 
ATOM     61  C   UNL A   1      46.025  26.199  34.110  1.00  0.00     0.040 A 
ATOM     62  F   UNL A   1      47.397  25.086  32.591  1.00  0.00    -0.206 F 
ATOM     63  C   UNL A   1      44.880  26.933  34.395  1.00  0.00     0.006 A 
ENDBRANCH  39  56
ENDBRANCH  13  14
ENDBRANCH   6   8
ENDBRANCH   3   4
ENDBRANCH   2   3
ENDBRANCH   1   2
BRANCH   1  64
ATOM     64  C   UNL A   1      32.364  27.422  25.797  1.00  0.00     0.116 C 
BRANCH  64  65
ATOM     65  N   UNL A   1      31.173  27.472  24.971  1.00  0.00    -0.349 N 
ATOM     66  C   UNL A   1      30.268  26.474  24.674  1.00  0.00     0.287 C 
ATOM     67  H   UNL A   1      30.982  28.347  24.561  1.00  0.00     0.163 HD
ATOM     68  O   UNL A   1      29.375  26.738  23.870  1.00  0.00    -0.266 OA
BRANCH  66  69
ATOM     69  C   UNL A   1      30.418  25.181  25.303  1.00  0.00     0.196 A 
ATOM     70  O   UNL A   1      29.775  25.000  26.498  1.00  0.00    -0.459 OA
ATOM     71  C   UNL A   1      31.096  24.016  24.944  1.00  0.00     0.023 A 
ATOM     72  C   UNL A   1      29.975  23.720  26.880  1.00  0.00     0.196 A 
ATOM     73  C   UNL A   1      30.761  23.070  25.964  1.00  0.00     0.048 A 
BRANCH  71  74
ATOM     74  C   UNL A   1      31.920  23.799  23.710  1.00  0.00     0.162 C 
BRANCH  74  75
ATOM     75  N   UNL A   1      33.319  23.477  23.993  1.00  0.00    -0.343 N 
ATOM     76  C   UNL A   1      34.340  24.397  23.991  1.00  0.00     0.087 A 
ATOM     77  C   UNL A   1      33.829  22.213  24.225  1.00  0.00     0.055 A 
ATOM     78  C   UNL A   1      35.505  23.739  24.313  1.00  0.00     0.028 A 
ATOM     79  C   UNL A   1      35.190  22.366  24.504  1.00  0.00     0.000 A 
ATOM     80  C   UNL A   1      33.205  20.955  24.251  1.00  0.00     0.112 A 
ATOM     81  C   UNL A   1      35.947  21.236  24.881  1.00  0.00     0.017 A 
ATOM     82  C   UNL A   1      33.964  19.860  24.692  1.00  0.00     0.271 A 
ATOM     83  C   UNL A   1      35.319  19.990  25.001  1.00  0.00     0.086 A 
BRANCH  82  84
ATOM     84  N   UNL A   1      33.293  18.566  24.877  1.00  0.00     0.062 N 
ATOM     85  O   UNL A   1      32.157  18.573  25.376  1.00  0.00    -0.258 OA
ATOM     86  O   UNL A   1      33.906  17.541  24.543  1.00  0.00    -0.258 OA
ENDBRANCH  82  84
ENDBRANCH  74  75
ENDBRANCH  71  74
ENDBRANCH  66  69
ENDBRANCH  64  65
ENDBRANCH   1  64
TORSDOF 14
ENDMDL
