MODEL 1
REMARK VINA RESULT:     -12.4      0.000      0.000
REMARK SMILES CN1c2ccccc2S[C@H]2C=CC(C(=O)NCCCCNC(=O)c3ccc(-c4c5nc(c(-c6c(F)cccc6F)c6ccc([nH]6)c(-c6c(F)cccc6F)c6nc(c(-c7c(F)cccc7F)c7ccc4[nH]7)C=C6)C=C5)cc3)=C[C@@H]21
REMARK SMILES IDX 19 1 18 2 17 3 16 4 14 5 15 6 13 8 1 9 2 10 3 11 79 12 4 13
REMARK SMILES IDX 8 14 10 15 78 16 5 17 7 18 9 19 11 20 6 21 12 22 20 23 21 24
REMARK SMILES IDX 22 25 23 27 24 28 25 29 77 30 26 31 76 32 27 33 28 34 29 35
REMARK SMILES IDX 70 36 30 37 75 38 69 39 71 40 31 41 74 42 68 43 67 44 32 46
REMARK SMILES IDX 58 47 41 48 57 49 42 50 45 51 56 52 72 53 43 54 44 55 55 57
REMARK SMILES IDX 73 58 46 59 33 60 34 61 39 62 35 63 36 64 38 65 40 66 37 67
REMARK SMILES IDX 59 68 60 69 65 70 61 71 62 72 64 73 66 74 63 75 47 76 48 77
REMARK SMILES IDX 53 78 49 79 50 80 52 81 54 82 51 83
REMARK H PARENT 16 7 21 26 71 45 45 56
REMARK Flexibility Score: inf
ROOT
ATOM      1  C   UNL A   1      37.027  23.434  24.928  1.00  0.00     0.023 C 
ENDROOT
BRANCH   1   2
ATOM      2  C   UNL A   1      37.287  22.009  24.433  1.00  0.00     0.023 C 
BRANCH   2   3
ATOM      3  C   UNL A   1      36.987  20.916  25.463  1.00  0.00     0.116 C 
BRANCH   3   4
ATOM      4  N   UNL A   1      35.917  20.053  25.001  1.00  0.00    -0.352 N 
ATOM      5  C   UNL A   1      34.564  20.207  24.955  1.00  0.00     0.251 C 
ATOM      6  O   UNL A   1      33.911  19.251  24.528  1.00  0.00    -0.269 OA
ATOM      7  H   UNL A   1      36.230  19.186  24.654  1.00  0.00     0.163 HD
BRANCH   5   8
ATOM      8  C   UNL A   1      33.883  21.499  25.324  1.00  0.00     0.037 C 
ATOM      9  C   UNL A   1      33.231  24.020  22.090  1.00  0.00     0.144 C 
ATOM     10  N   UNL A   1      32.629  24.396  23.359  1.00  0.00    -0.366 N 
ATOM     11  C   UNL A   1      31.908  25.598  23.464  1.00  0.00     0.051 A 
ATOM     12  C   UNL A   1      32.602  23.511  24.540  1.00  0.00     0.123 C 
ATOM     13  C   UNL A   1      31.403  26.238  22.313  1.00  0.00     0.027 A 
ATOM     14  C   UNL A   1      31.655  26.238  24.706  1.00  0.00     0.031 A 
ATOM     15  C   UNL A   1      33.252  24.253  25.744  1.00  0.00     0.101 C 
ATOM     16  C   UNL A   1      33.268  22.166  24.321  1.00  0.00     0.013 C 
ATOM     17  C   UNL A   1      30.712  27.454  22.376  1.00  0.00     0.002 A 
ATOM     18  C   UNL A   1      30.969  27.465  24.759  1.00  0.00     0.017 A 
ATOM     19  S   UNL A   1      32.161  25.593  26.304  1.00  0.00    -0.114 SA
ATOM     20  C   UNL A   1      33.520  23.324  26.898  1.00  0.00    -0.009 C 
ATOM     21  C   UNL A   1      30.506  28.075  23.599  1.00  0.00     0.001 A 
ATOM     22  C   UNL A   1      33.771  22.027  26.672  1.00  0.00     0.010 C 
ENDBRANCH   5   8
ENDBRANCH   3   4
ENDBRANCH   2   3
ENDBRANCH   1   2
BRANCH   1  23
ATOM     23  C   UNL A   1      37.859  23.850  26.133  1.00  0.00     0.116 C 
BRANCH  23  24
ATOM     24  N   UNL A   1      39.278  23.557  25.995  1.00  0.00    -0.352 N 
ATOM     25  C   UNL A   1      40.342  24.259  26.518  1.00  0.00     0.251 C 
ATOM     26  H   UNL A   1      39.505  22.760  25.465  1.00  0.00     0.163 HD
ATOM     27  O   UNL A   1      41.494  23.949  26.245  1.00  0.00    -0.269 OA
BRANCH  25  28
ATOM     28  C   UNL A   1      40.065  25.435  27.370  1.00  0.00     0.039 A 
ATOM     29  C   UNL A   1      40.652  26.667  27.080  1.00  0.00     0.014 A 
ATOM     30  C   UNL A   1      39.279  25.276  28.513  1.00  0.00     0.014 A 
ATOM     31  C   UNL A   1      40.602  27.686  28.024  1.00  0.00     0.010 A 
ATOM     32  C   UNL A   1      39.161  26.330  29.422  1.00  0.00     0.010 A 
ATOM     33  C   UNL A   1      39.872  27.523  29.213  1.00  0.00    -0.014 A 
BRANCH  33  34
ATOM     34  C   UNL A   1      39.898  28.606  30.228  1.00  0.00     0.031 A 
ATOM     35  C   UNL A   1      38.900  29.732  30.179  1.00  0.00     0.074 A 
ATOM     36  C   UNL A   1      40.776  28.527  31.246  1.00  0.00     0.049 A 
ATOM     37  N   UNL A   1      38.736  30.726  31.017  1.00  0.00    -0.248 NA
ATOM     38  C   UNL A   1      37.967  29.750  29.042  1.00  0.00     0.031 C 
ATOM     39  C   UNL A   1      41.786  27.480  31.409  1.00  0.00     0.029 A 
ATOM     40  N   UNL A   1      40.935  29.319  32.353  1.00  0.00    -0.354 N 
ATOM     41  C   UNL A   1      37.699  31.492  30.500  1.00  0.00     0.074 A 
ATOM     42  C   UNL A   1      37.289  30.866  29.262  1.00  0.00     0.031 C 
ATOM     43  C   UNL A   1      42.420  27.660  32.577  1.00  0.00     0.029 A 
ATOM     44  C   UNL A   1      41.897  28.860  33.219  1.00  0.00     0.049 A 
ATOM     45  H   UNL A   1      40.410  30.137  32.513  1.00  0.00     0.167 HD
ATOM     46  C   UNL A   1      37.131  32.610  31.017  1.00  0.00     0.037 A 
ATOM     47  C   UNL A   1      42.313  29.354  34.400  1.00  0.00     0.037 A 
ATOM     48  C   UNL A   1      37.521  33.221  32.260  1.00  0.00     0.049 A 
ATOM     49  C   UNL A   1      41.681  30.604  34.936  1.00  0.00     0.074 A 
ATOM     50  C   UNL A   1      36.996  34.345  32.874  1.00  0.00     0.029 A 
ATOM     51  N   UNL A   1      38.536  32.756  33.083  1.00  0.00    -0.354 N 
ATOM     52  N   UNL A   1      40.698  31.313  34.438  1.00  0.00    -0.248 NA
ATOM     53  C   UNL A   1      42.225  31.127  36.196  1.00  0.00     0.031 C 
ATOM     54  C   UNL A   1      37.713  34.578  34.054  1.00  0.00     0.029 A 
ATOM     55  C   UNL A   1      38.661  33.577  34.193  1.00  0.00     0.049 A 
ATOM     56  H   UNL A   1      39.086  31.959  32.906  1.00  0.00     0.167 HD
ATOM     57  C   UNL A   1      40.497  32.359  35.328  1.00  0.00     0.074 A 
ATOM     58  C   UNL A   1      41.445  32.177  36.409  1.00  0.00     0.031 C 
ATOM     59  C   UNL A   1      39.612  33.383  35.255  1.00  0.00     0.037 A 
BRANCH  46  60
ATOM     60  C   UNL A   1      36.029  33.251  30.225  1.00  0.00     0.057 A 
ATOM     61  C   UNL A   1      36.321  34.043  29.106  1.00  0.00     0.134 A 
ATOM     62  C   UNL A   1      34.682  33.111  30.582  1.00  0.00     0.134 A 
ATOM     63  F   UNL A   1      37.591  34.223  28.714  1.00  0.00    -0.206 F 
ATOM     64  C   UNL A   1      35.314  34.671  28.373  1.00  0.00     0.040 A 
ATOM     65  C   UNL A   1      33.664  33.717  29.843  1.00  0.00     0.040 A 
ATOM     66  F   UNL A   1      34.334  32.354  31.634  1.00  0.00    -0.206 F 
ATOM     67  C   UNL A   1      33.980  34.504  28.737  1.00  0.00     0.006 A 
ENDBRANCH  46  60
BRANCH  47  68
ATOM     68  C   UNL A   1      43.384  28.660  35.156  1.00  0.00     0.057 A 
ATOM     69  C   UNL A   1      43.081  27.734  36.161  1.00  0.00     0.134 A 
ATOM     70  C   UNL A   1      44.733  28.906  34.886  1.00  0.00     0.134 A 
ATOM     71  F   UNL A   1      41.804  27.461  36.469  1.00  0.00    -0.206 F 
ATOM     72  C   UNL A   1      44.083  27.082  36.878  1.00  0.00     0.040 A 
ATOM     73  C   UNL A   1      45.748  28.243  35.579  1.00  0.00     0.040 A 
ATOM     74  F   UNL A   1      45.084  29.769  33.922  1.00  0.00    -0.206 F 
ATOM     75  C   UNL A   1      45.423  27.332  36.582  1.00  0.00     0.006 A 
ENDBRANCH  47  68
BRANCH  59  76
ATOM     76  C   UNL A   1      39.626  34.366  36.386  1.00  0.00     0.057 A 
ATOM     77  C   UNL A   1      38.895  34.121  37.555  1.00  0.00     0.134 A 
ATOM     78  C   UNL A   1      40.364  35.555  36.317  1.00  0.00     0.134 A 
ATOM     79  F   UNL A   1      38.165  33.003  37.680  1.00  0.00    -0.206 F 
ATOM     80  C   UNL A   1      38.903  35.023  38.620  1.00  0.00     0.040 A 
ATOM     81  C   UNL A   1      40.397  36.453  37.384  1.00  0.00     0.040 A 
ATOM     82  F   UNL A   1      41.098  35.837  35.230  1.00  0.00    -0.206 F 
ATOM     83  C   UNL A   1      39.662  36.189  38.539  1.00  0.00     0.006 A 
ENDBRANCH  59  76
ENDBRANCH  33  34
ENDBRANCH  25  28
ENDBRANCH  23  24
ENDBRANCH   1  23
TORSDOF 11
ENDMDL
MODEL 2
REMARK VINA RESULT:     -12.3      5.701     10.314
REMARK SMILES CN1c2ccccc2S[C@H]2C=CC(C(=O)NCCCCNC(=O)c3ccc(-c4c5nc(c(-c6c(F)cccc6F)c6ccc([nH]6)c(-c6c(F)cccc6F)c6nc(c(-c7c(F)cccc7F)c7ccc4[nH]7)C=C6)C=C5)cc3)=C[C@@H]21
REMARK SMILES IDX 19 1 18 2 17 3 16 4 14 5 15 6 13 8 1 9 2 10 3 11 79 12 4 13
REMARK SMILES IDX 8 14 10 15 78 16 5 17 7 18 9 19 11 20 6 21 12 22 20 23 21 24
REMARK SMILES IDX 22 25 23 27 24 28 25 29 77 30 26 31 76 32 27 33 28 34 29 35
REMARK SMILES IDX 70 36 30 37 75 38 69 39 71 40 31 41 74 42 68 43 67 44 32 46
REMARK SMILES IDX 58 47 41 48 57 49 42 50 45 51 56 52 72 53 43 54 44 55 55 57
REMARK SMILES IDX 73 58 46 59 33 60 34 61 39 62 35 63 36 64 38 65 40 66 37 67
REMARK SMILES IDX 59 68 60 69 65 70 61 71 62 72 64 73 66 74 63 75 47 76 48 77
REMARK SMILES IDX 53 78 49 79 50 80 52 81 54 82 51 83
REMARK H PARENT 16 7 21 26 71 45 45 56
REMARK Flexibility Score: inf
ROOT
ATOM      1  C   UNL A   1      33.219  28.505  27.169  1.00  0.00     0.023 C 
ENDROOT
BRANCH   1   2
ATOM      2  C   UNL A   1      32.087  29.535  27.203  1.00  0.00     0.023 C 
BRANCH   2   3
ATOM      3  C   UNL A   1      32.182  30.617  26.124  1.00  0.00     0.116 C 
BRANCH   3   4
ATOM      4  N   UNL A   1      31.028  30.573  25.246  1.00  0.00    -0.352 N 
ATOM      5  C   UNL A   1      30.676  29.737  24.230  1.00  0.00     0.251 C 
ATOM      6  O   UNL A   1      29.622  29.993  23.641  1.00  0.00    -0.269 OA
ATOM      7  H   UNL A   1      30.372  31.287  25.419  1.00  0.00     0.163 HD
BRANCH   5   8
ATOM      8  C   UNL A   1      31.475  28.509  23.877  1.00  0.00     0.037 C 
ATOM      9  C   UNL A   1      30.471  25.167  26.127  1.00  0.00     0.144 C 
ATOM     10  N   UNL A   1      31.383  24.969  25.010  1.00  0.00    -0.366 N 
ATOM     11  C   UNL A   1      31.925  23.696  24.766  1.00  0.00     0.051 A 
ATOM     12  C   UNL A   1      31.675  26.011  24.005  1.00  0.00     0.123 C 
ATOM     13  C   UNL A   1      31.314  22.539  25.292  1.00  0.00     0.027 A 
ATOM     14  C   UNL A   1      33.103  23.495  23.998  1.00  0.00     0.031 A 
ATOM     15  C   UNL A   1      33.213  26.244  23.951  1.00  0.00     0.101 C 
ATOM     16  C   UNL A   1      30.946  27.319  24.239  1.00  0.00     0.013 C 
ATOM     17  C   UNL A   1      31.846  21.259  25.100  1.00  0.00     0.002 A 
ATOM     18  C   UNL A   1      33.637  22.207  23.818  1.00  0.00     0.017 A 
ATOM     19  S   UNL A   1      34.029  24.808  23.194  1.00  0.00    -0.114 SA
ATOM     20  C   UNL A   1      33.566  27.479  23.166  1.00  0.00    -0.009 C 
ATOM     21  C   UNL A   1      33.015  21.093  24.373  1.00  0.00     0.001 A 
ATOM     22  C   UNL A   1      32.710  28.510  23.114  1.00  0.00     0.010 C 
ENDBRANCH   5   8
ENDBRANCH   3   4
ENDBRANCH   2   3
ENDBRANCH   1   2
BRANCH   1  23
ATOM     23  C   UNL A   1      34.615  29.090  27.324  1.00  0.00     0.116 C 
BRANCH  23  24
ATOM     24  N   UNL A   1      34.719  30.090  28.377  1.00  0.00    -0.352 N 
ATOM     25  C   UNL A   1      35.820  30.401  29.144  1.00  0.00     0.251 C 
ATOM     26  H   UNL A   1      33.902  30.608  28.562  1.00  0.00     0.163 HD
ATOM     27  O   UNL A   1      35.739  31.206  30.062  1.00  0.00    -0.269 OA
BRANCH  25  28
ATOM     28  C   UNL A   1      37.092  29.696  28.875  1.00  0.00     0.039 A 
ATOM     29  C   UNL A   1      37.724  28.975  29.889  1.00  0.00     0.014 A 
ATOM     30  C   UNL A   1      37.693  29.834  27.622  1.00  0.00     0.014 A 
ATOM     31  C   UNL A   1      39.032  28.546  29.707  1.00  0.00     0.010 A 
ATOM     32  C   UNL A   1      38.979  29.328  27.415  1.00  0.00     0.010 A 
ATOM     33  C   UNL A   1      39.681  28.733  28.475  1.00  0.00    -0.014 A 
BRANCH  33  34
ATOM     34  C   UNL A   1      41.102  28.325  28.341  1.00  0.00     0.031 A 
ATOM     35  C   UNL A   1      41.465  26.909  27.979  1.00  0.00     0.074 A 
ATOM     36  C   UNL A   1      42.066  29.257  28.465  1.00  0.00     0.049 A 
ATOM     37  N   UNL A   1      42.649  26.392  27.757  1.00  0.00    -0.248 NA
ATOM     38  C   UNL A   1      40.360  25.946  27.853  1.00  0.00     0.031 C 
ATOM     39  C   UNL A   1      41.840  30.663  28.804  1.00  0.00     0.029 A 
ATOM     40  N   UNL A   1      43.422  29.171  28.285  1.00  0.00    -0.354 N 
ATOM     41  C   UNL A   1      42.432  25.047  27.485  1.00  0.00     0.074 A 
ATOM     42  C   UNL A   1      41.007  24.819  27.595  1.00  0.00     0.031 C 
ATOM     43  C   UNL A   1      43.007  31.321  28.749  1.00  0.00     0.029 A 
ATOM     44  C   UNL A   1      44.068  30.375  28.422  1.00  0.00     0.049 A 
ATOM     45  H   UNL A   1      43.887  28.329  28.076  1.00  0.00     0.167 HD
ATOM     46  C   UNL A   1      43.336  24.091  27.159  1.00  0.00     0.037 A 
ATOM     47  C   UNL A   1      45.372  30.682  28.301  1.00  0.00     0.037 A 
ATOM     48  C   UNL A   1      44.751  24.320  27.025  1.00  0.00     0.049 A 
ATOM     49  C   UNL A   1      46.353  29.599  27.961  1.00  0.00     0.074 A 
ATOM     50  C   UNL A   1      45.745  23.419  26.684  1.00  0.00     0.029 A 
ATOM     51  N   UNL A   1      45.374  25.543  27.224  1.00  0.00    -0.354 N 
ATOM     52  N   UNL A   1      46.130  28.334  27.701  1.00  0.00    -0.248 NA
ATOM     53  C   UNL A   1      47.768  29.988  27.907  1.00  0.00     0.031 C 
ATOM     54  C   UNL A   1      46.974  24.090  26.706  1.00  0.00     0.029 A 
ATOM     55  C   UNL A   1      46.740  25.417  27.026  1.00  0.00     0.049 A 
ATOM     56  H   UNL A   1      44.913  26.378  27.469  1.00  0.00     0.167 HD
ATOM     57  C   UNL A   1      47.375  27.777  27.441  1.00  0.00     0.074 A 
ATOM     58  C   UNL A   1      48.344  28.848  27.552  1.00  0.00     0.031 C 
ATOM     59  C   UNL A   1      47.689  26.492  27.145  1.00  0.00     0.037 A 
BRANCH  46  60
ATOM     60  C   UNL A   1      42.817  22.700  26.937  1.00  0.00     0.057 A 
ATOM     61  C   UNL A   1      42.678  22.188  25.640  1.00  0.00     0.134 A 
ATOM     62  C   UNL A   1      42.427  21.877  28.001  1.00  0.00     0.134 A 
ATOM     63  F   UNL A   1      43.028  22.927  24.576  1.00  0.00    -0.206 F 
ATOM     64  C   UNL A   1      42.171  20.909  25.410  1.00  0.00     0.040 A 
ATOM     65  C   UNL A   1      41.938  20.587  27.784  1.00  0.00     0.040 A 
ATOM     66  F   UNL A   1      42.548  22.301  29.267  1.00  0.00    -0.206 F 
ATOM     67  C   UNL A   1      41.805  20.102  26.484  1.00  0.00     0.006 A 
ENDBRANCH  46  60
BRANCH  47  68
ATOM     68  C   UNL A   1      45.825  32.081  28.499  1.00  0.00     0.057 A 
ATOM     69  C   UNL A   1      45.858  32.992  27.436  1.00  0.00     0.134 A 
ATOM     70  C   UNL A   1      46.230  32.536  29.757  1.00  0.00     0.134 A 
ATOM     71  F   UNL A   1      45.487  32.612  26.205  1.00  0.00    -0.206 F 
ATOM     72  C   UNL A   1      46.287  34.306  27.617  1.00  0.00     0.040 A 
ATOM     73  C   UNL A   1      46.639  33.856  29.958  1.00  0.00     0.040 A 
ATOM     74  F   UNL A   1      46.202  31.714  30.815  1.00  0.00    -0.206 F 
ATOM     75  C   UNL A   1      46.673  34.744  28.883  1.00  0.00     0.006 A 
ENDBRANCH  47  68
BRANCH  59  76
ATOM     76  C   UNL A   1      49.137  26.192  26.905  1.00  0.00     0.057 A 
ATOM     77  C   UNL A   1      49.978  25.832  27.965  1.00  0.00     0.134 A 
ATOM     78  C   UNL A   1      49.698  26.258  25.622  1.00  0.00     0.134 A 
ATOM     79  F   UNL A   1      49.502  25.756  29.216  1.00  0.00    -0.206 F 
ATOM     80  C   UNL A   1      51.327  25.543  27.757  1.00  0.00     0.040 A 
ATOM     81  C   UNL A   1      51.040  25.949  25.399  1.00  0.00     0.040 A 
ATOM     82  F   UNL A   1      48.939  26.580  24.564  1.00  0.00    -0.206 F 
ATOM     83  C   UNL A   1      51.860  25.592  26.469  1.00  0.00     0.006 A 
ENDBRANCH  59  76
ENDBRANCH  33  34
ENDBRANCH  25  28
ENDBRANCH  23  24
ENDBRANCH   1  23
TORSDOF 11
ENDMDL
MODEL 3
REMARK VINA RESULT:     -12.3      2.893      7.836
REMARK SMILES CN1c2ccccc2S[C@H]2C=CC(C(=O)NCCCCNC(=O)c3ccc(-c4c5nc(c(-c6c(F)cccc6F)c6ccc([nH]6)c(-c6c(F)cccc6F)c6nc(c(-c7c(F)cccc7F)c7ccc4[nH]7)C=C6)C=C5)cc3)=C[C@@H]21
REMARK SMILES IDX 19 1 18 2 17 3 16 4 14 5 15 6 13 8 1 9 2 10 3 11 79 12 4 13
REMARK SMILES IDX 8 14 10 15 78 16 5 17 7 18 9 19 11 20 6 21 12 22 20 23 21 24
REMARK SMILES IDX 22 25 23 27 24 28 25 29 77 30 26 31 76 32 27 33 28 34 29 35
REMARK SMILES IDX 70 36 30 37 75 38 69 39 71 40 31 41 74 42 68 43 67 44 32 46
REMARK SMILES IDX 58 47 41 48 57 49 42 50 45 51 56 52 72 53 43 54 44 55 55 57
REMARK SMILES IDX 73 58 46 59 33 60 34 61 39 62 35 63 36 64 38 65 40 66 37 67
REMARK SMILES IDX 59 68 60 69 65 70 61 71 62 72 64 73 66 74 63 75 47 76 48 77
REMARK SMILES IDX 53 78 49 79 50 80 52 81 54 82 51 83
REMARK H PARENT 16 7 21 26 71 45 45 56
REMARK Flexibility Score: inf
ROOT
ATOM      1  C   UNL A   1      31.841  31.541  26.853  1.00  0.00     0.023 C 
ENDROOT
BRANCH   1   2
ATOM      2  C   UNL A   1      32.152  30.045  26.944  1.00  0.00     0.023 C 
BRANCH   2   3
ATOM      3  C   UNL A   1      33.560  29.660  26.480  1.00  0.00     0.116 C 
BRANCH   3   4
ATOM      4  N   UNL A   1      33.637  29.637  25.033  1.00  0.00    -0.352 N 
ATOM      5  C   UNL A   1      33.373  28.669  24.111  1.00  0.00     0.251 C 
ATOM      6  O   UNL A   1      33.576  28.958  22.929  1.00  0.00    -0.269 OA
ATOM      7  H   UNL A   1      33.941  30.487  24.638  1.00  0.00     0.163 HD
BRANCH   5   8
ATOM      8  C   UNL A   1      32.785  27.333  24.486  1.00  0.00     0.037 C 
ATOM      9  C   UNL A   1      35.212  24.112  23.501  1.00  0.00     0.144 C 
ATOM     10  N   UNL A   1      34.031  23.835  24.304  1.00  0.00    -0.366 N 
ATOM     11  C   UNL A   1      33.725  22.512  24.666  1.00  0.00     0.051 A 
ATOM     12  C   UNL A   1      33.186  24.890  24.897  1.00  0.00     0.123 C 
ATOM     13  C   UNL A   1      34.716  21.509  24.638  1.00  0.00     0.027 A 
ATOM     14  C   UNL A   1      32.424  22.105  25.067  1.00  0.00     0.031 A 
ATOM     15  C   UNL A   1      31.716  24.685  24.428  1.00  0.00     0.101 C 
ATOM     16  C   UNL A   1      33.651  26.300  24.593  1.00  0.00     0.013 C 
ATOM     17  C   UNL A   1      34.439  20.175  24.958  1.00  0.00     0.002 A 
ATOM     18  C   UNL A   1      32.153  20.760  25.376  1.00  0.00     0.017 A 
ATOM     19  S   UNL A   1      31.015  23.207  25.220  1.00  0.00    -0.114 SA
ATOM     20  C   UNL A   1      30.851  25.874  24.755  1.00  0.00    -0.009 C 
ATOM     21  C   UNL A   1      33.154  19.797  25.315  1.00  0.00     0.001 A 
ATOM     22  C   UNL A   1      31.391  27.099  24.817  1.00  0.00     0.010 C 
ENDBRANCH   5   8
ENDBRANCH   3   4
ENDBRANCH   2   3
ENDBRANCH   1   2
BRANCH   1  23
ATOM     23  C   UNL A   1      32.961  32.453  27.333  1.00  0.00     0.116 C 
BRANCH  23  24
ATOM     24  N   UNL A   1      32.526  33.811  27.625  1.00  0.00    -0.352 N 
ATOM     25  C   UNL A   1      33.054  34.690  28.545  1.00  0.00     0.251 C 
ATOM     26  H   UNL A   1      31.762  34.142  27.100  1.00  0.00     0.163 HD
ATOM     27  O   UNL A   1      32.528  35.776  28.751  1.00  0.00    -0.269 OA
BRANCH  25  28
ATOM     28  C   UNL A   1      34.238  34.271  29.326  1.00  0.00     0.039 A 
ATOM     29  C   UNL A   1      35.522  34.577  28.875  1.00  0.00     0.014 A 
ATOM     30  C   UNL A   1      34.055  33.495  30.473  1.00  0.00     0.014 A 
ATOM     31  C   UNL A   1      36.618  33.957  29.464  1.00  0.00     0.010 A 
ATOM     32  C   UNL A   1      35.165  32.940  31.114  1.00  0.00     0.010 A 
ATOM     33  C   UNL A   1      36.451  33.118  30.578  1.00  0.00    -0.014 A 
BRANCH  33  34
ATOM     34  C   UNL A   1      37.635  32.419  31.136  1.00  0.00     0.031 A 
ATOM     35  C   UNL A   1      38.100  32.695  32.542  1.00  0.00     0.074 A 
ATOM     36  C   UNL A   1      38.244  31.470  30.400  1.00  0.00     0.049 A 
ATOM     37  N   UNL A   1      39.074  32.132  33.214  1.00  0.00    -0.248 NA
ATOM     38  C   UNL A   1      37.384  33.740  33.290  1.00  0.00     0.031 C 
ATOM     39  C   UNL A   1      37.880  31.106  29.029  1.00  0.00     0.029 A 
ATOM     40  N   UNL A   1      39.269  30.616  30.711  1.00  0.00    -0.354 N 
ATOM     41  C   UNL A   1      39.098  32.765  34.451  1.00  0.00     0.074 A 
ATOM     42  C   UNL A   1      38.060  33.773  34.429  1.00  0.00     0.031 C 
ATOM     43  C   UNL A   1      38.629  30.064  28.639  1.00  0.00     0.029 A 
ATOM     44  C   UNL A   1      39.557  29.721  29.711  1.00  0.00     0.049 A 
ATOM     45  H   UNL A   1      39.751  30.641  31.570  1.00  0.00     0.167 HD
ATOM     46  C   UNL A   1      39.903  32.519  35.514  1.00  0.00     0.037 A 
ATOM     47  C   UNL A   1      40.472  28.736  29.660  1.00  0.00     0.037 A 
ATOM     48  C   UNL A   1      40.920  31.501  35.546  1.00  0.00     0.049 A 
ATOM     49  C   UNL A   1      41.363  28.501  30.844  1.00  0.00     0.074 A 
ATOM     50  C   UNL A   1      41.776  31.166  36.582  1.00  0.00     0.029 A 
ATOM     51  N   UNL A   1      41.218  30.650  34.493  1.00  0.00    -0.354 N 
ATOM     52  N   UNL A   1      41.369  29.104  32.007  1.00  0.00    -0.248 NA
ATOM     53  C   UNL A   1      42.383  27.453  30.700  1.00  0.00     0.031 C 
ATOM     54  C   UNL A   1      42.612  30.132  36.144  1.00  0.00     0.029 A 
ATOM     55  C   UNL A   1      42.252  29.799  34.849  1.00  0.00     0.049 A 
ATOM     56  H   UNL A   1      40.761  30.649  33.621  1.00  0.00     0.167 HD
ATOM     57  C   UNL A   1      42.383  28.502  32.740  1.00  0.00     0.074 A 
ATOM     58  C   UNL A   1      42.953  27.471  31.896  1.00  0.00     0.031 C 
ATOM     59  C   UNL A   1      42.809  28.782  33.995  1.00  0.00     0.037 A 
BRANCH  46  60
ATOM     60  C   UNL A   1      39.721  33.381  36.729  1.00  0.00     0.057 A 
ATOM     61  C   UNL A   1      38.800  33.027  37.724  1.00  0.00     0.134 A 
ATOM     62  C   UNL A   1      40.432  34.575  36.903  1.00  0.00     0.134 A 
ATOM     63  F   UNL A   1      38.082  31.899  37.615  1.00  0.00    -0.206 F 
ATOM     64  C   UNL A   1      38.594  33.828  38.847  1.00  0.00     0.040 A 
ATOM     65  C   UNL A   1      40.251  35.374  38.033  1.00  0.00     0.040 A 
ATOM     66  F   UNL A   1      41.339  34.964  35.995  1.00  0.00    -0.206 F 
ATOM     67  C   UNL A   1      39.325  35.004  39.008  1.00  0.00     0.006 A 
ENDBRANCH  46  60
BRANCH  47  68
ATOM     68  C   UNL A   1      40.586  27.893  28.445  1.00  0.00     0.057 A 
ATOM     69  C   UNL A   1      39.919  26.665  28.346  1.00  0.00     0.134 A 
ATOM     70  C   UNL A   1      41.361  28.300  27.355  1.00  0.00     0.134 A 
ATOM     71  F   UNL A   1      39.165  26.220  29.362  1.00  0.00    -0.206 F 
ATOM     72  C   UNL A   1      40.027  25.868  27.208  1.00  0.00     0.040 A 
ATOM     73  C   UNL A   1      41.459  27.523  26.200  1.00  0.00     0.040 A 
ATOM     74  F   UNL A   1      42.007  29.474  27.386  1.00  0.00    -0.206 F 
ATOM     75  C   UNL A   1      40.794  26.300  26.127  1.00  0.00     0.006 A 
ENDBRANCH  47  68
BRANCH  59  76
ATOM     76  C   UNL A   1      43.933  27.945  34.527  1.00  0.00     0.057 A 
ATOM     77  C   UNL A   1      43.677  26.720  35.153  1.00  0.00     0.134 A 
ATOM     78  C   UNL A   1      45.269  28.354  34.416  1.00  0.00     0.134 A 
ATOM     79  F   UNL A   1      42.419  26.276  35.293  1.00  0.00    -0.206 F 
ATOM     80  C   UNL A   1      44.713  25.925  35.647  1.00  0.00     0.040 A 
ATOM     81  C   UNL A   1      46.313  27.557  34.887  1.00  0.00     0.040 A 
ATOM     82  F   UNL A   1      45.578  29.510  33.811  1.00  0.00    -0.206 F 
ATOM     83  C   UNL A   1      46.036  26.339  35.507  1.00  0.00     0.006 A 
ENDBRANCH  59  76
ENDBRANCH  33  34
ENDBRANCH  25  28
ENDBRANCH  23  24
ENDBRANCH   1  23
TORSDOF 11
ENDMDL
