MODEL 1
REMARK VINA RESULT:     -12.3      0.000      0.000
REMARK SMILES CCSc1ccc(-c2cc(Cl)cc3c2O[C@H](C(F)(F)F)C(C(=O)NCCCCNC(=O)c2ccc(-c4c5nc(c(-c6c(F)cccc6F)c6ccc([nH]6)c(-c6c(F)cccc6F)c6nc(c(-c7c(F)cccc7F)c7ccc4[nH]7)C=C6)C=C5)cc2)=C3)cc1
REMARK SMILES IDX 26 1 25 2 24 3 22 4 23 5 21 7 8 8 9 9 14 10 10 11 13 12
REMARK SMILES IDX 15 13 11 14 12 15 86 16 16 17 7 18 4 19 5 20 88 21 6 22
REMARK SMILES IDX 87 23 3 24 2 25 1 26 17 27 18 28 19 29 20 30 27 31 28 32
REMARK SMILES IDX 29 33 30 34 31 36 32 37 33 38 85 39 34 40 84 41 35 42 36 43
REMARK SMILES IDX 37 44 78 45 38 46 83 47 77 48 79 49 39 50 82 51 76 52 75 53
REMARK SMILES IDX 40 55 66 56 49 57 65 58 50 59 53 60 64 61 80 62 51 63 52 64
REMARK SMILES IDX 63 66 81 67 54 68 41 69 42 70 47 71 43 72 44 73 46 74 48 75
REMARK SMILES IDX 45 76 67 77 68 78 73 79 69 80 70 81 72 82 74 83 71 84 55 85
REMARK SMILES IDX 56 86 61 87 57 88 58 89 60 90 62 91 59 92
REMARK H PARENT 24 6 29 35 79 54 53 65
REMARK Flexibility Score: inf
ROOT
ATOM      1  C   UNL A   1      36.191  20.626  25.203  1.00  0.00     0.023 C 
ENDROOT
BRANCH   1   2
ATOM      2  C   UNL A   1      35.930  21.901  26.019  1.00  0.00     0.116 C 
BRANCH   2   3
ATOM      3  N   UNL A   1      35.945  23.052  25.141  1.00  0.00    -0.352 N 
ATOM      4  C   UNL A   1      35.080  23.413  24.167  1.00  0.00     0.251 C 
ATOM      5  O   UNL A   1      35.514  24.082  23.235  1.00  0.00    -0.270 OA
ATOM      6  H   UNL A   1      36.702  23.666  25.274  1.00  0.00     0.163 HD
BRANCH   4   7
ATOM      7  C   UNL A   1      33.630  23.083  24.319  1.00  0.00     0.067 C 
ATOM      8  C   UNL A   1      32.064  26.834  23.910  1.00  0.00     0.026 A 
ATOM      9  C   UNL A   1      32.868  27.696  24.699  1.00  0.00     0.033 A 
ATOM     10  C   UNL A   1      32.242  25.453  24.121  1.00  0.00     0.135 A 
ATOM     11  C   UNL A   1      33.649  27.233  25.756  1.00  0.00     0.042 A 
ATOM     12  C   UNL A   1      32.938  25.014  25.275  1.00  0.00     0.019 A 
ATOM     13  O   UNL A   1      31.820  24.482  23.222  1.00  0.00    -0.475 OA
ATOM     14  Cl  UNL A   1      34.620  28.336  26.647  1.00  0.00    -0.084 Cl
ATOM     15  C   UNL A   1      33.624  25.897  26.103  1.00  0.00     0.032 A 
ATOM     16  C   UNL A   1      33.108  23.555  25.470  1.00  0.00     0.025 C 
ATOM     17  C   UNL A   1      32.779  23.340  23.077  1.00  0.00     0.314 C 
BRANCH   8  18
ATOM     18  C   UNL A   1      30.991  27.519  23.137  1.00  0.00    -0.015 A 
ATOM     19  C   UNL A   1      28.921  29.398  22.528  1.00  0.00     0.007 A 
ATOM     20  C   UNL A   1      30.240  29.639  22.141  1.00  0.00     0.015 A 
ATOM     21  C   UNL A   1      28.623  28.173  23.126  1.00  0.00     0.015 A 
ATOM     22  C   UNL A   1      31.255  28.708  22.424  1.00  0.00     0.010 A 
ATOM     23  C   UNL A   1      29.642  27.246  23.425  1.00  0.00     0.010 A 
BRANCH  19  24
ATOM     24  S   UNL A   1      27.653  30.591  22.124  1.00  0.00    -0.126 SA
BRANCH  24  25
ATOM     25  C   UNL A   1      28.605  32.079  21.622  1.00  0.00     0.071 C 
ATOM     26  C   UNL A   1      28.779  33.077  22.755  1.00  0.00     0.016 C 
ENDBRANCH  24  25
ENDBRANCH  19  24
ENDBRANCH   8  18
BRANCH  17  27
ATOM     27  C   UNL A   1      32.052  22.027  22.705  1.00  0.00     0.429 C 
ATOM     28  F   UNL A   1      32.351  21.596  21.460  1.00  0.00    -0.167 F 
ATOM     29  F   UNL A   1      32.360  21.033  23.572  1.00  0.00    -0.167 F 
ATOM     30  F   UNL A   1      30.699  22.157  22.751  1.00  0.00    -0.167 F 
ENDBRANCH  17  27
ENDBRANCH   4   7
ENDBRANCH   2   3
ENDBRANCH   1   2
BRANCH   1  31
ATOM     31  C   UNL A   1      37.628  20.455  24.687  1.00  0.00     0.023 C 
BRANCH  31  32
ATOM     32  C   UNL A   1      38.715  20.602  25.745  1.00  0.00     0.116 C 
BRANCH  32  33
ATOM     33  N   UNL A   1      39.608  19.453  25.773  1.00  0.00    -0.352 N 
ATOM     34  C   UNL A   1      40.968  19.411  25.954  1.00  0.00     0.251 C 
ATOM     35  H   UNL A   1      39.173  18.580  25.642  1.00  0.00     0.163 HD
ATOM     36  O   UNL A   1      41.585  18.368  25.751  1.00  0.00    -0.269 OA
BRANCH  34  37
ATOM     37  C   UNL A   1      41.699  20.630  26.362  1.00  0.00     0.039 A 
ATOM     38  C   UNL A   1      42.130  21.522  25.376  1.00  0.00     0.014 A 
ATOM     39  C   UNL A   1      41.942  20.902  27.711  1.00  0.00     0.014 A 
ATOM     40  C   UNL A   1      42.721  22.731  25.747  1.00  0.00     0.010 A 
ATOM     41  C   UNL A   1      42.472  22.136  28.082  1.00  0.00     0.010 A 
ATOM     42  C   UNL A   1      42.848  23.072  27.105  1.00  0.00    -0.014 A 
BRANCH  42  43
ATOM     43  C   UNL A   1      43.306  24.423  27.522  1.00  0.00     0.031 A 
ATOM     44  C   UNL A   1      42.314  25.475  27.930  1.00  0.00     0.074 A 
ATOM     45  C   UNL A   1      44.616  24.728  27.435  1.00  0.00     0.049 A 
ATOM     46  N   UNL A   1      42.522  26.736  28.218  1.00  0.00    -0.248 NA
ATOM     47  C   UNL A   1      40.903  25.067  28.003  1.00  0.00     0.031 C 
ATOM     48  C   UNL A   1      45.673  23.810  27.002  1.00  0.00     0.029 A 
ATOM     49  N   UNL A   1      45.283  25.904  27.681  1.00  0.00    -0.354 N 
ATOM     50  C   UNL A   1      41.270  27.275  28.485  1.00  0.00     0.074 A 
ATOM     51  C   UNL A   1      40.304  26.214  28.294  1.00  0.00     0.031 C 
ATOM     52  C   UNL A   1      46.850  24.454  27.015  1.00  0.00     0.029 A 
ATOM     53  C   UNL A   1      46.630  25.841  27.411  1.00  0.00     0.049 A 
ATOM     54  H   UNL A   1      44.839  26.716  28.018  1.00  0.00     0.167 HD
ATOM     55  C   UNL A   1      40.958  28.536  28.866  1.00  0.00     0.037 A 
ATOM     56  C   UNL A   1      47.578  26.797  27.450  1.00  0.00     0.037 A 
ATOM     57  C   UNL A   1      41.927  29.579  29.086  1.00  0.00     0.049 A 
ATOM     58  C   UNL A   1      47.199  28.192  27.862  1.00  0.00     0.074 A 
ATOM     59  C   UNL A   1      41.715  30.858  29.574  1.00  0.00     0.029 A 
ATOM     60  N   UNL A   1      43.282  29.471  28.818  1.00  0.00    -0.354 N 
ATOM     61  N   UNL A   1      46.026  28.659  28.212  1.00  0.00    -0.248 NA
ATOM     62  C   UNL A   1      48.274  29.196  27.881  1.00  0.00     0.031 C 
ATOM     63  C   UNL A   1      42.933  31.544  29.543  1.00  0.00     0.029 A 
ATOM     64  C   UNL A   1      43.912  30.676  29.087  1.00  0.00     0.049 A 
ATOM     65  H   UNL A   1      43.730  28.660  28.488  1.00  0.00     0.167 HD
ATOM     66  C   UNL A   1      46.223  30.002  28.507  1.00  0.00     0.074 A 
ATOM     67  C   UNL A   1      47.633  30.270  28.319  1.00  0.00     0.031 C 
ATOM     68  C   UNL A   1      45.316  30.931  28.894  1.00  0.00     0.037 A 
BRANCH  55  69
ATOM     69  C   UNL A   1      39.511  28.874  29.074  1.00  0.00     0.057 A 
ATOM     70  C   UNL A   1      38.894  28.752  30.325  1.00  0.00     0.134 A 
ATOM     71  C   UNL A   1      38.749  29.405  28.025  1.00  0.00     0.134 A 
ATOM     72  F   UNL A   1      39.566  28.244  31.368  1.00  0.00    -0.206 F 
ATOM     73  C   UNL A   1      37.565  29.133  30.522  1.00  0.00     0.040 A 
ATOM     74  C   UNL A   1      37.428  29.814  28.217  1.00  0.00     0.040 A 
ATOM     75  F   UNL A   1      39.283  29.557  26.803  1.00  0.00    -0.206 F 
ATOM     76  C   UNL A   1      36.832  29.675  29.468  1.00  0.00     0.006 A 
ENDBRANCH  55  69
BRANCH  56  77
ATOM     77  C   UNL A   1      48.977  26.479  27.063  1.00  0.00     0.057 A 
ATOM     78  C   UNL A   1      49.431  26.674  25.754  1.00  0.00     0.134 A 
ATOM     79  C   UNL A   1      49.886  25.947  27.987  1.00  0.00     0.134 A 
ATOM     80  F   UNL A   1      48.602  27.160  24.818  1.00  0.00    -0.206 F 
ATOM     81  C   UNL A   1      50.727  26.327  25.368  1.00  0.00     0.040 A 
ATOM     82  C   UNL A   1      51.194  25.623  27.623  1.00  0.00     0.040 A 
ATOM     83  F   UNL A   1      49.517  25.742  29.259  1.00  0.00    -0.206 F 
ATOM     84  C   UNL A   1      51.615  25.804  26.307  1.00  0.00     0.006 A 
ENDBRANCH  56  77
BRANCH  68  85
ATOM     85  C   UNL A   1      45.816  32.322  29.147  1.00  0.00     0.057 A 
ATOM     86  C   UNL A   1      46.322  32.705  30.396  1.00  0.00     0.134 A 
ATOM     87  C   UNL A   1      45.844  33.273  28.118  1.00  0.00     0.134 A 
ATOM     88  F   UNL A   1      46.310  31.847  31.426  1.00  0.00    -0.206 F 
ATOM     89  C   UNL A   1      46.828  33.987  30.615  1.00  0.00     0.040 A 
ATOM     90  C   UNL A   1      46.372  34.549  28.318  1.00  0.00     0.040 A 
ATOM     91  F   UNL A   1      45.381  32.968  26.896  1.00  0.00    -0.206 F 
ATOM     92  C   UNL A   1      46.861  34.910  29.571  1.00  0.00     0.006 A 
ENDBRANCH  68  85
ENDBRANCH  42  43
ENDBRANCH  34  37
ENDBRANCH  32  33
ENDBRANCH  31  32
ENDBRANCH   1  31
TORSDOF 15
ENDMDL
MODEL 2
REMARK VINA RESULT:     -12.2      0.876      5.970
REMARK SMILES CCSc1ccc(-c2cc(Cl)cc3c2O[C@H](C(F)(F)F)C(C(=O)NCCCCNC(=O)c2ccc(-c4c5nc(c(-c6c(F)cccc6F)c6ccc([nH]6)c(-c6c(F)cccc6F)c6nc(c(-c7c(F)cccc7F)c7ccc4[nH]7)C=C6)C=C5)cc2)=C3)cc1
REMARK SMILES IDX 26 1 25 2 24 3 22 4 23 5 21 7 8 8 9 9 14 10 10 11 13 12
REMARK SMILES IDX 15 13 11 14 12 15 86 16 16 17 7 18 4 19 5 20 88 21 6 22
REMARK SMILES IDX 87 23 3 24 2 25 1 26 17 27 18 28 19 29 20 30 27 31 28 32
REMARK SMILES IDX 29 33 30 34 31 36 32 37 33 38 85 39 34 40 84 41 35 42 36 43
REMARK SMILES IDX 37 44 78 45 38 46 83 47 77 48 79 49 39 50 82 51 76 52 75 53
REMARK SMILES IDX 40 55 66 56 49 57 65 58 50 59 53 60 64 61 80 62 51 63 52 64
REMARK SMILES IDX 63 66 81 67 54 68 41 69 42 70 47 71 43 72 44 73 46 74 48 75
REMARK SMILES IDX 45 76 67 77 68 78 73 79 69 80 70 81 72 82 74 83 71 84 55 85
REMARK SMILES IDX 56 86 61 87 57 88 58 89 60 90 62 91 59 92
REMARK H PARENT 24 6 29 35 79 54 53 65
REMARK Flexibility Score: inf
ROOT
ATOM      1  C   UNL A   1      36.332  20.462  25.002  1.00  0.00     0.023 C 
ENDROOT
BRANCH   1   2
ATOM      2  C   UNL A   1      35.995  21.700  25.847  1.00  0.00     0.116 C 
BRANCH   2   3
ATOM      3  N   UNL A   1      35.996  22.878  25.007  1.00  0.00    -0.352 N 
ATOM      4  C   UNL A   1      35.132  23.255  24.037  1.00  0.00     0.251 C 
ATOM      5  O   UNL A   1      35.562  23.960  23.130  1.00  0.00    -0.270 OA
ATOM      6  H   UNL A   1      36.740  23.501  25.165  1.00  0.00     0.163 HD
BRANCH   4   7
ATOM      7  C   UNL A   1      33.687  22.893  24.166  1.00  0.00     0.067 C 
ATOM      8  C   UNL A   1      32.059  26.631  23.899  1.00  0.00     0.026 A 
ATOM      9  C   UNL A   1      32.844  27.474  24.728  1.00  0.00     0.033 A 
ATOM     10  C   UNL A   1      32.259  25.245  24.055  1.00  0.00     0.135 A 
ATOM     11  C   UNL A   1      33.626  26.982  25.771  1.00  0.00     0.042 A 
ATOM     12  C   UNL A   1      32.956  24.772  25.195  1.00  0.00     0.019 A 
ATOM     13  O   UNL A   1      31.860  24.305  23.115  1.00  0.00    -0.475 OA
ATOM     14  Cl  UNL A   1      34.573  28.064  26.711  1.00  0.00    -0.084 Cl
ATOM     15  C   UNL A   1      33.622  25.632  26.062  1.00  0.00     0.032 A 
ATOM     16  C   UNL A   1      33.151  23.309  25.332  1.00  0.00     0.025 C 
ATOM     17  C   UNL A   1      32.840  23.187  22.930  1.00  0.00     0.314 C 
BRANCH   8  18
ATOM     18  C   UNL A   1      30.979  27.329  23.148  1.00  0.00    -0.015 A 
ATOM     19  C   UNL A   1      28.915  29.227  22.582  1.00  0.00     0.007 A 
ATOM     20  C   UNL A   1      30.229  29.459  22.173  1.00  0.00     0.015 A 
ATOM     21  C   UNL A   1      28.617  28.003  23.181  1.00  0.00     0.015 A 
ATOM     22  C   UNL A   1      31.241  28.518  22.436  1.00  0.00     0.010 A 
ATOM     23  C   UNL A   1      29.632  27.065  23.457  1.00  0.00     0.010 A 
BRANCH  19  24
ATOM     24  S   UNL A   1      27.650  30.433  22.205  1.00  0.00    -0.126 SA
BRANCH  24  25
ATOM     25  C   UNL A   1      27.991  31.798  23.385  1.00  0.00     0.071 C 
ATOM     26  C   UNL A   1      28.778  32.937  22.758  1.00  0.00     0.016 C 
ENDBRANCH  24  25
ENDBRANCH  19  24
ENDBRANCH   8  18
BRANCH  17  27
ATOM     27  C   UNL A   1      32.137  21.878  22.501  1.00  0.00     0.429 C 
ATOM     28  F   UNL A   1      30.796  21.928  22.652  1.00  0.00    -0.167 F 
ATOM     29  F   UNL A   1      32.396  21.585  21.204  1.00  0.00    -0.167 F 
ATOM     30  F   UNL A   1      32.564  20.804  23.219  1.00  0.00    -0.167 F 
ENDBRANCH  17  27
ENDBRANCH   4   7
ENDBRANCH   2   3
ENDBRANCH   1   2
BRANCH   1  31
ATOM     31  C   UNL A   1      37.813  20.306  24.622  1.00  0.00     0.023 C 
BRANCH  31  32
ATOM     32  C   UNL A   1      38.799  20.523  25.764  1.00  0.00     0.116 C 
BRANCH  32  33
ATOM     33  N   UNL A   1      39.775  19.449  25.853  1.00  0.00    -0.352 N 
ATOM     34  C   UNL A   1      41.126  19.516  26.091  1.00  0.00     0.251 C 
ATOM     35  H   UNL A   1      39.415  18.542  25.724  1.00  0.00     0.163 HD
ATOM     36  O   UNL A   1      41.829  18.520  25.936  1.00  0.00    -0.269 OA
BRANCH  34  37
ATOM     37  C   UNL A   1      41.742  20.795  26.501  1.00  0.00     0.039 A 
ATOM     38  C   UNL A   1      42.263  21.642  25.519  1.00  0.00     0.014 A 
ATOM     39  C   UNL A   1      41.791  21.169  27.848  1.00  0.00     0.014 A 
ATOM     40  C   UNL A   1      42.747  22.902  25.875  1.00  0.00     0.010 A 
ATOM     41  C   UNL A   1      42.213  22.451  28.194  1.00  0.00     0.010 A 
ATOM     42  C   UNL A   1      42.676  23.338  27.209  1.00  0.00    -0.014 A 
BRANCH  42  43
ATOM     43  C   UNL A   1      43.015  24.735  27.584  1.00  0.00     0.031 A 
ATOM     44  C   UNL A   1      44.445  25.149  27.786  1.00  0.00     0.074 A 
ATOM     45  C   UNL A   1      42.018  25.608  27.839  1.00  0.00     0.049 A 
ATOM     46  N   UNL A   1      44.921  26.290  28.219  1.00  0.00    -0.248 NA
ATOM     47  C   UNL A   1      45.476  24.143  27.486  1.00  0.00     0.031 C 
ATOM     48  C   UNL A   1      40.587  25.313  27.731  1.00  0.00     0.029 A 
ATOM     49  N   UNL A   1      42.054  26.913  28.268  1.00  0.00    -0.354 N 
ATOM     50  C   UNL A   1      46.300  26.134  28.262  1.00  0.00     0.074 A 
ATOM     51  C   UNL A   1      46.586  24.778  27.844  1.00  0.00     0.031 C 
ATOM     52  C   UNL A   1      39.885  26.402  28.081  1.00  0.00     0.029 A 
ATOM     53  C   UNL A   1      40.810  27.457  28.482  1.00  0.00     0.049 A 
ATOM     54  H   UNL A   1      42.891  27.411  28.410  1.00  0.00     0.167 HD
ATOM     55  C   UNL A   1      47.241  27.044  28.608  1.00  0.00     0.037 A 
ATOM     56  C   UNL A   1      40.450  28.659  28.973  1.00  0.00     0.037 A 
ATOM     57  C   UNL A   1      46.954  28.401  28.993  1.00  0.00     0.049 A 
ATOM     58  C   UNL A   1      41.518  29.642  29.364  1.00  0.00     0.074 A 
ATOM     59  C   UNL A   1      47.847  29.425  29.259  1.00  0.00     0.029 A 
ATOM     60  N   UNL A   1      45.683  28.919  29.181  1.00  0.00    -0.354 N 
ATOM     61  N   UNL A   1      42.821  29.514  29.300  1.00  0.00    -0.248 NA
ATOM     62  C   UNL A   1      41.069  30.936  29.898  1.00  0.00     0.031 C 
ATOM     63  C   UNL A   1      47.117  30.546  29.669  1.00  0.00     0.029 A 
ATOM     64  C   UNL A   1      45.769  30.235  29.606  1.00  0.00     0.049 A 
ATOM     65  H   UNL A   1      44.844  28.426  29.035  1.00  0.00     0.167 HD
ATOM     66  C   UNL A   1      43.344  30.713  29.769  1.00  0.00     0.074 A 
ATOM     67  C   UNL A   1      42.219  31.564  30.092  1.00  0.00     0.031 C 
ATOM     68  C   UNL A   1      44.641  31.072  29.925  1.00  0.00     0.037 A 
BRANCH  55  69
ATOM     69  C   UNL A   1      48.679  26.613  28.592  1.00  0.00     0.057 A 
ATOM     70  C   UNL A   1      49.488  26.775  27.461  1.00  0.00     0.134 A 
ATOM     71  C   UNL A   1      49.281  26.105  29.751  1.00  0.00     0.134 A 
ATOM     72  F   UNL A   1      48.972  27.250  26.318  1.00  0.00    -0.206 F 
ATOM     73  C   UNL A   1      50.842  26.434  27.478  1.00  0.00     0.040 A 
ATOM     74  C   UNL A   1      50.638  25.785  29.788  1.00  0.00     0.040 A 
ATOM     75  F   UNL A   1      48.563  25.933  30.872  1.00  0.00    -0.206 F 
ATOM     76  C   UNL A   1      51.423  25.946  28.648  1.00  0.00     0.006 A 
ENDBRANCH  55  69
BRANCH  56  77
ATOM     77  C   UNL A   1      39.014  28.995  29.150  1.00  0.00     0.057 A 
ATOM     78  C   UNL A   1      38.253  29.509  28.094  1.00  0.00     0.134 A 
ATOM     79  C   UNL A   1      38.375  28.837  30.387  1.00  0.00     0.134 A 
ATOM     80  F   UNL A   1      38.813  29.703  26.891  1.00  0.00    -0.206 F 
ATOM     81  C   UNL A   1      36.918  29.879  28.266  1.00  0.00     0.040 A 
ATOM     82  C   UNL A   1      37.033  29.176  30.566  1.00  0.00     0.040 A 
ATOM     83  F   UNL A   1      39.046  28.344  31.438  1.00  0.00    -0.206 F 
ATOM     84  C   UNL A   1      36.303  29.709  29.505  1.00  0.00     0.006 A 
ENDBRANCH  56  77
BRANCH  68  85
ATOM     85  C   UNL A   1      44.918  32.446  30.460  1.00  0.00     0.057 A 
ATOM     86  C   UNL A   1      45.106  32.678  31.829  1.00  0.00     0.134 A 
ATOM     87  C   UNL A   1      45.054  33.539  29.594  1.00  0.00     0.134 A 
ATOM     88  F   UNL A   1      44.975  31.677  32.712  1.00  0.00    -0.206 F 
ATOM     89  C   UNL A   1      45.407  33.950  32.318  1.00  0.00     0.040 A 
ATOM     90  C   UNL A   1      45.381  34.810  30.068  1.00  0.00     0.040 A 
ATOM     91  F   UNL A   1      44.893  33.383  28.270  1.00  0.00    -0.206 F 
ATOM     92  C   UNL A   1      45.554  35.018  31.435  1.00  0.00     0.006 A 
ENDBRANCH  68  85
ENDBRANCH  42  43
ENDBRANCH  34  37
ENDBRANCH  32  33
ENDBRANCH  31  32
ENDBRANCH   1  31
TORSDOF 15
ENDMDL
MODEL 3
REMARK VINA RESULT:     -12.1      5.154     10.282
REMARK SMILES CCSc1ccc(-c2cc(Cl)cc3c2O[C@H](C(F)(F)F)C(C(=O)NCCCCNC(=O)c2ccc(-c4c5nc(c(-c6c(F)cccc6F)c6ccc([nH]6)c(-c6c(F)cccc6F)c6nc(c(-c7c(F)cccc7F)c7ccc4[nH]7)C=C6)C=C5)cc2)=C3)cc1
REMARK SMILES IDX 26 1 25 2 24 3 22 4 23 5 21 7 8 8 9 9 14 10 10 11 13 12
REMARK SMILES IDX 15 13 11 14 12 15 86 16 16 17 7 18 4 19 5 20 88 21 6 22
REMARK SMILES IDX 87 23 3 24 2 25 1 26 17 27 18 28 19 29 20 30 27 31 28 32
REMARK SMILES IDX 29 33 30 34 31 36 32 37 33 38 85 39 34 40 84 41 35 42 36 43
REMARK SMILES IDX 37 44 78 45 38 46 83 47 77 48 79 49 39 50 82 51 76 52 75 53
REMARK SMILES IDX 40 55 66 56 49 57 65 58 50 59 53 60 64 61 80 62 51 63 52 64
REMARK SMILES IDX 63 66 81 67 54 68 41 69 42 70 47 71 43 72 44 73 46 74 48 75
REMARK SMILES IDX 45 76 67 77 68 78 73 79 69 80 70 81 72 82 74 83 71 84 55 85
REMARK SMILES IDX 56 86 61 87 57 88 58 89 60 90 62 91 59 92
REMARK H PARENT 24 6 29 35 79 54 53 65
REMARK Flexibility Score: inf
ROOT
ATOM      1  C   UNL A   1      31.019  31.105  25.991  1.00  0.00     0.023 C 
ENDROOT
BRANCH   1   2
ATOM      2  C   UNL A   1      30.232  30.791  24.710  1.00  0.00     0.116 C 
BRANCH   2   3
ATOM      3  N   UNL A   1      30.890  29.728  23.982  1.00  0.00    -0.352 N 
ATOM      4  C   UNL A   1      31.994  29.013  24.296  1.00  0.00     0.251 C 
ATOM      5  O   UNL A   1      32.665  28.561  23.374  1.00  0.00    -0.270 OA
ATOM      6  H   UNL A   1      30.470  29.488  23.125  1.00  0.00     0.163 HD
BRANCH   4   7
ATOM      7  C   UNL A   1      32.286  28.714  25.731  1.00  0.00     0.067 C 
ATOM      8  C   UNL A   1      33.680  24.894  25.326  1.00  0.00     0.026 A 
ATOM      9  C   UNL A   1      32.791  24.232  24.440  1.00  0.00     0.033 A 
ATOM     10  C   UNL A   1      33.241  26.133  25.834  1.00  0.00     0.135 A 
ATOM     11  C   UNL A   1      31.484  24.665  24.226  1.00  0.00     0.042 A 
ATOM     12  C   UNL A   1      31.875  26.488  25.706  1.00  0.00     0.019 A 
ATOM     13  O   UNL A   1      34.092  27.067  26.411  1.00  0.00    -0.475 OA
ATOM     14  Cl  UNL A   1      30.478  23.827  23.115  1.00  0.00    -0.084 Cl
ATOM     15  C   UNL A   1      30.992  25.752  24.923  1.00  0.00     0.032 A 
ATOM     16  C   UNL A   1      31.444  27.796  26.251  1.00  0.00     0.025 C 
ATOM     17  C   UNL A   1      33.761  28.483  26.052  1.00  0.00     0.314 C 
BRANCH   8  18
ATOM     18  C   UNL A   1      34.846  24.078  25.763  1.00  0.00    -0.015 A 
ATOM     19  C   UNL A   1      37.019  22.223  25.604  1.00  0.00     0.007 A 
ATOM     20  C   UNL A   1      37.231  23.590  25.414  1.00  0.00     0.015 A 
ATOM     21  C   UNL A   1      35.742  21.801  25.974  1.00  0.00     0.015 A 
ATOM     22  C   UNL A   1      36.167  24.504  25.509  1.00  0.00     0.010 A 
ATOM     23  C   UNL A   1      34.671  22.713  26.055  1.00  0.00     0.010 A 
BRANCH  19  24
ATOM     24  S   UNL A   1      38.401  21.095  25.504  1.00  0.00    -0.126 SA
BRANCH  24  25
ATOM     25  C   UNL A   1      39.648  21.840  26.628  1.00  0.00     0.071 C 
ATOM     26  C   UNL A   1      41.068  21.705  26.106  1.00  0.00     0.016 C 
ENDBRANCH  24  25
ENDBRANCH  19  24
ENDBRANCH   8  18
BRANCH  17  27
ATOM     27  C   UNL A   1      34.174  29.467  27.171  1.00  0.00     0.429 C 
ATOM     28  F   UNL A   1      34.673  30.627  26.691  1.00  0.00    -0.167 F 
ATOM     29  F   UNL A   1      33.125  29.768  27.972  1.00  0.00    -0.167 F 
ATOM     30  F   UNL A   1      35.131  28.947  27.987  1.00  0.00    -0.167 F 
ENDBRANCH  17  27
ENDBRANCH   4   7
ENDBRANCH   2   3
ENDBRANCH   1   2
BRANCH   1  31
ATOM     31  C   UNL A   1      31.097  32.593  26.370  1.00  0.00     0.023 C 
BRANCH  31  32
ATOM     32  C   UNL A   1      32.473  33.076  26.810  1.00  0.00     0.116 C 
BRANCH  32  33
ATOM     33  N   UNL A   1      32.393  34.266  27.643  1.00  0.00    -0.352 N 
ATOM     34  C   UNL A   1      33.148  34.617  28.735  1.00  0.00     0.251 C 
ATOM     35  H   UNL A   1      31.697  34.912  27.386  1.00  0.00     0.163 HD
ATOM     36  O   UNL A   1      32.811  35.569  29.436  1.00  0.00    -0.269 OA
BRANCH  34  37
ATOM     37  C   UNL A   1      34.349  33.832  29.089  1.00  0.00     0.039 A 
ATOM     38  C   UNL A   1      35.610  34.346  28.775  1.00  0.00     0.014 A 
ATOM     39  C   UNL A   1      34.235  32.603  29.744  1.00  0.00     0.014 A 
ATOM     40  C   UNL A   1      36.758  33.674  29.201  1.00  0.00     0.010 A 
ATOM     41  C   UNL A   1      35.378  31.968  30.225  1.00  0.00     0.010 A 
ATOM     42  C   UNL A   1      36.649  32.507  29.977  1.00  0.00    -0.014 A 
BRANCH  42  43
ATOM     43  C   UNL A   1      37.846  31.876  30.593  1.00  0.00     0.031 A 
ATOM     44  C   UNL A   1      38.596  30.792  29.873  1.00  0.00     0.074 A 
ATOM     45  C   UNL A   1      38.194  32.216  31.851  1.00  0.00     0.049 A 
ATOM     46  N   UNL A   1      39.592  30.055  30.299  1.00  0.00    -0.248 NA
ATOM     47  C   UNL A   1      38.159  30.477  28.504  1.00  0.00     0.031 C 
ATOM     48  C   UNL A   1      37.513  33.217  32.676  1.00  0.00     0.029 A 
ATOM     49  N   UNL A   1      39.192  31.740  32.667  1.00  0.00    -0.354 N 
ATOM     50  C   UNL A   1      39.885  29.179  29.263  1.00  0.00     0.074 A 
ATOM     51  C   UNL A   1      38.943  29.451  28.198  1.00  0.00     0.031 C 
ATOM     52  C   UNL A   1      38.112  33.281  33.875  1.00  0.00     0.029 A 
ATOM     53  C   UNL A   1      39.188  32.296  33.924  1.00  0.00     0.049 A 
ATOM     54  H   UNL A   1      39.847  31.064  32.379  1.00  0.00     0.167 HD
ATOM     55  C   UNL A   1      40.860  28.240  29.202  1.00  0.00     0.037 A 
ATOM     56  C   UNL A   1      39.945  32.028  35.005  1.00  0.00     0.037 A 
ATOM     57  C   UNL A   1      41.815  27.994  30.251  1.00  0.00     0.049 A 
ATOM     58  C   UNL A   1      41.009  30.969  34.912  1.00  0.00     0.074 A 
ATOM     59  C   UNL A   1      42.902  27.137  30.238  1.00  0.00     0.029 A 
ATOM     60  N   UNL A   1      41.788  28.590  31.502  1.00  0.00    -0.354 N 
ATOM     61  N   UNL A   1      41.341  30.221  33.889  1.00  0.00    -0.248 NA
ATOM     62  C   UNL A   1      41.802  30.713  36.124  1.00  0.00     0.031 C 
ATOM     63  C   UNL A   1      43.498  27.169  31.503  1.00  0.00     0.029 A 
ATOM     64  C   UNL A   1      42.814  28.085  32.285  1.00  0.00     0.049 A 
ATOM     65  H   UNL A   1      41.140  29.271  31.790  1.00  0.00     0.167 HD
ATOM     66  C   UNL A   1      42.389  29.420  34.327  1.00  0.00     0.074 A 
ATOM     67  C   UNL A   1      42.653  29.790  35.701  1.00  0.00     0.031 C 
ATOM     68  C   UNL A   1      43.065  28.460  33.652  1.00  0.00     0.037 A 
BRANCH  55  69
ATOM     69  C   UNL A   1      40.954  27.399  27.963  1.00  0.00     0.057 A 
ATOM     70  C   UNL A   1      41.825  27.720  26.914  1.00  0.00     0.134 A 
ATOM     71  C   UNL A   1      40.222  26.209  27.855  1.00  0.00     0.134 A 
ATOM     72  F   UNL A   1      42.549  28.848  26.952  1.00  0.00    -0.206 F 
ATOM     73  C   UNL A   1      41.954  26.894  25.796  1.00  0.00     0.040 A 
ATOM     74  C   UNL A   1      40.362  25.363  26.754  1.00  0.00     0.040 A 
ATOM     75  F   UNL A   1      39.375  25.840  28.829  1.00  0.00    -0.206 F 
ATOM     76  C   UNL A   1      41.228  25.706  25.719  1.00  0.00     0.006 A 
ENDBRANCH  55  69
BRANCH  56  77
ATOM     77  C   UNL A   1      39.711  32.751  36.282  1.00  0.00     0.057 A 
ATOM     78  C   UNL A   1      38.747  32.314  37.197  1.00  0.00     0.134 A 
ATOM     79  C   UNL A   1      40.426  33.911  36.604  1.00  0.00     0.134 A 
ATOM     80  F   UNL A   1      38.014  31.222  36.936  1.00  0.00    -0.206 F 
ATOM     81  C   UNL A   1      38.483  33.019  38.374  1.00  0.00     0.040 A 
ATOM     82  C   UNL A   1      40.193  34.609  37.790  1.00  0.00     0.040 A 
ATOM     83  F   UNL A   1      41.368  34.379  35.773  1.00  0.00    -0.206 F 
ATOM     84  C   UNL A   1      39.211  34.168  38.674  1.00  0.00     0.006 A 
ENDBRANCH  56  77
BRANCH  68  85
ATOM     85  C   UNL A   1      44.163  27.745  34.384  1.00  0.00     0.057 A 
ATOM     86  C   UNL A   1      43.935  26.536  35.053  1.00  0.00     0.134 A 
ATOM     87  C   UNL A   1      45.474  28.241  34.373  1.00  0.00     0.134 A 
ATOM     88  F   UNL A   1      42.699  26.016  35.114  1.00  0.00    -0.206 F 
ATOM     89  C   UNL A   1      44.967  25.852  35.695  1.00  0.00     0.040 A 
ATOM     90  C   UNL A   1      46.520  27.552  34.989  1.00  0.00     0.040 A 
ATOM     91  F   UNL A   1      45.762  29.391  33.743  1.00  0.00    -0.206 F 
ATOM     92  C   UNL A   1      46.266  26.356  35.655  1.00  0.00     0.006 A 
ENDBRANCH  68  85
ENDBRANCH  42  43
ENDBRANCH  34  37
ENDBRANCH  32  33
ENDBRANCH  31  32
ENDBRANCH   1  31
TORSDOF 15
ENDMDL
