MODEL 1
REMARK VINA RESULT:     -12.0      0.000      0.000
REMARK SMILES COc1cc2c(cc1OC)[C@@H](CC(=O)NCCCCNC(=O)c1ccc(-c3c4nc(c(-c5c(F)cccc5F)c5ccc([nH]5)c(-c5c(F)cccc5F)c5nc(c(-c6c(F)cccc6F)c6ccc3[nH]6)C=C5)C=C4)cc1)N(C(=O)Nc1ccc(Cl)cc1)CC2
REMARK SMILES IDX 17 1 16 2 15 3 13 4 14 5 12 7 11 8 3 9 4 10 8 11 5 12 7 13
REMARK SMILES IDX 6 14 89 15 88 16 77 17 2 18 1 19 9 20 10 21 78 22 79 23
REMARK SMILES IDX 80 24 81 26 82 27 87 28 83 29 86 30 84 31 85 32 18 33 19 34
REMARK SMILES IDX 20 35 21 36 22 38 23 39 24 40 76 41 25 42 75 43 26 44 27 45
REMARK SMILES IDX 28 46 69 47 29 48 74 49 68 50 70 51 30 52 73 53 67 54 66 55
REMARK SMILES IDX 31 57 57 58 40 59 56 60 41 61 44 62 55 63 71 64 42 65 43 66
REMARK SMILES IDX 54 68 72 69 45 70 32 71 33 72 38 73 34 74 35 75 37 76 39 77
REMARK SMILES IDX 36 78 58 79 59 80 64 81 60 82 61 83 63 84 65 85 62 86 46 87
REMARK SMILES IDX 47 88 52 89 48 90 49 91 51 92 53 93 50 94
REMARK H PARENT 15 6 80 25 20 37 70 56 44 67
REMARK Flexibility Score: inf
ROOT
ATOM      1  C   UNL A   1      39.245  22.857  26.493  1.00  0.00     0.023 C 
ENDROOT
BRANCH   1   2
ATOM      2  C   UNL A   1      38.125  23.852  26.174  1.00  0.00     0.116 C 
BRANCH   2   3
ATOM      3  N   UNL A   1      37.551  23.551  24.870  1.00  0.00    -0.356 N 
ATOM      4  C   UNL A   1      36.259  23.457  24.448  1.00  0.00     0.222 C 
ATOM      5  O   UNL A   1      36.051  22.948  23.345  1.00  0.00    -0.275 OA
ATOM      6  H   UNL A   1      38.218  23.385  24.165  1.00  0.00     0.163 HD
BRANCH   4   7
ATOM      7  C   UNL A   1      35.112  24.046  25.245  1.00  0.00     0.130 C 
BRANCH   7   8
ATOM      8  C   UNL A   1      33.725  23.664  24.662  1.00  0.00     0.127 C 
ATOM      9  C   UNL A   1      31.501  26.636  22.361  1.00  0.00     0.161 A 
ATOM     10  C   UNL A   1      30.885  25.492  22.832  1.00  0.00     0.054 A 
ATOM     11  C   UNL A   1      32.892  26.796  22.473  1.00  0.00     0.161 A 
ATOM     12  C   UNL A   1      31.642  24.540  23.511  1.00  0.00    -0.037 A 
ATOM     13  C   UNL A   1      33.660  25.799  23.114  1.00  0.00     0.056 A 
ATOM     14  C   UNL A   1      33.040  24.690  23.713  1.00  0.00    -0.018 A 
ATOM     15  C   UNL A   1      30.918  23.499  24.312  1.00  0.00     0.057 C 
ATOM     16  C   UNL A   1      31.409  23.792  25.718  1.00  0.00     0.127 C 
ATOM     17  N   UNL A   1      32.812  23.378  25.822  1.00  0.00    -0.317 N 
BRANCH   9  18
ATOM     18  O   UNL A   1      30.644  27.637  21.982  1.00  0.00    -0.493 OA
ATOM     19  C   UNL A   1      29.951  28.206  23.084  1.00  0.00     0.278 C 
ENDBRANCH   9  18
BRANCH  11  20
ATOM     20  O   UNL A   1      33.389  27.980  21.994  1.00  0.00    -0.493 OA
ATOM     21  C   UNL A   1      33.732  28.983  22.937  1.00  0.00     0.278 C 
ENDBRANCH  11  20
BRANCH  17  22
ATOM     22  C   UNL A   1      32.935  22.210  26.557  1.00  0.00     0.322 C 
ATOM     23  O   UNL A   1      33.582  22.144  27.591  1.00  0.00    -0.248 OA
ATOM     24  N   UNL A   1      32.343  21.168  25.866  1.00  0.00    -0.308 N 
ATOM     25  H   UNL A   1      31.389  21.258  25.640  1.00  0.00     0.171 HD
BRANCH  24  26
ATOM     26  C   UNL A   1      32.992  19.992  25.459  1.00  0.00     0.042 A 
ATOM     27  C   UNL A   1      32.203  18.843  25.344  1.00  0.00     0.028 A 
ATOM     28  C   UNL A   1      34.307  19.982  24.994  1.00  0.00     0.028 A 
ATOM     29  C   UNL A   1      32.703  17.710  24.704  1.00  0.00     0.022 A 
ATOM     30  C   UNL A   1      34.805  18.850  24.346  1.00  0.00     0.022 A 
ATOM     31  C   UNL A   1      33.996  17.726  24.187  1.00  0.00     0.041 A 
ATOM     32  Cl  UNL A   1      34.584  16.366  23.315  1.00  0.00    -0.084 Cl
ENDBRANCH  24  26
ENDBRANCH  17  22
ENDBRANCH   7   8
ENDBRANCH   4   7
ENDBRANCH   2   3
ENDBRANCH   1   2
BRANCH   1  33
ATOM     33  C   UNL A   1      39.164  21.504  25.817  1.00  0.00     0.023 C 
BRANCH  33  34
ATOM     34  C   UNL A   1      39.811  20.363  26.583  1.00  0.00     0.116 C 
BRANCH  34  35
ATOM     35  N   UNL A   1      40.836  19.606  25.872  1.00  0.00    -0.352 N 
ATOM     36  C   UNL A   1      42.194  19.867  25.788  1.00  0.00     0.251 C 
ATOM     37  H   UNL A   1      40.522  18.807  25.389  1.00  0.00     0.163 HD
ATOM     38  O   UNL A   1      42.955  19.111  25.214  1.00  0.00    -0.269 OA
BRANCH  36  39
ATOM     39  C   UNL A   1      42.701  21.133  26.361  1.00  0.00     0.039 A 
ATOM     40  C   UNL A   1      43.002  22.193  25.503  1.00  0.00     0.014 A 
ATOM     41  C   UNL A   1      42.736  21.309  27.742  1.00  0.00     0.014 A 
ATOM     42  C   UNL A   1      43.232  23.463  26.038  1.00  0.00     0.010 A 
ATOM     43  C   UNL A   1      42.814  22.592  28.257  1.00  0.00     0.010 A 
ATOM     44  C   UNL A   1      43.080  23.685  27.416  1.00  0.00    -0.014 A 
BRANCH  44  45
ATOM     45  C   UNL A   1      43.233  25.032  28.023  1.00  0.00     0.031 A 
ATOM     46  C   UNL A   1      44.595  25.477  28.489  1.00  0.00     0.074 A 
ATOM     47  C   UNL A   1      42.154  25.807  28.245  1.00  0.00     0.049 A 
ATOM     48  N   UNL A   1      44.933  26.544  29.166  1.00  0.00    -0.248 NA
ATOM     49  C   UNL A   1      45.720  24.568  28.212  1.00  0.00     0.031 C 
ATOM     50  C   UNL A   1      40.767  25.458  27.927  1.00  0.00     0.029 A 
ATOM     51  N   UNL A   1      42.056  27.057  28.805  1.00  0.00    -0.354 N 
ATOM     52  C   UNL A   1      46.289  26.401  29.436  1.00  0.00     0.074 A 
ATOM     53  C   UNL A   1      46.692  25.112  28.922  1.00  0.00     0.031 C 
ATOM     54  C   UNL A   1      39.966  26.487  28.253  1.00  0.00     0.029 A 
ATOM     55  C   UNL A   1      40.776  27.554  28.831  1.00  0.00     0.049 A 
ATOM     56  H   UNL A   1      42.833  27.552  29.155  1.00  0.00     0.167 HD
ATOM     57  C   UNL A   1      47.136  27.281  30.018  1.00  0.00     0.037 A 
ATOM     58  C   UNL A   1      40.314  28.743  29.261  1.00  0.00     0.037 A 
ATOM     59  C   UNL A   1      46.751  28.597  30.444  1.00  0.00     0.049 A 
ATOM     60  C   UNL A   1      41.291  29.746  29.809  1.00  0.00     0.074 A 
ATOM     61  C   UNL A   1      47.541  29.603  30.969  1.00  0.00     0.029 A 
ATOM     62  N   UNL A   1      45.460  29.097  30.365  1.00  0.00    -0.354 N 
ATOM     63  N   UNL A   1      42.583  29.625  30.000  1.00  0.00    -0.248 NA
ATOM     64  C   UNL A   1      40.750  31.060  30.185  1.00  0.00     0.031 C 
ATOM     65  C   UNL A   1      46.722  30.710  31.221  1.00  0.00     0.029 A 
ATOM     66  C   UNL A   1      45.432  30.402  30.823  1.00  0.00     0.049 A 
ATOM     67  H   UNL A   1      44.679  28.598  30.033  1.00  0.00     0.167 HD
ATOM     68  C   UNL A   1      43.014  30.853  30.484  1.00  0.00     0.074 A 
ATOM     69  C   UNL A   1      41.847  31.710  30.544  1.00  0.00     0.031 C 
ATOM     70  C   UNL A   1      44.261  31.240  30.849  1.00  0.00     0.037 A 
BRANCH  57  71
ATOM     71  C   UNL A   1      48.565  26.850  30.184  1.00  0.00     0.057 A 
ATOM     72  C   UNL A   1      49.531  27.098  29.199  1.00  0.00     0.134 A 
ATOM     73  C   UNL A   1      48.978  26.170  31.336  1.00  0.00     0.134 A 
ATOM     74  F   UNL A   1      49.197  27.726  28.061  1.00  0.00    -0.206 F 
ATOM     75  C   UNL A   1      50.846  26.649  29.334  1.00  0.00     0.040 A 
ATOM     76  C   UNL A   1      50.299  25.745  31.498  1.00  0.00     0.040 A 
ATOM     77  F   UNL A   1      48.108  25.902  32.320  1.00  0.00    -0.206 F 
ATOM     78  C   UNL A   1      51.234  25.974  30.490  1.00  0.00     0.006 A 
ENDBRANCH  57  71
BRANCH  58  79
ATOM     79  C   UNL A   1      38.874  29.083  29.129  1.00  0.00     0.057 A 
ATOM     80  C   UNL A   1      38.349  29.509  27.902  1.00  0.00     0.134 A 
ATOM     81  C   UNL A   1      37.995  29.009  30.215  1.00  0.00     0.134 A 
ATOM     82  F   UNL A   1      39.146  29.616  26.828  1.00  0.00    -0.206 F 
ATOM     83  C   UNL A   1      37.009  29.874  27.766  1.00  0.00     0.040 A 
ATOM     84  C   UNL A   1      36.647  29.350  30.087  1.00  0.00     0.040 A 
ATOM     85  F   UNL A   1      38.433  28.598  31.414  1.00  0.00    -0.206 F 
ATOM     86  C   UNL A   1      36.152  29.792  28.861  1.00  0.00     0.006 A 
ENDBRANCH  58  79
BRANCH  70  87
ATOM     87  C   UNL A   1      44.432  32.661  31.293  1.00  0.00     0.057 A 
ATOM     88  C   UNL A   1      44.341  33.031  32.640  1.00  0.00     0.134 A 
ATOM     89  C   UNL A   1      44.720  33.664  30.359  1.00  0.00     0.134 A 
ATOM     90  F   UNL A   1      44.056  32.117  33.579  1.00  0.00    -0.206 F 
ATOM     91  C   UNL A   1      44.505  34.357  33.040  1.00  0.00     0.040 A 
ATOM     92  C   UNL A   1      44.911  34.989  30.751  1.00  0.00     0.040 A 
ATOM     93  F   UNL A   1      44.829  33.371  29.055  1.00  0.00    -0.206 F 
ATOM     94  C   UNL A   1      44.796  35.339  32.095  1.00  0.00     0.006 A 
ENDBRANCH  70  87
ENDBRANCH  44  45
ENDBRANCH  36  39
ENDBRANCH  34  35
ENDBRANCH  33  34
ENDBRANCH   1  33
TORSDOF 16
ENDMDL
MODEL 2
REMARK VINA RESULT:     -11.9      4.525      9.670
REMARK SMILES COc1cc2c(cc1OC)[C@@H](CC(=O)NCCCCNC(=O)c1ccc(-c3c4nc(c(-c5c(F)cccc5F)c5ccc([nH]5)c(-c5c(F)cccc5F)c5nc(c(-c6c(F)cccc6F)c6ccc3[nH]6)C=C5)C=C4)cc1)N(C(=O)Nc1ccc(Cl)cc1)CC2
REMARK SMILES IDX 17 1 16 2 15 3 13 4 14 5 12 7 11 8 3 9 4 10 8 11 5 12 7 13
REMARK SMILES IDX 6 14 89 15 88 16 77 17 2 18 1 19 9 20 10 21 78 22 79 23
REMARK SMILES IDX 80 24 81 26 82 27 87 28 83 29 86 30 84 31 85 32 18 33 19 34
REMARK SMILES IDX 20 35 21 36 22 38 23 39 24 40 76 41 25 42 75 43 26 44 27 45
REMARK SMILES IDX 28 46 69 47 29 48 74 49 68 50 70 51 30 52 73 53 67 54 66 55
REMARK SMILES IDX 31 57 57 58 40 59 56 60 41 61 44 62 55 63 71 64 42 65 43 66
REMARK SMILES IDX 54 68 72 69 45 70 32 71 33 72 38 73 34 74 35 75 37 76 39 77
REMARK SMILES IDX 36 78 58 79 59 80 64 81 60 82 61 83 63 84 65 85 62 86 46 87
REMARK SMILES IDX 47 88 52 89 48 90 49 91 51 92 53 93 50 94
REMARK H PARENT 15 6 80 25 20 37 70 56 44 67
REMARK Flexibility Score: inf
ROOT
ATOM      1  C   UNL A   1      32.096  30.450  26.826  1.00  0.00     0.023 C 
ENDROOT
BRANCH   1   2
ATOM      2  C   UNL A   1      32.485  29.882  25.458  1.00  0.00     0.116 C 
BRANCH   2   3
ATOM      3  N   UNL A   1      33.343  28.718  25.631  1.00  0.00    -0.356 N 
ATOM      4  C   UNL A   1      33.057  27.395  25.780  1.00  0.00     0.222 C 
ATOM      5  O   UNL A   1      33.965  26.649  26.153  1.00  0.00    -0.275 OA
ATOM      6  H   UNL A   1      34.305  28.925  25.642  1.00  0.00     0.163 HD
BRANCH   4   7
ATOM      7  C   UNL A   1      31.704  26.821  25.406  1.00  0.00     0.130 C 
BRANCH   7   8
ATOM      8  C   UNL A   1      31.775  25.887  24.169  1.00  0.00     0.127 C 
ATOM      9  C   UNL A   1      33.143  21.773  24.697  1.00  0.00     0.161 A 
ATOM     10  C   UNL A   1      33.064  22.342  23.439  1.00  0.00     0.054 A 
ATOM     11  C   UNL A   1      32.635  22.446  25.820  1.00  0.00     0.161 A 
ATOM     12  C   UNL A   1      32.567  23.636  23.308  1.00  0.00    -0.037 A 
ATOM     13  C   UNL A   1      32.082  23.736  25.667  1.00  0.00     0.056 A 
ATOM     14  C   UNL A   1      32.107  24.387  24.423  1.00  0.00    -0.018 A 
ATOM     15  C   UNL A   1      32.813  24.362  22.018  1.00  0.00     0.057 C 
ATOM     16  C   UNL A   1      33.651  25.540  22.479  1.00  0.00     0.127 C 
ATOM     17  N   UNL A   1      32.792  26.465  23.225  1.00  0.00    -0.317 N 
BRANCH   9  18
ATOM     18  O   UNL A   1      33.911  20.638  24.767  1.00  0.00    -0.493 OA
ATOM     19  C   UNL A   1      33.222  19.486  24.302  1.00  0.00     0.278 C 
ENDBRANCH   9  18
BRANCH  11  20
ATOM     20  O   UNL A   1      32.792  21.797  27.016  1.00  0.00    -0.493 OA
ATOM     21  C   UNL A   1      33.842  22.224  27.868  1.00  0.00     0.278 C 
ENDBRANCH  11  20
BRANCH  17  22
ATOM     22  C   UNL A   1      32.510  27.597  22.477  1.00  0.00     0.322 C 
ATOM     23  O   UNL A   1      33.265  28.556  22.417  1.00  0.00    -0.248 OA
ATOM     24  N   UNL A   1      31.229  27.499  21.962  1.00  0.00    -0.308 N 
ATOM     25  H   UNL A   1      31.030  26.726  21.387  1.00  0.00     0.171 HD
BRANCH  24  26
ATOM     26  C   UNL A   1      30.190  28.414  22.194  1.00  0.00     0.042 A 
ATOM     27  C   UNL A   1      29.100  27.953  22.940  1.00  0.00     0.028 A 
ATOM     28  C   UNL A   1      30.299  29.770  21.885  1.00  0.00     0.028 A 
ATOM     29  C   UNL A   1      28.158  28.855  23.435  1.00  0.00     0.022 A 
ATOM     30  C   UNL A   1      29.361  30.673  22.387  1.00  0.00     0.022 A 
ATOM     31  C   UNL A   1      28.305  30.215  23.176  1.00  0.00     0.041 A 
ATOM     32  Cl  UNL A   1      27.200  31.340  23.861  1.00  0.00    -0.084 Cl
ENDBRANCH  24  26
ENDBRANCH  17  22
ENDBRANCH   7   8
ENDBRANCH   4   7
ENDBRANCH   2   3
ENDBRANCH   1   2
BRANCH   1  33
ATOM     33  C   UNL A   1      31.687  31.909  26.864  1.00  0.00     0.023 C 
BRANCH  33  34
ATOM     34  C   UNL A   1      32.752  32.862  27.376  1.00  0.00     0.116 C 
BRANCH  34  35
ATOM     35  N   UNL A   1      32.300  34.200  27.744  1.00  0.00    -0.352 N 
ATOM     36  C   UNL A   1      32.918  35.116  28.579  1.00  0.00     0.251 C 
ATOM     37  H   UNL A   1      31.445  34.488  27.348  1.00  0.00     0.163 HD
ATOM     38  O   UNL A   1      32.464  36.233  28.749  1.00  0.00    -0.269 OA
BRANCH  36  39
ATOM     39  C   UNL A   1      34.122  34.685  29.323  1.00  0.00     0.039 A 
ATOM     40  C   UNL A   1      33.969  34.117  30.590  1.00  0.00     0.014 A 
ATOM     41  C   UNL A   1      35.369  34.714  28.706  1.00  0.00     0.014 A 
ATOM     42  C   UNL A   1      35.057  33.477  31.189  1.00  0.00     0.010 A 
ATOM     43  C   UNL A   1      36.400  33.952  29.232  1.00  0.00     0.010 A 
ATOM     44  C   UNL A   1      36.265  33.337  30.487  1.00  0.00    -0.014 A 
BRANCH  44  45
ATOM     45  C   UNL A   1      37.424  32.596  31.046  1.00  0.00     0.031 A 
ATOM     46  C   UNL A   1      37.996  33.019  32.375  1.00  0.00     0.074 A 
ATOM     47  C   UNL A   1      38.019  31.620  30.333  1.00  0.00     0.049 A 
ATOM     48  N   UNL A   1      39.080  32.609  32.981  1.00  0.00    -0.248 NA
ATOM     49  C   UNL A   1      37.288  34.097  33.087  1.00  0.00     0.031 C 
ATOM     50  C   UNL A   1      37.623  31.174  28.995  1.00  0.00     0.029 A 
ATOM     51  N   UNL A   1      39.100  30.830  30.635  1.00  0.00    -0.354 N 
ATOM     52  C   UNL A   1      39.204  33.413  34.108  1.00  0.00     0.074 A 
ATOM     53  C   UNL A   1      38.136  34.383  34.060  1.00  0.00     0.031 C 
ATOM     54  C   UNL A   1      38.419  30.160  28.614  1.00  0.00     0.029 A 
ATOM     55  C   UNL A   1      39.399  29.905  29.664  1.00  0.00     0.049 A 
ATOM     56  H   UNL A   1      39.613  30.916  31.472  1.00  0.00     0.167 HD
ATOM     57  C   UNL A   1      40.099  33.324  35.119  1.00  0.00     0.037 A 
ATOM     58  C   UNL A   1      40.350  28.952  29.635  1.00  0.00     0.037 A 
ATOM     59  C   UNL A   1      41.103  32.301  35.210  1.00  0.00     0.049 A 
ATOM     60  C   UNL A   1      41.267  28.805  30.817  1.00  0.00     0.074 A 
ATOM     61  C   UNL A   1      42.008  32.063  36.227  1.00  0.00     0.029 A 
ATOM     62  N   UNL A   1      41.311  31.324  34.247  1.00  0.00    -0.354 N 
ATOM     63  N   UNL A   1      41.335  29.531  31.908  1.00  0.00    -0.248 NA
ATOM     64  C   UNL A   1      42.231  27.697  30.773  1.00  0.00     0.031 C 
ATOM     65  C   UNL A   1      42.776  30.947  35.873  1.00  0.00     0.029 A 
ATOM     66  C   UNL A   1      42.325  30.474  34.652  1.00  0.00     0.049 A 
ATOM     67  H   UNL A   1      40.812  31.247  33.402  1.00  0.00     0.167 HD
ATOM     68  C   UNL A   1      42.319  28.947  32.694  1.00  0.00     0.074 A 
ATOM     69  C   UNL A   1      42.812  27.799  31.960  1.00  0.00     0.031 C 
ATOM     70  C   UNL A   1      42.779  29.325  33.912  1.00  0.00     0.037 A 
BRANCH  57  71
ATOM     71  C   UNL A   1      39.996  34.342  36.218  1.00  0.00     0.057 A 
ATOM     72  C   UNL A   1      40.687  35.561  36.164  1.00  0.00     0.134 A 
ATOM     73  C   UNL A   1      39.207  34.098  37.348  1.00  0.00     0.134 A 
ATOM     74  F   UNL A   1      41.478  35.848  35.118  1.00  0.00    -0.206 F 
ATOM     75  C   UNL A   1      40.630  36.481  37.211  1.00  0.00     0.040 A 
ATOM     76  C   UNL A   1      39.116  35.026  38.389  1.00  0.00     0.040 A 
ATOM     77  F   UNL A   1      38.516  32.955  37.465  1.00  0.00    -0.206 F 
ATOM     78  C   UNL A   1      39.838  36.216  38.327  1.00  0.00     0.006 A 
ENDBRANCH  57  71
BRANCH  58  79
ATOM     79  C   UNL A   1      40.441  28.016  28.485  1.00  0.00     0.057 A 
ATOM     80  C   UNL A   1      39.782  26.780  28.514  1.00  0.00     0.134 A 
ATOM     81  C   UNL A   1      41.193  28.319  27.345  1.00  0.00     0.134 A 
ATOM     82  F   UNL A   1      39.059  26.427  29.586  1.00  0.00    -0.206 F 
ATOM     83  C   UNL A   1      39.889  25.868  27.463  1.00  0.00     0.040 A 
ATOM     84  C   UNL A   1      41.291  27.425  26.277  1.00  0.00     0.040 A 
ATOM     85  F   UNL A   1      41.839  29.490  27.251  1.00  0.00    -0.206 F 
ATOM     86  C   UNL A   1      40.644  26.191  26.338  1.00  0.00     0.006 A 
ENDBRANCH  58  79
BRANCH  70  87
ATOM     87  C   UNL A   1      43.828  28.461  34.544  1.00  0.00     0.057 A 
ATOM     88  C   UNL A   1      43.497  27.363  35.347  1.00  0.00     0.134 A 
ATOM     89  C   UNL A   1      45.186  28.717  34.317  1.00  0.00     0.134 A 
ATOM     90  F   UNL A   1      42.214  27.074  35.609  1.00  0.00    -0.206 F 
ATOM     91  C   UNL A   1      44.484  26.564  35.926  1.00  0.00     0.040 A 
ATOM     92  C   UNL A   1      46.180  27.910  34.870  1.00  0.00     0.040 A 
ATOM     93  F   UNL A   1      45.566  29.748  33.548  1.00  0.00    -0.206 F 
ATOM     94  C   UNL A   1      45.829  26.834  35.683  1.00  0.00     0.006 A 
ENDBRANCH  70  87
ENDBRANCH  44  45
ENDBRANCH  36  39
ENDBRANCH  34  35
ENDBRANCH  33  34
ENDBRANCH   1  33
TORSDOF 16
ENDMDL
MODEL 3
REMARK VINA RESULT:     -11.9      1.743      2.562
REMARK SMILES COc1cc2c(cc1OC)[C@@H](CC(=O)NCCCCNC(=O)c1ccc(-c3c4nc(c(-c5c(F)cccc5F)c5ccc([nH]5)c(-c5c(F)cccc5F)c5nc(c(-c6c(F)cccc6F)c6ccc3[nH]6)C=C5)C=C4)cc1)N(C(=O)Nc1ccc(Cl)cc1)CC2
REMARK SMILES IDX 17 1 16 2 15 3 13 4 14 5 12 7 11 8 3 9 4 10 8 11 5 12 7 13
REMARK SMILES IDX 6 14 89 15 88 16 77 17 2 18 1 19 9 20 10 21 78 22 79 23
REMARK SMILES IDX 80 24 81 26 82 27 87 28 83 29 86 30 84 31 85 32 18 33 19 34
REMARK SMILES IDX 20 35 21 36 22 38 23 39 24 40 76 41 25 42 75 43 26 44 27 45
REMARK SMILES IDX 28 46 69 47 29 48 74 49 68 50 70 51 30 52 73 53 67 54 66 55
REMARK SMILES IDX 31 57 57 58 40 59 56 60 41 61 44 62 55 63 71 64 42 65 43 66
REMARK SMILES IDX 54 68 72 69 45 70 32 71 33 72 38 73 34 74 35 75 37 76 39 77
REMARK SMILES IDX 36 78 58 79 59 80 64 81 60 82 61 83 63 84 65 85 62 86 46 87
REMARK SMILES IDX 47 88 52 89 48 90 49 91 51 92 53 93 50 94
REMARK H PARENT 15 6 80 25 20 37 70 56 44 67
REMARK Flexibility Score: inf
ROOT
ATOM      1  C   UNL A   1      39.350  22.750  26.423  1.00  0.00     0.023 C 
ENDROOT
BRANCH   1   2
ATOM      2  C   UNL A   1      38.137  23.644  26.144  1.00  0.00     0.116 C 
BRANCH   2   3
ATOM      3  N   UNL A   1      37.649  23.410  24.792  1.00  0.00    -0.356 N 
ATOM      4  C   UNL A   1      36.393  23.421  24.267  1.00  0.00     0.222 C 
ATOM      5  O   UNL A   1      36.238  22.949  23.139  1.00  0.00    -0.275 OA
ATOM      6  H   UNL A   1      38.357  23.208  24.139  1.00  0.00     0.163 HD
BRANCH   4   7
ATOM      7  C   UNL A   1      35.231  24.079  24.985  1.00  0.00     0.130 C 
BRANCH   7   8
ATOM      8  C   UNL A   1      33.857  23.684  24.380  1.00  0.00     0.127 C 
ATOM      9  C   UNL A   1      31.505  26.721  22.303  1.00  0.00     0.161 A 
ATOM     10  C   UNL A   1      30.937  25.522  22.692  1.00  0.00     0.054 A 
ATOM     11  C   UNL A   1      32.889  26.929  22.422  1.00  0.00     0.161 A 
ATOM     12  C   UNL A   1      31.735  24.556  23.299  1.00  0.00    -0.037 A 
ATOM     13  C   UNL A   1      33.699  25.920  22.988  1.00  0.00     0.056 A 
ATOM     14  C   UNL A   1      33.127  24.747  23.508  1.00  0.00    -0.018 A 
ATOM     15  C   UNL A   1      31.057  23.432  24.026  1.00  0.00     0.057 C 
ATOM     16  C   UNL A   1      31.543  23.643  25.448  1.00  0.00     0.127 C 
ATOM     17  N   UNL A   1      32.962  23.280  25.519  1.00  0.00    -0.317 N 
BRANCH   9  18
ATOM     18  O   UNL A   1      30.606  27.711  21.998  1.00  0.00    -0.493 OA
ATOM     19  C   UNL A   1      29.757  28.029  23.091  1.00  0.00     0.278 C 
ENDBRANCH   9  18
BRANCH  11  20
ATOM     20  O   UNL A   1      33.335  28.163  22.028  1.00  0.00    -0.493 OA
ATOM     21  C   UNL A   1      34.038  28.946  22.978  1.00  0.00     0.278 C 
ENDBRANCH  11  20
BRANCH  17  22
ATOM     22  C   UNL A   1      33.136  22.069  26.168  1.00  0.00     0.322 C 
ATOM     23  O   UNL A   1      34.082  21.843  26.908  1.00  0.00    -0.248 OA
ATOM     24  N   UNL A   1      32.175  21.173  25.733  1.00  0.00    -0.308 N 
ATOM     25  H   UNL A   1      31.232  21.425  25.857  1.00  0.00     0.171 HD
BRANCH  24  26
ATOM     26  C   UNL A   1      32.436  19.933  25.129  1.00  0.00     0.042 A 
ATOM     27  C   UNL A   1      32.408  19.895  23.731  1.00  0.00     0.028 A 
ATOM     28  C   UNL A   1      32.899  18.830  25.846  1.00  0.00     0.028 A 
ATOM     29  C   UNL A   1      32.906  18.784  23.050  1.00  0.00     0.022 A 
ATOM     30  C   UNL A   1      33.404  17.722  25.164  1.00  0.00     0.022 A 
ATOM     31  C   UNL A   1      33.424  17.711  23.770  1.00  0.00     0.041 A 
ATOM     32  Cl  UNL A   1      34.124  16.381  22.935  1.00  0.00    -0.084 Cl
ENDBRANCH  24  26
ENDBRANCH  17  22
ENDBRANCH   7   8
ENDBRANCH   4   7
ENDBRANCH   2   3
ENDBRANCH   1   2
BRANCH   1  33
ATOM     33  C   UNL A   1      39.364  21.394  25.747  1.00  0.00     0.023 C 
BRANCH  33  34
ATOM     34  C   UNL A   1      39.638  20.220  26.669  1.00  0.00     0.116 C 
BRANCH  34  35
ATOM     35  N   UNL A   1      40.536  19.190  26.156  1.00  0.00    -0.352 N 
ATOM     36  C   UNL A   1      41.915  19.236  26.034  1.00  0.00     0.251 C 
ATOM     37  H   UNL A   1      40.106  18.356  25.859  1.00  0.00     0.163 HD
ATOM     38  O   UNL A   1      42.554  18.274  25.650  1.00  0.00    -0.269 OA
BRANCH  36  39
ATOM     39  C   UNL A   1      42.602  20.515  26.319  1.00  0.00     0.039 A 
ATOM     40  C   UNL A   1      43.034  21.305  25.251  1.00  0.00     0.014 A 
ATOM     41  C   UNL A   1      42.682  20.987  27.626  1.00  0.00     0.014 A 
ATOM     42  C   UNL A   1      43.447  22.617  25.494  1.00  0.00     0.010 A 
ATOM     43  C   UNL A   1      42.946  22.329  27.844  1.00  0.00     0.010 A 
ATOM     44  C   UNL A   1      43.348  23.159  26.785  1.00  0.00    -0.014 A 
BRANCH  44  45
ATOM     45  C   UNL A   1      43.696  24.573  27.080  1.00  0.00     0.031 A 
ATOM     46  C   UNL A   1      45.119  25.032  26.897  1.00  0.00     0.074 A 
ATOM     47  C   UNL A   1      42.775  25.409  27.597  1.00  0.00     0.049 A 
ATOM     48  N   UNL A   1      45.672  26.172  27.223  1.00  0.00    -0.248 NA
ATOM     49  C   UNL A   1      46.064  24.054  26.332  1.00  0.00     0.031 C 
ATOM     50  C   UNL A   1      41.385  25.067  27.909  1.00  0.00     0.029 A 
ATOM     51  N   UNL A   1      42.877  26.728  27.962  1.00  0.00    -0.354 N 
ATOM     52  C   UNL A   1      47.027  26.022  26.950  1.00  0.00     0.074 A 
ATOM     53  C   UNL A   1      47.224  24.660  26.511  1.00  0.00     0.031 C 
ATOM     54  C   UNL A   1      40.754  26.159  28.373  1.00  0.00     0.029 A 
ATOM     55  C   UNL A   1      41.700  27.269  28.421  1.00  0.00     0.049 A 
ATOM     56  H   UNL A   1      43.716  27.241  27.900  1.00  0.00     0.167 HD
ATOM     57  C   UNL A   1      48.013  26.946  27.014  1.00  0.00     0.037 A 
ATOM     58  C   UNL A   1      41.418  28.523  28.822  1.00  0.00     0.037 A 
ATOM     59  C   UNL A   1      47.796  28.322  27.363  1.00  0.00     0.049 A 
ATOM     60  C   UNL A   1      42.507  29.559  28.786  1.00  0.00     0.074 A 
ATOM     61  C   UNL A   1      48.705  29.364  27.379  1.00  0.00     0.029 A 
ATOM     62  N   UNL A   1      46.568  28.851  27.731  1.00  0.00    -0.354 N 
ATOM     63  N   UNL A   1      43.771  29.421  28.464  1.00  0.00    -0.248 NA
ATOM     64  C   UNL A   1      42.127  30.931  29.151  1.00  0.00     0.031 C 
ATOM     65  C   UNL A   1      48.026  30.524  27.773  1.00  0.00     0.029 A 
ATOM     66  C   UNL A   1      46.692  30.208  27.967  1.00  0.00     0.049 A 
ATOM     67  H   UNL A   1      45.732  28.336  27.811  1.00  0.00     0.167 HD
ATOM     68  C   UNL A   1      44.328  30.690  28.554  1.00  0.00     0.074 A 
ATOM     69  C   UNL A   1      43.260  31.587  28.947  1.00  0.00     0.031 C 
ATOM     70  C   UNL A   1      45.607  31.081  28.334  1.00  0.00     0.037 A 
BRANCH  57  71
ATOM     71  C   UNL A   1      49.400  26.494  26.661  1.00  0.00     0.057 A 
ATOM     72  C   UNL A   1      50.267  25.948  27.619  1.00  0.00     0.134 A 
ATOM     73  C   UNL A   1      49.882  26.615  25.351  1.00  0.00     0.134 A 
ATOM     74  F   UNL A   1      49.876  25.824  28.897  1.00  0.00    -0.206 F 
ATOM     75  C   UNL A   1      51.574  25.578  27.298  1.00  0.00     0.040 A 
ATOM     76  C   UNL A   1      51.177  26.218  25.010  1.00  0.00     0.040 A 
ATOM     77  F   UNL A   1      49.106  27.125  24.384  1.00  0.00    -0.206 F 
ATOM     78  C   UNL A   1      52.030  25.708  25.987  1.00  0.00     0.006 A 
ENDBRANCH  57  71
BRANCH  58  79
ATOM     79  C   UNL A   1      40.036  28.890  29.224  1.00  0.00     0.057 A 
ATOM     80  C   UNL A   1      39.648  28.852  30.569  1.00  0.00     0.134 A 
ATOM     81  C   UNL A   1      39.071  29.270  28.285  1.00  0.00     0.134 A 
ATOM     82  F   UNL A   1      40.524  28.480  31.514  1.00  0.00    -0.206 F 
ATOM     83  C   UNL A   1      38.343  29.152  30.964  1.00  0.00     0.040 A 
ATOM     84  C   UNL A   1      37.768  29.595  28.668  1.00  0.00     0.040 A 
ATOM     85  F   UNL A   1      39.382  29.337  26.982  1.00  0.00    -0.206 F 
ATOM     86  C   UNL A   1      37.399  29.528  30.011  1.00  0.00     0.006 A 
ENDBRANCH  58  79
BRANCH  70  87
ATOM     87  C   UNL A   1      45.905  32.544  28.463  1.00  0.00     0.057 A 
ATOM     88  C   UNL A   1      45.764  33.426  27.386  1.00  0.00     0.134 A 
ATOM     89  C   UNL A   1      46.309  33.077  29.694  1.00  0.00     0.134 A 
ATOM     90  F   UNL A   1      45.391  32.972  26.180  1.00  0.00    -0.206 F 
ATOM     91  C   UNL A   1      46.041  34.786  27.520  1.00  0.00     0.040 A 
ATOM     92  C   UNL A   1      46.564  34.440  29.847  1.00  0.00     0.040 A 
ATOM     93  F   UNL A   1      46.452  32.285  30.766  1.00  0.00    -0.206 F 
ATOM     94  C   UNL A   1      46.437  35.297  28.755  1.00  0.00     0.006 A 
ENDBRANCH  70  87
ENDBRANCH  44  45
ENDBRANCH  36  39
ENDBRANCH  34  35
ENDBRANCH  33  34
ENDBRANCH   1  33
TORSDOF 16
ENDMDL
