MODEL 1
REMARK VINA RESULT:     -13.9      0.000      0.000
REMARK SMILES COc1ccc(CCN2/C(=[NH+]/C(=O)CCC(=O)NCCCCNC(=O)c3ccc(-c4c5nc(c(-c6c(F)cccc6F)c6ccc([nH]6)c(-c6c(F)cccc6F)c6nc(c(-c7c(F)cccc7F)c7ccc4[nH]7)C=C6)C=C5)cc3)S[C@@H]3CS(=O)(=O)C[C@@H]32)cc1
REMARK SMILES IDX 16 1 17 2 18 3 15 5 14 6 12 7 9 8 10 9 87 10 11 11 80 12
REMARK SMILES IDX 81 13 86 14 82 16 83 17 13 18 84 19 85 20 8 21 7 22 6 23
REMARK SMILES IDX 3 24 4 25 89 26 5 27 88 28 2 29 1 30 19 31 20 32 21 33 22 34
REMARK SMILES IDX 23 35 24 36 25 38 26 39 27 40 79 41 28 42 78 43 29 44 30 45
REMARK SMILES IDX 31 46 72 47 32 48 77 49 71 50 73 51 33 52 76 53 70 54 69 55
REMARK SMILES IDX 34 57 60 58 43 59 59 60 44 61 47 62 58 63 74 64 45 65 46 66
REMARK SMILES IDX 57 68 75 69 48 70 35 71 36 72 41 73 37 74 38 75 40 76 42 77
REMARK SMILES IDX 39 78 61 79 62 80 67 81 63 82 64 83 66 84 68 85 65 86 49 87
REMARK SMILES IDX 50 88 55 89 51 90 52 91 54 92 56 93 53 94
REMARK H PARENT 18 4 11 15 23 37 73 56 47 67
REMARK Flexibility Score: inf
ROOT
ATOM      1  C   UNL A   1      38.601  19.614  25.468  1.00  0.00     0.220 C 
ATOM      2  O   UNL A   1      37.803  18.775  25.048  1.00  0.00    -0.275 OA
ATOM      3  N   UNL A   1      39.787  19.183  25.988  1.00  0.00    -0.356 N 
ATOM      4  H   UNL A   1      39.987  18.236  25.816  1.00  0.00     0.163 HD
ENDROOT
BRANCH   1   5
ATOM      5  C   UNL A   1      38.315  21.093  25.376  1.00  0.00     0.112 C 
BRANCH   5   6
ATOM      6  C   UNL A   1      37.349  21.456  24.239  1.00  0.00     0.138 C 
BRANCH   6   7
ATOM      7  C   UNL A   1      36.693  22.831  24.369  1.00  0.00     0.308 C 
ATOM      8  N   UNL A   1      33.369  23.780  23.168  1.00  0.00    -0.251 N 
ATOM      9  C   UNL A   1      34.679  23.927  23.713  1.00  0.00     0.314 C 
ATOM     10  C   UNL A   1      32.342  24.823  23.570  1.00  0.00     0.206 C 
ATOM     11  N   UNL A   1      35.628  23.048  23.492  1.00  0.00    -0.205 N 
ATOM     12  S   UNL A   1      34.830  25.207  25.001  1.00  0.00    -0.030 SA
ATOM     13  C   UNL A   1      33.139  25.879  25.037  1.00  0.00     0.120 C 
ATOM     14  C   UNL A   1      30.634  23.912  24.106  1.00  0.00     0.187 C 
ATOM     15  H   UNL A   1      35.587  22.516  22.666  1.00  0.00     0.316 HD
ATOM     16  C   UNL A   1      32.134  25.700  26.789  1.00  0.00     0.156 C 
ATOM     17  S   UNL A   1      30.255  24.379  26.427  1.00  0.00     0.155 S 
ATOM     18  O   UNL A   1      37.088  23.561  25.276  1.00  0.00    -0.247 OA
ATOM     19  O   UNL A   1      30.323  23.191  27.270  1.00  0.00    -0.229 OA
ATOM     20  O   UNL A   1      29.089  25.203  26.706  1.00  0.00    -0.229 OA
BRANCH   8  21
ATOM     21  C   UNL A   1      32.885  22.652  22.241  1.00  0.00     0.242 C 
BRANCH  21  22
ATOM     22  C   UNL A   1      32.243  21.079  22.607  1.00  0.00     0.081 C 
BRANCH  22  23
ATOM     23  C   UNL A   1      32.369  19.722  23.503  1.00  0.00    -0.044 A 
ATOM     24  C   UNL A   1      33.157  17.232  24.895  1.00  0.00     0.118 A 
ATOM     25  C   UNL A   1      32.893  18.367  25.592  1.00  0.00     0.046 A 
ATOM     26  C   UNL A   1      32.919  17.272  23.523  1.00  0.00     0.046 A 
ATOM     27  C   UNL A   1      32.618  19.546  24.882  1.00  0.00     0.007 A 
ATOM     28  C   UNL A   1      32.528  18.482  22.846  1.00  0.00     0.007 A 
BRANCH  24  29
ATOM     29  O   UNL A   1      33.680  16.122  25.493  1.00  0.00    -0.497 OA
ATOM     30  C   UNL A   1      35.092  15.942  25.265  1.00  0.00     0.278 C 
ENDBRANCH  24  29
ENDBRANCH  22  23
ENDBRANCH  21  22
ENDBRANCH   8  21
ENDBRANCH   6   7
ENDBRANCH   5   6
ENDBRANCH   1   5
BRANCH   3  31
ATOM     31  C   UNL A   1      40.816  19.893  26.760  1.00  0.00     0.116 C 
BRANCH  31  32
ATOM     32  C   UNL A   1      42.260  19.723  26.253  1.00  0.00     0.023 C 
BRANCH  32  33
ATOM     33  C   UNL A   1      42.831  21.045  25.866  1.00  0.00     0.023 C 
BRANCH  33  34
ATOM     34  C   UNL A   1      42.035  22.342  25.796  1.00  0.00     0.116 C 
BRANCH  34  35
ATOM     35  N   UNL A   1      42.649  23.726  25.271  1.00  0.00    -0.352 N 
ATOM     36  C   UNL A   1      42.467  25.648  25.274  1.00  0.00     0.251 C 
ATOM     37  H   UNL A   1      43.440  23.507  24.727  1.00  0.00     0.163 HD
ATOM     38  O   UNL A   1      43.197  26.430  24.626  1.00  0.00    -0.269 OA
BRANCH  36  39
ATOM     39  C   UNL A   1      41.456  26.764  26.138  1.00  0.00     0.039 A 
ATOM     40  C   UNL A   1      40.597  26.221  27.107  1.00  0.00     0.014 A 
ATOM     41  C   UNL A   1      41.545  28.186  26.141  1.00  0.00     0.014 A 
ATOM     42  C   UNL A   1      40.108  27.016  28.167  1.00  0.00     0.010 A 
ATOM     43  C   UNL A   1      41.272  28.905  27.295  1.00  0.00     0.010 A 
ATOM     44  C   UNL A   1      40.544  28.340  28.333  1.00  0.00    -0.014 A 
BRANCH  44  45
ATOM     45  C   UNL A   1      40.314  29.164  29.555  1.00  0.00     0.031 A 
ATOM     46  C   UNL A   1      41.117  28.907  30.814  1.00  0.00     0.074 A 
ATOM     47  C   UNL A   1      39.269  30.017  29.604  1.00  0.00     0.049 A 
ATOM     48  N   UNL A   1      41.017  29.477  31.991  1.00  0.00    -0.248 NA
ATOM     49  C   UNL A   1      42.115  27.822  30.772  1.00  0.00     0.031 C 
ATOM     50  C   UNL A   1      38.295  30.243  28.532  1.00  0.00     0.029 A 
ATOM     51  N   UNL A   1      38.837  30.848  30.612  1.00  0.00    -0.354 N 
ATOM     52  C   UNL A   1      41.926  28.813  32.809  1.00  0.00     0.074 A 
ATOM     53  C   UNL A   1      42.465  27.717  32.043  1.00  0.00     0.031 C 
ATOM     54  C   UNL A   1      37.420  31.186  28.918  1.00  0.00     0.029 A 
ATOM     55  C   UNL A   1      37.752  31.622  30.270  1.00  0.00     0.049 A 
ATOM     56  H   UNL A   1      39.266  30.885  31.497  1.00  0.00     0.167 HD
ATOM     57  C   UNL A   1      42.336  29.123  34.061  1.00  0.00     0.037 A 
ATOM     58  C   UNL A   1      37.114  32.589  30.960  1.00  0.00     0.037 A 
ATOM     59  C   UNL A   1      41.827  30.235  34.814  1.00  0.00     0.049 A 
ATOM     60  C   UNL A   1      37.611  32.958  32.333  1.00  0.00     0.074 A 
ATOM     61  C   UNL A   1      42.240  30.706  36.046  1.00  0.00     0.029 A 
ATOM     62  N   UNL A   1      40.783  31.046  34.399  1.00  0.00    -0.354 N 
ATOM     63  N   UNL A   1      38.590  32.431  33.029  1.00  0.00    -0.248 NA
ATOM     64  C   UNL A   1      36.929  34.071  33.009  1.00  0.00     0.031 C 
ATOM     65  C   UNL A   1      41.409  31.772  36.402  1.00  0.00     0.029 A 
ATOM     66  C   UNL A   1      40.519  32.002  35.363  1.00  0.00     0.049 A 
ATOM     67  H   UNL A   1      40.301  30.956  33.545  1.00  0.00     0.167 HD
ATOM     68  C   UNL A   1      38.666  33.170  34.204  1.00  0.00     0.074 A 
ATOM     69  C   UNL A   1      37.643  34.191  34.120  1.00  0.00     0.031 C 
ATOM     70  C   UNL A   1      39.505  33.019  35.258  1.00  0.00     0.037 A 
BRANCH  57  71
ATOM     71  C   UNL A   1      43.423  28.276  34.665  1.00  0.00     0.057 A 
ATOM     72  C   UNL A   1      44.780  28.591  34.493  1.00  0.00     0.134 A 
ATOM     73  C   UNL A   1      43.119  27.148  35.435  1.00  0.00     0.134 A 
ATOM     74  F   UNL A   1      45.146  29.654  33.760  1.00  0.00    -0.206 F 
ATOM     75  C   UNL A   1      45.793  27.793  35.027  1.00  0.00     0.040 A 
ATOM     76  C   UNL A   1      44.124  26.362  36.006  1.00  0.00     0.040 A 
ATOM     77  F   UNL A   1      41.845  26.791  35.650  1.00  0.00    -0.206 F 
ATOM     78  C   UNL A   1      45.464  26.677  35.793  1.00  0.00     0.006 A 
ENDBRANCH  57  71
BRANCH  58  79
ATOM     79  C   UNL A   1      35.989  33.340  30.339  1.00  0.00     0.057 A 
ATOM     80  C   UNL A   1      36.216  34.247  29.295  1.00  0.00     0.134 A 
ATOM     81  C   UNL A   1      34.669  33.193  30.782  1.00  0.00     0.134 A 
ATOM     82  F   UNL A   1      37.460  34.445  28.834  1.00  0.00    -0.206 F 
ATOM     83  C   UNL A   1      35.183  35.001  28.736  1.00  0.00     0.040 A 
ATOM     84  C   UNL A   1      33.621  33.922  30.214  1.00  0.00     0.040 A 
ATOM     85  F   UNL A   1      34.377  32.333  31.768  1.00  0.00    -0.206 F 
ATOM     86  C   UNL A   1      33.878  34.837  29.194  1.00  0.00     0.006 A 
ENDBRANCH  58  79
BRANCH  70  87
ATOM     87  C   UNL A   1      39.385  33.998  36.389  1.00  0.00     0.057 A 
ATOM     88  C   UNL A   1      38.667  33.704  37.553  1.00  0.00     0.134 A 
ATOM     89  C   UNL A   1      40.052  35.230  36.332  1.00  0.00     0.134 A 
ATOM     90  F   UNL A   1      38.001  32.545  37.667  1.00  0.00    -0.206 F 
ATOM     91  C   UNL A   1      38.597  34.610  38.614  1.00  0.00     0.040 A 
ATOM     92  C   UNL A   1      40.014  36.129  37.398  1.00  0.00     0.040 A 
ATOM     93  F   UNL A   1      40.768  35.569  35.250  1.00  0.00    -0.206 F 
ATOM     94  C   UNL A   1      39.279  35.822  38.541  1.00  0.00     0.006 A 
ENDBRANCH  70  87
ENDBRANCH  44  45
ENDBRANCH  36  39
ENDBRANCH  34  35
ENDBRANCH  33  34
ENDBRANCH  32  33
ENDBRANCH  31  32
ENDBRANCH   3  31
TORSDOF 17
ENDMDL
MODEL 2
REMARK VINA RESULT:     -13.6      0.564      6.028
REMARK SMILES COc1ccc(CCN2/C(=[NH+]/C(=O)CCC(=O)NCCCCNC(=O)c3ccc(-c4c5nc(c(-c6c(F)cccc6F)c6ccc([nH]6)c(-c6c(F)cccc6F)c6nc(c(-c7c(F)cccc7F)c7ccc4[nH]7)C=C6)C=C5)cc3)S[C@@H]3CS(=O)(=O)C[C@@H]32)cc1
REMARK SMILES IDX 16 1 17 2 18 3 15 5 14 6 12 7 9 8 10 9 87 10 11 11 80 12
REMARK SMILES IDX 81 13 86 14 82 16 83 17 13 18 84 19 85 20 8 21 7 22 6 23
REMARK SMILES IDX 3 24 4 25 89 26 5 27 88 28 2 29 1 30 19 31 20 32 21 33 22 34
REMARK SMILES IDX 23 35 24 36 25 38 26 39 27 40 79 41 28 42 78 43 29 44 30 45
REMARK SMILES IDX 31 46 72 47 32 48 77 49 71 50 73 51 33 52 76 53 70 54 69 55
REMARK SMILES IDX 34 57 60 58 43 59 59 60 44 61 47 62 58 63 74 64 45 65 46 66
REMARK SMILES IDX 57 68 75 69 48 70 35 71 36 72 41 73 37 74 38 75 40 76 42 77
REMARK SMILES IDX 39 78 61 79 62 80 67 81 63 82 64 83 66 84 68 85 65 86 49 87
REMARK SMILES IDX 50 88 55 89 51 90 52 91 54 92 56 93 53 94
REMARK H PARENT 18 4 11 15 23 37 73 56 47 67
REMARK Flexibility Score: inf
ROOT
ATOM      1  C   UNL A   1      38.361  19.586  25.372  1.00  0.00     0.220 C 
ATOM      2  O   UNL A   1      37.497  18.789  25.001  1.00  0.00    -0.275 OA
ATOM      3  N   UNL A   1      39.563  19.096  25.792  1.00  0.00    -0.356 N 
ATOM      4  H   UNL A   1      39.708  18.144  25.591  1.00  0.00     0.163 HD
ENDROOT
BRANCH   1   5
ATOM      5  C   UNL A   1      38.133  21.077  25.323  1.00  0.00     0.112 C 
BRANCH   5   6
ATOM      6  C   UNL A   1      37.301  21.527  24.114  1.00  0.00     0.138 C 
BRANCH   6   7
ATOM      7  C   UNL A   1      36.648  22.902  24.260  1.00  0.00     0.308 C 
ATOM      8  N   UNL A   1      33.315  23.864  23.097  1.00  0.00    -0.251 N 
ATOM      9  C   UNL A   1      34.630  24.006  23.632  1.00  0.00     0.314 C 
ATOM     10  C   UNL A   1      32.293  24.906  23.516  1.00  0.00     0.206 C 
ATOM     11  N   UNL A   1      35.576  23.127  23.395  1.00  0.00    -0.205 N 
ATOM     12  S   UNL A   1      34.795  25.275  24.928  1.00  0.00    -0.030 SA
ATOM     13  C   UNL A   1      33.105  25.950  24.984  1.00  0.00     0.120 C 
ATOM     14  C   UNL A   1      30.589  23.994  24.061  1.00  0.00     0.187 C 
ATOM     15  H   UNL A   1      35.527  22.602  22.565  1.00  0.00     0.316 HD
ATOM     16  C   UNL A   1      32.116  25.759  26.744  1.00  0.00     0.156 C 
ATOM     17  S   UNL A   1      30.232  24.443  26.389  1.00  0.00     0.155 S 
ATOM     18  O   UNL A   1      37.053  23.624  25.170  1.00  0.00    -0.247 OA
ATOM     19  O   UNL A   1      30.305  23.249  27.222  1.00  0.00    -0.229 OA
ATOM     20  O   UNL A   1      29.069  25.266  26.684  1.00  0.00    -0.229 OA
BRANCH   8  21
ATOM     21  C   UNL A   1      32.821  22.745  22.166  1.00  0.00     0.242 C 
BRANCH  21  22
ATOM     22  C   UNL A   1      32.213  21.156  22.525  1.00  0.00     0.081 C 
BRANCH  22  23
ATOM     23  C   UNL A   1      32.318  19.830  23.467  1.00  0.00    -0.044 A 
ATOM     24  C   UNL A   1      33.068  17.379  24.948  1.00  0.00     0.118 A 
ATOM     25  C   UNL A   1      32.816  18.541  25.604  1.00  0.00     0.046 A 
ATOM     26  C   UNL A   1      32.836  17.375  23.575  1.00  0.00     0.046 A 
ATOM     27  C   UNL A   1      32.559  19.698  24.852  1.00  0.00     0.007 A 
ATOM     28  C   UNL A   1      32.463  18.566  22.854  1.00  0.00     0.007 A 
BRANCH  24  29
ATOM     29  O   UNL A   1      33.574  16.284  25.586  1.00  0.00    -0.497 OA
ATOM     30  C   UNL A   1      32.727  15.120  25.518  1.00  0.00     0.278 C 
ENDBRANCH  24  29
ENDBRANCH  22  23
ENDBRANCH  21  22
ENDBRANCH   8  21
ENDBRANCH   6   7
ENDBRANCH   5   6
ENDBRANCH   1   5
BRANCH   3  31
ATOM     31  C   UNL A   1      40.678  19.747  26.493  1.00  0.00     0.116 C 
BRANCH  31  32
ATOM     32  C   UNL A   1      42.062  19.578  25.839  1.00  0.00     0.023 C 
BRANCH  32  33
ATOM     33  C   UNL A   1      42.801  20.873  25.852  1.00  0.00     0.023 C 
BRANCH  33  34
ATOM     34  C   UNL A   1      42.193  22.210  26.258  1.00  0.00     0.116 C 
BRANCH  34  35
ATOM     35  N   UNL A   1      42.549  23.595  25.537  1.00  0.00    -0.352 N 
ATOM     36  C   UNL A   1      42.160  25.483  25.441  1.00  0.00     0.251 C 
ATOM     37  H   UNL A   1      43.253  23.407  24.873  1.00  0.00     0.163 HD
ATOM     38  O   UNL A   1      42.674  26.273  24.618  1.00  0.00    -0.269 OA
BRANCH  36  39
ATOM     39  C   UNL A   1      41.197  26.568  26.396  1.00  0.00     0.039 A 
ATOM     40  C   UNL A   1      40.466  26.002  27.453  1.00  0.00     0.014 A 
ATOM     41  C   UNL A   1      41.228  27.992  26.380  1.00  0.00     0.014 A 
ATOM     42  C   UNL A   1      40.056  26.789  28.552  1.00  0.00     0.010 A 
ATOM     43  C   UNL A   1      41.045  28.713  27.551  1.00  0.00     0.010 A 
ATOM     44  C   UNL A   1      40.452  28.131  28.662  1.00  0.00    -0.014 A 
BRANCH  44  45
ATOM     45  C   UNL A   1      40.316  28.959  29.896  1.00  0.00     0.031 A 
ATOM     46  C   UNL A   1      39.263  30.046  29.977  1.00  0.00     0.074 A 
ATOM     47  C   UNL A   1      41.246  28.869  30.872  1.00  0.00     0.049 A 
ATOM     48  N   UNL A   1      39.034  30.906  30.939  1.00  0.00    -0.248 NA
ATOM     49  C   UNL A   1      38.398  30.241  28.799  1.00  0.00     0.031 C 
ATOM     50  C   UNL A   1      42.423  27.996  30.858  1.00  0.00     0.029 A 
ATOM     51  N   UNL A   1      41.356  29.539  32.069  1.00  0.00    -0.354 N 
ATOM     52  C   UNL A   1      38.017  31.732  30.471  1.00  0.00     0.074 A 
ATOM     53  C   UNL A   1      37.767  31.364  29.100  1.00  0.00     0.031 C 
ATOM     54  C   UNL A   1      43.099  28.143  32.009  1.00  0.00     0.029 A 
ATOM     55  C   UNL A   1      42.422  29.133  32.838  1.00  0.00     0.049 A 
ATOM     56  H   UNL A   1      40.728  30.244  32.349  1.00  0.00     0.167 HD
ATOM     57  C   UNL A   1      37.298  32.666  31.136  1.00  0.00     0.037 A 
ATOM     58  C   UNL A   1      42.795  29.502  34.080  1.00  0.00     0.037 A 
ATOM     59  C   UNL A   1      37.519  33.012  32.512  1.00  0.00     0.049 A 
ATOM     60  C   UNL A   1      41.958  30.507  34.828  1.00  0.00     0.074 A 
ATOM     61  C   UNL A   1      36.788  33.864  33.317  1.00  0.00     0.029 A 
ATOM     62  N   UNL A   1      38.560  32.518  33.283  1.00  0.00    -0.354 N 
ATOM     63  N   UNL A   1      40.890  31.156  34.430  1.00  0.00    -0.248 NA
ATOM     64  C   UNL A   1      42.365  30.815  36.207  1.00  0.00     0.031 C 
ATOM     65  C   UNL A   1      37.419  33.929  34.563  1.00  0.00     0.029 A 
ATOM     66  C   UNL A   1      38.507  33.069  34.550  1.00  0.00     0.049 A 
ATOM     67  H   UNL A   1      39.236  31.872  32.975  1.00  0.00     0.167 HD
ATOM     68  C   UNL A   1      40.477  31.917  35.517  1.00  0.00     0.074 A 
ATOM     69  C   UNL A   1      41.401  31.638  36.596  1.00  0.00     0.031 C 
ATOM     70  C   UNL A   1      39.428  32.770  35.616  1.00  0.00     0.037 A 
BRANCH  57  71
ATOM     71  C   UNL A   1      36.174  33.335  30.393  1.00  0.00     0.057 A 
ATOM     72  C   UNL A   1      34.830  33.039  30.671  1.00  0.00     0.134 A 
ATOM     73  C   UNL A   1      36.428  34.293  29.404  1.00  0.00     0.134 A 
ATOM     74  F   UNL A   1      34.512  32.125  31.601  1.00  0.00    -0.206 F 
ATOM     75  C   UNL A   1      33.785  33.636  29.965  1.00  0.00     0.040 A 
ATOM     76  C   UNL A   1      35.388  34.925  28.716  1.00  0.00     0.040 A 
ATOM     77  F   UNL A   1      37.686  34.635  29.091  1.00  0.00    -0.206 F 
ATOM     78  C   UNL A   1      34.064  34.589  28.987  1.00  0.00     0.006 A 
ENDBRANCH  57  71
BRANCH  58  79
ATOM     79  C   UNL A   1      43.968  28.862  34.735  1.00  0.00     0.057 A 
ATOM     80  C   UNL A   1      43.825  27.679  35.474  1.00  0.00     0.134 A 
ATOM     81  C   UNL A   1      45.250  29.419  34.664  1.00  0.00     0.134 A 
ATOM     82  F   UNL A   1      42.620  27.102  35.594  1.00  0.00    -0.206 F 
ATOM     83  C   UNL A   1      44.901  27.093  36.142  1.00  0.00     0.040 A 
ATOM     84  C   UNL A   1      46.342  28.828  35.305  1.00  0.00     0.040 A 
ATOM     85  F   UNL A   1      45.462  30.542  33.963  1.00  0.00    -0.206 F 
ATOM     86  C   UNL A   1      46.167  27.666  36.056  1.00  0.00     0.006 A 
ENDBRANCH  58  79
BRANCH  70  87
ATOM     87  C   UNL A   1      39.194  33.435  36.941  1.00  0.00     0.057 A 
ATOM     88  C   UNL A   1      39.718  34.699  37.241  1.00  0.00     0.134 A 
ATOM     89  C   UNL A   1      38.381  32.825  37.906  1.00  0.00     0.134 A 
ATOM     90  F   UNL A   1      40.509  35.333  36.363  1.00  0.00    -0.206 F 
ATOM     91  C   UNL A   1      39.460  35.322  38.463  1.00  0.00     0.040 A 
ATOM     92  C   UNL A   1      38.092  33.452  39.118  1.00  0.00     0.040 A 
ATOM     93  F   UNL A   1      37.838  31.620  37.678  1.00  0.00    -0.206 F 
ATOM     94  C   UNL A   1      38.637  34.702  39.402  1.00  0.00     0.006 A 
ENDBRANCH  70  87
ENDBRANCH  44  45
ENDBRANCH  36  39
ENDBRANCH  34  35
ENDBRANCH  33  34
ENDBRANCH  32  33
ENDBRANCH  31  32
ENDBRANCH   3  31
TORSDOF 17
ENDMDL
MODEL 3
REMARK VINA RESULT:     -13.3      5.332      9.171
REMARK SMILES COc1ccc(CCN2/C(=[NH+]/C(=O)CCC(=O)NCCCCNC(=O)c3ccc(-c4c5nc(c(-c6c(F)cccc6F)c6ccc([nH]6)c(-c6c(F)cccc6F)c6nc(c(-c7c(F)cccc7F)c7ccc4[nH]7)C=C6)C=C5)cc3)S[C@@H]3CS(=O)(=O)C[C@@H]32)cc1
REMARK SMILES IDX 16 1 17 2 18 3 15 5 14 6 12 7 9 8 10 9 87 10 11 11 80 12
REMARK SMILES IDX 81 13 86 14 82 16 83 17 13 18 84 19 85 20 8 21 7 22 6 23
REMARK SMILES IDX 3 24 4 25 89 26 5 27 88 28 2 29 1 30 19 31 20 32 21 33 22 34
REMARK SMILES IDX 23 35 24 36 25 38 26 39 27 40 79 41 28 42 78 43 29 44 30 45
REMARK SMILES IDX 31 46 72 47 32 48 77 49 71 50 73 51 33 52 76 53 70 54 69 55
REMARK SMILES IDX 34 57 60 58 43 59 59 60 44 61 47 62 58 63 74 64 45 65 46 66
REMARK SMILES IDX 57 68 75 69 48 70 35 71 36 72 41 73 37 74 38 75 40 76 42 77
REMARK SMILES IDX 39 78 61 79 62 80 67 81 63 82 64 83 66 84 68 85 65 86 49 87
REMARK SMILES IDX 50 88 55 89 51 90 52 91 54 92 56 93 53 94
REMARK H PARENT 18 4 11 15 23 37 73 56 47 67
REMARK Flexibility Score: inf
ROOT
ATOM      1  C   UNL A   1      36.600  22.043  25.840  1.00  0.00     0.220 C 
ATOM      2  O   UNL A   1      35.605  21.477  26.295  1.00  0.00    -0.275 OA
ATOM      3  N   UNL A   1      37.815  21.437  25.977  1.00  0.00    -0.356 N 
ATOM      4  H   UNL A   1      37.773  20.500  26.272  1.00  0.00     0.163 HD
ENDROOT
BRANCH   1   5
ATOM      5  C   UNL A   1      36.494  23.354  25.100  1.00  0.00     0.112 C 
BRANCH   5   6
ATOM      6  C   UNL A   1      35.351  23.384  24.075  1.00  0.00     0.138 C 
BRANCH   6   7
ATOM      7  C   UNL A   1      33.972  23.691  24.661  1.00  0.00     0.308 C 
ATOM      8  N   UNL A   1      32.767  26.954  25.798  1.00  0.00    -0.251 N 
ATOM      9  C   UNL A   1      32.786  25.544  25.581  1.00  0.00     0.314 C 
ATOM     10  C   UNL A   1      31.403  27.605  25.932  1.00  0.00     0.206 C 
ATOM     11  N   UNL A   1      33.903  24.885  25.381  1.00  0.00    -0.205 N 
ATOM     12  S   UNL A   1      31.156  24.800  25.254  1.00  0.00    -0.030 SA
ATOM     13  C   UNL A   1      30.065  26.250  25.406  1.00  0.00     0.120 C 
ATOM     14  C   UNL A   1      31.330  29.254  24.788  1.00  0.00     0.187 C 
ATOM     15  H   UNL A   1      34.734  25.251  25.759  1.00  0.00     0.316 HD
ATOM     16  C   UNL A   1      29.013  26.764  23.751  1.00  0.00     0.156 C 
ATOM     17  S   UNL A   1      29.668  28.897  23.097  1.00  0.00     0.155 S 
ATOM     18  O   UNL A   1      33.052  22.929  24.367  1.00  0.00    -0.247 OA
ATOM     19  O   UNL A   1      30.223  28.847  21.750  1.00  0.00    -0.229 OA
ATOM     20  O   UNL A   1      28.498  29.757  23.195  1.00  0.00    -0.229 OA
BRANCH   8  21
ATOM     21  C   UNL A   1      33.990  27.884  25.876  1.00  0.00     0.242 C 
BRANCH  21  22
ATOM     22  C   UNL A   1      34.522  28.954  27.140  1.00  0.00     0.081 C 
BRANCH  22  23
ATOM     23  C   UNL A   1      34.747  30.494  27.625  1.00  0.00    -0.044 A 
ATOM     24  C   UNL A   1      34.699  33.171  28.887  1.00  0.00     0.118 A 
ATOM     25  C   UNL A   1      35.774  32.353  29.028  1.00  0.00     0.046 A 
ATOM     26  C   UNL A   1      33.693  32.737  28.028  1.00  0.00     0.046 A 
ATOM     27  C   UNL A   1      35.709  31.057  28.492  1.00  0.00     0.007 A 
ATOM     28  C   UNL A   1      33.719  31.437  27.407  1.00  0.00     0.007 A 
BRANCH  24  29
ATOM     29  O   UNL A   1      34.581  34.335  29.590  1.00  0.00    -0.497 OA
ATOM     30  C   UNL A   1      33.278  34.946  29.499  1.00  0.00     0.278 C 
ENDBRANCH  24  29
ENDBRANCH  22  23
ENDBRANCH  21  22
ENDBRANCH   8  21
ENDBRANCH   6   7
ENDBRANCH   5   6
ENDBRANCH   1   5
BRANCH   3  31
ATOM     31  C   UNL A   1      39.177  21.946  25.760  1.00  0.00     0.116 C 
BRANCH  31  32
ATOM     32  C   UNL A   1      40.068  22.011  27.013  1.00  0.00     0.023 C 
BRANCH  32  33
ATOM     33  C   UNL A   1      40.765  20.709  27.219  1.00  0.00     0.023 C 
BRANCH  33  34
ATOM     34  C   UNL A   1      40.791  19.574  26.202  1.00  0.00     0.116 C 
BRANCH  34  35
ATOM     35  N   UNL A   1      42.123  19.091  25.454  1.00  0.00    -0.352 N 
ATOM     36  C   UNL A   1      43.851  19.628  24.782  1.00  0.00     0.251 C 
ATOM     37  H   UNL A   1      42.018  18.132  25.258  1.00  0.00     0.163 HD
ATOM     38  O   UNL A   1      44.631  18.881  24.151  1.00  0.00    -0.269 OA
BRANCH  36  39
ATOM     39  C   UNL A   1      44.801  21.075  24.913  1.00  0.00     0.039 A 
ATOM     40  C   UNL A   1      44.548  22.086  23.973  1.00  0.00     0.014 A 
ATOM     41  C   UNL A   1      45.654  21.454  25.990  1.00  0.00     0.014 A 
ATOM     42  C   UNL A   1      44.880  23.431  24.249  1.00  0.00     0.010 A 
ATOM     43  C   UNL A   1      45.761  22.785  26.368  1.00  0.00     0.010 A 
ATOM     44  C   UNL A   1      45.381  23.804  25.507  1.00  0.00    -0.014 A 
BRANCH  44  45
ATOM     45  C   UNL A   1      45.496  25.209  25.993  1.00  0.00     0.031 A 
ATOM     46  C   UNL A   1      46.842  25.905  26.017  1.00  0.00     0.074 A 
ATOM     47  C   UNL A   1      44.437  25.805  26.585  1.00  0.00     0.049 A 
ATOM     48  N   UNL A   1      47.150  27.099  26.461  1.00  0.00    -0.248 NA
ATOM     49  C   UNL A   1      48.010  25.136  25.546  1.00  0.00     0.031 C 
ATOM     50  C   UNL A   1      43.121  25.198  26.799  1.00  0.00     0.029 A 
ATOM     51  N   UNL A   1      44.307  27.060  27.134  1.00  0.00    -0.354 N 
ATOM     52  C   UNL A   1      48.531  27.206  26.327  1.00  0.00     0.074 A 
ATOM     53  C   UNL A   1      49.017  25.920  25.893  1.00  0.00     0.031 C 
ATOM     54  C   UNL A   1      42.307  26.095  27.379  1.00  0.00     0.029 A 
ATOM     55  C   UNL A   1      43.042  27.336  27.599  1.00  0.00     0.049 A 
ATOM     56  H   UNL A   1      45.052  27.702  27.188  1.00  0.00     0.167 HD
ATOM     57  C   UNL A   1      49.324  28.292  26.477  1.00  0.00     0.037 A 
ATOM     58  C   UNL A   1      42.529  28.469  28.120  1.00  0.00     0.037 A 
ATOM     59  C   UNL A   1      48.839  29.584  26.876  1.00  0.00     0.049 A 
ATOM     60  C   UNL A   1      43.410  29.685  28.238  1.00  0.00     0.074 A 
ATOM     61  C   UNL A   1      49.530  30.778  26.960  1.00  0.00     0.029 A 
ATOM     62  N   UNL A   1      47.533  29.843  27.261  1.00  0.00    -0.354 N 
ATOM     63  N   UNL A   1      44.680  29.820  27.942  1.00  0.00    -0.248 NA
ATOM     64  C   UNL A   1      42.780  30.915  28.740  1.00  0.00     0.031 C 
ATOM     65  C   UNL A   1      48.653  31.751  27.449  1.00  0.00     0.029 A 
ATOM     66  C   UNL A   1      47.402  31.175  27.610  1.00  0.00     0.049 A 
ATOM     67  H   UNL A   1      46.807  29.179  27.283  1.00  0.00     0.167 HD
ATOM     68  C   UNL A   1      44.992  31.152  28.187  1.00  0.00     0.074 A 
ATOM     69  C   UNL A   1      43.773  31.788  28.640  1.00  0.00     0.031 C 
ATOM     70  C   UNL A   1      46.177  31.794  28.048  1.00  0.00     0.037 A 
BRANCH  57  71
ATOM     71  C   UNL A   1      50.785  28.134  26.158  1.00  0.00     0.057 A 
ATOM     72  C   UNL A   1      51.745  27.968  27.169  1.00  0.00     0.134 A 
ATOM     73  C   UNL A   1      51.242  28.131  24.835  1.00  0.00     0.134 A 
ATOM     74  F   UNL A   1      51.380  27.970  28.461  1.00  0.00    -0.206 F 
ATOM     75  C   UNL A   1      53.105  27.850  26.880  1.00  0.00     0.040 A 
ATOM     76  C   UNL A   1      52.597  27.976  24.530  1.00  0.00     0.040 A 
ATOM     77  F   UNL A   1      50.382  28.274  23.815  1.00  0.00    -0.206 F 
ATOM     78  C   UNL A   1      53.533  27.846  25.554  1.00  0.00     0.006 A 
ENDBRANCH  57  71
BRANCH  58  79
ATOM     79  C   UNL A   1      41.090  28.541  28.496  1.00  0.00     0.057 A 
ATOM     80  C   UNL A   1      40.666  28.210  29.789  1.00  0.00     0.134 A 
ATOM     81  C   UNL A   1      40.104  28.914  27.575  1.00  0.00     0.134 A 
ATOM     82  F   UNL A   1      41.559  27.830  30.715  1.00  0.00    -0.206 F 
ATOM     83  C   UNL A   1      39.316  28.218  30.146  1.00  0.00     0.040 A 
ATOM     84  C   UNL A   1      38.752  28.952  27.926  1.00  0.00     0.040 A 
ATOM     85  F   UNL A   1      40.440  29.257  26.323  1.00  0.00    -0.206 F 
ATOM     86  C   UNL A   1      38.353  28.594  29.213  1.00  0.00     0.006 A 
ENDBRANCH  58  79
BRANCH  70  87
ATOM     87  C   UNL A   1      46.213  33.263  28.350  1.00  0.00     0.057 A 
ATOM     88  C   UNL A   1      45.943  34.230  27.374  1.00  0.00     0.134 A 
ATOM     89  C   UNL A   1      46.464  33.712  29.654  1.00  0.00     0.134 A 
ATOM     90  F   UNL A   1      45.703  33.866  26.105  1.00  0.00    -0.206 F 
ATOM     91  C   UNL A   1      45.942  35.592  27.679  1.00  0.00     0.040 A 
ATOM     92  C   UNL A   1      46.435  35.069  29.977  1.00  0.00     0.040 A 
ATOM     93  F   UNL A   1      46.718  32.838  30.639  1.00  0.00    -0.206 F 
ATOM     94  C   UNL A   1      46.180  36.014  28.985  1.00  0.00     0.006 A 
ENDBRANCH  70  87
ENDBRANCH  44  45
ENDBRANCH  36  39
ENDBRANCH  34  35
ENDBRANCH  33  34
ENDBRANCH  32  33
ENDBRANCH  31  32
ENDBRANCH   3  31
TORSDOF 17
ENDMDL
