MODEL 1
REMARK VINA RESULT:     -14.0      0.000      0.000
REMARK SMILES C[C@]1(C(=O)NCCCCNC(=O)c2ccc(-c3c4nc(c(-c5c(F)cccc5F)c5ccc([nH]5)c(-c5c(F)cccc5F)c5nc(c(-c6c(F)cccc6F)c6ccc3[nH]6)C=C5)C=C4)cc2)[NH2+]C2(C(=O)c3ccccc3C2=O)[C@@H]2C(=O)N(c3ccccc3)C(=O)[C@H]21
REMARK SMILES IDX 8 1 7 2 6 3 5 4 3 5 4 6 2 8 1 9 67 10 91 11 68 12 79 15
REMARK SMILES IDX 89 16 69 17 77 18 80 19 82 20 90 21 70 22 71 23 76 24 78 25
REMARK SMILES IDX 81 26 72 27 75 28 73 29 74 30 83 31 84 32 88 33 85 34 87 35
REMARK SMILES IDX 86 36 9 37 10 38 11 39 12 41 13 42 14 43 66 44 15 45 65 46
REMARK SMILES IDX 16 47 17 48 18 49 59 50 19 51 64 52 58 53 60 54 20 55 63 56
REMARK SMILES IDX 57 57 56 58 21 60 47 61 30 62 46 63 31 64 34 65 45 66 61 67
REMARK SMILES IDX 32 68 33 69 44 71 62 72 35 73 22 74 23 75 28 76 24 77 25 78
REMARK SMILES IDX 27 79 29 80 26 81 48 82 49 83 54 84 50 85 51 86 53 87 55 88
REMARK SMILES IDX 52 89 36 90 37 91 42 92 38 93 39 94 41 95 43 96 40 97
REMARK H PARENT 5 7 67 13 67 14 10 40 60 59 34 70
REMARK Flexibility Score: inf
ROOT
ATOM      1  C   UNL A   1      33.533  33.281  28.210  1.00  0.00     0.023 C 
ENDROOT
BRANCH   1   2
ATOM      2  C   UNL A   1      34.101  31.881  28.178  1.00  0.00     0.023 C 
BRANCH   2   3
ATOM      3  C   UNL A   1      33.396  30.892  27.263  1.00  0.00     0.116 C 
BRANCH   3   4
ATOM      4  N   UNL A   1      32.636  29.824  27.830  1.00  0.00    -0.351 N 
ATOM      5  C   UNL A   1      32.518  28.525  27.421  1.00  0.00     0.281 C 
ATOM      6  O   UNL A   1      31.809  27.839  28.175  1.00  0.00    -0.268 OA
ATOM      7  H   UNL A   1      32.122  30.059  28.637  1.00  0.00     0.163 HD
BRANCH   5   8
ATOM      8  C   UNL A   1      33.195  27.853  26.133  1.00  0.00     0.186 C 
ATOM      9  C   UNL A   1      34.565  28.566  25.980  1.00  0.00     0.091 C 
ATOM     10  N   UNL A   1      33.462  26.363  26.263  1.00  0.00    -0.314 N 
ATOM     11  C   UNL A   1      32.495  27.903  24.804  1.00  0.00     0.170 C 
ATOM     12  C   UNL A   1      32.584  25.599  25.271  1.00  0.00     0.236 C 
ATOM     13  H   UNL A   1      33.244  26.060  27.211  1.00  0.00     0.348 HD
ATOM     14  H   UNL A   1      34.443  26.175  26.060  1.00  0.00     0.348 HD
ATOM     15  C   UNL A   1      31.644  26.651  24.742  1.00  0.00     0.177 C 
ATOM     16  C   UNL A   1      31.525  28.937  24.358  1.00  0.00     0.244 C 
ATOM     17  C   UNL A   1      33.361  24.835  24.192  1.00  0.00     0.232 C 
ATOM     18  C   UNL A   1      31.947  24.429  26.057  1.00  0.00     0.232 C 
ATOM     19  C   UNL A   1      30.963  26.887  23.430  1.00  0.00     0.245 C 
ATOM     20  N   UNL A   1      30.749  28.271  23.407  1.00  0.00    -0.250 N 
ATOM     21  O   UNL A   1      31.477  30.083  24.747  1.00  0.00    -0.273 OA
ATOM     22  O   UNL A   1      34.151  25.313  23.398  1.00  0.00    -0.286 OA
ATOM     23  C   UNL A   1      33.017  23.400  24.283  1.00  0.00     0.036 A 
ATOM     24  C   UNL A   1      32.182  23.189  25.363  1.00  0.00     0.036 A 
ATOM     25  O   UNL A   1      31.403  24.399  27.144  1.00  0.00    -0.286 OA
ATOM     26  O   UNL A   1      30.540  26.007  22.702  1.00  0.00    -0.273 OA
ATOM     27  C   UNL A   1      33.420  22.323  23.518  1.00  0.00     0.013 A 
ATOM     28  C   UNL A   1      31.714  21.944  25.751  1.00  0.00     0.013 A 
ATOM     29  C   UNL A   1      32.954  21.044  23.879  1.00  0.00     0.001 A 
ATOM     30  C   UNL A   1      32.107  20.854  24.987  1.00  0.00     0.001 A 
BRANCH  20  31
ATOM     31  C   UNL A   1      29.703  28.934  22.737  1.00  0.00     0.052 A 
ATOM     32  C   UNL A   1      29.992  29.936  21.801  1.00  0.00     0.027 A 
ATOM     33  C   UNL A   1      28.375  28.721  23.126  1.00  0.00     0.027 A 
ATOM     34  C   UNL A   1      28.967  30.707  21.251  1.00  0.00     0.002 A 
ATOM     35  C   UNL A   1      27.359  29.535  22.616  1.00  0.00     0.002 A 
ATOM     36  C   UNL A   1      27.653  30.519  21.674  1.00  0.00     0.000 A 
ENDBRANCH  20  31
ENDBRANCH   5   8
ENDBRANCH   3   4
ENDBRANCH   2   3
ENDBRANCH   1   2
BRANCH   1  37
ATOM     37  C   UNL A   1      34.034  34.155  29.352  1.00  0.00     0.116 C 
BRANCH  37  38
ATOM     38  N   UNL A   1      33.030  35.019  29.981  1.00  0.00    -0.352 N 
ATOM     39  C   UNL A   1      32.945  35.456  31.291  1.00  0.00     0.251 C 
ATOM     40  H   UNL A   1      32.314  35.337  29.384  1.00  0.00     0.163 HD
ATOM     41  O   UNL A   1      32.028  36.180  31.662  1.00  0.00    -0.269 OA
BRANCH  39  42
ATOM     42  C   UNL A   1      33.946  34.966  32.262  1.00  0.00     0.039 A 
ATOM     43  C   UNL A   1      35.159  35.635  32.380  1.00  0.00     0.014 A 
ATOM     44  C   UNL A   1      33.757  33.727  32.876  1.00  0.00     0.014 A 
ATOM     45  C   UNL A   1      36.267  34.917  32.799  1.00  0.00     0.010 A 
ATOM     46  C   UNL A   1      34.849  33.078  33.461  1.00  0.00     0.010 A 
ATOM     47  C   UNL A   1      36.137  33.622  33.334  1.00  0.00    -0.014 A 
BRANCH  47  48
ATOM     48  C   UNL A   1      37.367  32.863  33.701  1.00  0.00     0.031 A 
ATOM     49  C   UNL A   1      37.986  31.858  32.756  1.00  0.00     0.074 A 
ATOM     50  C   UNL A   1      37.986  33.148  34.865  1.00  0.00     0.049 A 
ATOM     51  N   UNL A   1      39.048  31.108  32.929  1.00  0.00    -0.248 NA
ATOM     52  C   UNL A   1      37.327  31.656  31.455  1.00  0.00     0.031 C 
ATOM     53  C   UNL A   1      37.509  34.112  35.860  1.00  0.00     0.029 A 
ATOM     54  N   UNL A   1      39.165  32.688  35.391  1.00  0.00    -0.354 N 
ATOM     55  C   UNL A   1      39.159  30.324  31.784  1.00  0.00     0.074 A 
ATOM     56  C   UNL A   1      38.043  30.671  30.931  1.00  0.00     0.031 C 
ATOM     57  C   UNL A   1      38.424  34.235  36.829  1.00  0.00     0.029 A 
ATOM     58  C   UNL A   1      39.497  33.281  36.585  1.00  0.00     0.049 A 
ATOM     59  H   UNL A   1      39.719  32.000  34.957  1.00  0.00     0.167 HD
ATOM     60  C   UNL A   1      40.105  29.404  31.470  1.00  0.00     0.037 A 
ATOM     61  C   UNL A   1      40.531  33.063  37.416  1.00  0.00     0.037 A 
ATOM     62  C   UNL A   1      41.238  29.086  32.303  1.00  0.00     0.049 A 
ATOM     63  C   UNL A   1      41.537  32.011  37.064  1.00  0.00     0.074 A 
ATOM     64  C   UNL A   1      42.262  28.184  32.063  1.00  0.00     0.029 A 
ATOM     65  N   UNL A   1      41.500  29.664  33.537  1.00  0.00    -0.354 N 
ATOM     66  N   UNL A   1      41.612  31.265  35.989  1.00  0.00    -0.248 NA
ATOM     67  C   UNL A   1      42.593  31.757  38.051  1.00  0.00     0.031 C 
ATOM     68  C   UNL A   1      43.117  28.184  33.173  1.00  0.00     0.029 A 
ATOM     69  C   UNL A   1      42.655  29.123  34.079  1.00  0.00     0.049 A 
ATOM     70  H   UNL A   1      40.947  30.357  33.964  1.00  0.00     0.167 HD
ATOM     71  C   UNL A   1      42.730  30.463  36.164  1.00  0.00     0.074 A 
ATOM     72  C   UNL A   1      43.316  30.834  37.436  1.00  0.00     0.031 C 
ATOM     73  C   UNL A   1      43.224  29.499  35.348  1.00  0.00     0.037 A 
BRANCH  60  74
ATOM     74  C   UNL A   1      39.945  28.651  30.177  1.00  0.00     0.057 A 
ATOM     75  C   UNL A   1      39.177  27.478  30.129  1.00  0.00     0.134 A 
ATOM     76  C   UNL A   1      40.570  29.057  28.991  1.00  0.00     0.134 A 
ATOM     77  F   UNL A   1      38.559  27.023  31.229  1.00  0.00    -0.206 F 
ATOM     78  C   UNL A   1      39.035  26.742  28.951  1.00  0.00     0.040 A 
ATOM     79  C   UNL A   1      40.414  28.343  27.800  1.00  0.00     0.040 A 
ATOM     80  F   UNL A   1      41.312  30.174  28.962  1.00  0.00    -0.206 F 
ATOM     81  C   UNL A   1      39.650  27.178  27.779  1.00  0.00     0.006 A 
ENDBRANCH  60  74
BRANCH  61  82
ATOM     82  C   UNL A   1      40.638  33.831  38.681  1.00  0.00     0.057 A 
ATOM     83  C   UNL A   1      41.416  34.993  38.764  1.00  0.00     0.134 A 
ATOM     84  C   UNL A   1      39.963  33.423  39.837  1.00  0.00     0.134 A 
ATOM     85  F   UNL A   1      42.094  35.432  37.694  1.00  0.00    -0.206 F 
ATOM     86  C   UNL A   1      41.531  35.714  39.952  1.00  0.00     0.040 A 
ATOM     87  C   UNL A   1      40.043  34.152  41.024  1.00  0.00     0.040 A 
ATOM     88  F   UNL A   1      39.189  32.328  39.815  1.00  0.00    -0.206 F 
ATOM     89  C   UNL A   1      40.833  35.298  41.085  1.00  0.00     0.006 A 
ENDBRANCH  61  82
BRANCH  73  90
ATOM     90  C   UNL A   1      44.476  28.809  35.803  1.00  0.00     0.057 A 
ATOM     91  C   UNL A   1      44.404  27.642  36.574  1.00  0.00     0.134 A 
ATOM     92  C   UNL A   1      45.749  29.291  35.473  1.00  0.00     0.134 A 
ATOM     93  F   UNL A   1      43.216  27.129  36.927  1.00  0.00    -0.206 F 
ATOM     94  C   UNL A   1      45.556  26.975  36.995  1.00  0.00     0.040 A 
ATOM     95  C   UNL A   1      46.907  28.618  35.865  1.00  0.00     0.040 A 
ATOM     96  F   UNL A   1      45.885  30.394  34.722  1.00  0.00    -0.206 F 
ATOM     97  C   UNL A   1      46.811  27.458  36.632  1.00  0.00     0.006 A 
ENDBRANCH  73  90
ENDBRANCH  47  48
ENDBRANCH  39  42
ENDBRANCH  37  38
ENDBRANCH   1  37
TORSDOF 12
ENDMDL
MODEL 2
REMARK VINA RESULT:     -13.9      0.205      5.821
REMARK SMILES C[C@]1(C(=O)NCCCCNC(=O)c2ccc(-c3c4nc(c(-c5c(F)cccc5F)c5ccc([nH]5)c(-c5c(F)cccc5F)c5nc(c(-c6c(F)cccc6F)c6ccc3[nH]6)C=C5)C=C4)cc2)[NH2+]C2(C(=O)c3ccccc3C2=O)[C@@H]2C(=O)N(c3ccccc3)C(=O)[C@H]21
REMARK SMILES IDX 8 1 7 2 6 3 5 4 3 5 4 6 2 8 1 9 67 10 91 11 68 12 79 15
REMARK SMILES IDX 89 16 69 17 77 18 80 19 82 20 90 21 70 22 71 23 76 24 78 25
REMARK SMILES IDX 81 26 72 27 75 28 73 29 74 30 83 31 84 32 88 33 85 34 87 35
REMARK SMILES IDX 86 36 9 37 10 38 11 39 12 41 13 42 14 43 66 44 15 45 65 46
REMARK SMILES IDX 16 47 17 48 18 49 59 50 19 51 64 52 58 53 60 54 20 55 63 56
REMARK SMILES IDX 57 57 56 58 21 60 47 61 30 62 46 63 31 64 34 65 45 66 61 67
REMARK SMILES IDX 32 68 33 69 44 71 62 72 35 73 22 74 23 75 28 76 24 77 25 78
REMARK SMILES IDX 27 79 29 80 26 81 48 82 49 83 54 84 50 85 51 86 53 87 55 88
REMARK SMILES IDX 52 89 36 90 37 91 42 92 38 93 39 94 41 95 43 96 40 97
REMARK H PARENT 5 7 67 13 67 14 10 40 60 59 34 70
REMARK Flexibility Score: inf
ROOT
ATOM      1  C   UNL A   1      33.582  33.281  28.187  1.00  0.00     0.023 C 
ENDROOT
BRANCH   1   2
ATOM      2  C   UNL A   1      34.116  31.868  28.238  1.00  0.00     0.023 C 
BRANCH   2   3
ATOM      3  C   UNL A   1      33.454  30.867  27.304  1.00  0.00     0.116 C 
BRANCH   3   4
ATOM      4  N   UNL A   1      32.662  29.811  27.848  1.00  0.00    -0.351 N 
ATOM      5  C   UNL A   1      32.518  28.520  27.422  1.00  0.00     0.281 C 
ATOM      6  O   UNL A   1      31.783  27.842  28.157  1.00  0.00    -0.268 OA
ATOM      7  H   UNL A   1      32.143  30.048  28.651  1.00  0.00     0.163 HD
BRANCH   5   8
ATOM      8  C   UNL A   1      33.195  27.849  26.133  1.00  0.00     0.186 C 
ATOM      9  C   UNL A   1      34.566  28.561  25.981  1.00  0.00     0.091 C 
ATOM     10  N   UNL A   1      33.462  26.358  26.263  1.00  0.00    -0.314 N 
ATOM     11  C   UNL A   1      32.495  27.898  24.804  1.00  0.00     0.170 C 
ATOM     12  C   UNL A   1      32.584  25.594  25.272  1.00  0.00     0.236 C 
ATOM     13  H   UNL A   1      33.244  26.055  27.211  1.00  0.00     0.348 HD
ATOM     14  H   UNL A   1      34.443  26.170  26.060  1.00  0.00     0.348 HD
ATOM     15  C   UNL A   1      31.645  26.646  24.742  1.00  0.00     0.177 C 
ATOM     16  C   UNL A   1      31.525  28.932  24.358  1.00  0.00     0.244 C 
ATOM     17  C   UNL A   1      33.361  24.830  24.192  1.00  0.00     0.232 C 
ATOM     18  C   UNL A   1      31.947  24.424  26.058  1.00  0.00     0.232 C 
ATOM     19  C   UNL A   1      30.963  26.881  23.431  1.00  0.00     0.245 C 
ATOM     20  N   UNL A   1      30.749  28.266  23.407  1.00  0.00    -0.250 N 
ATOM     21  O   UNL A   1      31.477  30.078  24.747  1.00  0.00    -0.273 OA
ATOM     22  O   UNL A   1      34.151  25.308  23.398  1.00  0.00    -0.286 OA
ATOM     23  C   UNL A   1      33.017  23.395  24.283  1.00  0.00     0.036 A 
ATOM     24  C   UNL A   1      32.183  23.184  25.364  1.00  0.00     0.036 A 
ATOM     25  O   UNL A   1      31.403  24.394  27.145  1.00  0.00    -0.286 OA
ATOM     26  O   UNL A   1      30.540  26.001  22.702  1.00  0.00    -0.273 OA
ATOM     27  C   UNL A   1      33.420  22.318  23.519  1.00  0.00     0.013 A 
ATOM     28  C   UNL A   1      31.714  21.939  25.752  1.00  0.00     0.013 A 
ATOM     29  C   UNL A   1      32.955  21.039  23.880  1.00  0.00     0.001 A 
ATOM     30  C   UNL A   1      32.108  20.849  24.988  1.00  0.00     0.001 A 
BRANCH  20  31
ATOM     31  C   UNL A   1      29.703  28.929  22.737  1.00  0.00     0.052 A 
ATOM     32  C   UNL A   1      29.992  29.931  21.801  1.00  0.00     0.027 A 
ATOM     33  C   UNL A   1      28.375  28.716  23.127  1.00  0.00     0.027 A 
ATOM     34  C   UNL A   1      28.966  30.701  21.251  1.00  0.00     0.002 A 
ATOM     35  C   UNL A   1      27.359  29.529  22.616  1.00  0.00     0.002 A 
ATOM     36  C   UNL A   1      27.653  30.514  21.674  1.00  0.00     0.000 A 
ENDBRANCH  20  31
ENDBRANCH   5   8
ENDBRANCH   3   4
ENDBRANCH   2   3
ENDBRANCH   1   2
BRANCH   1  37
ATOM     37  C   UNL A   1      34.045  34.187  29.321  1.00  0.00     0.116 C 
BRANCH  37  38
ATOM     38  N   UNL A   1      32.991  34.954  29.994  1.00  0.00    -0.352 N 
ATOM     39  C   UNL A   1      32.902  35.347  31.318  1.00  0.00     0.251 C 
ATOM     40  H   UNL A   1      32.240  35.230  29.421  1.00  0.00     0.163 HD
ATOM     41  O   UNL A   1      31.940  35.987  31.727  1.00  0.00    -0.269 OA
BRANCH  39  42
ATOM     42  C   UNL A   1      33.959  34.911  32.253  1.00  0.00     0.039 A 
ATOM     43  C   UNL A   1      35.151  35.623  32.308  1.00  0.00     0.014 A 
ATOM     44  C   UNL A   1      33.839  33.677  32.897  1.00  0.00     0.014 A 
ATOM     45  C   UNL A   1      36.301  34.953  32.693  1.00  0.00     0.010 A 
ATOM     46  C   UNL A   1      34.978  33.078  33.446  1.00  0.00     0.010 A 
ATOM     47  C   UNL A   1      36.239  33.664  33.256  1.00  0.00    -0.014 A 
BRANCH  47  48
ATOM     48  C   UNL A   1      37.509  32.955  33.583  1.00  0.00     0.031 A 
ATOM     49  C   UNL A   1      38.219  33.172  34.899  1.00  0.00     0.074 A 
ATOM     50  C   UNL A   1      37.982  32.034  32.718  1.00  0.00     0.049 A 
ATOM     51  N   UNL A   1      39.337  32.640  35.333  1.00  0.00    -0.248 NA
ATOM     52  C   UNL A   1      37.606  34.113  35.851  1.00  0.00     0.031 C 
ATOM     53  C   UNL A   1      37.384  31.708  31.421  1.00  0.00     0.029 A 
ATOM     54  N   UNL A   1      39.047  31.176  32.813  1.00  0.00    -0.354 N 
ATOM     55  C   UNL A   1      39.580  33.209  36.579  1.00  0.00     0.074 A 
ATOM     56  C   UNL A   1      38.505  34.146  36.826  1.00  0.00     0.031 C 
ATOM     57  C   UNL A   1      38.034  30.669  30.883  1.00  0.00     0.029 A 
ATOM     58  C   UNL A   1      39.162  30.327  31.739  1.00  0.00     0.049 A 
ATOM     59  H   UNL A   1      39.670  31.169  33.575  1.00  0.00     0.167 HD
ATOM     60  C   UNL A   1      40.599  32.970  37.441  1.00  0.00     0.037 A 
ATOM     61  C   UNL A   1      40.087  29.397  31.450  1.00  0.00     0.037 A 
ATOM     62  C   UNL A   1      41.649  32.009  37.212  1.00  0.00     0.049 A 
ATOM     63  C   UNL A   1      41.227  29.185  32.400  1.00  0.00     0.074 A 
ATOM     64  C   UNL A   1      42.715  31.680  38.033  1.00  0.00     0.029 A 
ATOM     65  N   UNL A   1      41.763  31.217  36.078  1.00  0.00    -0.354 N 
ATOM     66  N   UNL A   1      41.450  29.749  33.561  1.00  0.00    -0.248 NA
ATOM     67  C   UNL A   1      42.253  28.220  31.987  1.00  0.00     0.031 C 
ATOM     68  C   UNL A   1      43.498  30.723  37.375  1.00  0.00     0.029 A 
ATOM     69  C   UNL A   1      42.892  30.418  36.168  1.00  0.00     0.049 A 
ATOM     70  H   UNL A   1      41.134  31.222  35.321  1.00  0.00     0.167 HD
ATOM     71  C   UNL A   1      42.636  29.197  34.026  1.00  0.00     0.074 A 
ATOM     72  C   UNL A   1      43.066  28.235  33.032  1.00  0.00     0.031 C 
ATOM     73  C   UNL A   1      43.310  29.468  35.170  1.00  0.00     0.037 A 
BRANCH  60  74
ATOM     74  C   UNL A   1      40.648  33.782  38.708  1.00  0.00     0.057 A 
ATOM     75  C   UNL A   1      41.444  34.934  38.782  1.00  0.00     0.134 A 
ATOM     76  C   UNL A   1      39.942  33.414  39.860  1.00  0.00     0.134 A 
ATOM     77  F   UNL A   1      42.156  35.340  37.721  1.00  0.00    -0.206 F 
ATOM     78  C   UNL A   1      41.532  35.690  39.953  1.00  0.00     0.040 A 
ATOM     79  C   UNL A   1      40.002  34.177  41.029  1.00  0.00     0.040 A 
ATOM     80  F   UNL A   1      39.155  32.328  39.857  1.00  0.00    -0.206 F 
ATOM     81  C   UNL A   1      40.804  35.315  41.080  1.00  0.00     0.006 A 
ENDBRANCH  60  74
BRANCH  61  82
ATOM     82  C   UNL A   1      39.995  28.628  30.184  1.00  0.00     0.057 A 
ATOM     83  C   UNL A   1      40.652  29.054  29.023  1.00  0.00     0.134 A 
ATOM     84  C   UNL A   1      39.248  27.447  30.106  1.00  0.00     0.134 A 
ATOM     85  F   UNL A   1      41.376  30.183  29.030  1.00  0.00    -0.206 F 
ATOM     86  C   UNL A   1      40.561  28.344  27.827  1.00  0.00     0.040 A 
ATOM     87  C   UNL A   1      39.175  26.708  28.925  1.00  0.00     0.040 A 
ATOM     88  F   UNL A   1      38.610  26.979  31.189  1.00  0.00    -0.206 F 
ATOM     89  C   UNL A   1      39.828  27.160  27.779  1.00  0.00     0.006 A 
ENDBRANCH  61  82
BRANCH  73  90
ATOM     90  C   UNL A   1      44.567  28.685  35.410  1.00  0.00     0.057 A 
ATOM     91  C   UNL A   1      44.521  27.449  36.068  1.00  0.00     0.134 A 
ATOM     92  C   UNL A   1      45.819  29.146  34.983  1.00  0.00     0.134 A 
ATOM     93  F   UNL A   1      43.355  26.953  36.505  1.00  0.00    -0.206 F 
ATOM     94  C   UNL A   1      45.676  26.698  36.288  1.00  0.00     0.040 A 
ATOM     95  C   UNL A   1      46.977  28.390  35.172  1.00  0.00     0.040 A 
ATOM     96  F   UNL A   1      45.929  30.313  34.330  1.00  0.00    -0.206 F 
ATOM     97  C   UNL A   1      46.907  27.163  35.830  1.00  0.00     0.006 A 
ENDBRANCH  73  90
ENDBRANCH  47  48
ENDBRANCH  39  42
ENDBRANCH  37  38
ENDBRANCH   1  37
TORSDOF 12
ENDMDL
MODEL 3
REMARK VINA RESULT:     -13.8      5.173      7.593
REMARK SMILES C[C@]1(C(=O)NCCCCNC(=O)c2ccc(-c3c4nc(c(-c5c(F)cccc5F)c5ccc([nH]5)c(-c5c(F)cccc5F)c5nc(c(-c6c(F)cccc6F)c6ccc3[nH]6)C=C5)C=C4)cc2)[NH2+]C2(C(=O)c3ccccc3C2=O)[C@@H]2C(=O)N(c3ccccc3)C(=O)[C@H]21
REMARK SMILES IDX 8 1 7 2 6 3 5 4 3 5 4 6 2 8 1 9 67 10 91 11 68 12 79 15
REMARK SMILES IDX 89 16 69 17 77 18 80 19 82 20 90 21 70 22 71 23 76 24 78 25
REMARK SMILES IDX 81 26 72 27 75 28 73 29 74 30 83 31 84 32 88 33 85 34 87 35
REMARK SMILES IDX 86 36 9 37 10 38 11 39 12 41 13 42 14 43 66 44 15 45 65 46
REMARK SMILES IDX 16 47 17 48 18 49 59 50 19 51 64 52 58 53 60 54 20 55 63 56
REMARK SMILES IDX 57 57 56 58 21 60 47 61 30 62 46 63 31 64 34 65 45 66 61 67
REMARK SMILES IDX 32 68 33 69 44 71 62 72 35 73 22 74 23 75 28 76 24 77 25 78
REMARK SMILES IDX 27 79 29 80 26 81 48 82 49 83 54 84 50 85 51 86 53 87 55 88
REMARK SMILES IDX 52 89 36 90 37 91 42 92 38 93 39 94 41 95 43 96 40 97
REMARK H PARENT 5 7 67 13 67 14 10 40 60 59 34 70
REMARK Flexibility Score: inf
ROOT
ATOM      1  C   UNL A   1      35.396  32.511  27.986  1.00  0.00     0.023 C 
ENDROOT
BRANCH   1   2
ATOM      2  C   UNL A   1      34.014  31.947  28.219  1.00  0.00     0.023 C 
BRANCH   2   3
ATOM      3  C   UNL A   1      33.609  30.776  27.336  1.00  0.00     0.116 C 
BRANCH   3   4
ATOM      4  N   UNL A   1      32.768  29.751  27.864  1.00  0.00    -0.351 N 
ATOM      5  C   UNL A   1      32.571  28.471  27.425  1.00  0.00     0.281 C 
ATOM      6  O   UNL A   1      31.802  27.819  28.149  1.00  0.00    -0.268 OA
ATOM      7  H   UNL A   1      32.254  30.003  28.666  1.00  0.00     0.163 HD
BRANCH   5   8
ATOM      8  C   UNL A   1      33.229  27.782  26.136  1.00  0.00     0.186 C 
ATOM      9  C   UNL A   1      34.609  28.472  25.969  1.00  0.00     0.091 C 
ATOM     10  N   UNL A   1      33.473  26.288  26.271  1.00  0.00    -0.314 N 
ATOM     11  C   UNL A   1      32.520  27.836  24.811  1.00  0.00     0.170 C 
ATOM     12  C   UNL A   1      32.577  25.532  25.291  1.00  0.00     0.236 C 
ATOM     13  H   UNL A   1      33.257  25.994  27.223  1.00  0.00     0.348 HD
ATOM     14  H   UNL A   1      34.450  26.084  26.063  1.00  0.00     0.348 HD
ATOM     15  C   UNL A   1      31.649  26.597  24.762  1.00  0.00     0.177 C 
ATOM     16  C   UNL A   1      31.563  28.881  24.366  1.00  0.00     0.244 C 
ATOM     17  C   UNL A   1      33.334  24.751  24.210  1.00  0.00     0.232 C 
ATOM     18  C   UNL A   1      31.927  24.377  26.088  1.00  0.00     0.232 C 
ATOM     19  C   UNL A   1      30.962  26.835  23.455  1.00  0.00     0.245 C 
ATOM     20  N   UNL A   1      30.769  28.222  23.425  1.00  0.00    -0.250 N 
ATOM     21  O   UNL A   1      31.536  30.031  24.749  1.00  0.00    -0.273 OA
ATOM     22  O   UNL A   1      34.125  25.212  23.408  1.00  0.00    -0.286 OA
ATOM     23  C   UNL A   1      32.968  23.322  24.312  1.00  0.00     0.036 A 
ATOM     24  C   UNL A   1      32.138  23.130  25.399  1.00  0.00     0.036 A 
ATOM     25  O   UNL A   1      31.391  24.361  27.179  1.00  0.00    -0.286 OA
ATOM     26  O   UNL A   1      30.520  25.958  22.734  1.00  0.00    -0.273 OA
ATOM     27  C   UNL A   1      33.349  22.234  23.550  1.00  0.00     0.013 A 
ATOM     28  C   UNL A   1      31.653  21.894  25.798  1.00  0.00     0.013 A 
ATOM     29  C   UNL A   1      32.866  20.965  23.922  1.00  0.00     0.001 A 
ATOM     30  C   UNL A   1      32.024  20.795  25.037  1.00  0.00     0.001 A 
BRANCH  20  31
ATOM     31  C   UNL A   1      29.729  28.898  22.759  1.00  0.00     0.052 A 
ATOM     32  C   UNL A   1      30.026  29.899  21.824  1.00  0.00     0.027 A 
ATOM     33  C   UNL A   1      28.400  28.699  23.151  1.00  0.00     0.027 A 
ATOM     34  C   UNL A   1      29.008  30.682  21.278  1.00  0.00     0.002 A 
ATOM     35  C   UNL A   1      27.391  29.524  22.645  1.00  0.00     0.002 A 
ATOM     36  C   UNL A   1      27.694  30.507  21.704  1.00  0.00     0.000 A 
ENDBRANCH  20  31
ENDBRANCH   5   8
ENDBRANCH   3   4
ENDBRANCH   2   3
ENDBRANCH   1   2
BRANCH   1  37
ATOM     37  C   UNL A   1      36.476  31.977  28.917  1.00  0.00     0.116 C 
BRANCH  37  38
ATOM     38  N   UNL A   1      36.011  31.493  30.222  1.00  0.00    -0.352 N 
ATOM     39  C   UNL A   1      36.411  30.379  30.938  1.00  0.00     0.251 C 
ATOM     40  H   UNL A   1      35.315  32.042  30.651  1.00  0.00     0.163 HD
ATOM     41  O   UNL A   1      35.912  30.109  32.025  1.00  0.00    -0.269 OA
BRANCH  39  42
ATOM     42  C   UNL A   1      37.403  29.470  30.327  1.00  0.00     0.039 A 
ATOM     43  C   UNL A   1      38.197  28.681  31.152  1.00  0.00     0.014 A 
ATOM     44  C   UNL A   1      37.685  29.578  28.964  1.00  0.00     0.014 A 
ATOM     45  C   UNL A   1      39.447  28.300  30.693  1.00  0.00     0.010 A 
ATOM     46  C   UNL A   1      38.873  29.033  28.465  1.00  0.00     0.010 A 
ATOM     47  C   UNL A   1      39.815  28.480  29.346  1.00  0.00    -0.014 A 
BRANCH  47  48
ATOM     48  C   UNL A   1      41.198  28.122  28.919  1.00  0.00     0.031 A 
ATOM     49  C   UNL A   1      41.532  26.743  28.399  1.00  0.00     0.074 A 
ATOM     50  C   UNL A   1      42.146  29.081  28.914  1.00  0.00     0.049 A 
ATOM     51  N   UNL A   1      42.688  26.270  27.997  1.00  0.00    -0.248 NA
ATOM     52  C   UNL A   1      40.438  25.762  28.329  1.00  0.00     0.031 C 
ATOM     53  C   UNL A   1      41.954  30.461  29.368  1.00  0.00     0.029 A 
ATOM     54  N   UNL A   1      43.446  29.057  28.480  1.00  0.00    -0.354 N 
ATOM     55  C   UNL A   1      42.468  24.935  27.669  1.00  0.00     0.074 A 
ATOM     56  C   UNL A   1      41.073  24.665  27.940  1.00  0.00     0.031 C 
ATOM     57  C   UNL A   1      43.060  31.169  29.110  1.00  0.00     0.029 A 
ATOM     58  C   UNL A   1      44.077  30.273  28.577  1.00  0.00     0.049 A 
ATOM     59  H   UNL A   1      43.885  28.248  28.132  1.00  0.00     0.167 HD
ATOM     60  C   UNL A   1      43.344  24.022  27.182  1.00  0.00     0.037 A 
ATOM     61  C   UNL A   1      45.343  30.630  28.304  1.00  0.00     0.037 A 
ATOM     62  C   UNL A   1      44.725  24.302  26.877  1.00  0.00     0.049 A 
ATOM     63  C   UNL A   1      46.301  29.590  27.808  1.00  0.00     0.074 A 
ATOM     64  C   UNL A   1      45.687  23.450  26.362  1.00  0.00     0.029 A 
ATOM     65  N   UNL A   1      45.340  25.533  27.054  1.00  0.00    -0.354 N 
ATOM     66  N   UNL A   1      46.079  28.330  27.526  1.00  0.00    -0.248 NA
ATOM     67  C   UNL A   1      47.691  30.019  27.611  1.00  0.00     0.031 C 
ATOM     68  C   UNL A   1      46.895  24.153  26.271  1.00  0.00     0.029 A 
ATOM     69  C   UNL A   1      46.673  25.457  26.680  1.00  0.00     0.049 A 
ATOM     70  H   UNL A   1      44.896  26.343  27.395  1.00  0.00     0.167 HD
ATOM     71  C   UNL A   1      47.298  27.818  27.105  1.00  0.00     0.074 A 
ATOM     72  C   UNL A   1      48.247  28.912  27.143  1.00  0.00     0.031 C 
ATOM     73  C   UNL A   1      47.606  26.553  26.727  1.00  0.00     0.037 A 
BRANCH  60  74
ATOM     74  C   UNL A   1      42.845  22.618  26.972  1.00  0.00     0.057 A 
ATOM     75  C   UNL A   1      42.639  21.766  28.067  1.00  0.00     0.134 A 
ATOM     76  C   UNL A   1      42.599  22.093  25.697  1.00  0.00     0.134 A 
ATOM     77  F   UNL A   1      42.865  22.197  29.317  1.00  0.00    -0.206 F 
ATOM     78  C   UNL A   1      42.206  20.449  27.901  1.00  0.00     0.040 A 
ATOM     79  C   UNL A   1      42.140  20.786  25.519  1.00  0.00     0.040 A 
ATOM     80  F   UNL A   1      42.767  22.855  24.606  1.00  0.00    -0.206 F 
ATOM     81  C   UNL A   1      41.948  19.958  26.623  1.00  0.00     0.006 A 
ENDBRANCH  60  74
BRANCH  61  82
ATOM     82  C   UNL A   1      45.785  32.029  28.534  1.00  0.00     0.057 A 
ATOM     83  C   UNL A   1      46.306  32.434  29.769  1.00  0.00     0.134 A 
ATOM     84  C   UNL A   1      45.700  32.992  27.523  1.00  0.00     0.134 A 
ATOM     85  F   UNL A   1      46.405  31.560  30.782  1.00  0.00    -0.206 F 
ATOM     86  C   UNL A   1      46.713  33.747  29.997  1.00  0.00     0.040 A 
ATOM     87  C   UNL A   1      46.133  34.302  27.726  1.00  0.00     0.040 A 
ATOM     88  F   UNL A   1      45.225  32.661  26.313  1.00  0.00    -0.206 F 
ATOM     89  C   UNL A   1      46.636  34.684  28.968  1.00  0.00     0.006 A 
ENDBRANCH  61  82
BRANCH  73  90
ATOM     90  C   UNL A   1      49.022  26.305  26.299  1.00  0.00     0.057 A 
ATOM     91  C   UNL A   1      49.442  26.635  25.004  1.00  0.00     0.134 A 
ATOM     92  C   UNL A   1      49.972  25.752  27.167  1.00  0.00     0.134 A 
ATOM     93  F   UNL A   1      48.582  27.166  24.123  1.00  0.00    -0.206 F 
ATOM     94  C   UNL A   1      50.759  26.428  24.590  1.00  0.00     0.040 A 
ATOM     95  C   UNL A   1      51.298  25.566  26.774  1.00  0.00     0.040 A 
ATOM     96  F   UNL A   1      49.638  25.432  28.427  1.00  0.00    -0.206 F 
ATOM     97  C   UNL A   1      51.693  25.902  25.480  1.00  0.00     0.006 A 
ENDBRANCH  73  90
ENDBRANCH  47  48
ENDBRANCH  39  42
ENDBRANCH  37  38
ENDBRANCH   1  37
TORSDOF 12
ENDMDL
