MODEL 1
REMARK VINA RESULT:     -11.2      0.000      0.000
REMARK SMILES CC(C)[C@H](Nc1cc(C#N)ccn1)C(=O)NCCCCNC(=O)c1ccc(-c2c3nc(c(-c4c(F)cccc4F)c4ccc([nH]4)c(-c4c(F)cccc4F)c4nc(c(-c5c(F)cccc5F)c5ccc2[nH]5)C=C4)C=C3)cc1
REMARK SMILES IDX 18 1 17 2 16 3 14 4 15 5 4 7 2 8 1 9 3 10 5 11 6 13 7 14
REMARK SMILES IDX 13 15 8 16 12 17 11 18 9 19 10 20 19 21 20 22 21 23 22 24
REMARK SMILES IDX 23 26 24 27 25 28 77 29 26 30 76 31 27 32 28 33 29 34 70 35
REMARK SMILES IDX 30 36 75 37 69 38 71 39 31 40 74 41 68 42 67 43 32 45 58 46
REMARK SMILES IDX 41 47 57 48 42 49 45 50 56 51 72 52 43 53 44 54 55 56 73 57
REMARK SMILES IDX 46 58 33 59 34 60 39 61 35 62 36 63 38 64 40 65 37 66 59 67
REMARK SMILES IDX 60 68 65 69 61 70 62 71 64 72 66 73 63 74 47 75 48 76 53 77
REMARK SMILES IDX 49 78 50 79 52 80 54 81 51 82
REMARK H PARENT 16 6 5 12 21 25 71 44 45 55
REMARK Flexibility Score: inf
ROOT
ATOM      1  C   UNL A   1      36.650  20.060  25.066  1.00  0.00     0.023 C 
ENDROOT
BRANCH   1   2
ATOM      2  C   UNL A   1      36.134  21.456  25.392  1.00  0.00     0.116 C 
BRANCH   2   3
ATOM      3  N   UNL A   1      35.352  21.451  26.609  1.00  0.00    -0.354 N 
ATOM      4  C   UNL A   1      33.997  21.504  26.758  1.00  0.00     0.242 C 
ATOM      5  O   UNL A   1      33.550  21.495  27.908  1.00  0.00    -0.273 OA
ATOM      6  H   UNL A   1      35.869  21.402  27.446  1.00  0.00     0.163 HD
BRANCH   4   7
ATOM      7  C   UNL A   1      33.051  21.546  25.528  1.00  0.00     0.172 C 
BRANCH   7   8
ATOM      8  C   UNL A   1      32.258  22.878  25.410  1.00  0.00     0.015 C 
ATOM      9  C   UNL A   1      30.952  22.952  26.218  1.00  0.00     0.010 C 
ATOM     10  C   UNL A   1      33.135  24.057  25.864  1.00  0.00     0.010 C 
ENDBRANCH   7   8
BRANCH   7  11
ATOM     11  N   UNL A   1      32.275  20.270  25.446  1.00  0.00    -0.358 N 
ATOM     12  H   UNL A   1      31.436  20.238  25.960  1.00  0.00     0.162 HD
BRANCH  11  13
ATOM     13  C   UNL A   1      32.594  19.138  24.737  1.00  0.00     0.127 A 
ATOM     14  C   UNL A   1      33.331  18.091  25.255  1.00  0.00     0.066 A 
ATOM     15  N   UNL A   1      32.205  19.133  23.448  1.00  0.00    -0.239 NA
ATOM     16  C   UNL A   1      33.826  17.109  24.399  1.00  0.00     0.057 A 
ATOM     17  C   UNL A   1      32.657  18.150  22.635  1.00  0.00     0.115 A 
ATOM     18  C   UNL A   1      33.497  17.140  23.052  1.00  0.00     0.040 A 
BRANCH  16  19
ATOM     19  C   UNL A   1      34.724  16.120  24.915  1.00  0.00     0.099 C 
ATOM     20  N   UNL A   1      35.459  15.309  25.294  1.00  0.00    -0.192 NA
ENDBRANCH  16  19
ENDBRANCH  11  13
ENDBRANCH   7  11
ENDBRANCH   4   7
ENDBRANCH   2   3
ENDBRANCH   1   2
BRANCH   1  21
ATOM     21  C   UNL A   1      38.116  20.036  24.652  1.00  0.00     0.023 C 
BRANCH  21  22
ATOM     22  C   UNL A   1      39.087  20.224  25.807  1.00  0.00     0.116 C 
BRANCH  22  23
ATOM     23  N   UNL A   1      40.071  19.153  25.897  1.00  0.00    -0.352 N 
ATOM     24  C   UNL A   1      41.420  19.264  26.138  1.00  0.00     0.251 C 
ATOM     25  H   UNL A   1      39.729  18.238  25.772  1.00  0.00     0.163 HD
ATOM     26  O   UNL A   1      42.166  18.299  26.024  1.00  0.00    -0.269 OA
BRANCH  24  27
ATOM     27  C   UNL A   1      41.950  20.590  26.507  1.00  0.00     0.039 A 
ATOM     28  C   UNL A   1      42.313  21.488  25.504  1.00  0.00     0.014 A 
ATOM     29  C   UNL A   1      41.981  20.967  27.852  1.00  0.00     0.014 A 
ATOM     30  C   UNL A   1      42.642  22.799  25.849  1.00  0.00     0.010 A 
ATOM     31  C   UNL A   1      42.208  22.295  28.182  1.00  0.00     0.010 A 
ATOM     32  C   UNL A   1      42.552  23.224  27.186  1.00  0.00    -0.014 A 
BRANCH  32  33
ATOM     33  C   UNL A   1      42.842  24.622  27.587  1.00  0.00     0.031 A 
ATOM     34  C   UNL A   1      44.272  25.049  27.784  1.00  0.00     0.074 A 
ATOM     35  C   UNL A   1      41.837  25.481  27.847  1.00  0.00     0.049 A 
ATOM     36  N   UNL A   1      44.744  26.175  28.253  1.00  0.00    -0.248 NA
ATOM     37  C   UNL A   1      45.310  24.064  27.433  1.00  0.00     0.031 C 
ATOM     38  C   UNL A   1      40.409  25.183  27.720  1.00  0.00     0.029 A 
ATOM     39  N   UNL A   1      41.864  26.781  28.286  1.00  0.00    -0.354 N 
ATOM     40  C   UNL A   1      46.124  26.028  28.261  1.00  0.00     0.074 A 
ATOM     41  C   UNL A   1      46.413  24.681  27.824  1.00  0.00     0.031 C 
ATOM     42  C   UNL A   1      39.700  26.275  28.050  1.00  0.00     0.029 A 
ATOM     43  C   UNL A   1      40.617  27.332  28.465  1.00  0.00     0.049 A 
ATOM     44  H   UNL A   1      42.700  27.273  28.458  1.00  0.00     0.167 HD
ATOM     45  C   UNL A   1      47.071  26.943  28.575  1.00  0.00     0.037 A 
ATOM     46  C   UNL A   1      40.258  28.544  28.928  1.00  0.00     0.037 A 
ATOM     47  C   UNL A   1      46.781  28.286  28.999  1.00  0.00     0.049 A 
ATOM     48  C   UNL A   1      41.332  29.521  29.333  1.00  0.00     0.074 A 
ATOM     49  C   UNL A   1      47.669  29.298  29.317  1.00  0.00     0.029 A 
ATOM     50  N   UNL A   1      45.506  28.803  29.167  1.00  0.00    -0.354 N 
ATOM     51  N   UNL A   1      42.635  29.386  29.293  1.00  0.00    -0.248 NA
ATOM     52  C   UNL A   1      40.883  30.825  29.846  1.00  0.00     0.031 C 
ATOM     53  C   UNL A   1      46.933  30.408  29.734  1.00  0.00     0.029 A 
ATOM     54  C   UNL A   1      45.585  30.115  29.603  1.00  0.00     0.049 A 
ATOM     55  H   UNL A   1      44.669  28.311  29.001  1.00  0.00     0.167 HD
ATOM     56  C   UNL A   1      43.159  30.601  29.722  1.00  0.00     0.074 A 
ATOM     57  C   UNL A   1      42.033  31.461  30.014  1.00  0.00     0.031 C 
ATOM     58  C   UNL A   1      44.455  30.971  29.856  1.00  0.00     0.037 A 
BRANCH  45  59
ATOM     59  C   UNL A   1      48.507  26.523  28.464  1.00  0.00     0.057 A 
ATOM     60  C   UNL A   1      49.185  25.915  29.531  1.00  0.00     0.134 A 
ATOM     61  C   UNL A   1      49.212  26.686  27.264  1.00  0.00     0.134 A 
ATOM     62  F   UNL A   1      48.574  25.741  30.713  1.00  0.00    -0.206 F 
ATOM     63  C   UNL A   1      50.516  25.511  29.417  1.00  0.00     0.040 A 
ATOM     64  C   UNL A   1      50.532  26.254  27.128  1.00  0.00     0.040 A 
ATOM     65  F   UNL A   1      48.624  27.254  26.200  1.00  0.00    -0.206 F 
ATOM     66  C   UNL A   1      51.189  25.671  28.209  1.00  0.00     0.006 A 
ENDBRANCH  45  59
BRANCH  46  67
ATOM     67  C   UNL A   1      38.823  28.922  29.035  1.00  0.00     0.057 A 
ATOM     68  C   UNL A   1      38.148  29.511  27.959  1.00  0.00     0.134 A 
ATOM     69  C   UNL A   1      38.106  28.757  30.227  1.00  0.00     0.134 A 
ATOM     70  F   UNL A   1      38.782  29.712  26.794  1.00  0.00    -0.206 F 
ATOM     71  C   UNL A   1      36.832  29.963  28.075  1.00  0.00     0.040 A 
ATOM     72  C   UNL A   1      36.778  29.171  30.347  1.00  0.00     0.040 A 
ATOM     73  F   UNL A   1      38.686  28.191  31.296  1.00  0.00    -0.206 F 
ATOM     74  C   UNL A   1      36.142  29.791  29.274  1.00  0.00     0.006 A 
ENDBRANCH  46  67
BRANCH  58  75
ATOM     75  C   UNL A   1      44.739  32.391  30.259  1.00  0.00     0.057 A 
ATOM     76  C   UNL A   1      44.869  32.781  31.597  1.00  0.00     0.134 A 
ATOM     77  C   UNL A   1      44.948  33.370  29.278  1.00  0.00     0.134 A 
ATOM     78  F   UNL A   1      44.671  31.897  32.586  1.00  0.00    -0.206 F 
ATOM     79  C   UNL A   1      45.173  34.099  31.945  1.00  0.00     0.040 A 
ATOM     80  C   UNL A   1      45.287  34.681  29.611  1.00  0.00     0.040 A 
ATOM     81  F   UNL A   1      44.852  33.062  27.975  1.00  0.00    -0.206 F 
ATOM     82  C   UNL A   1      45.394  35.050  30.951  1.00  0.00     0.006 A 
ENDBRANCH  58  75
ENDBRANCH  32  33
ENDBRANCH  24  27
ENDBRANCH  22  23
ENDBRANCH  21  22
ENDBRANCH   1  21
TORSDOF 15
ENDMDL
MODEL 2
REMARK VINA RESULT:     -11.2      0.767      1.592
REMARK SMILES CC(C)[C@H](Nc1cc(C#N)ccn1)C(=O)NCCCCNC(=O)c1ccc(-c2c3nc(c(-c4c(F)cccc4F)c4ccc([nH]4)c(-c4c(F)cccc4F)c4nc(c(-c5c(F)cccc5F)c5ccc2[nH]5)C=C4)C=C3)cc1
REMARK SMILES IDX 18 1 17 2 16 3 14 4 15 5 4 7 2 8 1 9 3 10 5 11 6 13 7 14
REMARK SMILES IDX 13 15 8 16 12 17 11 18 9 19 10 20 19 21 20 22 21 23 22 24
REMARK SMILES IDX 23 26 24 27 25 28 77 29 26 30 76 31 27 32 28 33 29 34 70 35
REMARK SMILES IDX 30 36 75 37 69 38 71 39 31 40 74 41 68 42 67 43 32 45 58 46
REMARK SMILES IDX 41 47 57 48 42 49 45 50 56 51 72 52 43 53 44 54 55 56 73 57
REMARK SMILES IDX 46 58 33 59 34 60 39 61 35 62 36 63 38 64 40 65 37 66 59 67
REMARK SMILES IDX 60 68 65 69 61 70 62 71 64 72 66 73 63 74 47 75 48 76 53 77
REMARK SMILES IDX 49 78 50 79 52 80 54 81 51 82
REMARK H PARENT 16 6 5 12 21 25 71 44 45 55
REMARK Flexibility Score: inf
ROOT
ATOM      1  C   UNL A   1      37.402  21.309  24.653  1.00  0.00     0.023 C 
ENDROOT
BRANCH   1   2
ATOM      2  C   UNL A   1      35.888  21.155  24.725  1.00  0.00     0.116 C 
BRANCH   2   3
ATOM      3  N   UNL A   1      35.422  21.226  26.093  1.00  0.00    -0.354 N 
ATOM      4  C   UNL A   1      34.162  21.459  26.558  1.00  0.00     0.242 C 
ATOM      5  O   UNL A   1      34.001  21.484  27.781  1.00  0.00    -0.273 OA
ATOM      6  H   UNL A   1      36.110  21.087  26.783  1.00  0.00     0.163 HD
BRANCH   4   7
ATOM      7  C   UNL A   1      32.967  21.659  25.586  1.00  0.00     0.172 C 
BRANCH   7   8
ATOM      8  C   UNL A   1      32.177  22.973  25.849  1.00  0.00     0.015 C 
ATOM      9  C   UNL A   1      33.010  24.265  25.847  1.00  0.00     0.010 C 
ATOM     10  C   UNL A   1      31.074  23.147  24.791  1.00  0.00     0.010 C 
ENDBRANCH   7   8
BRANCH   7  11
ATOM     11  N   UNL A   1      32.183  20.390  25.485  1.00  0.00    -0.358 N 
ATOM     12  H   UNL A   1      31.338  20.359  25.989  1.00  0.00     0.162 HD
BRANCH  11  13
ATOM     13  C   UNL A   1      32.502  19.262  24.771  1.00  0.00     0.127 A 
ATOM     14  C   UNL A   1      33.204  18.194  25.295  1.00  0.00     0.066 A 
ATOM     15  N   UNL A   1      32.151  19.280  23.471  1.00  0.00    -0.239 NA
ATOM     16  C   UNL A   1      33.706  17.214  24.442  1.00  0.00     0.057 A 
ATOM     17  C   UNL A   1      32.609  18.299  22.658  1.00  0.00     0.115 A 
ATOM     18  C   UNL A   1      33.417  17.268  23.086  1.00  0.00     0.040 A 
BRANCH  16  19
ATOM     19  C   UNL A   1      34.570  16.202  24.970  1.00  0.00     0.099 C 
ATOM     20  N   UNL A   1      35.249  15.355  25.374  1.00  0.00    -0.192 NA
ENDBRANCH  16  19
ENDBRANCH  11  13
ENDBRANCH   7  11
ENDBRANCH   4   7
ENDBRANCH   2   3
ENDBRANCH   1   2
BRANCH   1  21
ATOM     21  C   UNL A   1      38.159  20.029  24.988  1.00  0.00     0.023 C 
BRANCH  21  22
ATOM     22  C   UNL A   1      39.233  20.205  26.049  1.00  0.00     0.116 C 
BRANCH  22  23
ATOM     23  N   UNL A   1      40.216  19.129  26.043  1.00  0.00    -0.352 N 
ATOM     24  C   UNL A   1      41.584  19.234  26.123  1.00  0.00     0.251 C 
ATOM     25  H   UNL A   1      39.856  18.215  25.974  1.00  0.00     0.163 HD
ATOM     26  O   UNL A   1      42.307  18.262  25.940  1.00  0.00    -0.269 OA
BRANCH  24  27
ATOM     27  C   UNL A   1      42.160  20.562  26.405  1.00  0.00     0.039 A 
ATOM     28  C   UNL A   1      42.487  21.408  25.346  1.00  0.00     0.014 A 
ATOM     29  C   UNL A   1      42.271  20.996  27.729  1.00  0.00     0.014 A 
ATOM     30  C   UNL A   1      42.861  22.724  25.616  1.00  0.00     0.010 A 
ATOM     31  C   UNL A   1      42.542  22.331  27.988  1.00  0.00     0.010 A 
ATOM     32  C   UNL A   1      42.851  23.208  26.935  1.00  0.00    -0.014 A 
BRANCH  32  33
ATOM     33  C   UNL A   1      43.192  24.615  27.259  1.00  0.00     0.031 A 
ATOM     34  C   UNL A   1      44.634  25.044  27.248  1.00  0.00     0.074 A 
ATOM     35  C   UNL A   1      42.230  25.482  27.632  1.00  0.00     0.049 A 
ATOM     36  N   UNL A   1      45.164  26.181  27.621  1.00  0.00    -0.248 NA
ATOM     37  C   UNL A   1      45.616  24.049  26.783  1.00  0.00     0.031 C 
ATOM     38  C   UNL A   1      40.798  25.183  27.709  1.00  0.00     0.029 A 
ATOM     39  N   UNL A   1      42.315  26.792  28.032  1.00  0.00    -0.354 N 
ATOM     40  C   UNL A   1      46.533  26.031  27.445  1.00  0.00     0.074 A 
ATOM     41  C   UNL A   1      46.761  24.673  27.005  1.00  0.00     0.031 C 
ATOM     42  C   UNL A   1      40.140  26.284  28.106  1.00  0.00     0.029 A 
ATOM     43  C   UNL A   1      41.103  27.350  28.366  1.00  0.00     0.049 A 
ATOM     44  H   UNL A   1      43.165  27.287  28.076  1.00  0.00     0.167 HD
ATOM     45  C   UNL A   1      47.512  26.952  27.604  1.00  0.00     0.037 A 
ATOM     46  C   UNL A   1      40.808  28.574  28.844  1.00  0.00     0.037 A 
ATOM     47  C   UNL A   1      47.281  28.305  28.031  1.00  0.00     0.049 A 
ATOM     48  C   UNL A   1      41.926  29.558  29.075  1.00  0.00     0.074 A 
ATOM     49  C   UNL A   1      48.202  29.323  28.200  1.00  0.00     0.029 A 
ATOM     50  N   UNL A   1      46.040  28.829  28.358  1.00  0.00    -0.354 N 
ATOM     51  N   UNL A   1      43.212  29.419  28.860  1.00  0.00    -0.248 NA
ATOM     52  C   UNL A   1      41.549  30.875  29.611  1.00  0.00     0.031 C 
ATOM     53  C   UNL A   1      47.528  30.444  28.686  1.00  0.00     0.029 A 
ATOM     54  C   UNL A   1      46.175  30.150  28.747  1.00  0.00     0.049 A 
ATOM     55  H   UNL A   1      45.189  28.334  28.320  1.00  0.00     0.167 HD
ATOM     56  C   UNL A   1      43.787  30.644  29.184  1.00  0.00     0.074 A 
ATOM     57  C   UNL A   1      42.711  31.513  29.606  1.00  0.00     0.031 C 
ATOM     58  C   UNL A   1      45.090  31.014  29.131  1.00  0.00     0.037 A 
BRANCH  45  59
ATOM     59  C   UNL A   1      48.921  26.526  27.308  1.00  0.00     0.057 A 
ATOM     60  C   UNL A   1      49.753  25.985  28.299  1.00  0.00     0.134 A 
ATOM     61  C   UNL A   1      49.440  26.616  26.010  1.00  0.00     0.134 A 
ATOM     62  F   UNL A   1      49.324  25.883  29.566  1.00  0.00    -0.206 F 
ATOM     63  C   UNL A   1      51.057  25.576  28.015  1.00  0.00     0.040 A 
ATOM     64  C   UNL A   1      50.729  26.177  25.708  1.00  0.00     0.040 A 
ATOM     65  F   UNL A   1      48.697  27.118  25.012  1.00  0.00    -0.206 F 
ATOM     66  C   UNL A   1      51.543  25.662  26.714  1.00  0.00     0.006 A 
ENDBRANCH  45  59
BRANCH  46  67
ATOM     67  C   UNL A   1      39.401  28.956  29.136  1.00  0.00     0.057 A 
ATOM     68  C   UNL A   1      38.847  28.756  30.407  1.00  0.00     0.134 A 
ATOM     69  C   UNL A   1      38.558  29.475  28.145  1.00  0.00     0.134 A 
ATOM     70  F   UNL A   1      39.595  28.246  31.396  1.00  0.00    -0.206 F 
ATOM     71  C   UNL A   1      37.500  29.016  30.671  1.00  0.00     0.040 A 
ATOM     72  C   UNL A   1      37.219  29.773  28.405  1.00  0.00     0.040 A 
ATOM     73  F   UNL A   1      39.024  29.702  26.909  1.00  0.00    -0.206 F 
ATOM     74  C   UNL A   1      36.682  29.528  29.666  1.00  0.00     0.006 A 
ENDBRANCH  46  67
BRANCH  58  75
ATOM     75  C   UNL A   1      45.423  32.443  29.457  1.00  0.00     0.057 A 
ATOM     76  C   UNL A   1      45.383  33.462  28.497  1.00  0.00     0.134 A 
ATOM     77  C   UNL A   1      45.728  32.810  30.775  1.00  0.00     0.134 A 
ATOM     78  F   UNL A   1      45.108  33.178  27.215  1.00  0.00    -0.206 F 
ATOM     79  C   UNL A   1      45.657  34.789  28.832  1.00  0.00     0.040 A 
ATOM     80  C   UNL A   1      45.969  34.137  31.129  1.00  0.00     0.040 A 
ATOM     81  F   UNL A   1      45.772  31.886  31.748  1.00  0.00    -0.206 F 
ATOM     82  C   UNL A   1      45.941  35.132  30.153  1.00  0.00     0.006 A 
ENDBRANCH  58  75
ENDBRANCH  32  33
ENDBRANCH  24  27
ENDBRANCH  22  23
ENDBRANCH  21  22
ENDBRANCH   1  21
TORSDOF 15
ENDMDL
MODEL 3
REMARK VINA RESULT:     -11.2      6.014     10.104
REMARK SMILES CC(C)[C@H](Nc1cc(C#N)ccn1)C(=O)NCCCCNC(=O)c1ccc(-c2c3nc(c(-c4c(F)cccc4F)c4ccc([nH]4)c(-c4c(F)cccc4F)c4nc(c(-c5c(F)cccc5F)c5ccc2[nH]5)C=C4)C=C3)cc1
REMARK SMILES IDX 18 1 17 2 16 3 14 4 15 5 4 7 2 8 1 9 3 10 5 11 6 13 7 14
REMARK SMILES IDX 13 15 8 16 12 17 11 18 9 19 10 20 19 21 20 22 21 23 22 24
REMARK SMILES IDX 23 26 24 27 25 28 77 29 26 30 76 31 27 32 28 33 29 34 70 35
REMARK SMILES IDX 30 36 75 37 69 38 71 39 31 40 74 41 68 42 67 43 32 45 58 46
REMARK SMILES IDX 41 47 57 48 42 49 45 50 56 51 72 52 43 53 44 54 55 56 73 57
REMARK SMILES IDX 46 58 33 59 34 60 39 61 35 62 36 63 38 64 40 65 37 66 59 67
REMARK SMILES IDX 60 68 65 69 61 70 62 71 64 72 66 73 63 74 47 75 48 76 53 77
REMARK SMILES IDX 49 78 50 79 52 80 54 81 51 82
REMARK H PARENT 16 6 5 12 21 25 71 44 45 55
REMARK Flexibility Score: inf
ROOT
ATOM      1  C   UNL A   1      31.225  30.656  25.558  1.00  0.00     0.023 C 
ENDROOT
BRANCH   1   2
ATOM      2  C   UNL A   1      32.476  29.828  25.827  1.00  0.00     0.116 C 
BRANCH   2   3
ATOM      3  N   UNL A   1      33.286  29.706  24.635  1.00  0.00    -0.354 N 
ATOM      4  C   UNL A   1      33.121  28.875  23.567  1.00  0.00     0.242 C 
ATOM      5  O   UNL A   1      33.953  28.942  22.658  1.00  0.00    -0.273 OA
ATOM      6  H   UNL A   1      34.066  30.306  24.588  1.00  0.00     0.163 HD
BRANCH   4   7
ATOM      7  C   UNL A   1      31.916  27.899  23.483  1.00  0.00     0.172 C 
BRANCH   7   8
ATOM      8  C   UNL A   1      32.334  26.402  23.554  1.00  0.00     0.015 C 
ATOM      9  C   UNL A   1      32.342  25.776  24.958  1.00  0.00     0.010 C 
ATOM     10  C   UNL A   1      31.394  25.549  22.686  1.00  0.00     0.010 C 
ENDBRANCH   7   8
BRANCH   7  11
ATOM     11  N   UNL A   1      31.011  28.311  22.366  1.00  0.00    -0.358 N 
ATOM     12  H   UNL A   1      31.301  28.064  21.458  1.00  0.00     0.162 HD
BRANCH  11  13
ATOM     13  C   UNL A   1      29.823  28.993  22.458  1.00  0.00     0.127 A 
ATOM     14  C   UNL A   1      29.713  30.363  22.320  1.00  0.00     0.066 A 
ATOM     15  N   UNL A   1      28.749  28.246  22.773  1.00  0.00    -0.239 NA
ATOM     16  C   UNL A   1      28.526  30.997  22.681  1.00  0.00     0.057 A 
ATOM     17  C   UNL A   1      27.588  28.870  23.081  1.00  0.00     0.115 A 
ATOM     18  C   UNL A   1      27.436  30.240  23.086  1.00  0.00     0.040 A 
BRANCH  16  19
ATOM     19  C   UNL A   1      28.472  32.428  22.692  1.00  0.00     0.099 C 
ATOM     20  N   UNL A   1      28.469  33.586  22.711  1.00  0.00    -0.192 NA
ENDBRANCH  16  19
ENDBRANCH  11  13
ENDBRANCH   7  11
ENDBRANCH   4   7
ENDBRANCH   2   3
ENDBRANCH   1   2
BRANCH   1  21
ATOM     21  C   UNL A   1      31.100  31.876  26.461  1.00  0.00     0.023 C 
BRANCH  21  22
ATOM     22  C   UNL A   1      32.433  32.481  26.872  1.00  0.00     0.116 C 
BRANCH  22  23
ATOM     23  N   UNL A   1      32.300  33.830  27.408  1.00  0.00    -0.352 N 
ATOM     24  C   UNL A   1      33.073  34.437  28.368  1.00  0.00     0.251 C 
ATOM     25  H   UNL A   1      31.567  34.373  27.036  1.00  0.00     0.163 HD
ATOM     26  O   UNL A   1      32.754  35.517  28.850  1.00  0.00    -0.269 OA
BRANCH  24  27
ATOM     27  C   UNL A   1      34.285  33.733  28.827  1.00  0.00     0.039 A 
ATOM     28  C   UNL A   1      35.540  34.272  28.544  1.00  0.00     0.014 A 
ATOM     29  C   UNL A   1      34.158  32.596  29.629  1.00  0.00     0.014 A 
ATOM     30  C   UNL A   1      36.672  33.706  29.130  1.00  0.00     0.010 A 
ATOM     31  C   UNL A   1      35.272  32.101  30.289  1.00  0.00     0.010 A 
ATOM     32  C   UNL A   1      36.543  32.642  30.039  1.00  0.00    -0.014 A 
BRANCH  32  33
ATOM     33  C   UNL A   1      37.718  32.047  30.723  1.00  0.00     0.031 A 
ATOM     34  C   UNL A   1      38.497  30.960  30.032  1.00  0.00     0.074 A 
ATOM     35  C   UNL A   1      38.039  32.419  31.977  1.00  0.00     0.049 A 
ATOM     36  N   UNL A   1      39.470  30.217  30.494  1.00  0.00    -0.248 NA
ATOM     37  C   UNL A   1      38.109  30.646  28.646  1.00  0.00     0.031 C 
ATOM     38  C   UNL A   1      37.347  33.441  32.765  1.00  0.00     0.029 A 
ATOM     39  N   UNL A   1      39.025  31.967  32.818  1.00  0.00    -0.354 N 
ATOM     40  C   UNL A   1      39.799  29.348  29.462  1.00  0.00     0.074 A 
ATOM     41  C   UNL A   1      38.877  29.602  28.379  1.00  0.00     0.031 C 
ATOM     42  C   UNL A   1      37.946  33.554  33.962  1.00  0.00     0.029 A 
ATOM     43  C   UNL A   1      39.026  32.577  34.050  1.00  0.00     0.049 A 
ATOM     44  H   UNL A   1      39.673  31.270  32.561  1.00  0.00     0.167 HD
ATOM     45  C   UNL A   1      40.802  28.441  29.408  1.00  0.00     0.037 A 
ATOM     46  C   UNL A   1      39.799  32.358  35.131  1.00  0.00     0.037 A 
ATOM     47  C   UNL A   1      41.726  28.198  30.482  1.00  0.00     0.049 A 
ATOM     48  C   UNL A   1      40.866  31.295  35.065  1.00  0.00     0.074 A 
ATOM     49  C   UNL A   1      42.792  27.317  30.517  1.00  0.00     0.029 A 
ATOM     50  N   UNL A   1      41.692  28.837  31.711  1.00  0.00    -0.354 N 
ATOM     51  N   UNL A   1      41.197  30.512  34.067  1.00  0.00    -0.248 NA
ATOM     52  C   UNL A   1      41.671  31.087  36.279  1.00  0.00     0.031 C 
ATOM     53  C   UNL A   1      43.366  27.379  31.788  1.00  0.00     0.029 A 
ATOM     54  C   UNL A   1      42.707  28.354  32.520  1.00  0.00     0.049 A 
ATOM     55  H   UNL A   1      41.043  29.530  31.971  1.00  0.00     0.167 HD
ATOM     56  C   UNL A   1      42.279  29.761  34.514  1.00  0.00     0.074 A 
ATOM     57  C   UNL A   1      42.550  30.183  35.870  1.00  0.00     0.031 C 
ATOM     58  C   UNL A   1      42.987  28.810  33.857  1.00  0.00     0.037 A 
BRANCH  45  59
ATOM     59  C   UNL A   1      40.954  27.649  28.141  1.00  0.00     0.057 A 
ATOM     60  C   UNL A   1      40.304  26.421  27.954  1.00  0.00     0.134 A 
ATOM     61  C   UNL A   1      41.724  28.137  27.078  1.00  0.00     0.134 A 
ATOM     62  F   UNL A   1      39.561  25.888  28.937  1.00  0.00    -0.206 F 
ATOM     63  C   UNL A   1      40.436  25.696  26.769  1.00  0.00     0.040 A 
ATOM     64  C   UNL A   1      41.834  27.439  25.875  1.00  0.00     0.040 A 
ATOM     65  F   UNL A   1      42.369  29.309  27.186  1.00  0.00    -0.206 F 
ATOM     66  C   UNL A   1      41.194  26.212  25.721  1.00  0.00     0.006 A 
ENDBRANCH  45  59
BRANCH  46  67
ATOM     67  C   UNL A   1      39.611  33.155  36.373  1.00  0.00     0.057 A 
ATOM     68  C   UNL A   1      38.685  32.764  37.349  1.00  0.00     0.134 A 
ATOM     69  C   UNL A   1      40.305  34.351  36.591  1.00  0.00     0.134 A 
ATOM     70  F   UNL A   1      37.976  31.636  37.192  1.00  0.00    -0.206 F 
ATOM     71  C   UNL A   1      38.425  33.552  38.472  1.00  0.00     0.040 A 
ATOM     72  C   UNL A   1      40.080  35.131  37.727  1.00  0.00     0.040 A 
ATOM     73  F   UNL A   1      41.214  34.781  35.703  1.00  0.00    -0.206 F 
ATOM     74  C   UNL A   1      39.126  34.741  38.663  1.00  0.00     0.006 A 
ENDBRANCH  46  67
BRANCH  58  75
ATOM     75  C   UNL A   1      44.177  28.216  34.556  1.00  0.00     0.057 A 
ATOM     76  C   UNL A   1      45.447  28.803  34.509  1.00  0.00     0.134 A 
ATOM     77  C   UNL A   1      44.026  27.066  35.345  1.00  0.00     0.134 A 
ATOM     78  F   UNL A   1      45.663  29.899  33.766  1.00  0.00    -0.206 F 
ATOM     79  C   UNL A   1      46.529  28.255  35.201  1.00  0.00     0.040 A 
ATOM     80  C   UNL A   1      45.090  26.530  36.068  1.00  0.00     0.040 A 
ATOM     81  F   UNL A   1      42.833  26.459  35.445  1.00  0.00    -0.206 F 
ATOM     82  C   UNL A   1      46.350  27.122  35.992  1.00  0.00     0.006 A 
ENDBRANCH  58  75
ENDBRANCH  32  33
ENDBRANCH  24  27
ENDBRANCH  22  23
ENDBRANCH  21  22
ENDBRANCH   1  21
TORSDOF 15
ENDMDL
