MODEL 1
REMARK VINA RESULT:     -10.7      0.000      0.000
REMARK SMILES CCCCCCNC(=O)Oc1cccc(-c2ccc([C@@H](C)C(=O)NCCCCNC(=O)c3ccc(-c4c5nc(c(-c6c(F)cccc6F)c6ccc([nH]6)c(-c6c(F)cccc6F)c6nc(c(-c7c(F)cccc7F)c7ccc4[nH]7)C=C6)C=C5)cc3)cc2C(F)(F)F)c1
REMARK SMILES IDX 20 1 21 2 19 3 16 4 17 5 87 6 18 7 86 8 15 9 11 10 12 11
REMARK SMILES IDX 92 12 13 13 14 14 10 15 8 16 7 17 9 19 6 20 5 21 4 22 3 23
REMARK SMILES IDX 2 24 1 25 88 26 89 27 90 28 91 29 22 30 23 31 24 32 25 34
REMARK SMILES IDX 26 35 27 36 28 37 29 38 30 39 31 41 32 42 33 43 85 44 34 45
REMARK SMILES IDX 84 46 35 47 36 48 37 49 78 50 38 51 83 52 77 53 79 54 39 55
REMARK SMILES IDX 82 56 76 57 75 58 40 60 66 61 49 62 65 63 50 64 53 65 64 66
REMARK SMILES IDX 80 67 51 68 52 69 63 71 81 72 54 73 41 74 42 75 47 76 43 77
REMARK SMILES IDX 44 78 46 79 48 80 45 81 67 82 68 83 73 84 69 85 70 86 72 87
REMARK SMILES IDX 74 88 71 89 55 90 56 91 61 92 57 93 58 94 60 95 62 96 59 97
REMARK H PARENT 7 18 24 33 29 40 79 59 53 70
REMARK Flexibility Score: inf
ROOT
ATOM      1  C   UNL A   1      35.902  33.052  29.115  1.00  0.00     0.105 C 
ATOM      2  C   UNL A   1      37.289  33.384  28.569  1.00  0.00     0.023 C 
ENDROOT
BRANCH   1   3
ATOM      3  C   UNL A   1      35.239  31.825  28.507  1.00  0.00    -0.035 A 
ATOM      4  C   UNL A   1      34.029  29.608  27.149  1.00  0.00    -0.006 A 
ATOM      5  C   UNL A   1      35.237  29.488  27.863  1.00  0.00     0.009 A 
ATOM      6  C   UNL A   1      33.366  30.852  27.217  1.00  0.00     0.064 A 
ATOM      7  C   UNL A   1      35.793  30.552  28.575  1.00  0.00     0.005 A 
ATOM      8  C   UNL A   1      34.014  31.952  27.837  1.00  0.00     0.018 A 
BRANCH   4   9
ATOM      9  C   UNL A   1      33.547  28.430  26.390  1.00  0.00    -0.014 A 
ATOM     10  C   UNL A   1      32.159  26.446  26.172  1.00  0.00     0.133 A 
ATOM     11  C   UNL A   1      32.668  26.187  24.903  1.00  0.00     0.047 A 
ATOM     12  C   UNL A   1      32.566  27.565  26.904  1.00  0.00     0.056 A 
ATOM     13  C   UNL A   1      33.602  27.057  24.356  1.00  0.00     0.004 A 
ATOM     14  C   UNL A   1      34.047  28.156  25.099  1.00  0.00     0.009 A 
BRANCH  10  15
ATOM     15  O   UNL A   1      31.369  25.433  26.745  1.00  0.00    -0.410 OA
BRANCH  15  16
ATOM     16  C   UNL A   1      30.205  25.017  26.120  1.00  0.00     0.412 C 
ATOM     17  N   UNL A   1      30.099  23.654  26.055  1.00  0.00    -0.321 N 
ATOM     18  H   UNL A   1      29.319  23.294  25.574  1.00  0.00     0.167 HD
ATOM     19  O   UNL A   1      29.342  25.747  25.651  1.00  0.00    -0.224 OA
BRANCH  17  20
ATOM     20  C   UNL A   1      31.017  22.687  26.625  1.00  0.00     0.119 C 
BRANCH  20  21
ATOM     21  C   UNL A   1      32.225  22.439  25.721  1.00  0.00     0.021 C 
BRANCH  21  22
ATOM     22  C   UNL A   1      32.127  21.188  24.841  1.00  0.00     0.002 C 
BRANCH  22  23
ATOM     23  C   UNL A   1      32.414  21.404  23.351  1.00  0.00    -0.000 C 
BRANCH  23  24
ATOM     24  C   UNL A   1      32.564  22.864  22.917  1.00  0.00    -0.003 C 
ATOM     25  C   UNL A   1      34.009  23.275  22.676  1.00  0.00     0.004 C 
ENDBRANCH  23  24
ENDBRANCH  22  23
ENDBRANCH  21  22
ENDBRANCH  20  21
ENDBRANCH  17  20
ENDBRANCH  15  16
ENDBRANCH  10  15
ENDBRANCH   4   9
BRANCH   6  26
ATOM     26  C   UNL A   1      31.966  31.110  26.701  1.00  0.00     0.417 C 
ATOM     27  F   UNL A   1      31.037  30.364  27.376  1.00  0.00    -0.166 F 
ATOM     28  F   UNL A   1      31.580  32.405  26.870  1.00  0.00    -0.166 F 
ATOM     29  F   UNL A   1      31.749  30.820  25.391  1.00  0.00    -0.166 F 
ENDBRANCH   6  26
ENDBRANCH   1   3
BRANCH   1  30
ATOM     30  C   UNL A   1      34.970  34.268  29.256  1.00  0.00     0.227 C 
ATOM     31  O   UNL A   1      34.639  34.906  28.249  1.00  0.00    -0.274 OA
ATOM     32  N   UNL A   1      34.450  34.701  30.436  1.00  0.00    -0.356 N 
ATOM     33  H   UNL A   1      33.798  35.433  30.345  1.00  0.00     0.163 HD
BRANCH  32  34
ATOM     34  C   UNL A   1      34.680  34.281  31.802  1.00  0.00     0.116 C 
BRANCH  34  35
ATOM     35  C   UNL A   1      36.003  34.823  32.348  1.00  0.00     0.023 C 
BRANCH  35  36
ATOM     36  C   UNL A   1      36.808  33.836  33.187  1.00  0.00     0.023 C 
BRANCH  36  37
ATOM     37  C   UNL A   1      37.500  32.731  32.400  1.00  0.00     0.116 C 
BRANCH  37  38
ATOM     38  N   UNL A   1      36.731  31.498  32.298  1.00  0.00    -0.352 N 
ATOM     39  C   UNL A   1      37.140  30.283  31.794  1.00  0.00     0.251 C 
ATOM     40  H   UNL A   1      35.805  31.537  32.630  1.00  0.00     0.163 HD
ATOM     41  O   UNL A   1      36.359  29.343  31.706  1.00  0.00    -0.269 OA
BRANCH  39  42
ATOM     42  C   UNL A   1      38.528  30.151  31.308  1.00  0.00     0.039 A 
ATOM     43  C   UNL A   1      39.478  29.553  32.136  1.00  0.00     0.014 A 
ATOM     44  C   UNL A   1      38.856  30.531  30.004  1.00  0.00     0.014 A 
ATOM     45  C   UNL A   1      40.741  29.252  31.624  1.00  0.00     0.010 A 
ATOM     46  C   UNL A   1      40.084  30.156  29.472  1.00  0.00     0.010 A 
ATOM     47  C   UNL A   1      41.035  29.505  30.274  1.00  0.00    -0.014 A 
BRANCH  47  48
ATOM     48  C   UNL A   1      42.322  29.081  29.670  1.00  0.00     0.031 A 
ATOM     49  C   UNL A   1      42.450  27.717  29.054  1.00  0.00     0.074 A 
ATOM     50  C   UNL A   1      43.398  29.888  29.758  1.00  0.00     0.049 A 
ATOM     51  N   UNL A   1      43.509  27.129  28.560  1.00  0.00    -0.248 NA
ATOM     52  C   UNL A   1      41.233  26.890  29.020  1.00  0.00     0.031 C 
ATOM     53  C   UNL A   1      43.419  31.209  30.391  1.00  0.00     0.029 A 
ATOM     54  N   UNL A   1      44.688  29.708  29.327  1.00  0.00    -0.354 N 
ATOM     55  C   UNL A   1      43.091  25.861  28.178  1.00  0.00     0.074 A 
ATOM     56  C   UNL A   1      41.697  25.745  28.544  1.00  0.00     0.031 C 
ATOM     57  C   UNL A   1      44.654  31.727  30.289  1.00  0.00     0.029 A 
ATOM     58  C   UNL A   1      45.520  30.763  29.618  1.00  0.00     0.049 A 
ATOM     59  H   UNL A   1      44.991  28.899  28.854  1.00  0.00     0.167 HD
ATOM     60  C   UNL A   1      43.801  24.889  27.557  1.00  0.00     0.037 A 
ATOM     61  C   UNL A   1      46.834  30.930  29.376  1.00  0.00     0.037 A 
ATOM     62  C   UNL A   1      45.177  25.023  27.160  1.00  0.00     0.049 A 
ATOM     63  C   UNL A   1      47.594  29.844  28.666  1.00  0.00     0.074 A 
ATOM     64  C   UNL A   1      45.959  24.128  26.450  1.00  0.00     0.029 A 
ATOM     65  N   UNL A   1      45.975  26.121  27.440  1.00  0.00    -0.354 N 
ATOM     66  N   UNL A   1      47.165  28.682  28.236  1.00  0.00    -0.248 NA
ATOM     67  C   UNL A   1      49.018  30.094  28.405  1.00  0.00     0.031 C 
ATOM     68  C   UNL A   1      47.244  24.669  26.335  1.00  0.00     0.029 A 
ATOM     69  C   UNL A   1      47.249  25.918  26.936  1.00  0.00     0.049 A 
ATOM     70  H   UNL A   1      45.681  26.926  27.924  1.00  0.00     0.167 HD
ATOM     71  C   UNL A   1      48.258  28.073  27.634  1.00  0.00     0.074 A 
ATOM     72  C   UNL A   1      49.365  29.001  27.741  1.00  0.00     0.031 C 
ATOM     73  C   UNL A   1      48.337  26.855  27.046  1.00  0.00     0.037 A 
BRANCH  60  74
ATOM     74  C   UNL A   1      43.095  23.599  27.262  1.00  0.00     0.057 A 
ATOM     75  C   UNL A   1      42.568  23.318  25.994  1.00  0.00     0.134 A 
ATOM     76  C   UNL A   1      42.969  22.612  28.247  1.00  0.00     0.134 A 
ATOM     77  F   UNL A   1      42.645  24.228  25.010  1.00  0.00    -0.206 F 
ATOM     78  C   UNL A   1      41.919  22.114  25.723  1.00  0.00     0.040 A 
ATOM     79  C   UNL A   1      42.345  21.391  27.981  1.00  0.00     0.040 A 
ATOM     80  F   UNL A   1      43.454  22.813  29.481  1.00  0.00    -0.206 F 
ATOM     81  C   UNL A   1      41.813  21.142  26.717  1.00  0.00     0.006 A 
ENDBRANCH  60  74
BRANCH  61  82
ATOM     82  C   UNL A   1      47.513  32.185  29.787  1.00  0.00     0.057 A 
ATOM     83  C   UNL A   1      47.592  33.280  28.919  1.00  0.00     0.134 A 
ATOM     84  C   UNL A   1      48.104  32.317  31.049  1.00  0.00     0.134 A 
ATOM     85  F   UNL A   1      47.060  33.206  27.690  1.00  0.00    -0.206 F 
ATOM     86  C   UNL A   1      48.253  34.455  29.283  1.00  0.00     0.040 A 
ATOM     87  C   UNL A   1      48.748  33.495  31.435  1.00  0.00     0.040 A 
ATOM     88  F   UNL A   1      48.056  31.306  31.929  1.00  0.00    -0.206 F 
ATOM     89  C   UNL A   1      48.829  34.566  30.546  1.00  0.00     0.006 A 
ENDBRANCH  61  82
BRANCH  73  90
ATOM     90  C   UNL A   1      49.658  26.466  26.450  1.00  0.00     0.057 A 
ATOM     91  C   UNL A   1      50.061  26.925  25.190  1.00  0.00     0.134 A 
ATOM     92  C   UNL A   1      50.553  25.661  27.164  1.00  0.00     0.134 A 
ATOM     93  F   UNL A   1      49.243  27.689  24.450  1.00  0.00    -0.206 F 
ATOM     94  C   UNL A   1      51.301  26.579  24.652  1.00  0.00     0.040 A 
ATOM     95  C   UNL A   1      51.807  25.330  26.649  1.00  0.00     0.040 A 
ATOM     96  F   UNL A   1      50.230  25.197  28.381  1.00  0.00    -0.206 F 
ATOM     97  C   UNL A   1      52.182  25.786  25.387  1.00  0.00     0.006 A 
ENDBRANCH  73  90
ENDBRANCH  47  48
ENDBRANCH  39  42
ENDBRANCH  37  38
ENDBRANCH  36  37
ENDBRANCH  35  36
ENDBRANCH  34  35
ENDBRANCH  32  34
ENDBRANCH   1  30
TORSDOF 21
ENDMDL
MODEL 2
REMARK VINA RESULT:     -10.6      3.627      7.344
REMARK SMILES CCCCCCNC(=O)Oc1cccc(-c2ccc([C@@H](C)C(=O)NCCCCNC(=O)c3ccc(-c4c5nc(c(-c6c(F)cccc6F)c6ccc([nH]6)c(-c6c(F)cccc6F)c6nc(c(-c7c(F)cccc7F)c7ccc4[nH]7)C=C6)C=C5)cc3)cc2C(F)(F)F)c1
REMARK SMILES IDX 20 1 21 2 19 3 16 4 17 5 87 6 18 7 86 8 15 9 11 10 12 11
REMARK SMILES IDX 92 12 13 13 14 14 10 15 8 16 7 17 9 19 6 20 5 21 4 22 3 23
REMARK SMILES IDX 2 24 1 25 88 26 89 27 90 28 91 29 22 30 23 31 24 32 25 34
REMARK SMILES IDX 26 35 27 36 28 37 29 38 30 39 31 41 32 42 33 43 85 44 34 45
REMARK SMILES IDX 84 46 35 47 36 48 37 49 78 50 38 51 83 52 77 53 79 54 39 55
REMARK SMILES IDX 82 56 76 57 75 58 40 60 66 61 49 62 65 63 50 64 53 65 64 66
REMARK SMILES IDX 80 67 51 68 52 69 63 71 81 72 54 73 41 74 42 75 47 76 43 77
REMARK SMILES IDX 44 78 46 79 48 80 45 81 67 82 68 83 73 84 69 85 70 86 72 87
REMARK SMILES IDX 74 88 71 89 55 90 56 91 61 92 57 93 58 94 60 95 62 96 59 97
REMARK H PARENT 7 18 24 33 29 40 79 59 53 70
REMARK Flexibility Score: inf
ROOT
ATOM      1  C   UNL A   1      37.707  30.480  29.040  1.00  0.00     0.105 C 
ATOM      2  C   UNL A   1      38.442  31.810  29.197  1.00  0.00     0.023 C 
ENDROOT
BRANCH   1   3
ATOM      3  C   UNL A   1      38.599  29.263  28.842  1.00  0.00    -0.035 A 
ATOM      4  C   UNL A   1      40.458  27.098  28.552  1.00  0.00    -0.006 A 
ATOM      5  C   UNL A   1      39.405  27.069  29.487  1.00  0.00     0.009 A 
ATOM      6  C   UNL A   1      40.502  28.201  27.671  1.00  0.00     0.064 A 
ATOM      7  C   UNL A   1      38.464  28.096  29.585  1.00  0.00     0.005 A 
ATOM      8  C   UNL A   1      39.615  29.289  27.876  1.00  0.00     0.018 A 
BRANCH   4   9
ATOM      9  C   UNL A   1      41.429  25.979  28.559  1.00  0.00    -0.014 A 
ATOM     10  C   UNL A   1      42.103  23.727  27.941  1.00  0.00     0.133 A 
ATOM     11  C   UNL A   1      43.313  23.867  28.614  1.00  0.00     0.047 A 
ATOM     12  C   UNL A   1      41.177  24.773  27.884  1.00  0.00     0.056 A 
ATOM     13  C   UNL A   1      43.602  25.069  29.245  1.00  0.00     0.004 A 
ATOM     14  C   UNL A   1      42.663  26.105  29.231  1.00  0.00     0.009 A 
BRANCH  10  15
ATOM     15  O   UNL A   1      41.788  22.433  27.489  1.00  0.00    -0.410 OA
BRANCH  15  16
ATOM     16  C   UNL A   1      41.750  22.156  26.132  1.00  0.00     0.412 C 
ATOM     17  N   UNL A   1      40.485  21.895  25.681  1.00  0.00    -0.321 N 
ATOM     18  H   UNL A   1      40.397  21.637  24.736  1.00  0.00     0.167 HD
ATOM     19  O   UNL A   1      42.714  22.125  25.379  1.00  0.00    -0.224 OA
BRANCH  17  20
ATOM     20  C   UNL A   1      39.260  21.960  26.455  1.00  0.00     0.119 C 
BRANCH  20  21
ATOM     21  C   UNL A   1      38.178  22.781  25.752  1.00  0.00     0.021 C 
BRANCH  21  22
ATOM     22  C   UNL A   1      37.399  22.027  24.668  1.00  0.00     0.002 C 
BRANCH  22  23
ATOM     23  C   UNL A   1      36.426  22.876  23.843  1.00  0.00    -0.000 C 
BRANCH  23  24
ATOM     24  C   UNL A   1      34.946  22.519  24.002  1.00  0.00    -0.003 C 
ATOM     25  C   UNL A   1      34.708  21.354  24.951  1.00  0.00     0.004 C 
ENDBRANCH  23  24
ENDBRANCH  22  23
ENDBRANCH  21  22
ENDBRANCH  20  21
ENDBRANCH  17  20
ENDBRANCH  15  16
ENDBRANCH  10  15
ENDBRANCH   4   9
BRANCH   6  26
ATOM     26  C   UNL A   1      41.418  28.306  26.471  1.00  0.00     0.417 C 
ATOM     27  F   UNL A   1      41.342  27.190  25.682  1.00  0.00    -0.166 F 
ATOM     28  F   UNL A   1      41.089  29.347  25.656  1.00  0.00    -0.166 F 
ATOM     29  F   UNL A   1      42.743  28.443  26.740  1.00  0.00    -0.166 F 
ENDBRANCH   6  26
ENDBRANCH   1   3
BRANCH   1  30
ATOM     30  C   UNL A   1      36.496  30.535  28.093  1.00  0.00     0.227 C 
ATOM     31  O   UNL A   1      36.179  29.531  27.443  1.00  0.00    -0.274 OA
ATOM     32  N   UNL A   1      35.708  31.631  27.922  1.00  0.00    -0.356 N 
ATOM     33  H   UNL A   1      34.919  31.476  27.353  1.00  0.00     0.163 HD
BRANCH  32  34
ATOM     34  C   UNL A   1      35.818  32.985  28.423  1.00  0.00     0.116 C 
BRANCH  34  35
ATOM     35  C   UNL A   1      34.905  33.220  29.628  1.00  0.00     0.023 C 
BRANCH  35  36
ATOM     36  C   UNL A   1      35.603  33.758  30.873  1.00  0.00     0.023 C 
BRANCH  36  37
ATOM     37  C   UNL A   1      36.255  32.703  31.755  1.00  0.00     0.116 C 
BRANCH  37  38
ATOM     38  N   UNL A   1      36.090  32.933  33.185  1.00  0.00    -0.352 N 
ATOM     39  C   UNL A   1      36.911  32.522  34.210  1.00  0.00     0.251 C 
ATOM     40  H   UNL A   1      35.293  33.447  33.450  1.00  0.00     0.163 HD
ATOM     41  O   UNL A   1      36.611  32.729  35.380  1.00  0.00    -0.269 OA
BRANCH  39  42
ATOM     42  C   UNL A   1      38.140  31.774  33.875  1.00  0.00     0.039 A 
ATOM     43  C   UNL A   1      38.064  30.735  32.947  1.00  0.00     0.014 A 
ATOM     44  C   UNL A   1      39.370  32.168  34.406  1.00  0.00     0.014 A 
ATOM     45  C   UNL A   1      39.241  30.146  32.480  1.00  0.00     0.010 A 
ATOM     46  C   UNL A   1      40.542  31.637  33.881  1.00  0.00     0.010 A 
ATOM     47  C   UNL A   1      40.490  30.628  32.907  1.00  0.00    -0.014 A 
BRANCH  47  48
ATOM     48  C   UNL A   1      41.755  30.107  32.335  1.00  0.00     0.031 A 
ATOM     49  C   UNL A   1      42.400  30.810  31.173  1.00  0.00     0.074 A 
ATOM     50  C   UNL A   1      42.275  28.954  32.801  1.00  0.00     0.049 A 
ATOM     51  N   UNL A   1      43.452  30.463  30.478  1.00  0.00    -0.248 NA
ATOM     52  C   UNL A   1      41.756  32.050  30.711  1.00  0.00     0.031 C 
ATOM     53  C   UNL A   1      41.706  28.143  33.881  1.00  0.00     0.029 A 
ATOM     54  N   UNL A   1      43.389  28.255  32.415  1.00  0.00    -0.354 N 
ATOM     55  C   UNL A   1      43.582  31.426  29.486  1.00  0.00     0.074 A 
ATOM     56  C   UNL A   1      42.474  32.343  29.637  1.00  0.00     0.031 C 
ATOM     57  C   UNL A   1      42.486  27.069  34.082  1.00  0.00     0.029 A 
ATOM     58  C   UNL A   1      43.588  27.095  33.126  1.00  0.00     0.049 A 
ATOM     59  H   UNL A   1      43.991  28.554  31.695  1.00  0.00     0.167 HD
ATOM     60  C   UNL A   1      44.552  31.548  28.548  1.00  0.00     0.037 A 
ATOM     61  C   UNL A   1      44.546  26.156  33.013  1.00  0.00     0.037 A 
ATOM     62  C   UNL A   1      45.673  30.657  28.427  1.00  0.00     0.049 A 
ATOM     63  C   UNL A   1      45.623  26.326  31.977  1.00  0.00     0.074 A 
ATOM     64  C   UNL A   1      46.753  30.743  27.565  1.00  0.00     0.029 A 
ATOM     65  N   UNL A   1      45.859  29.513  29.189  1.00  0.00    -0.354 N 
ATOM     66  N   UNL A   1      45.780  27.287  31.099  1.00  0.00    -0.248 NA
ATOM     67  C   UNL A   1      46.657  25.284  31.919  1.00  0.00     0.031 C 
ATOM     68  C   UNL A   1      47.573  29.630  27.779  1.00  0.00     0.029 A 
ATOM     69  C   UNL A   1      47.025  28.873  28.803  1.00  0.00     0.049 A 
ATOM     70  H   UNL A   1      45.252  29.202  29.899  1.00  0.00     0.167 HD
ATOM     71  C   UNL A   1      46.940  26.979  30.402  1.00  0.00     0.074 A 
ATOM     72  C   UNL A   1      47.455  25.751  30.969  1.00  0.00     0.031 C 
ATOM     73  C   UNL A   1      47.525  27.653  29.383  1.00  0.00     0.037 A 
BRANCH  60  74
ATOM     74  C   UNL A   1      44.443  32.694  27.587  1.00  0.00     0.057 A 
ATOM     75  C   UNL A   1      44.887  33.981  27.919  1.00  0.00     0.134 A 
ATOM     76  C   UNL A   1      43.920  32.503  26.303  1.00  0.00     0.134 A 
ATOM     77  F   UNL A   1      45.387  34.234  29.138  1.00  0.00    -0.206 F 
ATOM     78  C   UNL A   1      44.790  35.042  27.018  1.00  0.00     0.040 A 
ATOM     79  C   UNL A   1      43.842  33.550  25.383  1.00  0.00     0.040 A 
ATOM     80  F   UNL A   1      43.480  31.295  25.918  1.00  0.00    -0.206 F 
ATOM     81  C   UNL A   1      44.273  34.826  25.742  1.00  0.00     0.006 A 
ENDBRANCH  60  74
BRANCH  61  82
ATOM     82  C   UNL A   1      44.547  24.981  33.919  1.00  0.00     0.057 A 
ATOM     83  C   UNL A   1      44.985  25.091  35.244  1.00  0.00     0.134 A 
ATOM     84  C   UNL A   1      44.120  23.721  33.484  1.00  0.00     0.134 A 
ATOM     85  F   UNL A   1      45.423  26.269  35.713  1.00  0.00    -0.206 F 
ATOM     86  C   UNL A   1      45.018  23.988  36.098  1.00  0.00     0.040 A 
ATOM     87  C   UNL A   1      44.125  22.613  34.334  1.00  0.00     0.040 A 
ATOM     88  F   UNL A   1      43.682  23.550  32.228  1.00  0.00    -0.206 F 
ATOM     89  C   UNL A   1      44.582  22.745  35.645  1.00  0.00     0.006 A 
ENDBRANCH  61  82
BRANCH  73  90
ATOM     90  C   UNL A   1      48.803  27.091  28.833  1.00  0.00     0.057 A 
ATOM     91  C   UNL A   1      50.051  27.460  29.348  1.00  0.00     0.134 A 
ATOM     92  C   UNL A   1      48.780  26.138  27.808  1.00  0.00     0.134 A 
ATOM     93  F   UNL A   1      50.142  28.379  30.322  1.00  0.00    -0.206 F 
ATOM     94  C   UNL A   1      51.235  26.914  28.849  1.00  0.00     0.040 A 
ATOM     95  C   UNL A   1      49.954  25.565  27.319  1.00  0.00     0.040 A 
ATOM     96  F   UNL A   1      47.614  25.736  27.279  1.00  0.00    -0.206 F 
ATOM     97  C   UNL A   1      51.186  25.957  27.836  1.00  0.00     0.006 A 
ENDBRANCH  73  90
ENDBRANCH  47  48
ENDBRANCH  39  42
ENDBRANCH  37  38
ENDBRANCH  36  37
ENDBRANCH  35  36
ENDBRANCH  34  35
ENDBRANCH  32  34
ENDBRANCH   1  30
TORSDOF 21
ENDMDL
MODEL 3
REMARK VINA RESULT:     -10.6      3.613      5.988
REMARK SMILES CCCCCCNC(=O)Oc1cccc(-c2ccc([C@@H](C)C(=O)NCCCCNC(=O)c3ccc(-c4c5nc(c(-c6c(F)cccc6F)c6ccc([nH]6)c(-c6c(F)cccc6F)c6nc(c(-c7c(F)cccc7F)c7ccc4[nH]7)C=C6)C=C5)cc3)cc2C(F)(F)F)c1
REMARK SMILES IDX 20 1 21 2 19 3 16 4 17 5 87 6 18 7 86 8 15 9 11 10 12 11
REMARK SMILES IDX 92 12 13 13 14 14 10 15 8 16 7 17 9 19 6 20 5 21 4 22 3 23
REMARK SMILES IDX 2 24 1 25 88 26 89 27 90 28 91 29 22 30 23 31 24 32 25 34
REMARK SMILES IDX 26 35 27 36 28 37 29 38 30 39 31 41 32 42 33 43 85 44 34 45
REMARK SMILES IDX 84 46 35 47 36 48 37 49 78 50 38 51 83 52 77 53 79 54 39 55
REMARK SMILES IDX 82 56 76 57 75 58 40 60 66 61 49 62 65 63 50 64 53 65 64 66
REMARK SMILES IDX 80 67 51 68 52 69 63 71 81 72 54 73 41 74 42 75 47 76 43 77
REMARK SMILES IDX 44 78 46 79 48 80 45 81 67 82 68 83 73 84 69 85 70 86 72 87
REMARK SMILES IDX 74 88 71 89 55 90 56 91 61 92 57 93 58 94 60 95 62 96 59 97
REMARK H PARENT 7 18 24 33 29 40 79 59 53 70
REMARK Flexibility Score: inf
ROOT
ATOM      1  C   UNL A   1      37.529  30.665  29.017  1.00  0.00     0.105 C 
ATOM      2  C   UNL A   1      38.316  31.959  29.214  1.00  0.00     0.023 C 
ENDROOT
BRANCH   1   3
ATOM      3  C   UNL A   1      38.372  29.410  28.840  1.00  0.00    -0.035 A 
ATOM      4  C   UNL A   1      40.145  27.169  28.590  1.00  0.00    -0.006 A 
ATOM      5  C   UNL A   1      39.081  27.191  29.513  1.00  0.00     0.009 A 
ATOM      6  C   UNL A   1      40.244  28.261  27.701  1.00  0.00     0.064 A 
ATOM      7  C   UNL A   1      38.181  28.256  29.591  1.00  0.00     0.005 A 
ATOM      8  C   UNL A   1      39.400  29.387  27.886  1.00  0.00     0.018 A 
BRANCH   4   9
ATOM      9  C   UNL A   1      41.069  26.012  28.619  1.00  0.00    -0.014 A 
ATOM     10  C   UNL A   1      41.623  23.701  28.101  1.00  0.00     0.133 A 
ATOM     11  C   UNL A   1      42.867  23.826  28.710  1.00  0.00     0.047 A 
ATOM     12  C   UNL A   1      40.737  24.781  28.026  1.00  0.00     0.056 A 
ATOM     13  C   UNL A   1      43.234  25.048  29.258  1.00  0.00     0.004 A 
ATOM     14  C   UNL A   1      42.338  26.122  29.226  1.00  0.00     0.009 A 
BRANCH  10  15
ATOM     15  O   UNL A   1      41.234  22.399  27.739  1.00  0.00    -0.410 OA
BRANCH  15  16
ATOM     16  C   UNL A   1      41.532  21.906  26.479  1.00  0.00     0.412 C 
ATOM     17  N   UNL A   1      40.412  21.662  25.730  1.00  0.00    -0.321 N 
ATOM     18  H   UNL A   1      40.553  21.259  24.843  1.00  0.00     0.167 HD
ATOM     19  O   UNL A   1      42.652  21.683  26.041  1.00  0.00    -0.224 OA
BRANCH  17  20
ATOM     20  C   UNL A   1      39.040  21.940  26.109  1.00  0.00     0.119 C 
BRANCH  20  21
ATOM     21  C   UNL A   1      38.047  21.036  25.378  1.00  0.00     0.021 C 
BRANCH  21  22
ATOM     22  C   UNL A   1      37.055  21.769  24.468  1.00  0.00     0.002 C 
BRANCH  22  23
ATOM     23  C   UNL A   1      35.929  22.519  25.187  1.00  0.00    -0.000 C 
BRANCH  23  24
ATOM     24  C   UNL A   1      36.129  24.030  25.324  1.00  0.00    -0.003 C 
ATOM     25  C   UNL A   1      34.823  24.803  25.427  1.00  0.00     0.004 C 
ENDBRANCH  23  24
ENDBRANCH  22  23
ENDBRANCH  21  22
ENDBRANCH  20  21
ENDBRANCH  17  20
ENDBRANCH  15  16
ENDBRANCH  10  15
ENDBRANCH   4   9
BRANCH   6  26
ATOM     26  C   UNL A   1      41.178  28.319  26.511  1.00  0.00     0.417 C 
ATOM     27  F   UNL A   1      41.096  27.181  25.753  1.00  0.00    -0.166 F 
ATOM     28  F   UNL A   1      40.875  29.340  25.662  1.00  0.00    -0.166 F 
ATOM     29  F   UNL A   1      42.501  28.444  26.794  1.00  0.00    -0.166 F 
ENDBRANCH   6  26
ENDBRANCH   1   3
BRANCH   1  30
ATOM     30  C   UNL A   1      36.357  30.781  28.028  1.00  0.00     0.227 C 
ATOM     31  O   UNL A   1      36.092  29.834  27.277  1.00  0.00    -0.274 OA
ATOM     32  N   UNL A   1      35.551  31.872  27.922  1.00  0.00    -0.356 N 
ATOM     33  H   UNL A   1      34.789  31.753  27.308  1.00  0.00     0.163 HD
BRANCH  32  34
ATOM     34  C   UNL A   1      35.608  33.176  28.547  1.00  0.00     0.116 C 
BRANCH  34  35
ATOM     35  C   UNL A   1      34.734  33.244  29.802  1.00  0.00     0.023 C 
BRANCH  35  36
ATOM     36  C   UNL A   1      35.467  33.641  31.079  1.00  0.00     0.023 C 
BRANCH  36  37
ATOM     37  C   UNL A   1      35.901  32.481  31.964  1.00  0.00     0.116 C 
BRANCH  37  38
ATOM     38  N   UNL A   1      35.905  32.784  33.389  1.00  0.00    -0.352 N 
ATOM     39  C   UNL A   1      36.855  32.446  34.325  1.00  0.00     0.251 C 
ATOM     40  H   UNL A   1      35.132  33.295  33.724  1.00  0.00     0.163 HD
ATOM     41  O   UNL A   1      36.693  32.709  35.511  1.00  0.00    -0.269 OA
BRANCH  39  42
ATOM     42  C   UNL A   1      38.054  31.707  33.880  1.00  0.00     0.039 A 
ATOM     43  C   UNL A   1      37.897  30.633  33.004  1.00  0.00     0.014 A 
ATOM     44  C   UNL A   1      39.328  32.141  34.256  1.00  0.00     0.014 A 
ATOM     45  C   UNL A   1      39.027  30.047  32.429  1.00  0.00     0.010 A 
ATOM     46  C   UNL A   1      40.445  31.612  33.620  1.00  0.00     0.010 A 
ATOM     47  C   UNL A   1      40.305  30.566  32.695  1.00  0.00    -0.014 A 
BRANCH  47  48
ATOM     48  C   UNL A   1      41.509  30.046  32.002  1.00  0.00     0.031 A 
ATOM     49  C   UNL A   1      42.179  28.795  32.496  1.00  0.00     0.074 A 
ATOM     50  C   UNL A   1      42.051  30.749  30.988  1.00  0.00     0.049 A 
ATOM     51  N   UNL A   1      43.287  28.234  32.086  1.00  0.00    -0.248 NA
ATOM     52  C   UNL A   1      41.535  28.101  33.623  1.00  0.00     0.031 C 
ATOM     53  C   UNL A   1      41.532  32.013  30.459  1.00  0.00     0.029 A 
ATOM     54  N   UNL A   1      43.168  30.508  30.229  1.00  0.00    -0.354 N 
ATOM     55  C   UNL A   1      43.484  27.139  32.916  1.00  0.00     0.074 A 
ATOM     56  C   UNL A   1      42.411  27.142  33.885  1.00  0.00     0.031 C 
ATOM     57  C   UNL A   1      42.318  32.425  29.451  1.00  0.00     0.029 A 
ATOM     58  C   UNL A   1      43.415  31.476  29.285  1.00  0.00     0.049 A 
ATOM     59  H   UNL A   1      43.741  29.716  30.350  1.00  0.00     0.167 HD
ATOM     60  C   UNL A   1      44.459  26.201  32.861  1.00  0.00     0.037 A 
ATOM     61  C   UNL A   1      44.415  31.588  28.391  1.00  0.00     0.037 A 
ATOM     62  C   UNL A   1      45.502  26.179  31.871  1.00  0.00     0.049 A 
ATOM     63  C   UNL A   1      45.474  30.522  28.337  1.00  0.00     0.074 A 
ATOM     64  C   UNL A   1      46.487  25.225  31.679  1.00  0.00     0.029 A 
ATOM     65  N   UNL A   1      45.698  27.157  30.908  1.00  0.00    -0.354 N 
ATOM     66  N   UNL A   1      45.601  29.446  29.075  1.00  0.00    -0.248 NA
ATOM     67  C   UNL A   1      46.526  30.684  27.324  1.00  0.00     0.031 C 
ATOM     68  C   UNL A   1      47.302  25.646  30.623  1.00  0.00     0.029 A 
ATOM     69  C   UNL A   1      46.800  26.841  30.132  1.00  0.00     0.049 A 
ATOM     70  H   UNL A   1      45.135  27.958  30.794  1.00  0.00     0.167 HD
ATOM     71  C   UNL A   1      46.730  28.791  28.601  1.00  0.00     0.074 A 
ATOM     72  C   UNL A   1      47.243  29.583  27.503  1.00  0.00     0.031 C 
ATOM     73  C   UNL A   1      47.292  27.639  29.038  1.00  0.00     0.037 A 
BRANCH  60  74
ATOM     74  C   UNL A   1      44.435  25.116  33.896  1.00  0.00     0.057 A 
ATOM     75  C   UNL A   1      43.945  23.834  33.613  1.00  0.00     0.134 A 
ATOM     76  C   UNL A   1      44.937  25.345  35.183  1.00  0.00     0.134 A 
ATOM     77  F   UNL A   1      43.438  23.554  32.402  1.00  0.00    -0.206 F 
ATOM     78  C   UNL A   1      43.931  22.827  34.578  1.00  0.00     0.040 A 
ATOM     79  C   UNL A   1      44.953  24.338  36.150  1.00  0.00     0.040 A 
ATOM     80  F   UNL A   1      45.425  26.548  35.521  1.00  0.00    -0.206 F 
ATOM     81  C   UNL A   1      44.444  23.076  35.849  1.00  0.00     0.006 A 
ENDBRANCH  60  74
BRANCH  61  82
ATOM     82  C   UNL A   1      44.454  32.742  27.458  1.00  0.00     0.057 A 
ATOM     83  C   UNL A   1      44.975  33.977  27.859  1.00  0.00     0.134 A 
ATOM     84  C   UNL A   1      43.966  32.641  26.150  1.00  0.00     0.134 A 
ATOM     85  F   UNL A   1      45.440  34.140  29.107  1.00  0.00    -0.206 F 
ATOM     86  C   UNL A   1      44.991  35.078  27.000  1.00  0.00     0.040 A 
ATOM     87  C   UNL A   1      43.998  33.728  25.272  1.00  0.00     0.040 A 
ATOM     88  F   UNL A   1      43.461  31.483  25.702  1.00  0.00    -0.206 F 
ATOM     89  C   UNL A   1      44.505  34.953  25.701  1.00  0.00     0.006 A 
ENDBRANCH  61  82
BRANCH  73  90
ATOM     90  C   UNL A   1      48.509  27.150  28.310  1.00  0.00     0.057 A 
ATOM     91  C   UNL A   1      49.802  27.497  28.721  1.00  0.00     0.134 A 
ATOM     92  C   UNL A   1      48.386  26.289  27.214  1.00  0.00     0.134 A 
ATOM     93  F   UNL A   1      49.987  28.330  29.757  1.00  0.00    -0.206 F 
ATOM     94  C   UNL A   1      50.930  27.018  28.054  1.00  0.00     0.040 A 
ATOM     95  C   UNL A   1      49.507  25.782  26.554  1.00  0.00     0.040 A 
ATOM     96  F   UNL A   1      47.175  25.912  26.776  1.00  0.00    -0.206 F 
ATOM     97  C   UNL A   1      50.784  26.151  26.972  1.00  0.00     0.006 A 
ENDBRANCH  73  90
ENDBRANCH  47  48
ENDBRANCH  39  42
ENDBRANCH  37  38
ENDBRANCH  36  37
ENDBRANCH  35  36
ENDBRANCH  34  35
ENDBRANCH  32  34
ENDBRANCH   1  30
TORSDOF 21
ENDMDL
