MODEL 1
REMARK VINA RESULT:     -11.1      0.000      0.000
REMARK SMILES C[C@@H](C(=O)NCCCCNC(=O)c1ccc(-c2c3nc(c(-c4c(F)cccc4F)c4ccc([nH]4)c(-c4c(F)cccc4F)c4nc(c(-c5c(F)cccc5F)c5ccc2[nH]5)C=C4)C=C3)cc1)c1ccc(Cc2ccsc2)cc1F
REMARK SMILES IDX 7 1 6 2 5 3 3 4 4 5 2 7 1 8 67 9 68 10 78 11 69 12 77 13
REMARK SMILES IDX 79 14 70 15 71 16 72 17 73 18 76 19 74 20 75 21 8 22 9 23
REMARK SMILES IDX 10 24 11 25 12 27 13 28 14 29 66 30 15 31 65 32 16 33 17 34
REMARK SMILES IDX 18 35 59 36 19 37 64 38 58 39 60 40 20 41 63 42 57 43 56 44
REMARK SMILES IDX 21 46 47 47 30 48 46 49 31 50 34 51 45 52 61 53 32 54 33 55
REMARK SMILES IDX 44 57 62 58 35 59 22 60 23 61 28 62 24 63 25 64 27 65 29 66
REMARK SMILES IDX 26 67 48 68 49 69 54 70 50 71 51 72 53 73 55 74 52 75 36 76
REMARK SMILES IDX 37 77 42 78 38 79 39 80 41 81 43 82 40 83
REMARK H PARENT 5 6 10 26 60 45 34 56
REMARK Flexibility Score: inf
ROOT
ATOM      1  C   UNL A   1      36.276  19.437  25.008  1.00  0.00     0.023 C 
ENDROOT
BRANCH   1   2
ATOM      2  C   UNL A   1      34.957  20.192  24.823  1.00  0.00     0.116 C 
BRANCH   2   3
ATOM      3  N   UNL A   1      34.605  20.935  26.014  1.00  0.00    -0.356 N 
ATOM      4  C   UNL A   1      34.893  22.214  26.394  1.00  0.00     0.227 C 
ATOM      5  O   UNL A   1      34.492  22.522  27.518  1.00  0.00    -0.274 OA
ATOM      6  H   UNL A   1      34.064  20.431  26.663  1.00  0.00     0.163 HD
BRANCH   4   7
ATOM      7  C   UNL A   1      35.634  23.169  25.437  1.00  0.00     0.108 C 
ATOM      8  C   UNL A   1      36.820  23.861  26.118  1.00  0.00     0.023 C 
BRANCH   7   9
ATOM      9  C   UNL A   1      34.788  24.253  24.767  1.00  0.00    -0.000 A 
ATOM     10  C   UNL A   1      34.459  25.469  25.379  1.00  0.00     0.008 A 
ATOM     11  C   UNL A   1      34.413  24.092  23.425  1.00  0.00     0.127 A 
ATOM     12  C   UNL A   1      33.766  26.465  24.684  1.00  0.00     0.004 A 
ATOM     13  C   UNL A   1      33.727  25.084  22.720  1.00  0.00     0.043 A 
ATOM     14  F   UNL A   1      34.768  22.975  22.771  1.00  0.00    -0.207 F 
ATOM     15  C   UNL A   1      33.390  26.290  23.345  1.00  0.00    -0.041 A 
BRANCH  15  16
ATOM     16  C   UNL A   1      32.714  27.406  22.589  1.00  0.00     0.072 C 
BRANCH  16  17
ATOM     17  C   UNL A   1      31.245  27.376  22.905  1.00  0.00    -0.033 A 
ATOM     18  C   UNL A   1      30.561  26.348  23.644  1.00  0.00     0.015 A 
ATOM     19  C   UNL A   1      30.365  28.399  22.594  1.00  0.00     0.068 A 
ATOM     20  C   UNL A   1      29.224  26.617  23.833  1.00  0.00     0.065 A 
ATOM     21  S   UNL A   1      28.774  28.114  23.151  1.00  0.00    -0.152 S 
ENDBRANCH  16  17
ENDBRANCH  15  16
ENDBRANCH   7   9
ENDBRANCH   4   7
ENDBRANCH   2   3
ENDBRANCH   1   2
BRANCH   1  22
ATOM     22  C   UNL A   1      37.530  20.210  24.593  1.00  0.00     0.023 C 
BRANCH  22  23
ATOM     23  C   UNL A   1      38.547  20.443  25.703  1.00  0.00     0.116 C 
BRANCH  23  24
ATOM     24  N   UNL A   1      39.612  19.454  25.704  1.00  0.00    -0.352 N 
ATOM     25  C   UNL A   1      40.937  19.606  26.030  1.00  0.00     0.251 C 
ATOM     26  H   UNL A   1      39.345  18.546  25.434  1.00  0.00     0.163 HD
ATOM     27  O   UNL A   1      41.730  18.690  25.829  1.00  0.00    -0.269 OA
BRANCH  25  28
ATOM     28  C   UNL A   1      41.414  20.886  26.592  1.00  0.00     0.039 A 
ATOM     29  C   UNL A   1      41.953  21.842  25.728  1.00  0.00     0.014 A 
ATOM     30  C   UNL A   1      41.319  21.150  27.961  1.00  0.00     0.014 A 
ATOM     31  C   UNL A   1      42.336  23.088  26.227  1.00  0.00     0.010 A 
ATOM     32  C   UNL A   1      41.627  22.418  28.445  1.00  0.00     0.010 A 
ATOM     33  C   UNL A   1      42.140  23.399  27.583  1.00  0.00    -0.014 A 
BRANCH  33  34
ATOM     34  C   UNL A   1      42.461  24.749  28.113  1.00  0.00     0.031 A 
ATOM     35  C   UNL A   1      43.859  25.077  28.555  1.00  0.00     0.074 A 
ATOM     36  C   UNL A   1      41.478  25.660  28.252  1.00  0.00     0.049 A 
ATOM     37  N   UNL A   1      44.320  26.177  29.094  1.00  0.00    -0.248 NA
ATOM     38  C   UNL A   1      44.870  24.019  28.396  1.00  0.00     0.031 C 
ATOM     39  C   UNL A   1      40.072  25.449  27.904  1.00  0.00     0.029 A 
ATOM     40  N   UNL A   1      41.511  26.946  28.732  1.00  0.00    -0.354 N 
ATOM     41  C   UNL A   1      45.665  25.941  29.345  1.00  0.00     0.074 A 
ATOM     42  C   UNL A   1      45.934  24.575  28.956  1.00  0.00     0.031 C 
ATOM     43  C   UNL A   1      39.382  26.572  28.158  1.00  0.00     0.029 A 
ATOM     44  C   UNL A   1      40.287  27.569  28.724  1.00  0.00     0.049 A 
ATOM     45  H   UNL A   1      42.334  27.380  29.051  1.00  0.00     0.167 HD
ATOM     46  C   UNL A   1      46.598  26.793  29.834  1.00  0.00     0.037 A 
ATOM     47  C   UNL A   1      39.929  28.800  29.134  1.00  0.00     0.037 A 
ATOM     48  C   UNL A   1      46.330  28.158  30.207  1.00  0.00     0.049 A 
ATOM     49  C   UNL A   1      40.979  29.720  29.694  1.00  0.00     0.074 A 
ATOM     50  C   UNL A   1      47.219  29.118  30.657  1.00  0.00     0.029 A 
ATOM     51  N   UNL A   1      45.078  28.754  30.180  1.00  0.00    -0.354 N 
ATOM     52  N   UNL A   1      42.263  29.508  29.857  1.00  0.00    -0.248 NA
ATOM     53  C   UNL A   1      40.532  31.053  30.122  1.00  0.00     0.031 C 
ATOM     54  C   UNL A   1      46.496  30.278  30.954  1.00  0.00     0.029 A 
ATOM     55  C   UNL A   1      45.165  30.060  30.633  1.00  0.00     0.049 A 
ATOM     56  H   UNL A   1      44.249  28.313  29.882  1.00  0.00     0.167 HD
ATOM     57  C   UNL A   1      42.780  30.687  30.379  1.00  0.00     0.074 A 
ATOM     58  C   UNL A   1      41.675  31.615  30.489  1.00  0.00     0.031 C 
ATOM     59  C   UNL A   1      44.057  30.974  30.735  1.00  0.00     0.037 A 
BRANCH  46  60
ATOM     60  C   UNL A   1      47.997  26.270  29.996  1.00  0.00     0.057 A 
ATOM     61  C   UNL A   1      48.450  25.731  31.209  1.00  0.00     0.134 A 
ATOM     62  C   UNL A   1      48.892  26.275  28.920  1.00  0.00     0.134 A 
ATOM     63  F   UNL A   1      47.647  25.705  32.284  1.00  0.00    -0.206 F 
ATOM     64  C   UNL A   1      49.751  25.246  31.353  1.00  0.00     0.040 A 
ATOM     65  C   UNL A   1      50.186  25.765  29.042  1.00  0.00     0.040 A 
ATOM     66  F   UNL A   1      48.524  26.768  27.727  1.00  0.00    -0.206 F 
ATOM     67  C   UNL A   1      50.622  25.255  30.264  1.00  0.00     0.006 A 
ENDBRANCH  46  60
BRANCH  47  68
ATOM     68  C   UNL A   1      38.517  29.244  29.017  1.00  0.00     0.057 A 
ATOM     69  C   UNL A   1      37.651  29.199  30.116  1.00  0.00     0.134 A 
ATOM     70  C   UNL A   1      37.995  29.715  27.805  1.00  0.00     0.134 A 
ATOM     71  F   UNL A   1      38.087  28.739  31.298  1.00  0.00    -0.206 F 
ATOM     72  C   UNL A   1      36.315  29.584  30.012  1.00  0.00     0.040 A 
ATOM     73  C   UNL A   1      36.667  30.130  27.693  1.00  0.00     0.040 A 
ATOM     74  F   UNL A   1      38.774  29.792  26.717  1.00  0.00    -0.206 F 
ATOM     75  C   UNL A   1      35.820  30.057  28.797  1.00  0.00     0.006 A 
ENDBRANCH  47  68
BRANCH  59  76
ATOM     76  C   UNL A   1      44.333  32.359  31.246  1.00  0.00     0.057 A 
ATOM     77  C   UNL A   1      44.649  33.418  30.384  1.00  0.00     0.134 A 
ATOM     78  C   UNL A   1      44.245  32.644  32.614  1.00  0.00     0.134 A 
ATOM     79  F   UNL A   1      44.763  33.211  29.064  1.00  0.00    -0.206 F 
ATOM     80  C   UNL A   1      44.891  34.705  30.869  1.00  0.00     0.040 A 
ATOM     81  C   UNL A   1      44.455  33.933  33.107  1.00  0.00     0.040 A 
ATOM     82  F   UNL A   1      43.938  31.679  33.493  1.00  0.00    -0.206 F 
ATOM     83  C   UNL A   1      44.786  34.966  32.234  1.00  0.00     0.006 A 
ENDBRANCH  59  76
ENDBRANCH  33  34
ENDBRANCH  25  28
ENDBRANCH  23  24
ENDBRANCH  22  23
ENDBRANCH   1  22
TORSDOF 14
ENDMDL
MODEL 2
REMARK VINA RESULT:     -11.1      1.299      2.094
REMARK SMILES C[C@@H](C(=O)NCCCCNC(=O)c1ccc(-c2c3nc(c(-c4c(F)cccc4F)c4ccc([nH]4)c(-c4c(F)cccc4F)c4nc(c(-c5c(F)cccc5F)c5ccc2[nH]5)C=C4)C=C3)cc1)c1ccc(Cc2ccsc2)cc1F
REMARK SMILES IDX 7 1 6 2 5 3 3 4 4 5 2 7 1 8 67 9 68 10 78 11 69 12 77 13
REMARK SMILES IDX 79 14 70 15 71 16 72 17 73 18 76 19 74 20 75 21 8 22 9 23
REMARK SMILES IDX 10 24 11 25 12 27 13 28 14 29 66 30 15 31 65 32 16 33 17 34
REMARK SMILES IDX 18 35 59 36 19 37 64 38 58 39 60 40 20 41 63 42 57 43 56 44
REMARK SMILES IDX 21 46 47 47 30 48 46 49 31 50 34 51 45 52 61 53 32 54 33 55
REMARK SMILES IDX 44 57 62 58 35 59 22 60 23 61 28 62 24 63 25 64 27 65 29 66
REMARK SMILES IDX 26 67 48 68 49 69 54 70 50 71 51 72 53 73 55 74 52 75 36 76
REMARK SMILES IDX 37 77 42 78 38 79 39 80 41 81 43 82 40 83
REMARK H PARENT 5 6 10 26 60 45 34 56
REMARK Flexibility Score: inf
ROOT
ATOM      1  C   UNL A   1      38.945  22.559  26.172  1.00  0.00     0.023 C 
ENDROOT
BRANCH   1   2
ATOM      2  C   UNL A   1      37.721  23.415  25.835  1.00  0.00     0.116 C 
BRANCH   2   3
ATOM      3  N   UNL A   1      37.418  23.363  24.420  1.00  0.00    -0.356 N 
ATOM      4  C   UNL A   1      36.247  23.129  23.759  1.00  0.00     0.227 C 
ATOM      5  O   UNL A   1      36.346  23.088  22.532  1.00  0.00    -0.274 OA
ATOM      6  H   UNL A   1      38.191  23.525  23.833  1.00  0.00     0.163 HD
BRANCH   4   7
ATOM      7  C   UNL A   1      34.925  22.970  24.537  1.00  0.00     0.108 C 
ATOM      8  C   UNL A   1      33.913  22.104  23.780  1.00  0.00     0.023 C 
BRANCH   7   9
ATOM      9  C   UNL A   1      34.216  24.262  24.944  1.00  0.00    -0.000 A 
ATOM     10  C   UNL A   1      34.283  25.450  24.205  1.00  0.00     0.008 A 
ATOM     11  C   UNL A   1      33.350  24.246  26.047  1.00  0.00     0.127 A 
ATOM     12  C   UNL A   1      33.536  26.574  24.570  1.00  0.00     0.004 A 
ATOM     13  C   UNL A   1      32.594  25.361  26.416  1.00  0.00     0.043 A 
ATOM     14  F   UNL A   1      33.194  23.111  26.746  1.00  0.00    -0.207 F 
ATOM     15  C   UNL A   1      32.680  26.548  25.679  1.00  0.00    -0.041 A 
BRANCH  15  16
ATOM     16  C   UNL A   1      31.821  27.743  26.010  1.00  0.00     0.072 C 
BRANCH  16  17
ATOM     17  C   UNL A   1      31.002  28.092  24.799  1.00  0.00    -0.033 A 
ATOM     18  C   UNL A   1      30.085  27.217  24.118  1.00  0.00     0.015 A 
ATOM     19  C   UNL A   1      30.960  29.354  24.230  1.00  0.00     0.068 A 
ATOM     20  C   UNL A   1      29.426  27.829  23.076  1.00  0.00     0.065 A 
ATOM     21  S   UNL A   1      29.876  29.466  22.912  1.00  0.00    -0.152 S 
ENDBRANCH  16  17
ENDBRANCH  15  16
ENDBRANCH   7   9
ENDBRANCH   4   7
ENDBRANCH   2   3
ENDBRANCH   1   2
BRANCH   1  22
ATOM     22  C   UNL A   1      38.988  21.190  25.490  1.00  0.00     0.023 C 
BRANCH  22  23
ATOM     23  C   UNL A   1      39.403  20.030  26.386  1.00  0.00     0.116 C 
BRANCH  23  24
ATOM     24  N   UNL A   1      40.572  19.326  25.885  1.00  0.00    -0.352 N 
ATOM     25  C   UNL A   1      41.874  19.756  25.802  1.00  0.00     0.251 C 
ATOM     26  H   UNL A   1      40.408  18.412  25.560  1.00  0.00     0.163 HD
ATOM     27  O   UNL A   1      42.709  19.078  25.210  1.00  0.00    -0.269 OA
BRANCH  25  28
ATOM     28  C   UNL A   1      42.260  21.052  26.397  1.00  0.00     0.039 A 
ATOM     29  C   UNL A   1      42.650  22.092  25.551  1.00  0.00     0.014 A 
ATOM     30  C   UNL A   1      42.225  21.246  27.781  1.00  0.00     0.014 A 
ATOM     31  C   UNL A   1      42.942  23.347  26.087  1.00  0.00     0.010 A 
ATOM     32  C   UNL A   1      42.440  22.516  28.307  1.00  0.00     0.010 A 
ATOM     33  C   UNL A   1      42.803  23.579  27.465  1.00  0.00    -0.014 A 
BRANCH  33  34
ATOM     34  C   UNL A   1      43.026  24.930  28.041  1.00  0.00     0.031 A 
ATOM     35  C   UNL A   1      44.395  25.340  28.505  1.00  0.00     0.074 A 
ATOM     36  C   UNL A   1      41.980  25.765  28.202  1.00  0.00     0.049 A 
ATOM     37  N   UNL A   1      44.774  26.452  29.083  1.00  0.00    -0.248 NA
ATOM     38  C   UNL A   1      45.478  24.361  28.319  1.00  0.00     0.031 C 
ATOM     39  C   UNL A   1      40.594  25.468  27.836  1.00  0.00     0.029 A 
ATOM     40  N   UNL A   1      41.920  27.034  28.723  1.00  0.00    -0.354 N 
ATOM     41  C   UNL A   1      46.131  26.302  29.337  1.00  0.00     0.074 A 
ATOM     42  C   UNL A   1      46.497  24.971  28.906  1.00  0.00     0.031 C 
ATOM     43  C   UNL A   1      39.826  26.532  28.120  1.00  0.00     0.029 A 
ATOM     44  C   UNL A   1      40.656  27.570  28.725  1.00  0.00     0.049 A 
ATOM     45  H   UNL A   1      42.709  27.514  29.063  1.00  0.00     0.167 HD
ATOM     46  C   UNL A   1      47.000  27.201  29.860  1.00  0.00     0.037 A 
ATOM     47  C   UNL A   1      40.211  28.759  29.172  1.00  0.00     0.037 A 
ATOM     48  C   UNL A   1      46.634  28.531  30.274  1.00  0.00     0.049 A 
ATOM     49  C   UNL A   1      41.190  29.731  29.770  1.00  0.00     0.074 A 
ATOM     50  C   UNL A   1      47.451  29.535  30.762  1.00  0.00     0.029 A 
ATOM     51  N   UNL A   1      45.344  29.038  30.256  1.00  0.00    -0.354 N 
ATOM     52  N   UNL A   1      42.485  29.604  29.936  1.00  0.00    -0.248 NA
ATOM     53  C   UNL A   1      40.649  31.015  30.236  1.00  0.00     0.031 C 
ATOM     54  C   UNL A   1      46.647  30.631  31.091  1.00  0.00     0.029 A 
ATOM     55  C   UNL A   1      45.337  30.331  30.752  1.00  0.00     0.049 A 
ATOM     56  H   UNL A   1      44.549  28.551  29.938  1.00  0.00     0.167 HD
ATOM     57  C   UNL A   1      42.916  30.798  30.500  1.00  0.00     0.074 A 
ATOM     58  C   UNL A   1      41.747  31.643  30.630  1.00  0.00     0.031 C 
ATOM     59  C   UNL A   1      44.167  31.162  30.874  1.00  0.00     0.037 A 
BRANCH  46  60
ATOM     60  C   UNL A   1      48.431  26.771  30.016  1.00  0.00     0.057 A 
ATOM     61  C   UNL A   1      49.393  27.031  29.029  1.00  0.00     0.134 A 
ATOM     62  C   UNL A   1      48.859  26.118  31.177  1.00  0.00     0.134 A 
ATOM     63  F   UNL A   1      49.047  27.643  27.886  1.00  0.00    -0.206 F 
ATOM     64  C   UNL A   1      50.722  26.629  29.180  1.00  0.00     0.040 A 
ATOM     65  C   UNL A   1      50.192  25.739  31.353  1.00  0.00     0.040 A 
ATOM     66  F   UNL A   1      47.995  25.845  32.166  1.00  0.00    -0.206 F 
ATOM     67  C   UNL A   1      51.126  25.987  30.349  1.00  0.00     0.006 A 
ENDBRANCH  46  60
BRANCH  47  68
ATOM     68  C   UNL A   1      38.772  29.107  29.058  1.00  0.00     0.057 A 
ATOM     69  C   UNL A   1      38.228  29.548  27.845  1.00  0.00     0.134 A 
ATOM     70  C   UNL A   1      37.907  29.018  30.156  1.00  0.00     0.134 A 
ATOM     71  F   UNL A   1      39.009  29.673  26.762  1.00  0.00    -0.206 F 
ATOM     72  C   UNL A   1      36.885  29.907  27.732  1.00  0.00     0.040 A 
ATOM     73  C   UNL A   1      36.555  29.347  30.051  1.00  0.00     0.040 A 
ATOM     74  F   UNL A   1      38.362  28.595  31.344  1.00  0.00    -0.206 F 
ATOM     75  C   UNL A   1      36.042  29.802  28.837  1.00  0.00     0.006 A 
ENDBRANCH  47  68
BRANCH  59  76
ATOM     76  C   UNL A   1      44.343  32.546  31.432  1.00  0.00     0.057 A 
ATOM     77  C   UNL A   1      44.604  33.650  30.608  1.00  0.00     0.134 A 
ATOM     78  C   UNL A   1      44.212  32.782  32.806  1.00  0.00     0.134 A 
ATOM     79  F   UNL A   1      44.753  33.491  29.285  1.00  0.00    -0.206 F 
ATOM     80  C   UNL A   1      44.752  34.933  31.137  1.00  0.00     0.040 A 
ATOM     81  C   UNL A   1      44.329  34.066  33.341  1.00  0.00     0.040 A 
ATOM     82  F   UNL A   1      43.954  31.772  33.650  1.00  0.00    -0.206 F 
ATOM     83  C   UNL A   1      44.606  35.145  32.506  1.00  0.00     0.006 A 
ENDBRANCH  59  76
ENDBRANCH  33  34
ENDBRANCH  25  28
ENDBRANCH  23  24
ENDBRANCH  22  23
ENDBRANCH   1  22
TORSDOF 14
ENDMDL
MODEL 3
REMARK VINA RESULT:     -11.0      0.358      6.385
REMARK SMILES C[C@@H](C(=O)NCCCCNC(=O)c1ccc(-c2c3nc(c(-c4c(F)cccc4F)c4ccc([nH]4)c(-c4c(F)cccc4F)c4nc(c(-c5c(F)cccc5F)c5ccc2[nH]5)C=C4)C=C3)cc1)c1ccc(Cc2ccsc2)cc1F
REMARK SMILES IDX 7 1 6 2 5 3 3 4 4 5 2 7 1 8 67 9 68 10 78 11 69 12 77 13
REMARK SMILES IDX 79 14 70 15 71 16 72 17 73 18 76 19 74 20 75 21 8 22 9 23
REMARK SMILES IDX 10 24 11 25 12 27 13 28 14 29 66 30 15 31 65 32 16 33 17 34
REMARK SMILES IDX 18 35 59 36 19 37 64 38 58 39 60 40 20 41 63 42 57 43 56 44
REMARK SMILES IDX 21 46 47 47 30 48 46 49 31 50 34 51 45 52 61 53 32 54 33 55
REMARK SMILES IDX 44 57 62 58 35 59 22 60 23 61 28 62 24 63 25 64 27 65 29 66
REMARK SMILES IDX 26 67 48 68 49 69 54 70 50 71 51 72 53 73 55 74 52 75 36 76
REMARK SMILES IDX 37 77 42 78 38 79 39 80 41 81 43 82 40 83
REMARK H PARENT 5 6 10 26 60 45 34 56
REMARK Flexibility Score: inf
ROOT
ATOM      1  C   UNL A   1      36.329  19.616  25.034  1.00  0.00     0.023 C 
ENDROOT
BRANCH   1   2
ATOM      2  C   UNL A   1      34.966  20.293  24.864  1.00  0.00     0.116 C 
BRANCH   2   3
ATOM      3  N   UNL A   1      34.600  21.042  26.047  1.00  0.00    -0.356 N 
ATOM      4  C   UNL A   1      34.878  22.325  26.420  1.00  0.00     0.227 C 
ATOM      5  O   UNL A   1      34.466  22.638  27.539  1.00  0.00    -0.274 OA
ATOM      6  H   UNL A   1      34.057  20.539  26.695  1.00  0.00     0.163 HD
BRANCH   4   7
ATOM      7  C   UNL A   1      35.621  23.278  25.463  1.00  0.00     0.108 C 
ATOM      8  C   UNL A   1      36.786  23.994  26.154  1.00  0.00     0.023 C 
BRANCH   7   9
ATOM      9  C   UNL A   1      34.771  24.341  24.767  1.00  0.00    -0.000 A 
ATOM     10  C   UNL A   1      34.421  25.563  25.355  1.00  0.00     0.008 A 
ATOM     11  C   UNL A   1      34.414  24.156  23.423  1.00  0.00     0.127 A 
ATOM     12  C   UNL A   1      33.725  26.540  24.637  1.00  0.00     0.004 A 
ATOM     13  C   UNL A   1      33.726  25.129  22.695  1.00  0.00     0.043 A 
ATOM     14  F   UNL A   1      34.789  23.034  22.790  1.00  0.00    -0.207 F 
ATOM     15  C   UNL A   1      33.368  26.340  23.297  1.00  0.00    -0.041 A 
BRANCH  15  16
ATOM     16  C   UNL A   1      32.689  27.438  22.515  1.00  0.00     0.072 C 
BRANCH  16  17
ATOM     17  C   UNL A   1      31.225  27.431  22.857  1.00  0.00    -0.033 A 
ATOM     18  C   UNL A   1      30.532  26.401  23.585  1.00  0.00     0.015 A 
ATOM     19  C   UNL A   1      30.362  28.479  22.584  1.00  0.00     0.068 A 
ATOM     20  C   UNL A   1      29.205  26.694  23.804  1.00  0.00     0.065 A 
ATOM     21  S   UNL A   1      28.775  28.215  23.163  1.00  0.00    -0.152 S 
ENDBRANCH  16  17
ENDBRANCH  15  16
ENDBRANCH   7   9
ENDBRANCH   4   7
ENDBRANCH   2   3
ENDBRANCH   1   2
BRANCH   1  22
ATOM     22  C   UNL A   1      37.529  20.449  24.576  1.00  0.00     0.023 C 
BRANCH  22  23
ATOM     23  C   UNL A   1      38.598  20.684  25.634  1.00  0.00     0.116 C 
BRANCH  23  24
ATOM     24  N   UNL A   1      39.608  19.639  25.652  1.00  0.00    -0.352 N 
ATOM     25  C   UNL A   1      40.932  19.717  26.010  1.00  0.00     0.251 C 
ATOM     26  H   UNL A   1      39.300  18.748  25.370  1.00  0.00     0.163 HD
ATOM     27  O   UNL A   1      41.678  18.761  25.820  1.00  0.00    -0.269 OA
BRANCH  25  28
ATOM     28  C   UNL A   1      41.464  20.967  26.591  1.00  0.00     0.039 A 
ATOM     29  C   UNL A   1      42.007  21.929  25.737  1.00  0.00     0.014 A 
ATOM     30  C   UNL A   1      41.416  21.196  27.969  1.00  0.00     0.014 A 
ATOM     31  C   UNL A   1      42.442  23.149  26.257  1.00  0.00     0.010 A 
ATOM     32  C   UNL A   1      41.777  22.441  28.476  1.00  0.00     0.010 A 
ATOM     33  C   UNL A   1      42.295  23.429  27.626  1.00  0.00    -0.014 A 
BRANCH  33  34
ATOM     34  C   UNL A   1      42.673  24.753  28.182  1.00  0.00     0.031 A 
ATOM     35  C   UNL A   1      41.632  25.820  28.374  1.00  0.00     0.074 A 
ATOM     36  C   UNL A   1      43.966  25.015  28.457  1.00  0.00     0.049 A 
ATOM     37  N   UNL A   1      41.776  27.052  28.793  1.00  0.00    -0.248 NA
ATOM     38  C   UNL A   1      40.247  25.464  28.025  1.00  0.00     0.031 C 
ATOM     39  C   UNL A   1      45.078  24.081  28.270  1.00  0.00     0.029 A 
ATOM     40  N   UNL A   1      44.565  26.149  28.946  1.00  0.00    -0.354 N 
ATOM     41  C   UNL A   1      40.509  27.618  28.748  1.00  0.00     0.074 A 
ATOM     42  C   UNL A   1      39.618  26.616  28.205  1.00  0.00     0.031 C 
ATOM     43  C   UNL A   1      46.218  24.671  28.662  1.00  0.00     0.029 A 
ATOM     44  C   UNL A   1      45.926  26.036  29.090  1.00  0.00     0.049 A 
ATOM     45  H   UNL A   1      44.066  26.967  29.172  1.00  0.00     0.167 HD
ATOM     46  C   UNL A   1      40.118  28.852  29.145  1.00  0.00     0.037 A 
ATOM     47  C   UNL A   1      46.839  26.932  29.510  1.00  0.00     0.037 A 
ATOM     48  C   UNL A   1      41.006  29.842  29.698  1.00  0.00     0.049 A 
ATOM     49  C   UNL A   1      46.383  28.304  29.924  1.00  0.00     0.074 A 
ATOM     50  C   UNL A   1      40.697  31.101  30.183  1.00  0.00     0.029 A 
ATOM     51  N   UNL A   1      42.377  29.687  29.832  1.00  0.00    -0.354 N 
ATOM     52  N   UNL A   1      45.169  28.801  29.946  1.00  0.00    -0.248 NA
ATOM     53  C   UNL A   1      47.422  29.238  30.378  1.00  0.00     0.031 C 
ATOM     54  C   UNL A   1      41.888  31.728  30.560  1.00  0.00     0.029 A 
ATOM     55  C   UNL A   1      42.933  30.839  30.365  1.00  0.00     0.049 A 
ATOM     56  H   UNL A   1      42.882  28.879  29.585  1.00  0.00     0.167 HD
ATOM     57  C   UNL A   1      45.296  30.093  30.440  1.00  0.00     0.074 A 
ATOM     58  C   UNL A   1      46.702  30.296  30.721  1.00  0.00     0.031 C 
ATOM     59  C   UNL A   1      44.334  31.026  30.643  1.00  0.00     0.037 A 
BRANCH  46  60
ATOM     60  C   UNL A   1      38.665  29.201  28.991  1.00  0.00     0.057 A 
ATOM     61  C   UNL A   1      38.126  29.602  27.759  1.00  0.00     0.134 A 
ATOM     62  C   UNL A   1      37.787  29.107  30.077  1.00  0.00     0.134 A 
ATOM     63  F   UNL A   1      38.914  29.725  26.680  1.00  0.00    -0.206 F 
ATOM     64  C   UNL A   1      36.775  29.925  27.623  1.00  0.00     0.040 A 
ATOM     65  C   UNL A   1      36.427  29.397  29.946  1.00  0.00     0.040 A 
ATOM     66  F   UNL A   1      38.232  28.722  31.283  1.00  0.00    -0.206 F 
ATOM     67  C   UNL A   1      35.920  29.816  28.717  1.00  0.00     0.006 A 
ENDBRANCH  46  60
BRANCH  47  68
ATOM     68  C   UNL A   1      48.274  26.558  29.577  1.00  0.00     0.057 A 
ATOM     69  C   UNL A   1      49.139  26.815  28.507  1.00  0.00     0.134 A 
ATOM     70  C   UNL A   1      48.815  25.927  30.705  1.00  0.00     0.134 A 
ATOM     71  F   UNL A   1      48.677  27.399  27.392  1.00  0.00    -0.206 F 
ATOM     72  C   UNL A   1      50.483  26.441  28.545  1.00  0.00     0.040 A 
ATOM     73  C   UNL A   1      50.164  25.573  30.768  1.00  0.00     0.040 A 
ATOM     74  F   UNL A   1      48.043  25.660  31.767  1.00  0.00    -0.206 F 
ATOM     75  C   UNL A   1      51.000  25.822  29.681  1.00  0.00     0.006 A 
ENDBRANCH  47  68
BRANCH  59  76
ATOM     76  C   UNL A   1      44.765  32.342  31.227  1.00  0.00     0.057 A 
ATOM     77  C   UNL A   1      44.807  32.561  32.610  1.00  0.00     0.134 A 
ATOM     78  C   UNL A   1      45.177  33.389  30.393  1.00  0.00     0.134 A 
ATOM     79  F   UNL A   1      44.413  31.604  33.464  1.00  0.00    -0.206 F 
ATOM     80  C   UNL A   1      45.222  33.784  33.141  1.00  0.00     0.040 A 
ATOM     81  C   UNL A   1      45.622  34.606  30.915  1.00  0.00     0.040 A 
ATOM     82  F   UNL A   1      45.169  33.244  29.060  1.00  0.00    -0.206 F 
ATOM     83  C   UNL A   1      45.638  34.807  32.293  1.00  0.00     0.006 A 
ENDBRANCH  59  76
ENDBRANCH  33  34
ENDBRANCH  25  28
ENDBRANCH  23  24
ENDBRANCH  22  23
ENDBRANCH   1  22
TORSDOF 14
ENDMDL
