MODEL 1
REMARK VINA RESULT:     -13.1      0.000      0.000
REMARK SMILES CS(=O)(=O)c1ccc(-c2cc(Cl)cc3c2O[C@H](C(F)(F)F)C(C(=O)NCCCCNC(=O)c2ccc(-c4c5nc(c(-c6c(F)cccc6F)c6ccc([nH]6)c(-c6c(F)cccc6F)c6nc(c(-c7c(F)cccc7F)c7ccc4[nH]7)C=C6)C=C5)cc2)=C3)cc1
REMARK SMILES IDX 27 1 26 2 25 3 23 4 24 5 22 7 9 8 10 9 15 10 11 11 14 12
REMARK SMILES IDX 16 13 12 14 13 15 87 16 17 17 8 18 5 19 6 20 89 21 7 22
REMARK SMILES IDX 88 23 2 24 1 25 3 26 4 27 18 28 19 29 20 30 21 31 28 32
REMARK SMILES IDX 29 33 30 34 31 35 32 37 33 38 34 39 86 40 35 41 85 42 36 43
REMARK SMILES IDX 37 44 38 45 79 46 39 47 84 48 78 49 80 50 40 51 83 52 77 53
REMARK SMILES IDX 76 54 41 56 67 57 50 58 66 59 51 60 54 61 65 62 81 63 52 64
REMARK SMILES IDX 53 65 64 67 82 68 55 69 42 70 43 71 48 72 44 73 45 74 47 75
REMARK SMILES IDX 49 76 46 77 68 78 69 79 74 80 70 81 71 82 73 83 75 84 72 85
REMARK SMILES IDX 56 86 57 87 62 88 58 89 59 90 61 91 63 92 60 93
REMARK H PARENT 25 6 30 36 80 55 54 66
REMARK Flexibility Score: inf
ROOT
ATOM      1  C   UNL A   1      36.263  21.188  24.745  1.00  0.00     0.023 C 
ENDROOT
BRANCH   1   2
ATOM      2  C   UNL A   1      35.546  21.661  26.019  1.00  0.00     0.116 C 
BRANCH   2   3
ATOM      3  N   UNL A   1      35.410  23.101  25.996  1.00  0.00    -0.352 N 
ATOM      4  C   UNL A   1      34.633  23.880  25.210  1.00  0.00     0.251 C 
ATOM      5  O   UNL A   1      35.043  25.001  24.925  1.00  0.00    -0.270 OA
ATOM      6  H   UNL A   1      35.965  23.586  26.649  1.00  0.00     0.163 HD
BRANCH   4   7
ATOM      7  C   UNL A   1      33.270  23.394  24.830  1.00  0.00     0.067 C 
ATOM      8  C   UNL A   1      31.451  26.986  24.201  1.00  0.00     0.026 A 
ATOM      9  C   UNL A   1      31.877  27.827  25.263  1.00  0.00     0.033 A 
ATOM     10  C   UNL A   1      31.715  25.613  24.354  1.00  0.00     0.135 A 
ATOM     11  C   UNL A   1      32.331  27.326  26.480  1.00  0.00     0.042 A 
ATOM     12  C   UNL A   1      32.057  25.118  25.637  1.00  0.00     0.019 A 
ATOM     13  O   UNL A   1      31.734  24.711  23.298  1.00  0.00    -0.475 OA
ATOM     14  Cl  UNL A   1      32.850  28.407  27.709  1.00  0.00    -0.084 Cl
ATOM     15  C   UNL A   1      32.338  25.964  26.706  1.00  0.00     0.032 A 
ATOM     16  C   UNL A   1      32.339  23.670  25.767  1.00  0.00     0.025 C 
ATOM     17  C   UNL A   1      32.848  23.709  23.397  1.00  0.00     0.314 C 
BRANCH   8  18
ATOM     18  C   UNL A   1      30.551  27.659  23.220  1.00  0.00    -0.015 A 
ATOM     19  C   UNL A   1      28.858  29.785  22.416  1.00  0.00     0.067 A 
ATOM     20  C   UNL A   1      30.206  29.782  22.044  1.00  0.00     0.021 A 
ATOM     21  C   UNL A   1      28.315  28.676  23.060  1.00  0.00     0.021 A 
ATOM     22  C   UNL A   1      31.037  28.716  22.420  1.00  0.00     0.010 A 
ATOM     23  C   UNL A   1      29.158  27.615  23.444  1.00  0.00     0.010 A 
BRANCH  19  24
ATOM     24  S   UNL A   1      27.954  31.300  22.152  1.00  0.00     0.175 S 
ATOM     25  C   UNL A   1      29.051  32.665  22.393  1.00  0.00     0.163 C 
ATOM     26  O   UNL A   1      26.949  31.363  23.197  1.00  0.00    -0.224 OA
ATOM     27  O   UNL A   1      27.574  31.306  20.751  1.00  0.00    -0.224 OA
ENDBRANCH  19  24
ENDBRANCH   8  18
BRANCH  17  28
ATOM     28  C   UNL A   1      32.486  22.377  22.699  1.00  0.00     0.429 C 
ATOM     29  F   UNL A   1      31.158  22.126  22.707  1.00  0.00    -0.167 F 
ATOM     30  F   UNL A   1      32.900  22.371  21.410  1.00  0.00    -0.167 F 
ATOM     31  F   UNL A   1      33.082  21.306  23.289  1.00  0.00    -0.167 F 
ENDBRANCH  17  28
ENDBRANCH   4   7
ENDBRANCH   2   3
ENDBRANCH   1   2
BRANCH   1  32
ATOM     32  C   UNL A   1      37.324  20.096  24.953  1.00  0.00     0.023 C 
BRANCH  32  33
ATOM     33  C   UNL A   1      38.595  20.559  25.654  1.00  0.00     0.116 C 
BRANCH  33  34
ATOM     34  N   UNL A   1      39.611  19.520  25.680  1.00  0.00    -0.352 N 
ATOM     35  C   UNL A   1      40.944  19.620  25.996  1.00  0.00     0.251 C 
ATOM     36  H   UNL A   1      39.300  18.618  25.437  1.00  0.00     0.163 HD
ATOM     37  O   UNL A   1      41.701  18.677  25.777  1.00  0.00    -0.269 OA
BRANCH  35  38
ATOM     38  C   UNL A   1      41.473  20.872  26.577  1.00  0.00     0.039 A 
ATOM     39  C   UNL A   1      41.989  21.851  25.724  1.00  0.00     0.014 A 
ATOM     40  C   UNL A   1      41.457  21.083  27.958  1.00  0.00     0.014 A 
ATOM     41  C   UNL A   1      42.424  23.070  26.250  1.00  0.00     0.010 A 
ATOM     42  C   UNL A   1      41.822  22.325  28.473  1.00  0.00     0.010 A 
ATOM     43  C   UNL A   1      42.307  23.333  27.625  1.00  0.00    -0.014 A 
BRANCH  43  44
ATOM     44  C   UNL A   1      42.680  24.654  28.197  1.00  0.00     0.031 A 
ATOM     45  C   UNL A   1      41.627  25.708  28.414  1.00  0.00     0.074 A 
ATOM     46  C   UNL A   1      43.975  24.935  28.449  1.00  0.00     0.049 A 
ATOM     47  N   UNL A   1      41.766  26.949  28.804  1.00  0.00    -0.248 NA
ATOM     48  C   UNL A   1      40.233  25.324  28.130  1.00  0.00     0.031 C 
ATOM     49  C   UNL A   1      45.097  24.017  28.240  1.00  0.00     0.029 A 
ATOM     50  N   UNL A   1      44.569  26.080  28.918  1.00  0.00    -0.354 N 
ATOM     51  C   UNL A   1      40.490  27.498  28.789  1.00  0.00     0.074 A 
ATOM     52  C   UNL A   1      39.592  26.469  28.315  1.00  0.00     0.031 C 
ATOM     53  C   UNL A   1      46.239  24.631  28.590  1.00  0.00     0.029 A 
ATOM     54  C   UNL A   1      45.939  25.997  29.006  1.00  0.00     0.049 A 
ATOM     55  H   UNL A   1      44.062  26.886  29.167  1.00  0.00     0.167 HD
ATOM     56  C   UNL A   1      40.102  28.742  29.156  1.00  0.00     0.037 A 
ATOM     57  C   UNL A   1      46.851  26.923  29.361  1.00  0.00     0.037 A 
ATOM     58  C   UNL A   1      40.990  29.752  29.667  1.00  0.00     0.049 A 
ATOM     59  C   UNL A   1      46.385  28.299  29.759  1.00  0.00     0.074 A 
ATOM     60  C   UNL A   1      40.675  31.013  30.141  1.00  0.00     0.029 A 
ATOM     61  N   UNL A   1      42.365  29.616  29.769  1.00  0.00    -0.354 N 
ATOM     62  N   UNL A   1      45.165  28.775  29.820  1.00  0.00    -0.248 NA
ATOM     63  C   UNL A   1      47.424  29.267  30.143  1.00  0.00     0.031 C 
ATOM     64  C   UNL A   1      41.865  31.662  30.479  1.00  0.00     0.029 A 
ATOM     65  C   UNL A   1      42.915  30.784  30.272  1.00  0.00     0.049 A 
ATOM     66  H   UNL A   1      42.876  28.812  29.522  1.00  0.00     0.167 HD
ATOM     67  C   UNL A   1      45.288  30.078  30.284  1.00  0.00     0.074 A 
ATOM     68  C   UNL A   1      46.698  30.315  30.503  1.00  0.00     0.031 C 
ATOM     69  C   UNL A   1      44.319  30.997  30.511  1.00  0.00     0.037 A 
BRANCH  56  70
ATOM     70  C   UNL A   1      38.648  29.094  29.028  1.00  0.00     0.057 A 
ATOM     71  C   UNL A   1      37.769  29.013  30.115  1.00  0.00     0.134 A 
ATOM     72  C   UNL A   1      38.144  29.603  27.824  1.00  0.00     0.134 A 
ATOM     73  F   UNL A   1      38.186  28.527  31.294  1.00  0.00    -0.206 F 
ATOM     74  C   UNL A   1      36.437  29.419  30.007  1.00  0.00     0.040 A 
ATOM     75  C   UNL A   1      36.822  30.035  27.711  1.00  0.00     0.040 A 
ATOM     76  F   UNL A   1      38.934  29.712  26.746  1.00  0.00    -0.206 F 
ATOM     77  C   UNL A   1      35.964  29.943  28.805  1.00  0.00     0.006 A 
ENDBRANCH  56  70
BRANCH  57  78
ATOM     78  C   UNL A   1      48.303  26.598  29.357  1.00  0.00     0.057 A 
ATOM     79  C   UNL A   1      49.100  26.863  28.237  1.00  0.00     0.134 A 
ATOM     80  C   UNL A   1      48.913  25.964  30.445  1.00  0.00     0.134 A 
ATOM     81  F   UNL A   1      48.570  27.451  27.154  1.00  0.00    -0.206 F 
ATOM     82  C   UNL A   1      50.440  26.474  28.183  1.00  0.00     0.040 A 
ATOM     83  C   UNL A   1      50.260  25.597  30.417  1.00  0.00     0.040 A 
ATOM     84  F   UNL A   1      48.208  25.689  31.552  1.00  0.00    -0.206 F 
ATOM     85  C   UNL A   1      51.024  25.838  29.277  1.00  0.00     0.006 A 
ENDBRANCH  57  78
BRANCH  69  86
ATOM     86  C   UNL A   1      44.739  32.324  31.073  1.00  0.00     0.057 A 
ATOM     87  C   UNL A   1      44.849  32.547  32.450  1.00  0.00     0.134 A 
ATOM     88  C   UNL A   1      45.087  33.377  30.216  1.00  0.00     0.134 A 
ATOM     89  F   UNL A   1      44.520  31.584  33.324  1.00  0.00    -0.206 F 
ATOM     90  C   UNL A   1      45.270  33.778  32.957  1.00  0.00     0.040 A 
ATOM     91  C   UNL A   1      45.538  34.602  30.711  1.00  0.00     0.040 A 
ATOM     92  F   UNL A   1      45.014  33.226  28.885  1.00  0.00    -0.206 F 
ATOM     93  C   UNL A   1      45.624  34.806  32.086  1.00  0.00     0.006 A 
ENDBRANCH  69  86
ENDBRANCH  43  44
ENDBRANCH  35  38
ENDBRANCH  33  34
ENDBRANCH  32  33
ENDBRANCH   1  32
TORSDOF 14
ENDMDL
MODEL 2
REMARK VINA RESULT:     -12.9      4.060      9.151
REMARK SMILES CS(=O)(=O)c1ccc(-c2cc(Cl)cc3c2O[C@H](C(F)(F)F)C(C(=O)NCCCCNC(=O)c2ccc(-c4c5nc(c(-c6c(F)cccc6F)c6ccc([nH]6)c(-c6c(F)cccc6F)c6nc(c(-c7c(F)cccc7F)c7ccc4[nH]7)C=C6)C=C5)cc2)=C3)cc1
REMARK SMILES IDX 27 1 26 2 25 3 23 4 24 5 22 7 9 8 10 9 15 10 11 11 14 12
REMARK SMILES IDX 16 13 12 14 13 15 87 16 17 17 8 18 5 19 6 20 89 21 7 22
REMARK SMILES IDX 88 23 2 24 1 25 3 26 4 27 18 28 19 29 20 30 21 31 28 32
REMARK SMILES IDX 29 33 30 34 31 35 32 37 33 38 34 39 86 40 35 41 85 42 36 43
REMARK SMILES IDX 37 44 38 45 79 46 39 47 84 48 78 49 80 50 40 51 83 52 77 53
REMARK SMILES IDX 76 54 41 56 67 57 50 58 66 59 51 60 54 61 65 62 81 63 52 64
REMARK SMILES IDX 53 65 64 67 82 68 55 69 42 70 43 71 48 72 44 73 45 74 47 75
REMARK SMILES IDX 49 76 46 77 68 78 69 79 74 80 70 81 71 82 73 83 75 84 72 85
REMARK SMILES IDX 56 86 57 87 62 88 58 89 59 90 61 91 63 92 60 93
REMARK H PARENT 25 6 30 36 80 55 54 66
REMARK Flexibility Score: inf
ROOT
ATOM      1  C   UNL A   1      31.686  29.647  25.906  1.00  0.00     0.023 C 
ENDROOT
BRANCH   1   2
ATOM      2  C   UNL A   1      32.733  29.357  24.820  1.00  0.00     0.116 C 
BRANCH   2   3
ATOM      3  N   UNL A   1      33.548  28.231  25.219  1.00  0.00    -0.352 N 
ATOM      4  C   UNL A   1      33.221  26.923  25.322  1.00  0.00     0.251 C 
ATOM      5  O   UNL A   1      33.795  26.250  26.173  1.00  0.00    -0.270 OA
ATOM      6  H   UNL A   1      34.481  28.449  25.450  1.00  0.00     0.163 HD
BRANCH   4   7
ATOM      7  C   UNL A   1      32.276  26.333  24.324  1.00  0.00     0.067 C 
ATOM      8  C   UNL A   1      33.392  22.423  24.604  1.00  0.00     0.026 A 
ATOM      9  C   UNL A   1      34.811  22.428  24.652  1.00  0.00     0.033 A 
ATOM     10  C   UNL A   1      32.782  23.630  24.219  1.00  0.00     0.135 A 
ATOM     11  C   UNL A   1      35.574  23.478  24.148  1.00  0.00     0.042 A 
ATOM     12  C   UNL A   1      33.568  24.631  23.596  1.00  0.00     0.019 A 
ATOM     13  O   UNL A   1      31.453  23.938  24.481  1.00  0.00    -0.475 OA
ATOM     14  Cl  UNL A   1      37.287  23.421  24.262  1.00  0.00    -0.084 Cl
ATOM     15  C   UNL A   1      34.956  24.548  23.534  1.00  0.00     0.032 A 
ATOM     16  C   UNL A   1      32.900  25.895  23.211  1.00  0.00     0.025 C 
ATOM     17  C   UNL A   1      31.247  25.363  24.902  1.00  0.00     0.314 C 
BRANCH   8  18
ATOM     18  C   UNL A   1      32.788  21.063  24.705  1.00  0.00    -0.015 A 
ATOM     19  C   UNL A   1      32.913  18.239  24.492  1.00  0.00     0.067 A 
ATOM     20  C   UNL A   1      33.130  18.861  25.726  1.00  0.00     0.021 A 
ATOM     21  C   UNL A   1      32.497  18.996  23.399  1.00  0.00     0.021 A 
ATOM     22  C   UNL A   1      33.042  20.257  25.836  1.00  0.00     0.010 A 
ATOM     23  C   UNL A   1      32.422  20.399  23.515  1.00  0.00     0.010 A 
BRANCH  19  24
ATOM     24  S   UNL A   1      33.329  16.509  24.377  1.00  0.00     0.175 S 
ATOM     25  C   UNL A   1      34.780  16.209  25.342  1.00  0.00     0.163 C 
ATOM     26  O   UNL A   1      33.673  16.262  22.990  1.00  0.00    -0.224 OA
ATOM     27  O   UNL A   1      32.242  15.789  25.016  1.00  0.00    -0.224 OA
ENDBRANCH  19  24
ENDBRANCH   8  18
BRANCH  17  28
ATOM     28  C   UNL A   1      29.839  25.878  24.525  1.00  0.00     0.429 C 
ATOM     29  F   UNL A   1      29.830  27.189  24.198  1.00  0.00    -0.167 F 
ATOM     30  F   UNL A   1      29.330  25.188  23.476  1.00  0.00    -0.167 F 
ATOM     31  F   UNL A   1      28.944  25.730  25.540  1.00  0.00    -0.167 F 
ENDBRANCH  17  28
ENDBRANCH   4   7
ENDBRANCH   2   3
ENDBRANCH   1   2
BRANCH   1  32
ATOM     32  C   UNL A   1      31.475  31.133  26.237  1.00  0.00     0.023 C 
BRANCH  32  33
ATOM     33  C   UNL A   1      32.630  31.798  26.973  1.00  0.00     0.116 C 
BRANCH  33  34
ATOM     34  N   UNL A   1      32.317  33.165  27.356  1.00  0.00    -0.352 N 
ATOM     35  C   UNL A   1      32.989  33.999  28.215  1.00  0.00     0.251 C 
ATOM     36  H   UNL A   1      31.509  33.546  26.942  1.00  0.00     0.163 HD
ATOM     37  O   UNL A   1      32.475  35.057  28.575  1.00  0.00    -0.269 OA
BRANCH  35  38
ATOM     38  C   UNL A   1      34.321  33.615  28.728  1.00  0.00     0.039 A 
ATOM     39  C   UNL A   1      34.404  32.859  29.901  1.00  0.00     0.014 A 
ATOM     40  C   UNL A   1      35.484  33.992  28.052  1.00  0.00     0.014 A 
ATOM     41  C   UNL A   1      35.651  32.424  30.357  1.00  0.00     0.010 A 
ATOM     42  C   UNL A   1      36.718  33.497  28.467  1.00  0.00     0.010 A 
ATOM     43  C   UNL A   1      36.815  32.704  29.623  1.00  0.00    -0.014 A 
BRANCH  43  44
ATOM     44  C   UNL A   1      38.142  32.178  30.040  1.00  0.00     0.031 A 
ATOM     45  C   UNL A   1      38.641  30.868  29.490  1.00  0.00     0.074 A 
ATOM     46  C   UNL A   1      38.863  32.836  30.970  1.00  0.00     0.049 A 
ATOM     47  N   UNL A   1      39.718  30.195  29.806  1.00  0.00    -0.248 NA
ATOM     48  C   UNL A   1      37.806  30.214  28.467  1.00  0.00     0.031 C 
ATOM     49  C   UNL A   1      38.471  34.092  31.615  1.00  0.00     0.029 A 
ATOM     50  N   UNL A   1      40.069  32.531  31.551  1.00  0.00    -0.354 N 
ATOM     51  C   UNL A   1      39.678  29.034  29.044  1.00  0.00     0.074 A 
ATOM     52  C   UNL A   1      38.452  29.073  28.278  1.00  0.00     0.031 C 
ATOM     53  C   UNL A   1      39.422  34.453  32.490  1.00  0.00     0.029 A 
ATOM     54  C   UNL A   1      40.470  33.438  32.504  1.00  0.00     0.049 A 
ATOM     55  H   UNL A   1      40.598  31.737  31.308  1.00  0.00     0.167 HD
ATOM     56  C   UNL A   1      40.590  28.036  28.976  1.00  0.00     0.037 A 
ATOM     57  C   UNL A   1      41.549  33.440  33.311  1.00  0.00     0.037 A 
ATOM     58  C   UNL A   1      41.829  28.020  29.708  1.00  0.00     0.049 A 
ATOM     59  C   UNL A   1      42.542  32.312  33.213  1.00  0.00     0.074 A 
ATOM     60  C   UNL A   1      42.853  27.091  29.641  1.00  0.00     0.029 A 
ATOM     61  N   UNL A   1      42.211  28.972  30.638  1.00  0.00    -0.354 N 
ATOM     62  N   UNL A   1      42.530  31.264  32.425  1.00  0.00    -0.248 NA
ATOM     63  C   UNL A   1      43.703  32.370  34.114  1.00  0.00     0.031 C 
ATOM     64  C   UNL A   1      43.831  27.451  30.572  1.00  0.00     0.029 A 
ATOM     65  C   UNL A   1      43.444  28.637  31.174  1.00  0.00     0.049 A 
ATOM     66  H   UNL A   1      41.687  29.768  30.882  1.00  0.00     0.167 HD
ATOM     67  C   UNL A   1      43.696  30.563  32.708  1.00  0.00     0.074 A 
ATOM     68  C   UNL A   1      44.398  31.310  33.729  1.00  0.00     0.031 C 
ATOM     69  C   UNL A   1      44.145  29.404  32.170  1.00  0.00     0.037 A 
BRANCH  56  70
ATOM     70  C   UNL A   1      40.297  26.872  28.076  1.00  0.00     0.057 A 
ATOM     71  C   UNL A   1      40.844  26.775  26.790  1.00  0.00     0.134 A 
ATOM     72  C   UNL A   1      39.530  25.794  28.536  1.00  0.00     0.134 A 
ATOM     73  F   UNL A   1      41.581  27.776  26.286  1.00  0.00    -0.206 F 
ATOM     74  C   UNL A   1      40.631  25.650  25.991  1.00  0.00     0.040 A 
ATOM     75  C   UNL A   1      39.331  24.653  27.756  1.00  0.00     0.040 A 
ATOM     76  F   UNL A   1      38.983  25.820  29.760  1.00  0.00    -0.206 F 
ATOM     77  C   UNL A   1      39.882  24.580  26.479  1.00  0.00     0.006 A 
ENDBRANCH  56  70
BRANCH  57  78
ATOM     78  C   UNL A   1      41.758  34.537  34.293  1.00  0.00     0.057 A 
ATOM     79  C   UNL A   1      41.286  34.432  35.607  1.00  0.00     0.134 A 
ATOM     80  C   UNL A   1      42.382  35.736  33.928  1.00  0.00     0.134 A 
ATOM     81  F   UNL A   1      40.663  33.316  36.014  1.00  0.00    -0.206 F 
ATOM     82  C   UNL A   1      41.389  35.493  36.510  1.00  0.00     0.040 A 
ATOM     83  C   UNL A   1      42.519  36.794  34.829  1.00  0.00     0.040 A 
ATOM     84  F   UNL A   1      42.864  35.900  32.687  1.00  0.00    -0.206 F 
ATOM     85  C   UNL A   1      42.009  36.679  36.120  1.00  0.00     0.006 A 
ENDBRANCH  57  78
BRANCH  69  86
ATOM     86  C   UNL A   1      45.481  28.897  32.630  1.00  0.00     0.057 A 
ATOM     87  C   UNL A   1      45.609  27.998  33.694  1.00  0.00     0.134 A 
ATOM     88  C   UNL A   1      46.651  29.280  31.960  1.00  0.00     0.134 A 
ATOM     89  F   UNL A   1      44.529  27.601  34.384  1.00  0.00    -0.206 F 
ATOM     90  C   UNL A   1      46.858  27.512  34.091  1.00  0.00     0.040 A 
ATOM     91  C   UNL A   1      47.900  28.778  32.328  1.00  0.00     0.040 A 
ATOM     92  F   UNL A   1      46.597  30.131  30.924  1.00  0.00    -0.206 F 
ATOM     93  C   UNL A   1      48.005  27.896  33.401  1.00  0.00     0.006 A 
ENDBRANCH  69  86
ENDBRANCH  43  44
ENDBRANCH  35  38
ENDBRANCH  33  34
ENDBRANCH  32  33
ENDBRANCH   1  32
TORSDOF 14
ENDMDL
MODEL 3
REMARK VINA RESULT:     -12.8      1.186      5.940
REMARK SMILES CS(=O)(=O)c1ccc(-c2cc(Cl)cc3c2O[C@H](C(F)(F)F)C(C(=O)NCCCCNC(=O)c2ccc(-c4c5nc(c(-c6c(F)cccc6F)c6ccc([nH]6)c(-c6c(F)cccc6F)c6nc(c(-c7c(F)cccc7F)c7ccc4[nH]7)C=C6)C=C5)cc2)=C3)cc1
REMARK SMILES IDX 27 1 26 2 25 3 23 4 24 5 22 7 9 8 10 9 15 10 11 11 14 12
REMARK SMILES IDX 16 13 12 14 13 15 87 16 17 17 8 18 5 19 6 20 89 21 7 22
REMARK SMILES IDX 88 23 2 24 1 25 3 26 4 27 18 28 19 29 20 30 21 31 28 32
REMARK SMILES IDX 29 33 30 34 31 35 32 37 33 38 34 39 86 40 35 41 85 42 36 43
REMARK SMILES IDX 37 44 38 45 79 46 39 47 84 48 78 49 80 50 40 51 83 52 77 53
REMARK SMILES IDX 76 54 41 56 67 57 50 58 66 59 51 60 54 61 65 62 81 63 52 64
REMARK SMILES IDX 53 65 64 67 82 68 55 69 42 70 43 71 48 72 44 73 45 74 47 75
REMARK SMILES IDX 49 76 46 77 68 78 69 79 74 80 70 81 71 82 73 83 75 84 72 85
REMARK SMILES IDX 56 86 57 87 62 88 58 89 59 90 61 91 63 92 60 93
REMARK H PARENT 25 6 30 36 80 55 54 66
REMARK Flexibility Score: inf
ROOT
ATOM      1  C   UNL A   1      36.649  20.617  24.637  1.00  0.00     0.023 C 
ENDROOT
BRANCH   1   2
ATOM      2  C   UNL A   1      36.134  21.461  25.813  1.00  0.00     0.116 C 
BRANCH   2   3
ATOM      3  N   UNL A   1      36.112  22.858  25.438  1.00  0.00    -0.352 N 
ATOM      4  C   UNL A   1      35.253  23.520  24.631  1.00  0.00     0.251 C 
ATOM      5  O   UNL A   1      35.683  24.475  23.991  1.00  0.00    -0.270 OA
ATOM      6  H   UNL A   1      36.830  23.408  25.828  1.00  0.00     0.163 HD
BRANCH   4   7
ATOM      7  C   UNL A   1      33.807  23.141  24.647  1.00  0.00     0.067 C 
ATOM      8  C   UNL A   1      32.168  26.795  23.891  1.00  0.00     0.026 A 
ATOM      9  C   UNL A   1      32.897  27.719  24.685  1.00  0.00     0.033 A 
ATOM     10  C   UNL A   1      32.356  25.434  24.193  1.00  0.00     0.135 A 
ATOM     11  C   UNL A   1      33.589  27.338  25.832  1.00  0.00     0.042 A 
ATOM     12  C   UNL A   1      32.955  25.081  25.428  1.00  0.00     0.019 A 
ATOM     13  O   UNL A   1      32.054  24.402  23.314  1.00  0.00    -0.475 OA
ATOM     14  Cl  UNL A   1      34.467  28.510  26.729  1.00  0.00    -0.084 Cl
ATOM     15  C   UNL A   1      33.547  26.026  26.260  1.00  0.00     0.032 A 
ATOM     16  C   UNL A   1      33.149  23.641  25.715  1.00  0.00     0.025 C 
ATOM     17  C   UNL A   1      33.079  23.306  23.315  1.00  0.00     0.314 C 
BRANCH   8  18
ATOM     18  C   UNL A   1      31.113  27.425  23.045  1.00  0.00    -0.015 A 
ATOM     19  C   UNL A   1      29.084  29.350  22.583  1.00  0.00     0.067 A 
ATOM     20  C   UNL A   1      30.388  29.585  22.138  1.00  0.00     0.021 A 
ATOM     21  C   UNL A   1      28.750  28.111  23.127  1.00  0.00     0.021 A 
ATOM     22  C   UNL A   1      31.387  28.620  22.344  1.00  0.00     0.010 A 
ATOM     23  C   UNL A   1      29.761  27.152  23.340  1.00  0.00     0.010 A 
BRANCH  19  24
ATOM     24  S   UNL A   1      27.958  30.733  22.545  1.00  0.00     0.175 S 
ATOM     25  C   UNL A   1      28.805  32.169  23.133  1.00  0.00     0.163 C 
ATOM     26  O   UNL A   1      26.906  30.430  23.497  1.00  0.00    -0.224 OA
ATOM     27  O   UNL A   1      27.653  30.966  21.145  1.00  0.00    -0.224 OA
ENDBRANCH  19  24
ENDBRANCH   8  18
BRANCH  17  28
ATOM     28  C   UNL A   1      32.462  21.941  22.933  1.00  0.00     0.429 C 
ATOM     29  F   UNL A   1      31.166  21.830  23.302  1.00  0.00    -0.167 F 
ATOM     30  F   UNL A   1      32.529  21.728  21.598  1.00  0.00    -0.167 F 
ATOM     31  F   UNL A   1      33.115  20.897  23.513  1.00  0.00    -0.167 F 
ENDBRANCH  17  28
ENDBRANCH   4   7
ENDBRANCH   2   3
ENDBRANCH   1   2
BRANCH   1  32
ATOM     32  C   UNL A   1      37.730  19.584  24.992  1.00  0.00     0.023 C 
BRANCH  32  33
ATOM     33  C   UNL A   1      38.971  20.157  25.663  1.00  0.00     0.116 C 
BRANCH  33  34
ATOM     34  N   UNL A   1      39.998  19.147  25.862  1.00  0.00    -0.352 N 
ATOM     35  C   UNL A   1      41.337  19.312  26.118  1.00  0.00     0.251 C 
ATOM     36  H   UNL A   1      39.689  18.213  25.804  1.00  0.00     0.163 HD
ATOM     37  O   UNL A   1      42.097  18.348  26.065  1.00  0.00    -0.269 OA
BRANCH  35  38
ATOM     38  C   UNL A   1      41.869  20.654  26.435  1.00  0.00     0.039 A 
ATOM     39  C   UNL A   1      42.231  21.505  25.387  1.00  0.00     0.014 A 
ATOM     40  C   UNL A   1      42.005  21.075  27.760  1.00  0.00     0.014 A 
ATOM     41  C   UNL A   1      42.664  22.803  25.667  1.00  0.00     0.010 A 
ATOM     42  C   UNL A   1      42.366  22.392  28.034  1.00  0.00     0.010 A 
ATOM     43  C   UNL A   1      42.698  23.272  26.991  1.00  0.00    -0.014 A 
BRANCH  43  44
ATOM     44  C   UNL A   1      43.070  24.677  27.308  1.00  0.00     0.031 A 
ATOM     45  C   UNL A   1      44.512  25.105  27.257  1.00  0.00     0.074 A 
ATOM     46  C   UNL A   1      42.123  25.545  27.716  1.00  0.00     0.049 A 
ATOM     47  N   UNL A   1      45.047  26.251  27.595  1.00  0.00    -0.248 NA
ATOM     48  C   UNL A   1      45.488  24.106  26.787  1.00  0.00     0.031 C 
ATOM     49  C   UNL A   1      40.696  25.243  27.852  1.00  0.00     0.029 A 
ATOM     50  N   UNL A   1      42.220  26.856  28.112  1.00  0.00    -0.354 N 
ATOM     51  C   UNL A   1      46.415  26.103  27.404  1.00  0.00     0.074 A 
ATOM     52  C   UNL A   1      46.636  24.745  26.957  1.00  0.00     0.031 C 
ATOM     53  C   UNL A   1      40.053  26.338  28.287  1.00  0.00     0.029 A 
ATOM     54  C   UNL A   1      41.022  27.407  28.504  1.00  0.00     0.049 A 
ATOM     55  H   UNL A   1      43.068  27.356  28.116  1.00  0.00     0.167 HD
ATOM     56  C   UNL A   1      47.395  27.022  27.569  1.00  0.00     0.037 A 
ATOM     57  C   UNL A   1      40.741  28.627  29.000  1.00  0.00     0.037 A 
ATOM     58  C   UNL A   1      47.169  28.385  27.973  1.00  0.00     0.049 A 
ATOM     59  C   UNL A   1      41.855  29.625  29.175  1.00  0.00     0.074 A 
ATOM     60  C   UNL A   1      48.092  29.410  28.088  1.00  0.00     0.029 A 
ATOM     61  N   UNL A   1      45.938  28.910  28.330  1.00  0.00    -0.354 N 
ATOM     62  N   UNL A   1      43.133  29.495  28.909  1.00  0.00    -0.248 NA
ATOM     63  C   UNL A   1      41.488  30.943  29.716  1.00  0.00     0.031 C 
ATOM     64  C   UNL A   1      47.428  30.542  28.567  1.00  0.00     0.029 A 
ATOM     65  C   UNL A   1      46.083  30.239  28.693  1.00  0.00     0.049 A 
ATOM     66  H   UNL A   1      45.088  28.414  28.326  1.00  0.00     0.167 HD
ATOM     67  C   UNL A   1      43.711  30.721  29.212  1.00  0.00     0.074 A 
ATOM     68  C   UNL A   1      42.645  31.587  29.669  1.00  0.00     0.031 C 
ATOM     69  C   UNL A   1      45.009  31.097  29.120  1.00  0.00     0.037 A 
BRANCH  56  70
ATOM     70  C   UNL A   1      48.811  26.599  27.308  1.00  0.00     0.057 A 
ATOM     71  C   UNL A   1      49.615  26.044  28.311  1.00  0.00     0.134 A 
ATOM     72  C   UNL A   1      49.345  26.666  26.014  1.00  0.00     0.134 A 
ATOM     73  F   UNL A   1      49.167  25.959  29.573  1.00  0.00    -0.206 F 
ATOM     74  C   UNL A   1      50.903  25.580  28.039  1.00  0.00     0.040 A 
ATOM     75  C   UNL A   1      50.622  26.182  25.725  1.00  0.00     0.040 A 
ATOM     76  F   UNL A   1      48.626  27.180  25.005  1.00  0.00    -0.206 F 
ATOM     77  C   UNL A   1      51.405  25.637  26.740  1.00  0.00     0.006 A 
ENDBRANCH  56  70
BRANCH  57  78
ATOM     78  C   UNL A   1      39.348  28.989  29.379  1.00  0.00     0.057 A 
ATOM     79  C   UNL A   1      38.880  28.797  30.684  1.00  0.00     0.134 A 
ATOM     80  C   UNL A   1      38.438  29.479  28.435  1.00  0.00     0.134 A 
ATOM     81  F   UNL A   1      39.698  28.312  31.631  1.00  0.00    -0.206 F 
ATOM     82  C   UNL A   1      37.548  29.039  31.029  1.00  0.00     0.040 A 
ATOM     83  C   UNL A   1      37.112  29.755  28.772  1.00  0.00     0.040 A 
ATOM     84  F   UNL A   1      38.823  29.693  27.169  1.00  0.00    -0.206 F 
ATOM     85  C   UNL A   1      36.660  29.521  30.069  1.00  0.00     0.006 A 
ENDBRANCH  57  78
BRANCH  69  86
ATOM     86  C   UNL A   1      45.345  32.519  29.465  1.00  0.00     0.057 A 
ATOM     87  C   UNL A   1      45.758  32.895  30.748  1.00  0.00     0.134 A 
ATOM     88  C   UNL A   1      45.303  33.515  28.479  1.00  0.00     0.134 A 
ATOM     89  F   UNL A   1      45.808  31.992  31.739  1.00  0.00    -0.206 F 
ATOM     90  C   UNL A   1      46.097  34.217  31.046  1.00  0.00     0.040 A 
ATOM     91  C   UNL A   1      45.668  34.833  28.758  1.00  0.00     0.040 A 
ATOM     92  F   UNL A   1      44.927  33.219  27.226  1.00  0.00    -0.206 F 
ATOM     93  C   UNL A   1      46.060  35.187  30.046  1.00  0.00     0.006 A 
ENDBRANCH  69  86
ENDBRANCH  43  44
ENDBRANCH  35  38
ENDBRANCH  33  34
ENDBRANCH  32  33
ENDBRANCH   1  32
TORSDOF 14
ENDMDL
