MODEL 1
REMARK VINA RESULT:     -12.5      0.000      0.000
REMARK SMILES O=C(NCCCCNC(=O)c1ccc(-c2c3nc(c(-c4c(F)cccc4F)c4ccc([nH]4)c(-c4c(F)cccc4F)c4nc(c(-c5c(F)cccc5F)c5ccc2[nH]5)C=C4)C=C3)cc1)c1ccc(N[C@H]2OC(=O)c3ccccc32)cc1
REMARK SMILES IDX 5 1 4 2 3 3 1 4 2 5 65 7 66 8 81 9 67 10 80 11 68 12 69 13
REMARK SMILES IDX 70 15 71 16 79 17 72 18 74 19 78 20 73 21 75 22 77 23 76 24
REMARK SMILES IDX 6 25 7 26 8 27 9 28 10 30 11 31 12 32 64 33 13 34 63 35
REMARK SMILES IDX 14 36 15 37 16 38 57 39 17 40 62 41 56 42 58 43 18 44 61 45
REMARK SMILES IDX 55 46 54 47 19 49 45 50 28 51 44 52 29 53 32 54 43 55 59 56
REMARK SMILES IDX 30 57 31 58 42 60 60 61 33 62 20 63 21 64 26 65 22 66 23 67
REMARK SMILES IDX 25 68 27 69 24 70 46 71 47 72 52 73 48 74 49 75 51 76 53 77
REMARK SMILES IDX 50 78 34 79 35 80 40 81 36 82 37 83 39 84 41 85 38 86
REMARK H PARENT 3 6 69 14 8 29 58 48 32 59
REMARK Flexibility Score: inf
ROOT
ATOM      1  C   UNL A   1      35.834  21.966  25.230  1.00  0.00     0.023 C 
ENDROOT
BRANCH   1   2
ATOM      2  C   UNL A   1      34.844  21.608  26.333  1.00  0.00     0.116 C 
BRANCH   2   3
ATOM      3  N   UNL A   1      34.135  20.364  26.082  1.00  0.00    -0.352 N 
ATOM      4  O   UNL A   1      32.438  19.063  25.344  1.00  0.00    -0.269 OA
ATOM      5  C   UNL A   1      32.966  20.168  25.387  1.00  0.00     0.251 C 
ATOM      6  H   UNL A   1      34.549  19.554  26.459  1.00  0.00     0.163 HD
BRANCH   5   7
ATOM      7  C   UNL A   1      32.323  21.323  24.735  1.00  0.00     0.039 A 
ATOM      8  C   UNL A   1      32.600  21.643  23.404  1.00  0.00     0.016 A 
ATOM      9  C   UNL A   1      31.486  22.136  25.491  1.00  0.00     0.016 A 
ATOM     10  C   UNL A   1      32.121  22.842  22.863  1.00  0.00     0.026 A 
ATOM     11  C   UNL A   1      31.002  23.320  24.933  1.00  0.00     0.026 A 
ATOM     12  C   UNL A   1      31.328  23.709  23.622  1.00  0.00     0.037 A 
BRANCH  12  13
ATOM     13  N   UNL A   1      30.882  24.931  23.180  1.00  0.00    -0.347 N 
ATOM     14  H   UNL A   1      29.907  25.026  23.081  1.00  0.00     0.164 HD
BRANCH  13  15
ATOM     15  C   UNL A   1      31.666  26.089  22.845  1.00  0.00     0.305 C 
ATOM     16  O   UNL A   1      30.902  26.869  21.905  1.00  0.00    -0.434 OA
ATOM     17  C   UNL A   1      31.809  27.000  24.006  1.00  0.00     0.028 A 
ATOM     18  C   UNL A   1      30.551  28.084  22.411  1.00  0.00     0.340 C 
ATOM     19  C   UNL A   1      31.134  28.173  23.739  1.00  0.00     0.069 A 
ATOM     20  C   UNL A   1      32.480  26.846  25.210  1.00  0.00     0.010 A 
ATOM     21  O   UNL A   1      29.881  28.932  21.858  1.00  0.00    -0.246 OA
ATOM     22  C   UNL A   1      31.068  29.227  24.635  1.00  0.00     0.016 A 
ATOM     23  C   UNL A   1      32.442  27.899  26.134  1.00  0.00     0.001 A 
ATOM     24  C   UNL A   1      31.735  29.081  25.850  1.00  0.00     0.001 A 
ENDBRANCH  13  15
ENDBRANCH  12  13
ENDBRANCH   5   7
ENDBRANCH   2   3
ENDBRANCH   1   2
BRANCH   1  25
ATOM     25  C   UNL A   1      36.903  20.914  24.943  1.00  0.00     0.023 C 
BRANCH  25  26
ATOM     26  C   UNL A   1      38.245  21.131  25.633  1.00  0.00     0.116 C 
BRANCH  26  27
ATOM     27  N   UNL A   1      39.127  19.975  25.563  1.00  0.00    -0.352 N 
ATOM     28  C   UNL A   1      40.445  19.852  25.934  1.00  0.00     0.251 C 
ATOM     29  H   UNL A   1      38.719  19.158  25.195  1.00  0.00     0.163 HD
ATOM     30  O   UNL A   1      41.054  18.811  25.710  1.00  0.00    -0.269 OA
BRANCH  28  31
ATOM     31  C   UNL A   1      41.146  20.994  26.560  1.00  0.00     0.039 A 
ATOM     32  C   UNL A   1      41.837  21.887  25.738  1.00  0.00     0.014 A 
ATOM     33  C   UNL A   1      41.084  21.210  27.939  1.00  0.00     0.014 A 
ATOM     34  C   UNL A   1      42.376  23.054  26.284  1.00  0.00     0.010 A 
ATOM     35  C   UNL A   1      41.560  22.405  28.471  1.00  0.00     0.010 A 
ATOM     36  C   UNL A   1      42.189  23.348  27.644  1.00  0.00    -0.014 A 
BRANCH  36  37
ATOM     37  C   UNL A   1      42.581  24.664  28.208  1.00  0.00     0.031 A 
ATOM     38  C   UNL A   1      41.562  25.746  28.408  1.00  0.00     0.074 A 
ATOM     39  C   UNL A   1      43.883  24.915  28.445  1.00  0.00     0.049 A 
ATOM     40  N   UNL A   1      41.737  26.984  28.795  1.00  0.00    -0.248 NA
ATOM     41  C   UNL A   1      40.165  25.400  28.108  1.00  0.00     0.031 C 
ATOM     42  C   UNL A   1      44.980  23.968  28.231  1.00  0.00     0.029 A 
ATOM     43  N   UNL A   1      44.509  26.051  28.894  1.00  0.00    -0.354 N 
ATOM     44  C   UNL A   1      40.478  27.568  28.774  1.00  0.00     0.074 A 
ATOM     45  C   UNL A   1      39.556  26.562  28.290  1.00  0.00     0.031 C 
ATOM     46  C   UNL A   1      46.140  24.559  28.553  1.00  0.00     0.029 A 
ATOM     47  C   UNL A   1      45.876  25.935  28.959  1.00  0.00     0.049 A 
ATOM     48  H   UNL A   1      44.024  26.870  29.144  1.00  0.00     0.167 HD
ATOM     49  C   UNL A   1      40.121  28.822  29.141  1.00  0.00     0.037 A 
ATOM     50  C   UNL A   1      46.816  26.839  29.292  1.00  0.00     0.037 A 
ATOM     51  C   UNL A   1      41.038  29.817  29.635  1.00  0.00     0.049 A 
ATOM     52  C   UNL A   1      46.400  28.226  29.686  1.00  0.00     0.074 A 
ATOM     53  C   UNL A   1      40.759  31.085  30.112  1.00  0.00     0.029 A 
ATOM     54  N   UNL A   1      42.415  29.658  29.700  1.00  0.00    -0.354 N 
ATOM     55  N   UNL A   1      45.195  28.741  29.741  1.00  0.00    -0.248 NA
ATOM     56  C   UNL A   1      47.471  29.159  30.063  1.00  0.00     0.031 C 
ATOM     57  C   UNL A   1      41.972  31.710  30.425  1.00  0.00     0.029 A 
ATOM     58  C   UNL A   1      43.002  30.817  30.181  1.00  0.00     0.049 A 
ATOM     59  H   UNL A   1      42.902  28.842  29.445  1.00  0.00     0.167 HD
ATOM     60  C   UNL A   1      45.361  30.053  30.164  1.00  0.00     0.074 A 
ATOM     61  C   UNL A   1      46.782  30.249  30.372  1.00  0.00     0.031 C 
ATOM     62  C   UNL A   1      44.420  31.007  30.361  1.00  0.00     0.037 A 
BRANCH  49  63
ATOM     63  C   UNL A   1      38.669  29.183  29.020  1.00  0.00     0.057 A 
ATOM     64  C   UNL A   1      37.795  29.095  30.111  1.00  0.00     0.134 A 
ATOM     65  C   UNL A   1      38.143  29.633  27.803  1.00  0.00     0.134 A 
ATOM     66  F   UNL A   1      38.234  28.659  31.301  1.00  0.00    -0.206 F 
ATOM     67  C   UNL A   1      36.440  29.409  29.988  1.00  0.00     0.040 A 
ATOM     68  C   UNL A   1      36.796  29.976  27.675  1.00  0.00     0.040 A 
ATOM     69  F   UNL A   1      38.926  29.747  26.721  1.00  0.00    -0.206 F 
ATOM     70  C   UNL A   1      35.938  29.856  28.767  1.00  0.00     0.006 A 
ENDBRANCH  49  63
BRANCH  50  71
ATOM     71  C   UNL A   1      48.246  26.449  29.264  1.00  0.00     0.057 A 
ATOM     72  C   UNL A   1      48.844  25.822  30.362  1.00  0.00     0.134 A 
ATOM     73  C   UNL A   1      49.037  26.661  28.128  1.00  0.00     0.134 A 
ATOM     74  F   UNL A   1      48.140  25.609  31.482  1.00  0.00    -0.206 F 
ATOM     75  C   UNL A   1      50.181  25.422  30.334  1.00  0.00     0.040 A 
ATOM     76  C   UNL A   1      50.369  26.248  28.079  1.00  0.00     0.040 A 
ATOM     77  F   UNL A   1      48.517  27.249  27.041  1.00  0.00    -0.206 F 
ATOM     78  C   UNL A   1      50.946  25.629  29.186  1.00  0.00     0.006 A 
ENDBRANCH  50  71
BRANCH  62  79
ATOM     79  C   UNL A   1      44.898  32.353  30.816  1.00  0.00     0.057 A 
ATOM     80  C   UNL A   1      45.075  32.648  32.174  1.00  0.00     0.134 A 
ATOM     81  C   UNL A   1      45.219  33.352  29.889  1.00  0.00     0.134 A 
ATOM     82  F   UNL A   1      44.770  31.738  33.112  1.00  0.00    -0.206 F 
ATOM     83  C   UNL A   1      45.540  33.894  32.594  1.00  0.00     0.040 A 
ATOM     84  C   UNL A   1      45.705  34.595  30.296  1.00  0.00     0.040 A 
ATOM     85  F   UNL A   1      45.076  33.132  28.573  1.00  0.00    -0.206 F 
ATOM     86  C   UNL A   1      45.863  34.870  31.653  1.00  0.00     0.006 A 
ENDBRANCH  62  79
ENDBRANCH  36  37
ENDBRANCH  28  31
ENDBRANCH  26  27
ENDBRANCH  25  26
ENDBRANCH   1  25
TORSDOF 13
ENDMDL
MODEL 2
REMARK VINA RESULT:     -12.5      0.501      6.098
REMARK SMILES O=C(NCCCCNC(=O)c1ccc(-c2c3nc(c(-c4c(F)cccc4F)c4ccc([nH]4)c(-c4c(F)cccc4F)c4nc(c(-c5c(F)cccc5F)c5ccc2[nH]5)C=C4)C=C3)cc1)c1ccc(N[C@H]2OC(=O)c3ccccc32)cc1
REMARK SMILES IDX 5 1 4 2 3 3 1 4 2 5 65 7 66 8 81 9 67 10 80 11 68 12 69 13
REMARK SMILES IDX 70 15 71 16 79 17 72 18 74 19 78 20 73 21 75 22 77 23 76 24
REMARK SMILES IDX 6 25 7 26 8 27 9 28 10 30 11 31 12 32 64 33 13 34 63 35
REMARK SMILES IDX 14 36 15 37 16 38 57 39 17 40 62 41 56 42 58 43 18 44 61 45
REMARK SMILES IDX 55 46 54 47 19 49 45 50 28 51 44 52 29 53 32 54 43 55 59 56
REMARK SMILES IDX 30 57 31 58 42 60 60 61 33 62 20 63 21 64 26 65 22 66 23 67
REMARK SMILES IDX 25 68 27 69 24 70 46 71 47 72 52 73 48 74 49 75 51 76 53 77
REMARK SMILES IDX 50 78 34 79 35 80 40 81 36 82 37 83 39 84 41 85 38 86
REMARK H PARENT 3 6 69 14 8 29 58 48 32 59
REMARK Flexibility Score: inf
ROOT
ATOM      1  C   UNL A   1      36.163  21.641  24.941  1.00  0.00     0.023 C 
ENDROOT
BRANCH   1   2
ATOM      2  C   UNL A   1      35.075  21.541  26.005  1.00  0.00     0.116 C 
BRANCH   2   3
ATOM      3  N   UNL A   1      34.288  20.323  25.904  1.00  0.00    -0.352 N 
ATOM      4  O   UNL A   1      32.466  19.072  25.422  1.00  0.00    -0.269 OA
ATOM      5  C   UNL A   1      33.046  20.149  25.344  1.00  0.00     0.251 C 
ATOM      6  H   UNL A   1      34.701  19.516  26.288  1.00  0.00     0.163 HD
BRANCH   5   7
ATOM      7  C   UNL A   1      32.392  21.297  24.689  1.00  0.00     0.039 A 
ATOM      8  C   UNL A   1      32.614  21.576  23.339  1.00  0.00     0.016 A 
ATOM      9  C   UNL A   1      31.602  22.143  25.459  1.00  0.00     0.016 A 
ATOM     10  C   UNL A   1      32.130  22.767  22.787  1.00  0.00     0.026 A 
ATOM     11  C   UNL A   1      31.111  23.319  24.891  1.00  0.00     0.026 A 
ATOM     12  C   UNL A   1      31.385  23.668  23.556  1.00  0.00     0.037 A 
BRANCH  12  13
ATOM     13  N   UNL A   1      30.938  24.885  23.100  1.00  0.00    -0.347 N 
ATOM     14  H   UNL A   1      29.967  24.966  22.963  1.00  0.00     0.164 HD
BRANCH  13  15
ATOM     15  C   UNL A   1      31.717  26.055  22.801  1.00  0.00     0.305 C 
ATOM     16  O   UNL A   1      30.953  26.856  21.879  1.00  0.00    -0.434 OA
ATOM     17  C   UNL A   1      31.850  26.936  23.987  1.00  0.00     0.028 A 
ATOM     18  C   UNL A   1      30.593  28.055  22.415  1.00  0.00     0.340 C 
ATOM     19  C   UNL A   1      31.169  28.112  23.748  1.00  0.00     0.069 A 
ATOM     20  C   UNL A   1      32.515  26.753  25.190  1.00  0.00     0.010 A 
ATOM     21  O   UNL A   1      29.921  28.914  21.882  1.00  0.00    -0.246 OA
ATOM     22  C   UNL A   1      31.093  29.141  24.671  1.00  0.00     0.016 A 
ATOM     23  C   UNL A   1      32.467  27.780  26.141  1.00  0.00     0.001 A 
ATOM     24  C   UNL A   1      31.755  28.966  25.886  1.00  0.00     0.001 A 
ENDBRANCH  13  15
ENDBRANCH  12  13
ENDBRANCH   5   7
ENDBRANCH   2   3
ENDBRANCH   1   2
BRANCH   1  25
ATOM     25  C   UNL A   1      37.200  20.520  24.959  1.00  0.00     0.023 C 
BRANCH  25  26
ATOM     26  C   UNL A   1      38.534  20.865  25.612  1.00  0.00     0.116 C 
BRANCH  26  27
ATOM     27  N   UNL A   1      39.482  19.759  25.614  1.00  0.00    -0.352 N 
ATOM     28  C   UNL A   1      40.801  19.733  26.000  1.00  0.00     0.251 C 
ATOM     29  H   UNL A   1      39.124  18.900  25.291  1.00  0.00     0.163 HD
ATOM     30  O   UNL A   1      41.470  18.718  25.840  1.00  0.00    -0.269 OA
BRANCH  28  31
ATOM     31  C   UNL A   1      41.428  20.948  26.564  1.00  0.00     0.039 A 
ATOM     32  C   UNL A   1      42.079  21.829  25.698  1.00  0.00     0.014 A 
ATOM     33  C   UNL A   1      41.337  21.239  27.927  1.00  0.00     0.014 A 
ATOM     34  C   UNL A   1      42.545  23.054  26.180  1.00  0.00     0.010 A 
ATOM     35  C   UNL A   1      41.739  22.488  28.393  1.00  0.00     0.010 A 
ATOM     36  C   UNL A   1      42.325  23.416  27.518  1.00  0.00    -0.014 A 
BRANCH  36  37
ATOM     37  C   UNL A   1      42.636  24.782  28.008  1.00  0.00     0.031 A 
ATOM     38  C   UNL A   1      44.017  25.133  28.475  1.00  0.00     0.074 A 
ATOM     39  C   UNL A   1      41.638  25.679  28.127  1.00  0.00     0.049 A 
ATOM     40  N   UNL A   1      44.447  26.240  29.024  1.00  0.00    -0.248 NA
ATOM     41  C   UNL A   1      45.045  24.092  28.332  1.00  0.00     0.031 C 
ATOM     42  C   UNL A   1      40.238  25.441  27.767  1.00  0.00     0.029 A 
ATOM     43  N   UNL A   1      41.642  26.965  28.607  1.00  0.00    -0.354 N 
ATOM     44  C   UNL A   1      45.790  26.027  29.303  1.00  0.00     0.074 A 
ATOM     45  C   UNL A   1      46.091  24.668  28.905  1.00  0.00     0.031 C 
ATOM     46  C   UNL A   1      39.522  26.544  28.034  1.00  0.00     0.029 A 
ATOM     47  C   UNL A   1      40.401  27.552  28.616  1.00  0.00     0.049 A 
ATOM     48  H   UNL A   1      42.458  27.423  28.915  1.00  0.00     0.167 HD
ATOM     49  C   UNL A   1      46.693  26.891  29.824  1.00  0.00     0.037 A 
ATOM     50  C   UNL A   1      40.008  28.760  29.060  1.00  0.00     0.037 A 
ATOM     51  C   UNL A   1      46.394  28.247  30.206  1.00  0.00     0.049 A 
ATOM     52  C   UNL A   1      41.022  29.700  29.644  1.00  0.00     0.074 A 
ATOM     53  C   UNL A   1      47.260  29.225  30.663  1.00  0.00     0.029 A 
ATOM     54  N   UNL A   1      45.127  28.811  30.188  1.00  0.00    -0.354 N 
ATOM     55  N   UNL A   1      42.307  29.515  29.824  1.00  0.00    -0.248 NA
ATOM     56  C   UNL A   1      40.534  31.013  30.086  1.00  0.00     0.031 C 
ATOM     57  C   UNL A   1      46.509  30.368  30.963  1.00  0.00     0.029 A 
ATOM     58  C   UNL A   1      45.182  30.115  30.656  1.00  0.00     0.049 A 
ATOM     59  H   UNL A   1      44.309  28.354  29.885  1.00  0.00     0.167 HD
ATOM     60  C   UNL A   1      42.784  30.687  30.394  1.00  0.00     0.074 A 
ATOM     61  C   UNL A   1      41.653  31.586  30.510  1.00  0.00     0.031 C 
ATOM     62  C   UNL A   1      44.045  30.990  30.786  1.00  0.00     0.037 A 
BRANCH  49  63
ATOM     63  C   UNL A   1      48.095  26.387  30.010  1.00  0.00     0.057 A 
ATOM     64  C   UNL A   1      48.504  25.773  31.201  1.00  0.00     0.134 A 
ATOM     65  C   UNL A   1      49.040  26.507  28.985  1.00  0.00     0.134 A 
ATOM     66  F   UNL A   1      47.649  25.637  32.226  1.00  0.00    -0.206 F 
ATOM     67  C   UNL A   1      49.815  25.326  31.379  1.00  0.00     0.040 A 
ATOM     68  C   UNL A   1      50.347  26.040  29.141  1.00  0.00     0.040 A 
ATOM     69  F   UNL A   1      48.713  27.079  27.817  1.00  0.00    -0.206 F 
ATOM     70  C   UNL A   1      50.739  25.456  30.344  1.00  0.00     0.006 A 
ENDBRANCH  49  63
BRANCH  50  71
ATOM     71  C   UNL A   1      38.578  29.143  28.963  1.00  0.00     0.057 A 
ATOM     72  C   UNL A   1      37.734  29.067  30.076  1.00  0.00     0.134 A 
ATOM     73  C   UNL A   1      38.032  29.626  27.768  1.00  0.00     0.134 A 
ATOM     74  F   UNL A   1      38.197  28.596  31.242  1.00  0.00    -0.206 F 
ATOM     75  C   UNL A   1      36.395  29.454  30.003  1.00  0.00     0.040 A 
ATOM     76  C   UNL A   1      36.701  30.035  27.686  1.00  0.00     0.040 A 
ATOM     77  F   UNL A   1      38.795  29.730  26.669  1.00  0.00    -0.206 F 
ATOM     78  C   UNL A   1      35.877  29.948  28.807  1.00  0.00     0.006 A 
ENDBRANCH  50  71
BRANCH  62  79
ATOM     79  C   UNL A   1      44.266  32.347  31.386  1.00  0.00     0.057 A 
ATOM     80  C   UNL A   1      44.202  32.555  32.770  1.00  0.00     0.134 A 
ATOM     81  C   UNL A   1      44.580  33.447  30.579  1.00  0.00     0.134 A 
ATOM     82  F   UNL A   1      43.890  31.544  33.596  1.00  0.00    -0.206 F 
ATOM     83  C   UNL A   1      44.429  33.814  33.328  1.00  0.00     0.040 A 
ATOM     84  C   UNL A   1      44.830  34.705  31.127  1.00  0.00     0.040 A 
ATOM     85  F   UNL A   1      44.661  33.313  29.246  1.00  0.00    -0.206 F 
ATOM     86  C   UNL A   1      44.751  34.892  32.506  1.00  0.00     0.006 A 
ENDBRANCH  62  79
ENDBRANCH  36  37
ENDBRANCH  28  31
ENDBRANCH  26  27
ENDBRANCH  25  26
ENDBRANCH   1  25
TORSDOF 13
ENDMDL
MODEL 3
REMARK VINA RESULT:     -12.4      2.032      7.591
REMARK SMILES O=C(NCCCCNC(=O)c1ccc(-c2c3nc(c(-c4c(F)cccc4F)c4ccc([nH]4)c(-c4c(F)cccc4F)c4nc(c(-c5c(F)cccc5F)c5ccc2[nH]5)C=C4)C=C3)cc1)c1ccc(N[C@H]2OC(=O)c3ccccc32)cc1
REMARK SMILES IDX 5 1 4 2 3 3 1 4 2 5 65 7 66 8 81 9 67 10 80 11 68 12 69 13
REMARK SMILES IDX 70 15 71 16 79 17 72 18 74 19 78 20 73 21 75 22 77 23 76 24
REMARK SMILES IDX 6 25 7 26 8 27 9 28 10 30 11 31 12 32 64 33 13 34 63 35
REMARK SMILES IDX 14 36 15 37 16 38 57 39 17 40 62 41 56 42 58 43 18 44 61 45
REMARK SMILES IDX 55 46 54 47 19 49 45 50 28 51 44 52 29 53 32 54 43 55 59 56
REMARK SMILES IDX 30 57 31 58 42 60 60 61 33 62 20 63 21 64 26 65 22 66 23 67
REMARK SMILES IDX 25 68 27 69 24 70 46 71 47 72 52 73 48 74 49 75 51 76 53 77
REMARK SMILES IDX 50 78 34 79 35 80 40 81 36 82 37 83 39 84 41 85 38 86
REMARK H PARENT 3 6 69 14 8 29 58 48 32 59
REMARK Flexibility Score: inf
ROOT
ATOM      1  C   UNL A   1      31.782  29.639  25.747  1.00  0.00     0.023 C 
ENDROOT
BRANCH   1   2
ATOM      2  C   UNL A   1      32.254  29.326  24.331  1.00  0.00     0.116 C 
BRANCH   2   3
ATOM      3  N   UNL A   1      31.285  29.693  23.312  1.00  0.00    -0.352 N 
ATOM      4  O   UNL A   1      29.778  29.330  21.664  1.00  0.00    -0.269 OA
ATOM      5  C   UNL A   1      30.480  28.873  22.558  1.00  0.00     0.251 C 
ATOM      6  H   UNL A   1      31.192  30.658  23.139  1.00  0.00     0.163 HD
BRANCH   5   7
ATOM      7  C   UNL A   1      30.513  27.420  22.805  1.00  0.00     0.039 A 
ATOM      8  C   UNL A   1      29.721  26.843  23.801  1.00  0.00     0.016 A 
ATOM      9  C   UNL A   1      31.402  26.639  22.076  1.00  0.00     0.016 A 
ATOM     10  C   UNL A   1      29.902  25.497  24.139  1.00  0.00     0.026 A 
ATOM     11  C   UNL A   1      31.559  25.293  22.413  1.00  0.00     0.026 A 
ATOM     12  C   UNL A   1      30.834  24.702  23.463  1.00  0.00     0.037 A 
BRANCH  12  13
ATOM     13  N   UNL A   1      31.112  23.396  23.786  1.00  0.00    -0.347 N 
ATOM     14  H   UNL A   1      30.841  22.719  23.124  1.00  0.00     0.164 HD
BRANCH  13  15
ATOM     15  C   UNL A   1      31.752  22.897  24.972  1.00  0.00     0.305 C 
ATOM     16  O   UNL A   1      31.278  21.553  25.184  1.00  0.00    -0.434 OA
ATOM     17  C   UNL A   1      33.209  22.716  24.767  1.00  0.00     0.028 A 
ATOM     18  C   UNL A   1      32.275  20.633  25.070  1.00  0.00     0.340 C 
ATOM     19  C   UNL A   1      33.503  21.369  24.816  1.00  0.00     0.069 A 
ATOM     20  C   UNL A   1      34.224  23.638  24.561  1.00  0.00     0.010 A 
ATOM     21  O   UNL A   1      32.163  19.428  25.166  1.00  0.00    -0.246 OA
ATOM     22  C   UNL A   1      34.782  20.868  24.648  1.00  0.00     0.016 A 
ATOM     23  C   UNL A   1      35.532  23.165  24.399  1.00  0.00     0.001 A 
ATOM     24  C   UNL A   1      35.810  21.787  24.436  1.00  0.00     0.001 A 
ENDBRANCH  13  15
ENDBRANCH  12  13
ENDBRANCH   5   7
ENDBRANCH   2   3
ENDBRANCH   1   2
BRANCH   1  25
ATOM     25  C   UNL A   1      32.364  28.748  26.841  1.00  0.00     0.023 C 
BRANCH  25  26
ATOM     26  C   UNL A   1      33.783  29.088  27.285  1.00  0.00     0.116 C 
BRANCH  26  27
ATOM     27  N   UNL A   1      33.882  30.360  27.987  1.00  0.00    -0.352 N 
ATOM     28  C   UNL A   1      34.941  30.903  28.676  1.00  0.00     0.251 C 
ATOM     29  H   UNL A   1      33.069  30.915  27.965  1.00  0.00     0.163 HD
ATOM     30  O   UNL A   1      34.802  31.957  29.287  1.00  0.00    -0.269 OA
BRANCH  28  31
ATOM     31  C   UNL A   1      36.235  30.189  28.723  1.00  0.00     0.039 A 
ATOM     32  C   UNL A   1      37.064  30.235  27.599  1.00  0.00     0.014 A 
ATOM     33  C   UNL A   1      36.648  29.520  29.877  1.00  0.00     0.014 A 
ATOM     34  C   UNL A   1      38.353  29.701  27.670  1.00  0.00     0.010 A 
ATOM     35  C   UNL A   1      37.956  29.051  29.970  1.00  0.00     0.010 A 
ATOM     36  C   UNL A   1      38.827  29.159  28.876  1.00  0.00    -0.014 A 
BRANCH  36  37
ATOM     37  C   UNL A   1      40.248  28.762  29.035  1.00  0.00     0.031 A 
ATOM     38  C   UNL A   1      41.273  29.752  29.502  1.00  0.00     0.074 A 
ATOM     39  C   UNL A   1      40.631  27.526  28.657  1.00  0.00     0.049 A 
ATOM     40  N   UNL A   1      42.570  29.612  29.607  1.00  0.00    -0.248 NA
ATOM     41  C   UNL A   1      40.778  31.085  29.877  1.00  0.00     0.031 C 
ATOM     42  C   UNL A   1      39.742  26.491  28.126  1.00  0.00     0.029 A 
ATOM     43  N   UNL A   1      41.872  26.940  28.638  1.00  0.00    -0.354 N 
ATOM     44  C   UNL A   1      43.049  30.838  30.045  1.00  0.00     0.074 A 
ATOM     45  C   UNL A   1      41.907  31.725  30.142  1.00  0.00     0.031 C 
ATOM     46  C   UNL A   1      40.464  25.397  27.838  1.00  0.00     0.029 A 
ATOM     47  C   UNL A   1      41.868  25.665  28.129  1.00  0.00     0.049 A 
ATOM     48  H   UNL A   1      42.687  27.391  28.958  1.00  0.00     0.167 HD
ATOM     49  C   UNL A   1      44.319  31.188  30.357  1.00  0.00     0.037 A 
ATOM     50  C   UNL A   1      42.884  24.810  27.903  1.00  0.00     0.037 A 
ATOM     51  C   UNL A   1      45.451  30.302  30.273  1.00  0.00     0.049 A 
ATOM     52  C   UNL A   1      44.286  25.221  28.245  1.00  0.00     0.074 A 
ATOM     53  C   UNL A   1      46.762  30.538  30.647  1.00  0.00     0.029 A 
ATOM     54  N   UNL A   1      45.406  29.011  29.765  1.00  0.00    -0.354 N 
ATOM     55  N   UNL A   1      44.713  26.357  28.740  1.00  0.00    -0.248 NA
ATOM     56  C   UNL A   1      45.346  24.233  28.000  1.00  0.00     0.031 C 
ATOM     57  C   UNL A   1      47.519  29.405  30.325  1.00  0.00     0.029 A 
ATOM     58  C   UNL A   1      46.672  28.450  29.788  1.00  0.00     0.049 A 
ATOM     59  H   UNL A   1      44.594  28.560  29.440  1.00  0.00     0.167 HD
ATOM     60  C   UNL A   1      46.089  26.222  28.870  1.00  0.00     0.074 A 
ATOM     61  C   UNL A   1      46.421  24.884  28.423  1.00  0.00     0.031 C 
ATOM     62  C   UNL A   1      46.993  27.125  29.319  1.00  0.00     0.037 A 
BRANCH  49  63
ATOM     63  C   UNL A   1      44.547  32.599  30.819  1.00  0.00     0.057 A 
ATOM     64  C   UNL A   1      44.864  33.625  29.921  1.00  0.00     0.134 A 
ATOM     65  C   UNL A   1      44.438  32.934  32.174  1.00  0.00     0.134 A 
ATOM     66  F   UNL A   1      44.995  33.368  28.611  1.00  0.00    -0.206 F 
ATOM     67  C   UNL A   1      45.098  34.931  30.358  1.00  0.00     0.040 A 
ATOM     68  C   UNL A   1      44.643  34.241  32.620  1.00  0.00     0.040 A 
ATOM     69  F   UNL A   1      44.131  32.000  33.086  1.00  0.00    -0.206 F 
ATOM     70  C   UNL A   1      44.984  35.242  31.711  1.00  0.00     0.006 A 
ENDBRANCH  49  63
BRANCH  50  71
ATOM     71  C   UNL A   1      42.598  23.476  27.320  1.00  0.00     0.057 A 
ATOM     72  C   UNL A   1      42.246  22.394  28.134  1.00  0.00     0.134 A 
ATOM     73  C   UNL A   1      42.636  23.262  25.937  1.00  0.00     0.134 A 
ATOM     74  F   UNL A   1      42.211  22.536  29.466  1.00  0.00    -0.206 F 
ATOM     75  C   UNL A   1      41.945  21.143  27.593  1.00  0.00     0.040 A 
ATOM     76  C   UNL A   1      42.318  22.023  25.381  1.00  0.00     0.040 A 
ATOM     77  F   UNL A   1      42.958  24.264  25.106  1.00  0.00    -0.206 F 
ATOM     78  C   UNL A   1      41.974  20.957  26.211  1.00  0.00     0.006 A 
ENDBRANCH  50  71
BRANCH  62  79
ATOM     79  C   UNL A   1      48.431  26.699  29.340  1.00  0.00     0.057 A 
ATOM     80  C   UNL A   1      49.304  27.016  28.292  1.00  0.00     0.134 A 
ATOM     81  C   UNL A   1      48.956  25.999  30.432  1.00  0.00     0.134 A 
ATOM     82  F   UNL A   1      48.857  27.673  27.210  1.00  0.00    -0.206 F 
ATOM     83  C   UNL A   1      50.646  26.637  28.323  1.00  0.00     0.040 A 
ATOM     84  C   UNL A   1      50.302  25.633  30.484  1.00  0.00     0.040 A 
ATOM     85  F   UNL A   1      48.174  25.668  31.471  1.00  0.00    -0.206 F 
ATOM     86  C   UNL A   1      51.150  25.950  29.425  1.00  0.00     0.006 A 
ENDBRANCH  62  79
ENDBRANCH  36  37
ENDBRANCH  28  31
ENDBRANCH  26  27
ENDBRANCH  25  26
ENDBRANCH   1  25
TORSDOF 13
ENDMDL
