MODEL 1
REMARK VINA RESULT:     -11.5      0.000      0.000
REMARK SMILES CC(C)(NC(=O)[C@]1(C)CCCO1)C(C)(C)C(=O)NCCCCNC(=O)c1ccc(-c2c3nc(c(-c4c(F)cccc4F)c4ccc([nH]4)c(-c4c(F)cccc4F)c4nc(c(-c5c(F)cccc5F)c5ccc2[nH]5)C=C4)C=C3)cc1
REMARK SMILES IDX 20 1 19 2 18 3 16 4 17 5 13 7 14 8 15 9 2 10 1 11 3 12 4 13
REMARK SMILES IDX 5 14 6 16 7 17 9 18 12 19 8 20 10 21 11 22 21 23 22 24 23 25
REMARK SMILES IDX 24 26 25 28 26 29 27 30 79 31 28 32 78 33 29 34 30 35 31 36
REMARK SMILES IDX 72 37 32 38 77 39 71 40 73 41 33 42 76 43 70 44 69 45 34 47
REMARK SMILES IDX 60 48 43 49 59 50 44 51 47 52 58 53 74 54 45 55 46 56 57 58
REMARK SMILES IDX 75 59 48 60 35 61 36 62 41 63 37 64 38 65 40 66 42 67 39 68
REMARK SMILES IDX 61 69 62 70 67 71 63 72 64 73 66 74 68 75 65 76 49 77 50 78
REMARK SMILES IDX 55 79 51 80 52 81 54 82 56 83 53 84
REMARK H PARENT 18 6 4 15 23 27 73 46 47 57
REMARK Flexibility Score: inf
ROOT
ATOM      1  C   UNL A   1      31.675  30.562  26.021  1.00  0.00     0.023 C 
ENDROOT
BRANCH   1   2
ATOM      2  C   UNL A   1      33.070  29.985  26.250  1.00  0.00     0.116 C 
BRANCH   2   3
ATOM      3  N   UNL A   1      33.693  29.586  25.008  1.00  0.00    -0.356 N 
ATOM      4  C   UNL A   1      33.604  28.494  24.215  1.00  0.00     0.228 C 
ATOM      5  O   UNL A   1      34.269  28.603  23.180  1.00  0.00    -0.274 OA
ATOM      6  H   UNL A   1      34.324  30.259  24.663  1.00  0.00     0.163 HD
BRANCH   4   7
ATOM      7  C   UNL A   1      32.874  27.175  24.587  1.00  0.00     0.066 C 
ATOM      8  C   UNL A   1      32.671  26.813  26.079  1.00  0.00     0.024 C 
ATOM      9  C   UNL A   1      33.822  26.074  24.029  1.00  0.00     0.024 C 
BRANCH   7  10
ATOM     10  C   UNL A   1      31.438  27.175  23.887  1.00  0.00     0.048 C 
ATOM     11  C   UNL A   1      30.305  27.307  24.960  1.00  0.00     0.035 C 
ATOM     12  C   UNL A   1      31.114  25.820  23.183  1.00  0.00     0.035 C 
BRANCH  10  13
ATOM     13  N   UNL A   1      31.117  28.281  22.890  1.00  0.00    -0.348 N 
ATOM     14  C   UNL A   1      30.235  29.135  22.331  1.00  0.00     0.252 C 
ATOM     15  H   UNL A   1      31.969  28.461  22.430  1.00  0.00     0.164 HD
ATOM     16  O   UNL A   1      30.776  29.743  21.381  1.00  0.00    -0.272 OA
BRANCH  14  17
ATOM     17  C   UNL A   1      28.758  29.541  22.692  1.00  0.00     0.143 C 
ATOM     18  C   UNL A   1      28.105  30.307  21.504  1.00  0.00     0.048 C 
ATOM     19  O   UNL A   1      28.800  30.486  23.786  1.00  0.00    -0.365 OA
ATOM     20  C   UNL A   1      27.746  28.477  23.066  1.00  0.00     0.053 C 
ATOM     21  C   UNL A   1      27.884  31.713  21.999  1.00  0.00     0.032 C 
ATOM     22  C   UNL A   1      27.917  31.573  23.498  1.00  0.00     0.162 C 
ENDBRANCH  14  17
ENDBRANCH  10  13
ENDBRANCH   7  10
ENDBRANCH   4   7
ENDBRANCH   2   3
ENDBRANCH   1   2
BRANCH   1  23
ATOM     23  C   UNL A   1      31.407  31.927  26.661  1.00  0.00     0.023 C 
BRANCH  23  24
ATOM     24  C   UNL A   1      32.630  32.621  27.254  1.00  0.00     0.116 C 
BRANCH  24  25
ATOM     25  N   UNL A   1      32.371  34.016  27.578  1.00  0.00    -0.352 N 
ATOM     26  C   UNL A   1      32.980  34.831  28.506  1.00  0.00     0.251 C 
ATOM     27  H   UNL A   1      31.654  34.440  27.056  1.00  0.00     0.163 HD
ATOM     28  O   UNL A   1      32.503  35.922  28.777  1.00  0.00    -0.269 OA
BRANCH  26  29
ATOM     29  C   UNL A   1      34.209  34.370  29.186  1.00  0.00     0.039 A 
ATOM     30  C   UNL A   1      34.107  33.750  30.434  1.00  0.00     0.014 A 
ATOM     31  C   UNL A   1      35.458  34.552  28.588  1.00  0.00     0.014 A 
ATOM     32  C   UNL A   1      35.255  33.241  31.048  1.00  0.00     0.010 A 
ATOM     33  C   UNL A   1      36.587  33.981  29.166  1.00  0.00     0.010 A 
ATOM     34  C   UNL A   1      36.499  33.319  30.401  1.00  0.00    -0.014 A 
BRANCH  34  35
ATOM     35  C   UNL A   1      37.730  32.736  30.992  1.00  0.00     0.031 A 
ATOM     36  C   UNL A   1      38.356  31.522  30.361  1.00  0.00     0.074 A 
ATOM     37  C   UNL A   1      38.235  33.239  32.135  1.00  0.00     0.049 A 
ATOM     38  N   UNL A   1      39.335  30.772  30.798  1.00  0.00    -0.248 NA
ATOM     39  C   UNL A   1      37.781  31.075  29.081  1.00  0.00     0.031 C 
ATOM     40  C   UNL A   1      37.709  34.396  32.861  1.00  0.00     0.029 A 
ATOM     41  N   UNL A   1      39.299  32.826  32.900  1.00  0.00    -0.354 N 
ATOM     42  C   UNL A   1      39.480  29.759  29.858  1.00  0.00     0.074 A 
ATOM     43  C   UNL A   1      38.454  29.957  28.858  1.00  0.00     0.031 C 
ATOM     44  C   UNL A   1      38.458  34.609  33.955  1.00  0.00     0.029 A 
ATOM     45  C   UNL A   1      39.489  33.578  34.035  1.00  0.00     0.049 A 
ATOM     46  H   UNL A   1      39.872  32.063  32.657  1.00  0.00     0.167 HD
ATOM     47  C   UNL A   1      40.400  28.766  29.819  1.00  0.00     0.037 A 
ATOM     48  C   UNL A   1      40.381  33.439  35.033  1.00  0.00     0.037 A 
ATOM     49  C   UNL A   1      41.435  28.584  30.802  1.00  0.00     0.049 A 
ATOM     50  C   UNL A   1      41.374  32.308  34.981  1.00  0.00     0.074 A 
ATOM     51  C   UNL A   1      42.434  27.627  30.835  1.00  0.00     0.029 A 
ATOM     52  N   UNL A   1      41.607  29.382  31.922  1.00  0.00    -0.354 N 
ATOM     53  N   UNL A   1      41.525  31.381  34.066  1.00  0.00    -0.248 NA
ATOM     54  C   UNL A   1      42.323  32.207  36.100  1.00  0.00     0.031 C 
ATOM     55  C   UNL A   1      43.189  27.824  31.995  1.00  0.00     0.029 A 
ATOM     56  C   UNL A   1      42.692  28.934  32.658  1.00  0.00     0.049 A 
ATOM     57  H   UNL A   1      41.043  30.153  32.159  1.00  0.00     0.167 HD
ATOM     58  C   UNL A   1      42.612  30.617  34.476  1.00  0.00     0.074 A 
ATOM     59  C   UNL A   1      43.084  31.190  35.718  1.00  0.00     0.031 C 
ATOM     60  C   UNL A   1      43.170  29.539  33.874  1.00  0.00     0.037 A 
BRANCH  47  61
ATOM     61  C   UNL A   1      40.336  27.807  28.666  1.00  0.00     0.057 A 
ATOM     62  C   UNL A   1      41.027  28.045  27.470  1.00  0.00     0.134 A 
ATOM     63  C   UNL A   1      39.608  26.613  28.764  1.00  0.00     0.134 A 
ATOM     64  F   UNL A   1      41.732  29.175  27.308  1.00  0.00    -0.206 F 
ATOM     65  C   UNL A   1      40.976  27.146  26.405  1.00  0.00     0.040 A 
ATOM     66  C   UNL A   1      39.574  25.692  27.717  1.00  0.00     0.040 A 
ATOM     67  F   UNL A   1      38.928  26.320  29.883  1.00  0.00    -0.206 F 
ATOM     68  C   UNL A   1      40.254  25.960  26.530  1.00  0.00     0.006 A 
ENDBRANCH  47  61
BRANCH  48  69
ATOM     69  C   UNL A   1      40.399  34.399  36.168  1.00  0.00     0.057 A 
ATOM     70  C   UNL A   1      39.600  34.192  37.299  1.00  0.00     0.134 A 
ATOM     71  C   UNL A   1      41.178  35.562  36.136  1.00  0.00     0.134 A 
ATOM     72  F   UNL A   1      38.817  33.106  37.380  1.00  0.00    -0.206 F 
ATOM     73  C   UNL A   1      39.551  35.117  38.342  1.00  0.00     0.040 A 
ATOM     74  C   UNL A   1      41.161  36.482  37.185  1.00  0.00     0.040 A 
ATOM     75  F   UNL A   1      41.971  35.818  35.085  1.00  0.00    -0.206 F 
ATOM     76  C   UNL A   1      40.336  36.266  38.287  1.00  0.00     0.006 A 
ENDBRANCH  48  69
BRANCH  60  77
ATOM     77  C   UNL A   1      44.398  28.951  34.505  1.00  0.00     0.057 A 
ATOM     78  C   UNL A   1      44.330  27.911  35.441  1.00  0.00     0.134 A 
ATOM     79  C   UNL A   1      45.670  29.398  34.124  1.00  0.00     0.134 A 
ATOM     80  F   UNL A   1      43.142  27.447  35.856  1.00  0.00    -0.206 F 
ATOM     81  C   UNL A   1      45.485  27.349  35.987  1.00  0.00     0.040 A 
ATOM     82  C   UNL A   1      46.831  28.826  34.644  1.00  0.00     0.040 A 
ATOM     83  F   UNL A   1      45.804  30.385  33.225  1.00  0.00    -0.206 F 
ATOM     84  C   UNL A   1      46.740  27.800  35.582  1.00  0.00     0.006 A 
ENDBRANCH  60  77
ENDBRANCH  34  35
ENDBRANCH  26  29
ENDBRANCH  24  25
ENDBRANCH  23  24
ENDBRANCH   1  23
TORSDOF 14
ENDMDL
MODEL 2
REMARK VINA RESULT:     -11.3      0.798      6.278
REMARK SMILES CC(C)(NC(=O)[C@]1(C)CCCO1)C(C)(C)C(=O)NCCCCNC(=O)c1ccc(-c2c3nc(c(-c4c(F)cccc4F)c4ccc([nH]4)c(-c4c(F)cccc4F)c4nc(c(-c5c(F)cccc5F)c5ccc2[nH]5)C=C4)C=C3)cc1
REMARK SMILES IDX 20 1 19 2 18 3 16 4 17 5 13 7 14 8 15 9 2 10 1 11 3 12 4 13
REMARK SMILES IDX 5 14 6 16 7 17 9 18 12 19 8 20 10 21 11 22 21 23 22 24 23 25
REMARK SMILES IDX 24 26 25 28 26 29 27 30 79 31 28 32 78 33 29 34 30 35 31 36
REMARK SMILES IDX 72 37 32 38 77 39 71 40 73 41 33 42 76 43 70 44 69 45 34 47
REMARK SMILES IDX 60 48 43 49 59 50 44 51 47 52 58 53 74 54 45 55 46 56 57 58
REMARK SMILES IDX 75 59 48 60 35 61 36 62 41 63 37 64 38 65 40 66 42 67 39 68
REMARK SMILES IDX 61 69 62 70 67 71 63 72 64 73 66 74 68 75 65 76 49 77 50 78
REMARK SMILES IDX 55 79 51 80 52 81 54 82 56 83 53 84
REMARK H PARENT 18 6 4 15 23 27 73 46 47 57
REMARK Flexibility Score: inf
ROOT
ATOM      1  C   UNL A   1      31.392  30.793  25.955  1.00  0.00     0.023 C 
ENDROOT
BRANCH   1   2
ATOM      2  C   UNL A   1      32.653  30.000  26.287  1.00  0.00     0.116 C 
BRANCH   2   3
ATOM      3  N   UNL A   1      33.404  29.668  25.098  1.00  0.00    -0.356 N 
ATOM      4  C   UNL A   1      33.443  28.595  24.274  1.00  0.00     0.228 C 
ATOM      5  O   UNL A   1      34.190  28.766  23.307  1.00  0.00    -0.274 OA
ATOM      6  H   UNL A   1      34.027  30.380  24.827  1.00  0.00     0.163 HD
BRANCH   4   7
ATOM      7  C   UNL A   1      32.753  27.231  24.548  1.00  0.00     0.066 C 
ATOM      8  C   UNL A   1      32.559  26.758  26.010  1.00  0.00     0.024 C 
ATOM      9  C   UNL A   1      33.736  26.202  23.917  1.00  0.00     0.024 C 
BRANCH   7  10
ATOM     10  C   UNL A   1      31.319  27.238  23.844  1.00  0.00     0.048 C 
ATOM     11  C   UNL A   1      30.184  27.377  24.915  1.00  0.00     0.035 C 
ATOM     12  C   UNL A   1      30.990  25.883  23.141  1.00  0.00     0.035 C 
BRANCH  10  13
ATOM     13  N   UNL A   1      31.007  28.343  22.845  1.00  0.00    -0.348 N 
ATOM     14  C   UNL A   1      30.130  29.201  22.282  1.00  0.00     0.252 C 
ATOM     15  H   UNL A   1      31.860  28.520  22.388  1.00  0.00     0.164 HD
ATOM     16  O   UNL A   1      30.677  29.806  21.333  1.00  0.00    -0.272 OA
BRANCH  14  17
ATOM     17  C   UNL A   1      28.654  29.614  22.637  1.00  0.00     0.143 C 
ATOM     18  C   UNL A   1      28.024  30.423  21.466  1.00  0.00     0.048 C 
ATOM     19  O   UNL A   1      28.693  30.525  23.761  1.00  0.00    -0.365 OA
ATOM     20  C   UNL A   1      27.625  28.551  22.967  1.00  0.00     0.053 C 
ATOM     21  C   UNL A   1      27.814  31.817  22.001  1.00  0.00     0.032 C 
ATOM     22  C   UNL A   1      27.828  31.630  23.495  1.00  0.00     0.162 C 
ENDBRANCH  14  17
ENDBRANCH  10  13
ENDBRANCH   7  10
ENDBRANCH   4   7
ENDBRANCH   2   3
ENDBRANCH   1   2
BRANCH   1  23
ATOM     23  C   UNL A   1      31.342  32.222  26.504  1.00  0.00     0.023 C 
BRANCH  23  24
ATOM     24  C   UNL A   1      32.631  32.718  27.153  1.00  0.00     0.116 C 
BRANCH  24  25
ATOM     25  N   UNL A   1      32.519  34.088  27.628  1.00  0.00    -0.352 N 
ATOM     26  C   UNL A   1      33.183  34.720  28.655  1.00  0.00     0.251 C 
ATOM     27  H   UNL A   1      31.872  34.648  27.142  1.00  0.00     0.163 HD
ATOM     28  O   UNL A   1      32.823  35.822  29.039  1.00  0.00    -0.269 OA
BRANCH  26  29
ATOM     29  C   UNL A   1      34.329  34.048  29.304  1.00  0.00     0.039 A 
ATOM     30  C   UNL A   1      34.099  33.211  30.399  1.00  0.00     0.014 A 
ATOM     31  C   UNL A   1      35.627  34.248  28.829  1.00  0.00     0.014 A 
ATOM     32  C   UNL A   1      35.166  32.511  30.969  1.00  0.00     0.010 A 
ATOM     33  C   UNL A   1      36.674  33.496  29.351  1.00  0.00     0.010 A 
ATOM     34  C   UNL A   1      36.456  32.619  30.425  1.00  0.00    -0.014 A 
BRANCH  34  35
ATOM     35  C   UNL A   1      37.603  31.843  30.963  1.00  0.00     0.031 A 
ATOM     36  C   UNL A   1      38.191  32.214  32.297  1.00  0.00     0.074 A 
ATOM     37  C   UNL A   1      38.167  30.869  30.224  1.00  0.00     0.049 A 
ATOM     38  N   UNL A   1      39.277  31.770  32.877  1.00  0.00    -0.248 NA
ATOM     39  C   UNL A   1      37.477  33.245  33.068  1.00  0.00     0.031 C 
ATOM     40  C   UNL A   1      37.709  30.429  28.905  1.00  0.00     0.029 A 
ATOM     41  N   UNL A   1      39.265  30.081  30.471  1.00  0.00    -0.354 N 
ATOM     42  C   UNL A   1      39.384  32.477  34.068  1.00  0.00     0.074 A 
ATOM     43  C   UNL A   1      38.286  33.419  34.101  1.00  0.00     0.031 C 
ATOM     44  C   UNL A   1      38.509  29.444  28.466  1.00  0.00     0.029 A 
ATOM     45  C   UNL A   1      39.563  29.212  29.449  1.00  0.00     0.049 A 
ATOM     46  H   UNL A   1      39.788  30.135  31.303  1.00  0.00     0.167 HD
ATOM     47  C   UNL A   1      40.300  32.340  35.055  1.00  0.00     0.037 A 
ATOM     48  C   UNL A   1      40.581  28.341  29.314  1.00  0.00     0.037 A 
ATOM     49  C   UNL A   1      41.378  31.387  35.030  1.00  0.00     0.049 A 
ATOM     50  C   UNL A   1      41.604  28.230  30.413  1.00  0.00     0.074 A 
ATOM     51  C   UNL A   1      42.342  31.150  35.995  1.00  0.00     0.029 A 
ATOM     52  N   UNL A   1      41.629  30.509  33.987  1.00  0.00    -0.354 N 
ATOM     53  N   UNL A   1      41.671  28.878  31.551  1.00  0.00    -0.248 NA
ATOM     54  C   UNL A   1      42.693  27.262  30.210  1.00  0.00     0.031 C 
ATOM     55  C   UNL A   1      43.198  30.151  35.520  1.00  0.00     0.029 A 
ATOM     56  C   UNL A   1      42.738  29.733  34.283  1.00  0.00     0.049 A 
ATOM     57  H   UNL A   1      41.098  30.445  33.161  1.00  0.00     0.167 HD
ATOM     58  C   UNL A   1      42.778  28.365  32.216  1.00  0.00     0.074 A 
ATOM     59  C   UNL A   1      43.351  27.350  31.357  1.00  0.00     0.031 C 
ATOM     60  C   UNL A   1      43.274  28.703  33.431  1.00  0.00     0.037 A 
BRANCH  47  61
ATOM     61  C   UNL A   1      40.168  33.236  36.253  1.00  0.00     0.057 A 
ATOM     62  C   UNL A   1      40.920  34.411  36.379  1.00  0.00     0.134 A 
ATOM     63  C   UNL A   1      39.253  32.941  37.272  1.00  0.00     0.134 A 
ATOM     64  F   UNL A   1      41.822  34.744  35.444  1.00  0.00    -0.206 F 
ATOM     65  C   UNL A   1      40.786  35.249  37.487  1.00  0.00     0.040 A 
ATOM     66  C   UNL A   1      39.089  33.786  38.370  1.00  0.00     0.040 A 
ATOM     67  F   UNL A   1      38.497  31.835  37.212  1.00  0.00    -0.206 F 
ATOM     68  C   UNL A   1      39.861  34.941  38.483  1.00  0.00     0.006 A 
ENDBRANCH  47  61
BRANCH  48  69
ATOM     69  C   UNL A   1      40.687  27.486  28.102  1.00  0.00     0.057 A 
ATOM     70  C   UNL A   1      40.096  26.217  28.063  1.00  0.00     0.134 A 
ATOM     71  C   UNL A   1      41.410  27.895  26.975  1.00  0.00     0.134 A 
ATOM     72  F   UNL A   1      39.407  25.762  29.120  1.00  0.00    -0.206 F 
ATOM     73  C   UNL A   1      40.245  25.373  26.962  1.00  0.00     0.040 A 
ATOM     74  C   UNL A   1      41.543  27.072  25.855  1.00  0.00     0.040 A 
ATOM     75  F   UNL A   1      41.995  29.100  26.946  1.00  0.00    -0.206 F 
ATOM     76  C   UNL A   1      40.968  25.802  25.852  1.00  0.00     0.006 A 
ENDBRANCH  48  69
BRANCH  60  77
ATOM     77  C   UNL A   1      44.449  27.921  33.942  1.00  0.00     0.057 A 
ATOM     78  C   UNL A   1      45.768  28.355  33.759  1.00  0.00     0.134 A 
ATOM     79  C   UNL A   1      44.249  26.746  34.678  1.00  0.00     0.134 A 
ATOM     80  F   UNL A   1      46.026  29.466  33.053  1.00  0.00    -0.206 F 
ATOM     81  C   UNL A   1      46.847  27.637  34.276  1.00  0.00     0.040 A 
ATOM     82  C   UNL A   1      45.319  26.034  35.221  1.00  0.00     0.040 A 
ATOM     83  F   UNL A   1      43.010  26.281  34.897  1.00  0.00    -0.206 F 
ATOM     84  C   UNL A   1      46.624  26.478  35.017  1.00  0.00     0.006 A 
ENDBRANCH  60  77
ENDBRANCH  34  35
ENDBRANCH  26  29
ENDBRANCH  24  25
ENDBRANCH  23  24
ENDBRANCH   1  23
TORSDOF 14
ENDMDL
MODEL 3
REMARK VINA RESULT:     -11.3      5.301      9.545
REMARK SMILES CC(C)(NC(=O)[C@]1(C)CCCO1)C(C)(C)C(=O)NCCCCNC(=O)c1ccc(-c2c3nc(c(-c4c(F)cccc4F)c4ccc([nH]4)c(-c4c(F)cccc4F)c4nc(c(-c5c(F)cccc5F)c5ccc2[nH]5)C=C4)C=C3)cc1
REMARK SMILES IDX 20 1 19 2 18 3 16 4 17 5 13 7 14 8 15 9 2 10 1 11 3 12 4 13
REMARK SMILES IDX 5 14 6 16 7 17 9 18 12 19 8 20 10 21 11 22 21 23 22 24 23 25
REMARK SMILES IDX 24 26 25 28 26 29 27 30 79 31 28 32 78 33 29 34 30 35 31 36
REMARK SMILES IDX 72 37 32 38 77 39 71 40 73 41 33 42 76 43 70 44 69 45 34 47
REMARK SMILES IDX 60 48 43 49 59 50 44 51 47 52 58 53 74 54 45 55 46 56 57 58
REMARK SMILES IDX 75 59 48 60 35 61 36 62 41 63 37 64 38 65 40 66 42 67 39 68
REMARK SMILES IDX 61 69 62 70 67 71 63 72 64 73 66 74 68 75 65 76 49 77 50 78
REMARK SMILES IDX 55 79 51 80 52 81 54 82 56 83 53 84
REMARK H PARENT 18 6 4 15 23 27 73 46 47 57
REMARK Flexibility Score: inf
ROOT
ATOM      1  C   UNL A   1      37.057  20.128  24.749  1.00  0.00     0.023 C 
ENDROOT
BRANCH   1   2
ATOM      2  C   UNL A   1      37.167  21.495  25.419  1.00  0.00     0.116 C 
BRANCH   2   3
ATOM      3  N   UNL A   1      35.989  21.804  26.198  1.00  0.00    -0.356 N 
ATOM      4  C   UNL A   1      34.852  22.495  25.956  1.00  0.00     0.228 C 
ATOM      5  O   UNL A   1      34.054  22.443  26.897  1.00  0.00    -0.274 OA
ATOM      6  H   UNL A   1      36.023  21.429  27.108  1.00  0.00     0.163 HD
BRANCH   4   7
ATOM      7  C   UNL A   1      34.592  23.384  24.709  1.00  0.00     0.066 C 
ATOM      8  C   UNL A   1      35.310  23.053  23.378  1.00  0.00     0.024 C 
ATOM      9  C   UNL A   1      35.155  24.770  25.138  1.00  0.00     0.024 C 
BRANCH   7  10
ATOM     10  C   UNL A   1      33.021  23.409  24.422  1.00  0.00     0.048 C 
ATOM     11  C   UNL A   1      32.506  21.973  24.069  1.00  0.00     0.035 C 
ATOM     12  C   UNL A   1      32.656  24.246  23.155  1.00  0.00     0.035 C 
BRANCH  10  13
ATOM     13  N   UNL A   1      32.087  23.861  25.537  1.00  0.00    -0.348 N 
ATOM     14  C   UNL A   1      31.468  24.846  26.220  1.00  0.00     0.252 C 
ATOM     15  H   UNL A   1      31.789  23.028  25.970  1.00  0.00     0.164 HD
ATOM     16  O   UNL A   1      30.853  24.365  27.197  1.00  0.00    -0.272 OA
BRANCH  14  17
ATOM     17  C   UNL A   1      31.319  26.393  25.973  1.00  0.00     0.143 C 
ATOM     18  C   UNL A   1      32.718  27.040  25.753  1.00  0.00     0.048 C 
ATOM     19  O   UNL A   1      30.797  26.999  27.178  1.00  0.00    -0.365 OA
ATOM     20  C   UNL A   1      30.476  26.902  24.821  1.00  0.00     0.053 C 
ATOM     21  C   UNL A   1      32.938  27.946  26.937  1.00  0.00     0.032 C 
ATOM     22  C   UNL A   1      31.549  28.179  27.471  1.00  0.00     0.162 C 
ENDBRANCH  14  17
ENDBRANCH  10  13
ENDBRANCH   7  10
ENDBRANCH   4   7
ENDBRANCH   2   3
ENDBRANCH   1   2
BRANCH   1  23
ATOM     23  C   UNL A   1      38.227  19.171  24.994  1.00  0.00     0.023 C 
BRANCH  23  24
ATOM     24  C   UNL A   1      39.398  19.759  25.776  1.00  0.00     0.116 C 
BRANCH  24  25
ATOM     25  N   UNL A   1      40.505  18.823  25.902  1.00  0.00    -0.352 N 
ATOM     26  C   UNL A   1      41.843  19.067  26.110  1.00  0.00     0.251 C 
ATOM     27  H   UNL A   1      40.259  17.873  25.830  1.00  0.00     0.163 HD
ATOM     28  O   UNL A   1      42.660  18.166  25.997  1.00  0.00    -0.269 OA
BRANCH  26  29
ATOM     29  C   UNL A   1      42.291  20.433  26.455  1.00  0.00     0.039 A 
ATOM     30  C   UNL A   1      42.771  21.270  25.444  1.00  0.00     0.014 A 
ATOM     31  C   UNL A   1      42.235  20.883  27.776  1.00  0.00     0.014 A 
ATOM     32  C   UNL A   1      43.122  22.588  25.748  1.00  0.00     0.010 A 
ATOM     33  C   UNL A   1      42.515  22.214  28.062  1.00  0.00     0.010 A 
ATOM     34  C   UNL A   1      42.961  23.082  27.053  1.00  0.00    -0.014 A 
BRANCH  34  35
ATOM     35  C   UNL A   1      43.264  24.493  27.401  1.00  0.00     0.031 A 
ATOM     36  C   UNL A   1      44.695  24.949  27.486  1.00  0.00     0.074 A 
ATOM     37  C   UNL A   1      42.266  25.340  27.722  1.00  0.00     0.049 A 
ATOM     38  N   UNL A   1      45.180  26.086  27.915  1.00  0.00    -0.248 NA
ATOM     39  C   UNL A   1      45.720  23.982  27.057  1.00  0.00     0.031 C 
ATOM     40  C   UNL A   1      40.839  25.017  27.704  1.00  0.00     0.029 A 
ATOM     41  N   UNL A   1      42.304  26.646  28.146  1.00  0.00    -0.354 N 
ATOM     42  C   UNL A   1      46.561  25.964  27.826  1.00  0.00     0.074 A 
ATOM     43  C   UNL A   1      46.839  24.625  27.355  1.00  0.00     0.031 C 
ATOM     44  C   UNL A   1      40.137  26.097  28.085  1.00  0.00     0.029 A 
ATOM     45  C   UNL A   1      41.064  27.174  28.418  1.00  0.00     0.049 A 
ATOM     46  H   UNL A   1      43.140  27.155  28.245  1.00  0.00     0.167 HD
ATOM     47  C   UNL A   1      47.511  26.891  28.089  1.00  0.00     0.037 A 
ATOM     48  C   UNL A   1      40.718  28.384  28.898  1.00  0.00     0.037 A 
ATOM     49  C   UNL A   1      47.232  28.231  28.535  1.00  0.00     0.049 A 
ATOM     50  C   UNL A   1      41.797  29.387  29.212  1.00  0.00     0.074 A 
ATOM     51  C   UNL A   1      48.125  29.254  28.801  1.00  0.00     0.029 A 
ATOM     52  N   UNL A   1      45.962  28.733  28.774  1.00  0.00    -0.354 N 
ATOM     53  N   UNL A   1      43.097  29.271  29.085  1.00  0.00    -0.248 NA
ATOM     54  C   UNL A   1      41.359  30.690  29.734  1.00  0.00     0.031 C 
ATOM     55  C   UNL A   1      47.397  30.366  29.235  1.00  0.00     0.029 A 
ATOM     56  C   UNL A   1      46.049  30.051  29.192  1.00  0.00     0.049 A 
ATOM     57  H   UNL A   1      45.125  28.228  28.663  1.00  0.00     0.167 HD
ATOM     58  C   UNL A   1      43.626  30.498  29.467  1.00  0.00     0.074 A 
ATOM     59  C   UNL A   1      42.509  31.344  29.826  1.00  0.00     0.031 C 
ATOM     60  C   UNL A   1      44.923  30.889  29.512  1.00  0.00     0.037 A 
BRANCH  47  61
ATOM     61  C   UNL A   1      48.945  26.491  27.889  1.00  0.00     0.057 A 
ATOM     62  C   UNL A   1      49.607  26.710  26.674  1.00  0.00     0.134 A 
ATOM     63  C   UNL A   1      49.682  25.916  28.932  1.00  0.00     0.134 A 
ATOM     64  F   UNL A   1      48.954  27.246  25.632  1.00  0.00    -0.206 F 
ATOM     65  C   UNL A   1      50.943  26.349  26.494  1.00  0.00     0.040 A 
ATOM     66  C   UNL A   1      51.027  25.577  28.773  1.00  0.00     0.040 A 
ATOM     67  F   UNL A   1      49.111  25.683  30.123  1.00  0.00    -0.206 F 
ATOM     68  C   UNL A   1      51.659  25.788  27.550  1.00  0.00     0.006 A 
ENDBRANCH  47  61
BRANCH  48  69
ATOM     69  C   UNL A   1      39.288  28.734  29.101  1.00  0.00     0.057 A 
ATOM     70  C   UNL A   1      38.539  29.324  28.076  1.00  0.00     0.134 A 
ATOM     71  C   UNL A   1      38.648  28.528  30.329  1.00  0.00     0.134 A 
ATOM     72  F   UNL A   1      39.103  29.565  26.883  1.00  0.00    -0.206 F 
ATOM     73  C   UNL A   1      37.216  29.724  28.271  1.00  0.00     0.040 A 
ATOM     74  C   UNL A   1      37.316  28.897  30.529  1.00  0.00     0.040 A 
ATOM     75  F   UNL A   1      39.306  27.962  31.350  1.00  0.00    -0.206 F 
ATOM     76  C   UNL A   1      36.600  29.507  29.501  1.00  0.00     0.006 A 
ENDBRANCH  48  69
BRANCH  60  77
ATOM     77  C   UNL A   1      45.205  32.314  29.892  1.00  0.00     0.057 A 
ATOM     78  C   UNL A   1      45.473  32.693  31.213  1.00  0.00     0.134 A 
ATOM     79  C   UNL A   1      45.263  33.309  28.907  1.00  0.00     0.134 A 
ATOM     80  F   UNL A   1      45.421  31.790  32.203  1.00  0.00    -0.206 F 
ATOM     81  C   UNL A   1      45.773  34.016  31.542  1.00  0.00     0.040 A 
ATOM     82  C   UNL A   1      45.587  34.628  29.221  1.00  0.00     0.040 A 
ATOM     83  F   UNL A   1      45.025  33.009  27.621  1.00  0.00    -0.206 F 
ATOM     84  C   UNL A   1      45.839  34.986  30.543  1.00  0.00     0.006 A 
ENDBRANCH  60  77
ENDBRANCH  34  35
ENDBRANCH  26  29
ENDBRANCH  24  25
ENDBRANCH  23  24
ENDBRANCH   1  23
TORSDOF 14
ENDMDL
