MODEL 1
REMARK VINA RESULT:     -13.1      0.000      0.000
REMARK SMILES C[C@H]1c2ccc(O)cc2OC(=O)[C@@H]1CC(=O)N[C@@H](CC1=c2ccccc2=NC1)C(=O)NCCCCNC(=O)c1ccc(-c2c3nc(c(-c4c(F)cccc4F)c4ccc([nH]4)c(-c4c(F)cccc4F)c4nc(c(-c5c(F)cccc5F)c5ccc2[nH]5)C=C4)C=C3)cc1
REMARK SMILES IDX 32 1 31 2 29 3 30 4 18 6 17 7 15 8 16 9 14 11 13 12 1 13
REMARK SMILES IDX 2 14 3 15 4 16 9 17 11 18 5 19 8 20 10 21 12 22 6 23 7 24
REMARK SMILES IDX 19 26 20 27 21 28 28 29 22 30 26 31 27 32 23 33 25 34 24 35
REMARK SMILES IDX 33 36 34 37 35 38 36 39 37 40 38 42 39 43 40 44 92 45 41 46
REMARK SMILES IDX 91 47 42 48 43 49 44 50 85 51 45 52 90 53 84 54 86 55 46 56
REMARK SMILES IDX 89 57 83 58 82 59 47 61 73 62 56 63 72 64 57 65 60 66 71 67
REMARK SMILES IDX 87 68 58 69 59 70 70 72 88 73 61 74 48 75 49 76 54 77 50 78
REMARK SMILES IDX 51 79 53 80 55 81 52 82 74 83 75 84 80 85 76 86 77 87 79 88
REMARK SMILES IDX 81 89 78 90 62 91 63 92 68 93 64 94 65 95 67 96 69 97 66 98
REMARK H PARENT 31 5 17 10 7 25 36 41 86 60 60 71
REMARK Flexibility Score: inf
ROOT
ATOM      1  C   UNL A   1      34.372  28.929  27.389  1.00  0.00     0.116 C 
ENDROOT
BRANCH   1   2
ATOM      2  N   UNL A   1      33.086  28.668  27.967  1.00  0.00    -0.354 N 
ATOM      3  C   UNL A   1      31.986  28.175  27.322  1.00  0.00     0.242 C 
ATOM      4  O   UNL A   1      31.042  27.803  28.027  1.00  0.00    -0.273 OA
ATOM      5  H   UNL A   1      32.984  28.863  28.927  1.00  0.00     0.163 HD
BRANCH   3   6
ATOM      6  C   UNL A   1      31.937  27.982  25.775  1.00  0.00     0.175 C 
BRANCH   6   7
ATOM      7  N   UNL A   1      30.935  26.997  25.328  1.00  0.00    -0.344 N 
ATOM      8  C   UNL A   1      31.056  25.763  24.769  1.00  0.00     0.221 C 
ATOM      9  O   UNL A   1      30.026  25.134  24.519  1.00  0.00    -0.275 OA
ATOM     10  H   UNL A   1      30.003  27.286  25.461  1.00  0.00     0.164 HD
BRANCH   8  11
ATOM     11  C   UNL A   1      32.411  25.171  24.439  1.00  0.00     0.116 C 
BRANCH  11  12
ATOM     12  C   UNL A   1      32.319  24.114  23.320  1.00  0.00     0.116 C 
ATOM     13  C   UNL A   1      32.140  21.650  22.688  1.00  0.00     0.014 C 
ATOM     14  C   UNL A   1      32.412  22.658  23.816  1.00  0.00     0.034 C 
ATOM     15  C   UNL A   1      33.782  22.438  24.403  1.00  0.00    -0.001 A 
ATOM     16  C   UNL A   1      34.006  21.549  25.456  1.00  0.00     0.011 A 
ATOM     17  C   UNL A   1      34.860  23.180  23.910  1.00  0.00     0.138 A 
ATOM     18  C   UNL A   1      33.441  24.305  22.336  1.00  0.00     0.315 C 
ATOM     19  C   UNL A   1      35.277  21.456  26.032  1.00  0.00     0.047 A 
ATOM     20  C   UNL A   1      36.123  23.112  24.483  1.00  0.00     0.093 A 
ATOM     21  O   UNL A   1      34.712  24.018  22.797  1.00  0.00    -0.426 OA
ATOM     22  O   UNL A   1      33.261  24.727  21.203  1.00  0.00    -0.251 OA
ATOM     23  C   UNL A   1      36.317  22.253  25.554  1.00  0.00     0.119 A 
BRANCH  23  24
ATOM     24  O   UNL A   1      37.558  22.218  26.116  1.00  0.00    -0.508 OA
ATOM     25  H   UNL A   1      38.036  23.014  26.245  1.00  0.00     0.293 HD
ENDBRANCH  23  24
ENDBRANCH  11  12
ENDBRANCH   8  11
ENDBRANCH   6   7
BRANCH   6  26
ATOM     26  C   UNL A   1      31.905  29.352  24.997  1.00  0.00     0.068 C 
BRANCH  26  27
ATOM     27  C   UNL A   1      31.061  29.404  23.747  1.00  0.00    -0.037 C 
ATOM     28  C   UNL A   1      29.933  30.052  23.459  1.00  0.00     0.001 A 
ATOM     29  C   UNL A   1      31.400  28.571  22.540  1.00  0.00     0.174 C 
ATOM     30  C   UNL A   1      29.186  31.166  23.927  1.00  0.00     0.010 A 
ATOM     31  C   UNL A   1      29.317  29.088  22.521  1.00  0.00     0.065 A 
ATOM     32  N   UNL A   1      30.096  28.236  21.934  1.00  0.00    -0.280 NA
ATOM     33  C   UNL A   1      27.864  31.214  23.701  1.00  0.00     0.001 A 
ATOM     34  C   UNL A   1      27.837  29.096  22.474  1.00  0.00     0.028 A 
ATOM     35  C   UNL A   1      27.176  30.092  23.088  1.00  0.00     0.002 A 
ENDBRANCH  26  27
ENDBRANCH   6  26
ENDBRANCH   3   6
ENDBRANCH   1   2
BRANCH   1  36
ATOM     36  C   UNL A   1      34.953  30.312  27.649  1.00  0.00     0.023 C 
BRANCH  36  37
ATOM     37  C   UNL A   1      33.946  31.386  28.044  1.00  0.00     0.023 C 
BRANCH  37  38
ATOM     38  C   UNL A   1      34.069  32.722  27.321  1.00  0.00     0.116 C 
BRANCH  38  39
ATOM     39  N   UNL A   1      33.156  33.756  27.798  1.00  0.00    -0.352 N 
ATOM     40  C   UNL A   1      33.291  34.637  28.857  1.00  0.00     0.251 C 
ATOM     41  H   UNL A   1      32.316  33.838  27.290  1.00  0.00     0.163 HD
ATOM     42  O   UNL A   1      32.428  35.451  29.107  1.00  0.00    -0.269 OA
BRANCH  40  43
ATOM     43  C   UNL A   1      34.471  34.485  29.734  1.00  0.00     0.039 A 
ATOM     44  C   UNL A   1      35.743  34.773  29.247  1.00  0.00     0.014 A 
ATOM     45  C   UNL A   1      34.299  33.843  30.961  1.00  0.00     0.014 A 
ATOM     46  C   UNL A   1      36.838  34.172  29.854  1.00  0.00     0.010 A 
ATOM     47  C   UNL A   1      35.415  33.336  31.628  1.00  0.00     0.010 A 
ATOM     48  C   UNL A   1      36.681  33.412  31.027  1.00  0.00    -0.014 A 
BRANCH  48  49
ATOM     49  C   UNL A   1      37.834  32.639  31.558  1.00  0.00     0.031 A 
ATOM     50  C   UNL A   1      38.360  32.890  32.951  1.00  0.00     0.074 A 
ATOM     51  C   UNL A   1      38.364  31.652  30.812  1.00  0.00     0.049 A 
ATOM     52  N   UNL A   1      39.364  32.319  33.572  1.00  0.00    -0.248 NA
ATOM     53  C   UNL A   1      37.679  33.921  33.751  1.00  0.00     0.031 C 
ATOM     54  C   UNL A   1      37.931  31.295  29.460  1.00  0.00     0.029 A 
ATOM     55  N   UNL A   1      39.358  30.752  31.095  1.00  0.00    -0.354 N 
ATOM     56  C   UNL A   1      39.460  32.948  34.808  1.00  0.00     0.074 A 
ATOM     57  C   UNL A   1      38.422  33.954  34.848  1.00  0.00     0.031 C 
ATOM     58  C   UNL A   1      38.610  30.214  29.055  1.00  0.00     0.029 A 
ATOM     59  C   UNL A   1      39.577  29.849  30.085  1.00  0.00     0.049 A 
ATOM     60  H   UNL A   1      39.863  30.752  31.939  1.00  0.00     0.167 HD
ATOM     61  C   UNL A   1      40.328  32.705  35.821  1.00  0.00     0.037 A 
ATOM     62  C   UNL A   1      40.473  28.853  29.985  1.00  0.00     0.037 A 
ATOM     63  C   UNL A   1      41.333  31.673  35.798  1.00  0.00     0.049 A 
ATOM     64  C   UNL A   1      41.435  28.615  31.110  1.00  0.00     0.074 A 
ATOM     65  C   UNL A   1      42.237  31.324  36.788  1.00  0.00     0.029 A 
ATOM     66  N   UNL A   1      41.561  30.817  34.731  1.00  0.00    -0.354 N 
ATOM     67  N   UNL A   1      41.523  29.231  32.263  1.00  0.00    -0.248 NA
ATOM     68  C   UNL A   1      42.432  27.557  30.909  1.00  0.00     0.031 C 
ATOM     69  C   UNL A   1      43.034  30.280  36.305  1.00  0.00     0.029 A 
ATOM     70  C   UNL A   1      42.604  29.955  35.029  1.00  0.00     0.049 A 
ATOM     71  H   UNL A   1      41.056  30.821  33.886  1.00  0.00     0.167 HD
ATOM     72  C   UNL A   1      42.587  28.638  32.926  1.00  0.00     0.074 A 
ATOM     73  C   UNL A   1      43.092  27.594  32.058  1.00  0.00     0.031 C 
ATOM     74  C   UNL A   1      43.105  28.936  34.144  1.00  0.00     0.037 A 
BRANCH  61  75
ATOM     75  C   UNL A   1      40.248  33.592  37.030  1.00  0.00     0.057 A 
ATOM     76  C   UNL A   1      39.355  33.295  38.069  1.00  0.00     0.134 A 
ATOM     77  C   UNL A   1      41.028  34.748  37.162  1.00  0.00     0.134 A 
ATOM     78  F   UNL A   1      38.573  32.208  38.005  1.00  0.00    -0.206 F 
ATOM     79  C   UNL A   1      39.247  34.112  39.197  1.00  0.00     0.040 A 
ATOM     80  C   UNL A   1      40.945  35.561  38.295  1.00  0.00     0.040 A 
ATOM     81  F   UNL A   1      41.913  35.082  36.211  1.00  0.00    -0.206 F 
ATOM     82  C   UNL A   1      40.048  35.246  39.315  1.00  0.00     0.006 A 
ENDBRANCH  61  75
BRANCH  62  83
ATOM     83  C   UNL A   1      40.504  28.023  28.758  1.00  0.00     0.057 A 
ATOM     84  C   UNL A   1      39.797  26.817  28.679  1.00  0.00     0.134 A 
ATOM     85  C   UNL A   1      41.271  28.400  27.651  1.00  0.00     0.134 A 
ATOM     86  F   UNL A   1      39.051  26.400  29.713  1.00  0.00    -0.206 F 
ATOM     87  C   UNL A   1      39.871  26.001  27.551  1.00  0.00     0.040 A 
ATOM     88  C   UNL A   1      41.333  27.605  26.506  1.00  0.00     0.040 A 
ATOM     89  F   UNL A   1      41.955  29.553  27.664  1.00  0.00    -0.206 F 
ATOM     90  C   UNL A   1      40.639  26.397  26.458  1.00  0.00     0.006 A 
ENDBRANCH  62  83
BRANCH  74  91
ATOM     91  C   UNL A   1      44.276  28.116  34.592  1.00  0.00     0.057 A 
ATOM     92  C   UNL A   1      44.089  26.909  35.275  1.00  0.00     0.134 A 
ATOM     93  C   UNL A   1      45.593  28.524  34.344  1.00  0.00     0.134 A 
ATOM     94  F   UNL A   1      42.852  26.465  35.547  1.00  0.00    -0.206 F 
ATOM     95  C   UNL A   1      45.170  26.133  35.691  1.00  0.00     0.040 A 
ATOM     96  C   UNL A   1      46.682  27.747  34.736  1.00  0.00     0.040 A 
ATOM     97  F   UNL A   1      45.837  29.664  33.677  1.00  0.00    -0.206 F 
ATOM     98  C   UNL A   1      46.472  26.547  35.414  1.00  0.00     0.006 A 
ENDBRANCH  74  91
ENDBRANCH  48  49
ENDBRANCH  40  43
ENDBRANCH  38  39
ENDBRANCH  37  38
ENDBRANCH  36  37
ENDBRANCH   1  36
TORSDOF 17
ENDMDL
MODEL 2
REMARK VINA RESULT:     -13.0      2.248      6.396
REMARK SMILES C[C@H]1c2ccc(O)cc2OC(=O)[C@@H]1CC(=O)N[C@@H](CC1=c2ccccc2=NC1)C(=O)NCCCCNC(=O)c1ccc(-c2c3nc(c(-c4c(F)cccc4F)c4ccc([nH]4)c(-c4c(F)cccc4F)c4nc(c(-c5c(F)cccc5F)c5ccc2[nH]5)C=C4)C=C3)cc1
REMARK SMILES IDX 32 1 31 2 29 3 30 4 18 6 17 7 15 8 16 9 14 11 13 12 1 13
REMARK SMILES IDX 2 14 3 15 4 16 9 17 11 18 5 19 8 20 10 21 12 22 6 23 7 24
REMARK SMILES IDX 19 26 20 27 21 28 28 29 22 30 26 31 27 32 23 33 25 34 24 35
REMARK SMILES IDX 33 36 34 37 35 38 36 39 37 40 38 42 39 43 40 44 92 45 41 46
REMARK SMILES IDX 91 47 42 48 43 49 44 50 85 51 45 52 90 53 84 54 86 55 46 56
REMARK SMILES IDX 89 57 83 58 82 59 47 61 73 62 56 63 72 64 57 65 60 66 71 67
REMARK SMILES IDX 87 68 58 69 59 70 70 72 88 73 61 74 48 75 49 76 54 77 50 78
REMARK SMILES IDX 51 79 53 80 55 81 52 82 74 83 75 84 80 85 76 86 77 87 79 88
REMARK SMILES IDX 81 89 78 90 62 91 63 92 68 93 64 94 65 95 67 96 69 97 66 98
REMARK H PARENT 31 5 17 10 7 25 36 41 86 60 60 71
REMARK Flexibility Score: inf
ROOT
ATOM      1  C   UNL A   1      32.624  26.926  26.187  1.00  0.00     0.116 C 
ENDROOT
BRANCH   1   2
ATOM      2  N   UNL A   1      31.271  26.798  26.647  1.00  0.00    -0.354 N 
ATOM      3  C   UNL A   1      30.327  25.928  26.173  1.00  0.00     0.242 C 
ATOM      4  O   UNL A   1      29.295  25.803  26.841  1.00  0.00    -0.273 OA
ATOM      5  H   UNL A   1      30.993  27.396  27.378  1.00  0.00     0.163 HD
BRANCH   3   6
ATOM      6  C   UNL A   1      30.559  25.045  24.909  1.00  0.00     0.175 C 
BRANCH   6   7
ATOM      7  N   UNL A   1      30.342  23.605  25.140  1.00  0.00    -0.344 N 
ATOM      8  C   UNL A   1      31.127  22.642  25.694  1.00  0.00     0.221 C 
ATOM      9  O   UNL A   1      30.668  21.502  25.789  1.00  0.00    -0.275 OA
ATOM     10  H   UNL A   1      29.464  23.280  24.836  1.00  0.00     0.164 HD
BRANCH   8  11
ATOM     11  C   UNL A   1      32.533  22.942  26.170  1.00  0.00     0.116 C 
BRANCH  11  12
ATOM     12  C   UNL A   1      33.472  23.298  25.000  1.00  0.00     0.116 C 
ATOM     13  C   UNL A   1      33.924  23.211  22.491  1.00  0.00     0.014 C 
ATOM     14  C   UNL A   1      33.060  22.684  23.648  1.00  0.00     0.034 C 
ATOM     15  C   UNL A   1      33.170  21.185  23.750  1.00  0.00    -0.001 A 
ATOM     16  C   UNL A   1      32.331  20.327  23.037  1.00  0.00     0.011 A 
ATOM     17  C   UNL A   1      34.113  20.629  24.621  1.00  0.00     0.138 A 
ATOM     18  C   UNL A   1      34.865  22.809  25.288  1.00  0.00     0.315 C 
ATOM     19  C   UNL A   1      32.407  18.945  23.243  1.00  0.00     0.047 A 
ATOM     20  C   UNL A   1      34.188  19.262  24.850  1.00  0.00     0.093 A 
ATOM     21  O   UNL A   1      35.041  21.438  25.292  1.00  0.00    -0.426 OA
ATOM     22  O   UNL A   1      35.791  23.564  25.544  1.00  0.00    -0.251 OA
ATOM     23  C   UNL A   1      33.319  18.428  24.163  1.00  0.00     0.119 A 
BRANCH  23  24
ATOM     24  O   UNL A   1      33.393  17.092  24.418  1.00  0.00    -0.508 OA
ATOM     25  H   UNL A   1      32.740  16.513  24.076  1.00  0.00     0.293 HD
ENDBRANCH  23  24
ENDBRANCH  11  12
ENDBRANCH   8  11
ENDBRANCH   6   7
BRANCH   6  26
ATOM     26  C   UNL A   1      29.843  25.622  23.630  1.00  0.00     0.068 C 
BRANCH  26  27
ATOM     27  C   UNL A   1      30.368  26.932  23.090  1.00  0.00    -0.037 C 
ATOM     28  C   UNL A   1      31.557  27.282  22.604  1.00  0.00     0.001 A 
ATOM     29  C   UNL A   1      29.522  28.176  23.098  1.00  0.00     0.174 C 
ATOM     30  C   UNL A   1      32.714  26.669  22.052  1.00  0.00     0.010 A 
ATOM     31  C   UNL A   1      31.603  28.697  23.033  1.00  0.00     0.065 A 
ATOM     32  N   UNL A   1      30.478  29.282  23.300  1.00  0.00    -0.280 NA
ATOM     33  C   UNL A   1      33.896  27.300  22.134  1.00  0.00     0.001 A 
ATOM     34  C   UNL A   1      32.954  29.253  23.270  1.00  0.00     0.028 A 
ATOM     35  C   UNL A   1      34.024  28.540  22.877  1.00  0.00     0.002 A 
ENDBRANCH  26  27
ENDBRANCH   6  26
ENDBRANCH   3   6
ENDBRANCH   1   2
BRANCH   1  36
ATOM     36  C   UNL A   1      33.422  28.081  26.776  1.00  0.00     0.023 C 
BRANCH  36  37
ATOM     37  C   UNL A   1      32.648  29.378  26.983  1.00  0.00     0.023 C 
BRANCH  37  38
ATOM     38  C   UNL A   1      33.485  30.632  27.209  1.00  0.00     0.116 C 
BRANCH  38  39
ATOM     39  N   UNL A   1      32.715  31.869  27.289  1.00  0.00    -0.352 N 
ATOM     40  C   UNL A   1      33.055  33.089  27.846  1.00  0.00     0.251 C 
ATOM     41  H   UNL A   1      31.817  31.829  26.887  1.00  0.00     0.163 HD
ATOM     42  O   UNL A   1      32.290  34.028  27.812  1.00  0.00    -0.269 OA
BRANCH  40  43
ATOM     43  C   UNL A   1      34.339  33.181  28.574  1.00  0.00     0.039 A 
ATOM     44  C   UNL A   1      35.486  33.610  27.913  1.00  0.00     0.014 A 
ATOM     45  C   UNL A   1      34.411  32.622  29.851  1.00  0.00     0.014 A 
ATOM     46  C   UNL A   1      36.724  33.225  28.412  1.00  0.00     0.010 A 
ATOM     47  C   UNL A   1      35.661  32.337  30.401  1.00  0.00     0.010 A 
ATOM     48  C   UNL A   1      36.822  32.547  29.641  1.00  0.00    -0.014 A 
BRANCH  48  49
ATOM     49  C   UNL A   1      38.135  31.994  30.068  1.00  0.00     0.031 A 
ATOM     50  C   UNL A   1      38.654  30.699  29.493  1.00  0.00     0.074 A 
ATOM     51  C   UNL A   1      38.899  32.700  30.921  1.00  0.00     0.049 A 
ATOM     52  N   UNL A   1      39.769  30.064  29.759  1.00  0.00    -0.248 NA
ATOM     53  C   UNL A   1      37.811  30.021  28.495  1.00  0.00     0.031 C 
ATOM     54  C   UNL A   1      38.522  33.976  31.531  1.00  0.00     0.029 A 
ATOM     55  N   UNL A   1      40.161  32.460  31.400  1.00  0.00    -0.354 N 
ATOM     56  C   UNL A   1      39.741  28.899  28.999  1.00  0.00     0.074 A 
ATOM     57  C   UNL A   1      38.491  28.906  28.271  1.00  0.00     0.031 C 
ATOM     58  C   UNL A   1      39.552  34.439  32.251  1.00  0.00     0.029 A 
ATOM     59  C   UNL A   1      40.631  33.458  32.217  1.00  0.00     0.049 A 
ATOM     60  H   UNL A   1      40.679  31.653  31.178  1.00  0.00     0.167 HD
ATOM     61  C   UNL A   1      40.672  27.918  28.912  1.00  0.00     0.037 A 
ATOM     62  C   UNL A   1      41.792  33.563  32.884  1.00  0.00     0.037 A 
ATOM     63  C   UNL A   1      41.935  27.934  29.603  1.00  0.00     0.049 A 
ATOM     64  C   UNL A   1      42.799  32.457  32.786  1.00  0.00     0.074 A 
ATOM     65  C   UNL A   1      42.961  27.004  29.552  1.00  0.00     0.029 A 
ATOM     66  N   UNL A   1      42.349  28.936  30.467  1.00  0.00    -0.354 N 
ATOM     67  N   UNL A   1      42.746  31.355  32.078  1.00  0.00    -0.248 NA
ATOM     68  C   UNL A   1      44.015  32.602  33.595  1.00  0.00     0.031 C 
ATOM     69  C   UNL A   1      43.980  27.428  30.413  1.00  0.00     0.029 A 
ATOM     70  C   UNL A   1      43.604  28.638  30.972  1.00  0.00     0.049 A 
ATOM     71  H   UNL A   1      41.827  29.740  30.691  1.00  0.00     0.167 HD
ATOM     72  C   UNL A   1      43.921  30.673  32.358  1.00  0.00     0.074 A 
ATOM     73  C   UNL A   1      44.678  31.499  33.276  1.00  0.00     0.031 C 
ATOM     74  C   UNL A   1      44.333  29.464  31.900  1.00  0.00     0.037 A 
BRANCH  61  75
ATOM     75  C   UNL A   1      40.344  26.727  28.056  1.00  0.00     0.057 A 
ATOM     76  C   UNL A   1      39.491  25.723  28.534  1.00  0.00     0.134 A 
ATOM     77  C   UNL A   1      40.883  26.557  26.775  1.00  0.00     0.134 A 
ATOM     78  F   UNL A   1      38.944  25.819  29.755  1.00  0.00    -0.206 F 
ATOM     79  C   UNL A   1      39.183  24.598  27.767  1.00  0.00     0.040 A 
ATOM     80  C   UNL A   1      40.566  25.447  25.989  1.00  0.00     0.040 A 
ATOM     81  F   UNL A   1      41.696  27.488  26.250  1.00  0.00    -0.206 F 
ATOM     82  C   UNL A   1      39.716  24.460  26.488  1.00  0.00     0.006 A 
ENDBRANCH  61  75
BRANCH  62  83
ATOM     83  C   UNL A   1      42.044  34.761  33.720  1.00  0.00     0.057 A 
ATOM     84  C   UNL A   1      41.600  34.828  35.046  1.00  0.00     0.134 A 
ATOM     85  C   UNL A   1      42.703  35.879  33.199  1.00  0.00     0.134 A 
ATOM     86  F   UNL A   1      40.954  33.789  35.597  1.00  0.00    -0.206 F 
ATOM     87  C   UNL A   1      41.779  35.975  35.818  1.00  0.00     0.040 A 
ATOM     88  C   UNL A   1      42.912  37.024  33.969  1.00  0.00     0.040 A 
ATOM     89  F   UNL A   1      43.165  35.865  31.941  1.00  0.00    -0.206 F 
ATOM     90  C   UNL A   1      42.440  37.077  35.280  1.00  0.00     0.006 A 
ENDBRANCH  62  83
BRANCH  74  91
ATOM     91  C   UNL A   1      45.661  28.978  32.395  1.00  0.00     0.057 A 
ATOM     92  C   UNL A   1      46.842  29.307  31.721  1.00  0.00     0.134 A 
ATOM     93  C   UNL A   1      45.768  28.184  33.544  1.00  0.00     0.134 A 
ATOM     94  F   UNL A   1      46.806  30.062  30.612  1.00  0.00    -0.206 F 
ATOM     95  C   UNL A   1      48.086  28.868  32.175  1.00  0.00     0.040 A 
ATOM     96  C   UNL A   1      47.007  27.755  34.020  1.00  0.00     0.040 A 
ATOM     97  F   UNL A   1      44.672  27.850  34.243  1.00  0.00    -0.206 F 
ATOM     98  C   UNL A   1      48.171  28.096  33.333  1.00  0.00     0.006 A 
ENDBRANCH  74  91
ENDBRANCH  48  49
ENDBRANCH  40  43
ENDBRANCH  38  39
ENDBRANCH  37  38
ENDBRANCH  36  37
ENDBRANCH   1  36
TORSDOF 17
ENDMDL
MODEL 3
REMARK VINA RESULT:     -13.0      4.232      9.550
REMARK SMILES C[C@H]1c2ccc(O)cc2OC(=O)[C@@H]1CC(=O)N[C@@H](CC1=c2ccccc2=NC1)C(=O)NCCCCNC(=O)c1ccc(-c2c3nc(c(-c4c(F)cccc4F)c4ccc([nH]4)c(-c4c(F)cccc4F)c4nc(c(-c5c(F)cccc5F)c5ccc2[nH]5)C=C4)C=C3)cc1
REMARK SMILES IDX 32 1 31 2 29 3 30 4 18 6 17 7 15 8 16 9 14 11 13 12 1 13
REMARK SMILES IDX 2 14 3 15 4 16 9 17 11 18 5 19 8 20 10 21 12 22 6 23 7 24
REMARK SMILES IDX 19 26 20 27 21 28 28 29 22 30 26 31 27 32 23 33 25 34 24 35
REMARK SMILES IDX 33 36 34 37 35 38 36 39 37 40 38 42 39 43 40 44 92 45 41 46
REMARK SMILES IDX 91 47 42 48 43 49 44 50 85 51 45 52 90 53 84 54 86 55 46 56
REMARK SMILES IDX 89 57 83 58 82 59 47 61 73 62 56 63 72 64 57 65 60 66 71 67
REMARK SMILES IDX 87 68 58 69 59 70 70 72 88 73 61 74 48 75 49 76 54 77 50 78
REMARK SMILES IDX 51 79 53 80 55 81 52 82 74 83 75 84 80 85 76 86 77 87 79 88
REMARK SMILES IDX 81 89 78 90 62 91 63 92 68 93 64 94 65 95 67 96 69 97 66 98
REMARK H PARENT 31 5 17 10 7 25 36 41 86 60 60 71
REMARK Flexibility Score: inf
ROOT
ATOM      1  C   UNL A   1      35.736  20.643  25.417  1.00  0.00     0.116 C 
ENDROOT
BRANCH   1   2
ATOM      2  N   UNL A   1      35.452  21.538  26.502  1.00  0.00    -0.354 N 
ATOM      3  C   UNL A   1      34.215  21.883  26.972  1.00  0.00     0.242 C 
ATOM      4  O   UNL A   1      34.175  22.483  28.052  1.00  0.00    -0.273 OA
ATOM      5  H   UNL A   1      36.227  21.945  26.953  1.00  0.00     0.163 HD
BRANCH   3   6
ATOM      6  C   UNL A   1      32.897  21.462  26.255  1.00  0.00     0.175 C 
BRANCH   6   7
ATOM      7  N   UNL A   1      31.714  22.234  26.680  1.00  0.00    -0.344 N 
ATOM      8  C   UNL A   1      31.410  23.557  26.595  1.00  0.00     0.221 C 
ATOM      9  O   UNL A   1      30.312  23.929  27.014  1.00  0.00    -0.275 OA
ATOM     10  H   UNL A   1      31.013  21.688  27.104  1.00  0.00     0.164 HD
BRANCH   8  11
ATOM     11  C   UNL A   1      32.389  24.561  26.022  1.00  0.00     0.116 C 
BRANCH  11  12
ATOM     12  C   UNL A   1      32.427  24.511  24.481  1.00  0.00     0.116 C 
ATOM     13  C   UNL A   1      33.518  25.317  22.322  1.00  0.00     0.014 C 
ATOM     14  C   UNL A   1      33.391  25.527  23.839  1.00  0.00     0.034 C 
ATOM     15  C   UNL A   1      32.892  26.917  24.139  1.00  0.00    -0.001 A 
ATOM     16  C   UNL A   1      33.758  28.001  24.294  1.00  0.00     0.011 A 
ATOM     17  C   UNL A   1      31.520  27.124  24.315  1.00  0.00     0.138 A 
ATOM     18  C   UNL A   1      31.061  24.801  23.922  1.00  0.00     0.315 C 
ATOM     19  C   UNL A   1      33.252  29.250  24.672  1.00  0.00     0.047 A 
ATOM     20  C   UNL A   1      31.005  28.352  24.708  1.00  0.00     0.093 A 
ATOM     21  O   UNL A   1      30.598  26.094  24.083  1.00  0.00    -0.426 OA
ATOM     22  O   UNL A   1      30.370  23.946  23.388  1.00  0.00    -0.251 OA
ATOM     23  C   UNL A   1      31.885  29.408  24.896  1.00  0.00     0.119 A 
BRANCH  23  24
ATOM     24  O   UNL A   1      31.362  30.598  25.303  1.00  0.00    -0.508 OA
ATOM     25  H   UNL A   1      30.670  30.998  24.812  1.00  0.00     0.293 HD
ENDBRANCH  23  24
ENDBRANCH  11  12
ENDBRANCH   8  11
ENDBRANCH   6   7
BRANCH   6  26
ATOM     26  C   UNL A   1      33.074  21.334  24.694  1.00  0.00     0.068 C 
BRANCH  26  27
ATOM     27  C   UNL A   1      32.591  20.052  24.059  1.00  0.00    -0.037 C 
ATOM     28  C   UNL A   1      32.595  18.791  24.485  1.00  0.00     0.001 A 
ATOM     29  C   UNL A   1      32.036  20.034  22.660  1.00  0.00     0.174 C 
ATOM     30  C   UNL A   1      32.688  18.071  25.707  1.00  0.00     0.010 A 
ATOM     31  C   UNL A   1      32.759  18.085  23.195  1.00  0.00     0.065 A 
ATOM     32  N   UNL A   1      32.429  18.719  22.115  1.00  0.00    -0.280 NA
ATOM     33  C   UNL A   1      33.149  16.810  25.694  1.00  0.00     0.001 A 
ATOM     34  C   UNL A   1      33.442  16.773  23.264  1.00  0.00     0.028 A 
ATOM     35  C   UNL A   1      33.657  16.220  24.470  1.00  0.00     0.002 A 
ENDBRANCH  26  27
ENDBRANCH   6  26
ENDBRANCH   3   6
ENDBRANCH   1   2
BRANCH   1  36
ATOM     36  C   UNL A   1      36.971  20.969  24.588  1.00  0.00     0.023 C 
BRANCH  36  37
ATOM     37  C   UNL A   1      37.839  22.104  25.118  1.00  0.00     0.023 C 
BRANCH  37  38
ATOM     38  C   UNL A   1      38.918  21.715  26.121  1.00  0.00     0.116 C 
BRANCH  38  39
ATOM     39  N   UNL A   1      39.623  20.477  25.803  1.00  0.00    -0.352 N 
ATOM     40  C   UNL A   1      40.935  20.116  26.057  1.00  0.00     0.251 C 
ATOM     41  H   UNL A   1      39.085  19.798  25.337  1.00  0.00     0.163 HD
ATOM     42  O   UNL A   1      41.358  19.028  25.731  1.00  0.00    -0.269 OA
BRANCH  40  43
ATOM     43  C   UNL A   1      41.830  21.136  26.643  1.00  0.00     0.039 A 
ATOM     44  C   UNL A   1      41.921  21.271  28.026  1.00  0.00     0.014 A 
ATOM     45  C   UNL A   1      42.393  22.085  25.788  1.00  0.00     0.014 A 
ATOM     46  C   UNL A   1      42.329  22.492  28.548  1.00  0.00     0.010 A 
ATOM     47  C   UNL A   1      42.906  23.266  26.325  1.00  0.00     0.010 A 
ATOM     48  C   UNL A   1      42.786  23.518  27.700  1.00  0.00    -0.014 A 
BRANCH  48  49
ATOM     49  C   UNL A   1      43.052  24.868  28.264  1.00  0.00     0.031 A 
ATOM     50  C   UNL A   1      44.460  25.320  28.564  1.00  0.00     0.074 A 
ATOM     51  C   UNL A   1      42.026  25.722  28.435  1.00  0.00     0.049 A 
ATOM     52  N   UNL A   1      44.876  26.456  29.068  1.00  0.00    -0.248 NA
ATOM     53  C   UNL A   1      45.547  24.371  28.268  1.00  0.00     0.031 C 
ATOM     54  C   UNL A   1      40.621  25.416  28.162  1.00  0.00     0.029 A 
ATOM     55  N   UNL A   1      42.009  27.028  28.851  1.00  0.00    -0.354 N 
ATOM     56  C   UNL A   1      46.256  26.343  29.189  1.00  0.00     0.074 A 
ATOM     57  C   UNL A   1      46.610  25.022  28.719  1.00  0.00     0.031 C 
ATOM     58  C   UNL A   1      39.887  26.518  28.356  1.00  0.00     0.029 A 
ATOM     59  C   UNL A   1      40.755  27.586  28.840  1.00  0.00     0.049 A 
ATOM     60  H   UNL A   1      42.817  27.517  29.129  1.00  0.00     0.167 HD
ATOM     61  C   UNL A   1      47.148  27.257  29.644  1.00  0.00     0.037 A 
ATOM     62  C   UNL A   1      40.344  28.813  29.201  1.00  0.00     0.037 A 
ATOM     63  C   UNL A   1      46.799  28.588  30.070  1.00  0.00     0.049 A 
ATOM     64  C   UNL A   1      41.345  29.800  29.719  1.00  0.00     0.074 A 
ATOM     65  C   UNL A   1      47.634  29.601  30.514  1.00  0.00     0.029 A 
ATOM     66  N   UNL A   1      45.509  29.095  30.098  1.00  0.00    -0.354 N 
ATOM     67  N   UNL A   1      42.644  29.670  29.844  1.00  0.00    -0.248 NA
ATOM     68  C   UNL A   1      40.821  31.098  30.162  1.00  0.00     0.031 C 
ATOM     69  C   UNL A   1      46.844  30.708  30.843  1.00  0.00     0.029 A 
ATOM     70  C   UNL A   1      45.522  30.397  30.571  1.00  0.00     0.049 A 
ATOM     71  H   UNL A   1      44.703  28.602  29.824  1.00  0.00     0.167 HD
ATOM     72  C   UNL A   1      43.092  30.866  30.383  1.00  0.00     0.074 A 
ATOM     73  C   UNL A   1      41.931  31.720  30.532  1.00  0.00     0.031 C 
ATOM     74  C   UNL A   1      44.353  31.224  30.730  1.00  0.00     0.037 A 
BRANCH  61  75
ATOM     75  C   UNL A   1      48.587  26.836  29.731  1.00  0.00     0.057 A 
ATOM     76  C   UNL A   1      49.457  27.059  28.655  1.00  0.00     0.134 A 
ATOM     77  C   UNL A   1      49.111  26.194  30.860  1.00  0.00     0.134 A 
ATOM     78  F   UNL A   1      49.021  27.663  27.540  1.00  0.00    -0.206 F 
ATOM     79  C   UNL A   1      50.795  26.663  28.701  1.00  0.00     0.040 A 
ATOM     80  C   UNL A   1      50.453  25.813  30.928  1.00  0.00     0.040 A 
ATOM     81  F   UNL A   1      48.336  25.964  31.931  1.00  0.00    -0.206 F 
ATOM     82  C   UNL A   1      51.299  26.043  29.843  1.00  0.00     0.006 A 
ENDBRANCH  61  75
BRANCH  62  83
ATOM     83  C   UNL A   1      38.906  29.156  29.100  1.00  0.00     0.057 A 
ATOM     84  C   UNL A   1      38.058  29.063  30.211  1.00  0.00     0.134 A 
ATOM     85  C   UNL A   1      38.341  29.549  27.883  1.00  0.00     0.134 A 
ATOM     86  F   UNL A   1      38.542  28.683  31.403  1.00  0.00    -0.206 F 
ATOM     87  C   UNL A   1      36.692  29.326  30.109  1.00  0.00     0.040 A 
ATOM     88  C   UNL A   1      36.981  29.839  27.773  1.00  0.00     0.040 A 
ATOM     89  F   UNL A   1      39.109  29.672  26.791  1.00  0.00    -0.206 F 
ATOM     90  C   UNL A   1      36.151  29.718  28.887  1.00  0.00     0.006 A 
ENDBRANCH  62  83
BRANCH  74  91
ATOM     91  C   UNL A   1      44.525  32.597  31.305  1.00  0.00     0.057 A 
ATOM     92  C   UNL A   1      44.746  33.701  30.474  1.00  0.00     0.134 A 
ATOM     93  C   UNL A   1      44.470  32.824  32.686  1.00  0.00     0.134 A 
ATOM     94  F   UNL A   1      44.813  33.548  29.142  1.00  0.00    -0.206 F 
ATOM     95  C   UNL A   1      44.900  34.985  30.995  1.00  0.00     0.040 A 
ATOM     96  C   UNL A   1      44.602  34.107  33.218  1.00  0.00     0.040 A 
ATOM     97  F   UNL A   1      44.244  31.809  33.534  1.00  0.00    -0.206 F 
ATOM     98  C   UNL A   1      44.820  35.192  32.371  1.00  0.00     0.006 A 
ENDBRANCH  74  91
ENDBRANCH  48  49
ENDBRANCH  40  43
ENDBRANCH  38  39
ENDBRANCH  37  38
ENDBRANCH  36  37
ENDBRANCH   1  36
TORSDOF 17
ENDMDL
