MODEL 1
REMARK VINA RESULT:     -11.6      0.000      0.000
REMARK SMILES C[C@@H](NC(=O)N1CC[N@@H+]2CCCC[C@H]2C1)C(=O)NCCCCNC(=O)c1ccc(-c2c3nc(c(-c4c(F)cccc4F)c4ccc([nH]4)c(-c4c(F)cccc4F)c4nc(c(-c5c(F)cccc5F)c5ccc2[nH]5)C=C4)C=C3)cc1
REMARK SMILES IDX 20 1 19 2 18 3 16 4 17 5 2 7 1 8 3 9 4 10 5 12 6 13 7 14
REMARK SMILES IDX 15 15 8 16 14 17 9 18 13 19 10 20 12 22 11 23 21 24 22 25
REMARK SMILES IDX 23 26 24 27 25 29 26 30 27 31 79 32 28 33 78 34 29 35 30 36
REMARK SMILES IDX 31 37 72 38 32 39 77 40 71 41 73 42 33 43 76 44 70 45 69 46
REMARK SMILES IDX 34 48 60 49 43 50 59 51 44 52 47 53 58 54 74 55 45 56 46 57
REMARK SMILES IDX 57 59 75 60 48 61 35 62 36 63 41 64 37 65 38 66 40 67 42 68
REMARK SMILES IDX 39 69 61 70 62 71 67 72 63 73 64 74 66 75 68 76 65 77 49 78
REMARK SMILES IDX 50 79 55 80 51 81 52 82 54 83 56 84 53 85
REMARK H PARENT 18 6 3 11 9 21 23 28 73 47 47 58
REMARK Flexibility Score: inf
ROOT
ATOM      1  C   UNL A   1      32.944  29.676  25.058  1.00  0.00     0.023 C 
ENDROOT
BRANCH   1   2
ATOM      2  C   UNL A   1      31.424  29.507  25.059  1.00  0.00     0.116 C 
BRANCH   2   3
ATOM      3  N   UNL A   1      30.855  29.706  23.739  1.00  0.00    -0.354 N 
ATOM      4  C   UNL A   1      30.673  28.805  22.733  1.00  0.00     0.242 C 
ATOM      5  O   UNL A   1      30.294  29.244  21.640  1.00  0.00    -0.273 OA
ATOM      6  H   UNL A   1      30.558  30.624  23.543  1.00  0.00     0.163 HD
BRANCH   4   7
ATOM      7  C   UNL A   1      31.091  27.328  22.861  1.00  0.00     0.170 C 
ATOM      8  C   UNL A   1      29.820  26.552  23.231  1.00  0.00     0.041 C 
BRANCH   7   9
ATOM      9  N   UNL A   1      31.730  26.719  21.695  1.00  0.00    -0.326 N 
ATOM     10  C   UNL A   1      32.499  25.617  21.542  1.00  0.00     0.318 C 
ATOM     11  H   UNL A   1      31.568  27.209  20.856  1.00  0.00     0.166 HD
ATOM     12  O   UNL A   1      32.942  25.405  20.413  1.00  0.00    -0.249 OA
BRANCH  10  13
ATOM     13  N   UNL A   1      32.926  24.923  22.634  1.00  0.00    -0.313 N 
ATOM     14  C   UNL A   1      33.929  25.369  23.597  1.00  0.00     0.183 C 
ATOM     15  C   UNL A   1      32.084  23.849  23.155  1.00  0.00     0.186 C 
ATOM     16  C   UNL A   1      34.764  24.195  24.166  1.00  0.00     0.284 C 
ATOM     17  C   UNL A   1      32.980  22.643  23.501  1.00  0.00     0.203 C 
ATOM     18  N   UNL A   1      34.018  22.959  24.508  1.00  0.00    -0.330 N 
ATOM     19  C   UNL A   1      32.161  21.450  23.999  1.00  0.00     0.067 C 
ATOM     20  C   UNL A   1      34.964  21.831  24.624  1.00  0.00     0.262 C 
ATOM     21  H   UNL A   1      33.545  23.113  25.400  1.00  0.00     0.348 HD
ATOM     22  C   UNL A   1      33.061  20.223  24.125  1.00  0.00     0.012 C 
ATOM     23  C   UNL A   1      34.277  20.513  24.994  1.00  0.00     0.062 C 
ENDBRANCH  10  13
ENDBRANCH   7   9
ENDBRANCH   4   7
ENDBRANCH   2   3
ENDBRANCH   1   2
BRANCH   1  24
ATOM     24  C   UNL A   1      33.706  28.518  25.708  1.00  0.00     0.023 C 
BRANCH  24  25
ATOM     25  C   UNL A   1      33.801  28.589  27.232  1.00  0.00     0.116 C 
BRANCH  25  26
ATOM     26  N   UNL A   1      33.762  29.936  27.764  1.00  0.00    -0.352 N 
ATOM     27  C   UNL A   1      34.762  30.662  28.368  1.00  0.00     0.251 C 
ATOM     28  H   UNL A   1      32.896  30.397  27.682  1.00  0.00     0.163 HD
ATOM     29  O   UNL A   1      34.511  31.774  28.834  1.00  0.00    -0.269 OA
BRANCH  27  30
ATOM     30  C   UNL A   1      36.133  30.110  28.515  1.00  0.00     0.039 A 
ATOM     31  C   UNL A   1      37.000  30.184  27.425  1.00  0.00     0.014 A 
ATOM     32  C   UNL A   1      36.568  29.495  29.692  1.00  0.00     0.014 A 
ATOM     33  C   UNL A   1      38.310  29.703  27.532  1.00  0.00     0.010 A 
ATOM     34  C   UNL A   1      37.902  29.082  29.823  1.00  0.00     0.010 A 
ATOM     35  C   UNL A   1      38.796  29.181  28.745  1.00  0.00    -0.014 A 
BRANCH  35  36
ATOM     36  C   UNL A   1      40.227  28.759  28.870  1.00  0.00     0.031 A 
ATOM     37  C   UNL A   1      40.684  27.384  28.448  1.00  0.00     0.074 A 
ATOM     38  C   UNL A   1      41.141  29.617  29.376  1.00  0.00     0.049 A 
ATOM     39  N   UNL A   1      41.896  26.879  28.451  1.00  0.00    -0.248 NA
ATOM     40  C   UNL A   1      39.652  26.447  27.984  1.00  0.00     0.031 C 
ATOM     41  C   UNL A   1      40.852  30.962  29.876  1.00  0.00     0.029 A 
ATOM     42  N   UNL A   1      42.501  29.490  29.539  1.00  0.00    -0.354 N 
ATOM     43  C   UNL A   1      41.768  25.570  28.003  1.00  0.00     0.074 A 
ATOM     44  C   UNL A   1      40.355  25.340  27.786  1.00  0.00     0.031 C 
ATOM     45  C   UNL A   1      42.002  31.553  30.238  1.00  0.00     0.029 A 
ATOM     46  C   UNL A   1      43.107  30.619  30.039  1.00  0.00     0.049 A 
ATOM     47  H   UNL A   1      42.995  28.668  29.318  1.00  0.00     0.167 HD
ATOM     48  C   UNL A   1      42.733  24.647  27.768  1.00  0.00     0.037 A 
ATOM     49  C   UNL A   1      44.401  30.885  30.308  1.00  0.00     0.037 A 
ATOM     50  C   UNL A   1      44.146  24.868  27.948  1.00  0.00     0.049 A 
ATOM     51  C   UNL A   1      45.454  29.844  30.042  1.00  0.00     0.074 A 
ATOM     52  C   UNL A   1      45.194  24.010  27.655  1.00  0.00     0.029 A 
ATOM     53  N   UNL A   1      44.711  26.019  28.472  1.00  0.00    -0.354 N 
ATOM     54  N   UNL A   1      45.320  28.641  29.542  1.00  0.00    -0.248 NA
ATOM     55  C   UNL A   1      46.841  30.202  30.376  1.00  0.00     0.031 C 
ATOM     56  C   UNL A   1      46.386  24.617  28.059  1.00  0.00     0.029 A 
ATOM     57  C   UNL A   1      46.089  25.880  28.543  1.00  0.00     0.049 A 
ATOM     58  H   UNL A   1      44.209  26.818  28.753  1.00  0.00     0.167 HD
ATOM     59  C   UNL A   1      46.602  28.110  29.474  1.00  0.00     0.074 A 
ATOM     60  C   UNL A   1      47.504  29.126  29.971  1.00  0.00     0.031 C 
ATOM     61  C   UNL A   1      46.993  26.888  29.035  1.00  0.00     0.037 A 
BRANCH  48  62
ATOM     62  C   UNL A   1      42.301  23.291  27.283  1.00  0.00     0.057 A 
ATOM     63  C   UNL A   1      42.316  22.950  25.923  1.00  0.00     0.134 A 
ATOM     64  C   UNL A   1      41.934  22.291  28.193  1.00  0.00     0.134 A 
ATOM     65  F   UNL A   1      42.655  23.861  24.998  1.00  0.00    -0.206 F 
ATOM     66  C   UNL A   1      41.960  21.674  25.487  1.00  0.00     0.040 A 
ATOM     67  C   UNL A   1      41.604  21.002  27.770  1.00  0.00     0.040 A 
ATOM     68  F   UNL A   1      41.911  22.544  29.510  1.00  0.00    -0.206 F 
ATOM     69  C   UNL A   1      41.611  20.692  26.412  1.00  0.00     0.006 A 
ENDBRANCH  48  62
BRANCH  49  70
ATOM     70  C   UNL A   1      44.787  32.219  30.837  1.00  0.00     0.057 A 
ATOM     71  C   UNL A   1      44.797  32.476  32.214  1.00  0.00     0.134 A 
ATOM     72  C   UNL A   1      45.149  33.268  29.984  1.00  0.00     0.134 A 
ATOM     73  F   UNL A   1      44.437  31.518  33.081  1.00  0.00    -0.206 F 
ATOM     74  C   UNL A   1      45.139  33.729  32.722  1.00  0.00     0.040 A 
ATOM     75  C   UNL A   1      45.519  34.519  30.479  1.00  0.00     0.040 A 
ATOM     76  F   UNL A   1      45.162  33.086  28.656  1.00  0.00    -0.206 F 
ATOM     77  C   UNL A   1      45.508  34.754  31.853  1.00  0.00     0.006 A 
ENDBRANCH  49  70
BRANCH  61  78
ATOM     78  C   UNL A   1      48.465  26.583  29.035  1.00  0.00     0.057 A 
ATOM     79  C   UNL A   1      49.089  25.929  30.104  1.00  0.00     0.134 A 
ATOM     80  C   UNL A   1      49.259  26.908  27.926  1.00  0.00     0.134 A 
ATOM     81  F   UNL A   1      48.391  25.597  31.200  1.00  0.00    -0.206 F 
ATOM     82  C   UNL A   1      50.454  25.630  30.082  1.00  0.00     0.040 A 
ATOM     83  C   UNL A   1      50.618  26.589  27.881  1.00  0.00     0.040 A 
ATOM     84  F   UNL A   1      48.725  27.527  26.863  1.00  0.00    -0.206 F 
ATOM     85  C   UNL A   1      51.220  25.954  28.964  1.00  0.00     0.006 A 
ENDBRANCH  61  78
ENDBRANCH  35  36
ENDBRANCH  27  30
ENDBRANCH  25  26
ENDBRANCH  24  25
ENDBRANCH   1  24
TORSDOF 13
ENDMDL
MODEL 2
REMARK VINA RESULT:     -11.6      2.641      7.877
REMARK SMILES C[C@@H](NC(=O)N1CC[N@@H+]2CCCC[C@H]2C1)C(=O)NCCCCNC(=O)c1ccc(-c2c3nc(c(-c4c(F)cccc4F)c4ccc([nH]4)c(-c4c(F)cccc4F)c4nc(c(-c5c(F)cccc5F)c5ccc2[nH]5)C=C4)C=C3)cc1
REMARK SMILES IDX 20 1 19 2 18 3 16 4 17 5 2 7 1 8 3 9 4 10 5 12 6 13 7 14
REMARK SMILES IDX 15 15 8 16 14 17 9 18 13 19 10 20 12 22 11 23 21 24 22 25
REMARK SMILES IDX 23 26 24 27 25 29 26 30 27 31 79 32 28 33 78 34 29 35 30 36
REMARK SMILES IDX 31 37 72 38 32 39 77 40 71 41 73 42 33 43 76 44 70 45 69 46
REMARK SMILES IDX 34 48 60 49 43 50 59 51 44 52 47 53 58 54 74 55 45 56 46 57
REMARK SMILES IDX 57 59 75 60 48 61 35 62 36 63 41 64 37 65 38 66 40 67 42 68
REMARK SMILES IDX 39 69 61 70 62 71 67 72 63 73 64 74 66 75 68 76 65 77 49 78
REMARK SMILES IDX 50 79 55 80 51 81 52 82 54 83 56 84 53 85
REMARK H PARENT 18 6 3 11 9 21 23 28 73 47 47 58
REMARK Flexibility Score: inf
ROOT
ATOM      1  C   UNL A   1      36.932  21.169  24.514  1.00  0.00     0.023 C 
ENDROOT
BRANCH   1   2
ATOM      2  C   UNL A   1      35.827  21.440  25.535  1.00  0.00     0.116 C 
BRANCH   2   3
ATOM      3  N   UNL A   1      34.894  20.332  25.630  1.00  0.00    -0.354 N 
ATOM      4  C   UNL A   1      33.542  20.326  25.459  1.00  0.00     0.242 C 
ATOM      5  O   UNL A   1      32.941  19.279  25.731  1.00  0.00    -0.273 OA
ATOM      6  H   UNL A   1      35.297  19.460  25.849  1.00  0.00     0.163 HD
BRANCH   4   7
ATOM      7  C   UNL A   1      32.746  21.601  25.125  1.00  0.00     0.170 C 
ATOM      8  C   UNL A   1      32.154  21.384  23.725  1.00  0.00     0.041 C 
BRANCH   7   9
ATOM      9  N   UNL A   1      31.691  21.985  26.062  1.00  0.00    -0.326 N 
ATOM     10  C   UNL A   1      31.103  23.170  26.346  1.00  0.00     0.318 C 
ATOM     11  H   UNL A   1      31.341  21.232  26.591  1.00  0.00     0.166 HD
ATOM     12  O   UNL A   1      30.269  23.170  27.252  1.00  0.00    -0.249 OA
BRANCH  10  13
ATOM     13  N   UNL A   1      31.585  24.322  25.799  1.00  0.00    -0.313 N 
ATOM     14  C   UNL A   1      32.856  24.962  26.126  1.00  0.00     0.183 C 
ATOM     15  C   UNL A   1      31.041  24.770  24.520  1.00  0.00     0.186 C 
ATOM     16  C   UNL A   1      32.781  26.505  26.032  1.00  0.00     0.284 C 
ATOM     17  C   UNL A   1      30.803  26.292  24.593  1.00  0.00     0.203 C 
ATOM     18  N   UNL A   1      32.035  27.062  24.877  1.00  0.00    -0.330 N 
ATOM     19  C   UNL A   1      30.174  26.831  23.305  1.00  0.00     0.067 C 
ATOM     20  C   UNL A   1      31.693  28.473  25.145  1.00  0.00     0.262 C 
ATOM     21  H   UNL A   1      32.635  26.998  24.054  1.00  0.00     0.348 HD
ATOM     22  C   UNL A   1      29.764  28.289  23.502  1.00  0.00     0.012 C 
ATOM     23  C   UNL A   1      30.934  29.133  23.991  1.00  0.00     0.062 C 
ENDBRANCH  10  13
ENDBRANCH   7   9
ENDBRANCH   4   7
ENDBRANCH   2   3
ENDBRANCH   1   2
BRANCH   1  24
ATOM     24  C   UNL A   1      37.774  19.925  24.812  1.00  0.00     0.023 C 
BRANCH  24  25
ATOM     25  C   UNL A   1      38.851  20.121  25.879  1.00  0.00     0.116 C 
BRANCH  25  26
ATOM     26  N   UNL A   1      39.979  19.220  25.751  1.00  0.00    -0.352 N 
ATOM     27  C   UNL A   1      41.309  19.451  26.011  1.00  0.00     0.251 C 
ATOM     28  H   UNL A   1      39.762  18.314  25.433  1.00  0.00     0.163 HD
ATOM     29  O   UNL A   1      42.139  18.576  25.761  1.00  0.00    -0.269 OA
BRANCH  27  30
ATOM     30  C   UNL A   1      41.775  20.757  26.544  1.00  0.00     0.039 A 
ATOM     31  C   UNL A   1      42.124  21.758  25.637  1.00  0.00     0.014 A 
ATOM     32  C   UNL A   1      41.903  21.001  27.913  1.00  0.00     0.014 A 
ATOM     33  C   UNL A   1      42.540  23.013  26.098  1.00  0.00     0.010 A 
ATOM     34  C   UNL A   1      42.246  22.281  28.374  1.00  0.00     0.010 A 
ATOM     35  C   UNL A   1      42.568  23.309  27.473  1.00  0.00    -0.014 A 
BRANCH  35  36
ATOM     36  C   UNL A   1      42.923  24.685  27.946  1.00  0.00     0.031 A 
ATOM     37  C   UNL A   1      44.359  25.128  28.079  1.00  0.00     0.074 A 
ATOM     38  C   UNL A   1      41.944  25.559  28.268  1.00  0.00     0.049 A 
ATOM     39  N   UNL A   1      44.833  26.301  28.431  1.00  0.00    -0.248 NA
ATOM     40  C   UNL A   1      45.399  24.127  27.802  1.00  0.00     0.031 C 
ATOM     41  C   UNL A   1      40.509  25.270  28.244  1.00  0.00     0.029 A 
ATOM     42  N   UNL A   1      42.008  26.874  28.667  1.00  0.00    -0.354 N 
ATOM     43  C   UNL A   1      46.217  26.173  28.430  1.00  0.00     0.074 A 
ATOM     44  C   UNL A   1      46.507  24.796  28.092  1.00  0.00     0.031 C 
ATOM     45  C   UNL A   1      39.830  26.384  28.557  1.00  0.00     0.029 A 
ATOM     46  C   UNL A   1      40.776  27.459  28.849  1.00  0.00     0.049 A 
ATOM     47  H   UNL A   1      42.856  27.354  28.810  1.00  0.00     0.167 HD
ATOM     48  C   UNL A   1      47.164  27.114  28.664  1.00  0.00     0.037 A 
ATOM     49  C   UNL A   1      40.433  28.713  29.205  1.00  0.00     0.037 A 
ATOM     50  C   UNL A   1      46.894  28.496  28.970  1.00  0.00     0.049 A 
ATOM     51  C   UNL A   1      41.503  29.740  29.463  1.00  0.00     0.074 A 
ATOM     52  C   UNL A   1      47.800  29.531  29.141  1.00  0.00     0.029 A 
ATOM     53  N   UNL A   1      45.633  29.038  29.161  1.00  0.00    -0.354 N 
ATOM     54  N   UNL A   1      42.804  29.618  29.377  1.00  0.00    -0.248 NA
ATOM     55  C   UNL A   1      41.052  31.082  29.863  1.00  0.00     0.031 C 
ATOM     56  C   UNL A   1      47.091  30.683  29.494  1.00  0.00     0.029 A 
ATOM     57  C   UNL A   1      45.739  30.383  29.480  1.00  0.00     0.049 A 
ATOM     58  H   UNL A   1      44.786  28.541  29.081  1.00  0.00     0.167 HD
ATOM     59  C   UNL A   1      43.326  30.869  29.683  1.00  0.00     0.074 A 
ATOM     60  C   UNL A   1      42.201  31.741  29.944  1.00  0.00     0.031 C 
ATOM     61  C   UNL A   1      44.624  31.257  29.739  1.00  0.00     0.037 A 
BRANCH  48  62
ATOM     62  C   UNL A   1      48.604  26.689  28.597  1.00  0.00     0.057 A 
ATOM     63  C   UNL A   1      49.267  26.137  29.703  1.00  0.00     0.134 A 
ATOM     64  C   UNL A   1      49.316  26.766  27.392  1.00  0.00     0.134 A 
ATOM     65  F   UNL A   1      48.645  26.038  30.888  1.00  0.00    -0.206 F 
ATOM     66  C   UNL A   1      50.589  25.700  29.618  1.00  0.00     0.040 A 
ATOM     67  C   UNL A   1      50.630  26.304  27.288  1.00  0.00     0.040 A 
ATOM     68  F   UNL A   1      48.739  27.270  26.291  1.00  0.00    -0.206 F 
ATOM     69  C   UNL A   1      51.272  25.775  28.405  1.00  0.00     0.006 A 
ENDBRANCH  48  62
BRANCH  49  70
ATOM     70  C   UNL A   1      38.999  29.086  29.313  1.00  0.00     0.057 A 
ATOM     71  C   UNL A   1      38.289  29.560  28.203  1.00  0.00     0.134 A 
ATOM     72  C   UNL A   1      38.306  28.985  30.525  1.00  0.00     0.134 A 
ATOM     73  F   UNL A   1      38.905  29.703  27.020  1.00  0.00    -0.206 F 
ATOM     74  C   UNL A   1      36.948  29.932  28.296  1.00  0.00     0.040 A 
ATOM     75  C   UNL A   1      36.958  29.328  30.627  1.00  0.00     0.040 A 
ATOM     76  F   UNL A   1      38.928  28.536  31.625  1.00  0.00    -0.206 F 
ATOM     77  C   UNL A   1      36.275  29.810  29.511  1.00  0.00     0.006 A 
ENDBRANCH  49  70
BRANCH  61  78
ATOM     78  C   UNL A   1      44.910  32.697  30.062  1.00  0.00     0.057 A 
ATOM     79  C   UNL A   1      44.873  33.700  29.086  1.00  0.00     0.134 A 
ATOM     80  C   UNL A   1      45.181  33.090  31.380  1.00  0.00     0.134 A 
ATOM     81  F   UNL A   1      44.629  33.393  27.803  1.00  0.00    -0.206 F 
ATOM     82  C   UNL A   1      45.118  35.039  29.404  1.00  0.00     0.040 A 
ATOM     83  C   UNL A   1      45.399  34.428  31.714  1.00  0.00     0.040 A 
ATOM     84  F   UNL A   1      45.223  32.183  32.367  1.00  0.00    -0.206 F 
ATOM     85  C   UNL A   1      45.374  35.406  30.723  1.00  0.00     0.006 A 
ENDBRANCH  61  78
ENDBRANCH  35  36
ENDBRANCH  27  30
ENDBRANCH  25  26
ENDBRANCH  24  25
ENDBRANCH   1  24
TORSDOF 13
ENDMDL
MODEL 3
REMARK VINA RESULT:     -11.5      2.629      7.798
REMARK SMILES C[C@@H](NC(=O)N1CC[N@@H+]2CCCC[C@H]2C1)C(=O)NCCCCNC(=O)c1ccc(-c2c3nc(c(-c4c(F)cccc4F)c4ccc([nH]4)c(-c4c(F)cccc4F)c4nc(c(-c5c(F)cccc5F)c5ccc2[nH]5)C=C4)C=C3)cc1
REMARK SMILES IDX 20 1 19 2 18 3 16 4 17 5 2 7 1 8 3 9 4 10 5 12 6 13 7 14
REMARK SMILES IDX 15 15 8 16 14 17 9 18 13 19 10 20 12 22 11 23 21 24 22 25
REMARK SMILES IDX 23 26 24 27 25 29 26 30 27 31 79 32 28 33 78 34 29 35 30 36
REMARK SMILES IDX 31 37 72 38 32 39 77 40 71 41 73 42 33 43 76 44 70 45 69 46
REMARK SMILES IDX 34 48 60 49 43 50 59 51 44 52 47 53 58 54 74 55 45 56 46 57
REMARK SMILES IDX 57 59 75 60 48 61 35 62 36 63 41 64 37 65 38 66 40 67 42 68
REMARK SMILES IDX 39 69 61 70 62 71 67 72 63 73 64 74 66 75 68 76 65 77 49 78
REMARK SMILES IDX 50 79 55 80 51 81 52 82 54 83 56 84 53 85
REMARK H PARENT 18 6 3 11 9 21 23 28 73 47 47 58
REMARK Flexibility Score: inf
ROOT
ATOM      1  C   UNL A   1      36.461  20.887  24.646  1.00  0.00     0.023 C 
ENDROOT
BRANCH   1   2
ATOM      2  C   UNL A   1      35.413  21.031  25.750  1.00  0.00     0.116 C 
BRANCH   2   3
ATOM      3  N   UNL A   1      34.344  20.060  25.612  1.00  0.00    -0.354 N 
ATOM      4  C   UNL A   1      33.023  20.263  25.344  1.00  0.00     0.242 C 
ATOM      5  O   UNL A   1      32.273  19.282  25.414  1.00  0.00    -0.273 OA
ATOM      6  H   UNL A   1      34.611  19.119  25.729  1.00  0.00     0.163 HD
BRANCH   4   7
ATOM      7  C   UNL A   1      32.427  21.669  25.145  1.00  0.00     0.170 C 
ATOM      8  C   UNL A   1      31.905  21.715  23.702  1.00  0.00     0.041 C 
BRANCH   7   9
ATOM      9  N   UNL A   1      31.374  22.078  26.073  1.00  0.00    -0.326 N 
ATOM     10  C   UNL A   1      30.825  23.279  26.366  1.00  0.00     0.318 C 
ATOM     11  H   UNL A   1      30.989  21.330  26.586  1.00  0.00     0.166 HD
ATOM     12  O   UNL A   1      29.978  23.296  27.261  1.00  0.00    -0.249 OA
BRANCH  10  13
ATOM     13  N   UNL A   1      31.355  24.420  25.843  1.00  0.00    -0.313 N 
ATOM     14  C   UNL A   1      32.632  25.022  26.213  1.00  0.00     0.183 C 
ATOM     15  C   UNL A   1      30.863  24.892  24.551  1.00  0.00     0.186 C 
ATOM     16  C   UNL A   1      32.603  26.568  26.129  1.00  0.00     0.284 C 
ATOM     17  C   UNL A   1      30.665  26.419  24.627  1.00  0.00     0.203 C 
ATOM     18  N   UNL A   1      31.908  27.153  24.955  1.00  0.00    -0.330 N 
ATOM     19  C   UNL A   1      30.091  26.984  23.325  1.00  0.00     0.067 C 
ATOM     20  C   UNL A   1      31.598  28.571  25.223  1.00  0.00     0.262 C 
ATOM     21  H   UNL A   1      32.532  27.077  24.150  1.00  0.00     0.348 HD
ATOM     22  C   UNL A   1      29.716  28.451  23.520  1.00  0.00     0.012 C 
ATOM     23  C   UNL A   1      30.893  29.259  24.051  1.00  0.00     0.062 C 
ENDBRANCH  10  13
ENDBRANCH   7   9
ENDBRANCH   4   7
ENDBRANCH   2   3
ENDBRANCH   1   2
BRANCH   1  24
ATOM     24  C   UNL A   1      37.506  19.798  24.909  1.00  0.00     0.023 C 
BRANCH  24  25
ATOM     25  C   UNL A   1      38.727  20.260  25.705  1.00  0.00     0.116 C 
BRANCH  25  26
ATOM     26  N   UNL A   1      39.851  19.348  25.645  1.00  0.00    -0.352 N 
ATOM     27  C   UNL A   1      41.158  19.554  26.016  1.00  0.00     0.251 C 
ATOM     28  H   UNL A   1      39.649  18.453  25.288  1.00  0.00     0.163 HD
ATOM     29  O   UNL A   1      41.995  18.675  25.811  1.00  0.00    -0.269 OA
BRANCH  27  30
ATOM     30  C   UNL A   1      41.595  20.841  26.618  1.00  0.00     0.039 A 
ATOM     31  C   UNL A   1      42.014  21.864  25.766  1.00  0.00     0.014 A 
ATOM     32  C   UNL A   1      41.629  21.045  27.999  1.00  0.00     0.014 A 
ATOM     33  C   UNL A   1      42.404  23.101  26.291  1.00  0.00     0.010 A 
ATOM     34  C   UNL A   1      41.948  22.309  28.519  1.00  0.00     0.010 A 
ATOM     35  C   UNL A   1      42.339  23.359  27.672  1.00  0.00    -0.014 A 
BRANCH  35  36
ATOM     36  C   UNL A   1      42.669  24.717  28.208  1.00  0.00     0.031 A 
ATOM     37  C   UNL A   1      44.090  25.119  28.519  1.00  0.00     0.074 A 
ATOM     38  C   UNL A   1      41.682  25.613  28.427  1.00  0.00     0.049 A 
ATOM     39  N   UNL A   1      44.548  26.273  28.947  1.00  0.00    -0.248 NA
ATOM     40  C   UNL A   1      45.130  24.094  28.352  1.00  0.00     0.031 C 
ATOM     41  C   UNL A   1      40.253  25.364  28.226  1.00  0.00     0.029 A 
ATOM     42  N   UNL A   1      41.730  26.920  28.854  1.00  0.00    -0.354 N 
ATOM     43  C   UNL A   1      45.918  26.107  29.109  1.00  0.00     0.074 A 
ATOM     44  C   UNL A   1      46.212  24.728  28.783  1.00  0.00     0.031 C 
ATOM     45  C   UNL A   1      39.569  26.492  28.476  1.00  0.00     0.029 A 
ATOM     46  C   UNL A   1      40.501  27.536  28.897  1.00  0.00     0.049 A 
ATOM     47  H   UNL A   1      42.567  27.374  29.105  1.00  0.00     0.167 HD
ATOM     48  C   UNL A   1      46.854  27.019  29.470  1.00  0.00     0.037 A 
ATOM     49  C   UNL A   1      40.150  28.793  29.232  1.00  0.00     0.037 A 
ATOM     50  C   UNL A   1      46.584  28.403  29.766  1.00  0.00     0.049 A 
ATOM     51  C   UNL A   1      41.207  29.787  29.633  1.00  0.00     0.074 A 
ATOM     52  C   UNL A   1      47.489  29.410  30.062  1.00  0.00     0.029 A 
ATOM     53  N   UNL A   1      45.324  28.977  29.814  1.00  0.00    -0.354 N 
ATOM     54  N   UNL A   1      42.505  29.631  29.701  1.00  0.00    -0.248 NA
ATOM     55  C   UNL A   1      40.746  31.135  30.000  1.00  0.00     0.031 C 
ATOM     56  C   UNL A   1      46.773  30.576  30.348  1.00  0.00     0.029 A 
ATOM     57  C   UNL A   1      45.425  30.314  30.168  1.00  0.00     0.049 A 
ATOM     58  H   UNL A   1      44.481  28.504  29.625  1.00  0.00     0.167 HD
ATOM     59  C   UNL A   1      43.018  30.863  30.089  1.00  0.00     0.074 A 
ATOM     60  C   UNL A   1      41.893  31.761  30.229  1.00  0.00     0.031 C 
ATOM     61  C   UNL A   1      44.309  31.214  30.306  1.00  0.00     0.037 A 
BRANCH  48  62
ATOM     62  C   UNL A   1      48.281  26.555  29.569  1.00  0.00     0.057 A 
ATOM     63  C   UNL A   1      49.197  26.746  28.525  1.00  0.00     0.134 A 
ATOM     64  C   UNL A   1      48.762  25.974  30.750  1.00  0.00     0.134 A 
ATOM     65  F   UNL A   1      48.802  27.293  27.365  1.00  0.00    -0.206 F 
ATOM     66  C   UNL A   1      50.532  26.356  28.645  1.00  0.00     0.040 A 
ATOM     67  C   UNL A   1      50.101  25.607  30.892  1.00  0.00     0.040 A 
ATOM     68  F   UNL A   1      47.943  25.775  31.794  1.00  0.00    -0.206 F 
ATOM     69  C   UNL A   1      50.989  25.792  29.835  1.00  0.00     0.006 A 
ENDBRANCH  48  62
BRANCH  49  70
ATOM     70  C   UNL A   1      38.723  29.204  29.174  1.00  0.00     0.057 A 
ATOM     71  C   UNL A   1      38.140  29.626  27.973  1.00  0.00     0.134 A 
ATOM     72  C   UNL A   1      37.912  29.191  30.314  1.00  0.00     0.134 A 
ATOM     73  F   UNL A   1      38.873  29.683  26.851  1.00  0.00    -0.206 F 
ATOM     74  C   UNL A   1      36.807  30.033  27.910  1.00  0.00     0.040 A 
ATOM     75  C   UNL A   1      36.570  29.570  30.261  1.00  0.00     0.040 A 
ATOM     76  F   UNL A   1      38.410  28.796  31.495  1.00  0.00    -0.206 F 
ATOM     77  C   UNL A   1      36.015  29.999  29.056  1.00  0.00     0.006 A 
ENDBRANCH  49  70
BRANCH  61  78
ATOM     78  C   UNL A   1      44.591  32.641  30.686  1.00  0.00     0.057 A 
ATOM     79  C   UNL A   1      44.674  33.052  32.022  1.00  0.00     0.134 A 
ATOM     80  C   UNL A   1      44.829  33.607  29.699  1.00  0.00     0.134 A 
ATOM     81  F   UNL A   1      44.449  32.182  33.018  1.00  0.00    -0.206 F 
ATOM     82  C   UNL A   1      44.960  34.377  32.362  1.00  0.00     0.040 A 
ATOM     83  C   UNL A   1      45.144  34.927  30.027  1.00  0.00     0.040 A 
ATOM     84  F   UNL A   1      44.775  33.280  28.399  1.00  0.00    -0.206 F 
ATOM     85  C   UNL A   1      45.204  35.316  31.363  1.00  0.00     0.006 A 
ENDBRANCH  61  78
ENDBRANCH  35  36
ENDBRANCH  27  30
ENDBRANCH  25  26
ENDBRANCH  24  25
ENDBRANCH   1  24
TORSDOF 13
ENDMDL
