MODEL 1
REMARK VINA RESULT:     -11.4      0.000      0.000
REMARK SMILES C[NH2+][C@]1(C(=O)NCCCCNC(=O)c2ccc(-c3c4nc(c(-c5c(F)cccc5F)c5ccc([nH]5)c(-c5c(F)cccc5F)c5nc(c(-c6c(F)cccc6F)c6ccc3[nH]6)C=C5)C=C4)cc2)CC[C@@H]([N@@H+](C)C[C@@H]2CCCCO2)C1
REMARK SMILES IDX 8 1 7 2 6 3 4 4 5 5 3 7 68 8 80 9 69 10 70 11 2 12 1 13
REMARK SMILES IDX 71 16 72 17 73 19 74 20 75 21 79 22 76 23 78 24 77 25 9 26
REMARK SMILES IDX 10 27 11 28 12 29 13 31 14 32 15 33 67 34 16 35 66 36 17 37
REMARK SMILES IDX 18 38 19 39 60 40 20 41 65 42 59 43 61 44 21 45 64 46 58 47
REMARK SMILES IDX 57 48 22 50 48 51 31 52 47 53 32 54 35 55 46 56 62 57 33 58
REMARK SMILES IDX 34 59 45 61 63 62 36 63 23 64 24 65 29 66 25 67 26 68 28 69
REMARK SMILES IDX 30 70 27 71 49 72 50 73 55 74 51 75 52 76 54 77 56 78 53 79
REMARK SMILES IDX 37 80 38 81 43 82 39 83 40 84 42 85 44 86 41 87
REMARK H PARENT 6 6 2 14 2 15 71 18 11 30 61 49 35 60
REMARK Flexibility Score: inf
ROOT
ATOM      1  C   UNL A   1      31.719  30.567  25.833  1.00  0.00     0.023 C 
ENDROOT
BRANCH   1   2
ATOM      2  C   UNL A   1      32.945  29.694  26.084  1.00  0.00     0.116 C 
BRANCH   2   3
ATOM      3  N   UNL A   1      33.679  29.467  24.862  1.00  0.00    -0.351 N 
ATOM      4  C   UNL A   1      33.625  28.457  23.956  1.00  0.00     0.281 C 
ATOM      5  O   UNL A   1      34.437  28.549  23.024  1.00  0.00    -0.268 OA
ATOM      6  H   UNL A   1      34.336  30.168  24.649  1.00  0.00     0.163 HD
BRANCH   4   7
ATOM      7  C   UNL A   1      32.568  27.296  23.975  1.00  0.00     0.181 C 
ATOM      8  C   UNL A   1      31.731  27.061  25.243  1.00  0.00     0.085 C 
ATOM      9  C   UNL A   1      31.468  27.573  22.921  1.00  0.00     0.144 C 
ATOM     10  C   UNL A   1      30.579  26.192  24.749  1.00  0.00     0.072 C 
ATOM     11  C   UNL A   1      30.230  26.748  23.357  1.00  0.00     0.191 C 
BRANCH   7  12
ATOM     12  N   UNL A   1      33.273  26.034  23.554  1.00  0.00    -0.336 N 
ATOM     13  C   UNL A   1      34.089  25.434  24.610  1.00  0.00     0.331 C 
ATOM     14  H   UNL A   1      32.569  25.354  23.265  1.00  0.00     0.346 HD
ATOM     15  H   UNL A   1      33.905  26.285  22.795  1.00  0.00     0.346 HD
ENDBRANCH   7  12
BRANCH  11  16
ATOM     16  N   UNL A   1      28.942  27.450  23.174  1.00  0.00    -0.333 N 
ATOM     17  C   UNL A   1      27.848  26.785  23.877  1.00  0.00     0.333 C 
ATOM     18  H   UNL A   1      28.803  27.358  22.167  1.00  0.00     0.348 HD
BRANCH  16  19
ATOM     19  C   UNL A   1      28.905  28.919  23.317  1.00  0.00     0.294 C 
BRANCH  19  20
ATOM     20  C   UNL A   1      27.739  29.725  22.672  1.00  0.00     0.173 C 
ATOM     21  C   UNL A   1      28.028  30.231  21.251  1.00  0.00     0.038 C 
ATOM     22  O   UNL A   1      27.279  30.781  23.532  1.00  0.00    -0.372 OA
ATOM     23  C   UNL A   1      28.868  31.501  21.233  1.00  0.00     0.005 C 
ATOM     24  C   UNL A   1      28.094  31.950  23.546  1.00  0.00     0.161 C 
ATOM     25  C   UNL A   1      28.255  32.538  22.157  1.00  0.00     0.029 C 
ENDBRANCH  19  20
ENDBRANCH  16  19
ENDBRANCH  11  16
ENDBRANCH   4   7
ENDBRANCH   2   3
ENDBRANCH   1   2
BRANCH   1  26
ATOM     26  C   UNL A   1      31.512  31.668  26.875  1.00  0.00     0.023 C 
BRANCH  26  27
ATOM     27  C   UNL A   1      32.766  32.454  27.252  1.00  0.00     0.116 C 
BRANCH  27  28
ATOM     28  N   UNL A   1      32.492  33.831  27.626  1.00  0.00    -0.352 N 
ATOM     29  C   UNL A   1      33.146  34.633  28.528  1.00  0.00     0.251 C 
ATOM     30  H   UNL A   1      31.727  34.248  27.168  1.00  0.00     0.163 HD
ATOM     31  O   UNL A   1      32.751  35.770  28.751  1.00  0.00    -0.269 OA
BRANCH  29  32
ATOM     32  C   UNL A   1      34.292  34.080  29.274  1.00  0.00     0.039 A 
ATOM     33  C   UNL A   1      34.034  33.256  30.372  1.00  0.00     0.014 A 
ATOM     34  C   UNL A   1      35.602  34.315  28.851  1.00  0.00     0.014 A 
ATOM     35  C   UNL A   1      35.090  32.596  30.998  1.00  0.00     0.010 A 
ATOM     36  C   UNL A   1      36.646  33.609  29.436  1.00  0.00     0.010 A 
ATOM     37  C   UNL A   1      36.398  32.734  30.505  1.00  0.00    -0.014 A 
BRANCH  37  38
ATOM     38  C   UNL A   1      37.519  31.952  31.078  1.00  0.00     0.031 A 
ATOM     39  C   UNL A   1      38.006  32.241  32.467  1.00  0.00     0.074 A 
ATOM     40  C   UNL A   1      38.150  31.043  30.310  1.00  0.00     0.049 A 
ATOM     41  N   UNL A   1      39.025  31.729  33.107  1.00  0.00    -0.248 NA
ATOM     42  C   UNL A   1      37.267  33.262  33.226  1.00  0.00     0.031 C 
ATOM     43  C   UNL A   1      37.804  30.717  28.924  1.00  0.00     0.029 A 
ATOM     44  N   UNL A   1      39.226  30.236  30.581  1.00  0.00    -0.354 N 
ATOM     45  C   UNL A   1      39.063  32.380  34.333  1.00  0.00     0.074 A 
ATOM     46  C   UNL A   1      37.992  33.352  34.331  1.00  0.00     0.031 C 
ATOM     47  C   UNL A   1      38.642  29.769  28.473  1.00  0.00     0.029 A 
ATOM     48  C   UNL A   1      39.600  29.443  29.524  1.00  0.00     0.049 A 
ATOM     49  H   UNL A   1      39.686  30.226  31.452  1.00  0.00     0.167 HD
ATOM     50  C   UNL A   1      39.905  32.170  35.373  1.00  0.00     0.037 A 
ATOM     51  C   UNL A   1      40.608  28.558  29.415  1.00  0.00     0.037 A 
ATOM     52  C   UNL A   1      40.947  31.180  35.382  1.00  0.00     0.049 A 
ATOM     53  C   UNL A   1      41.510  28.324  30.593  1.00  0.00     0.074 A 
ATOM     54  C   UNL A   1      41.805  30.840  36.413  1.00  0.00     0.029 A 
ATOM     55  N   UNL A   1      41.270  30.365  34.307  1.00  0.00    -0.354 N 
ATOM     56  N   UNL A   1      41.492  28.897  31.772  1.00  0.00    -0.248 NA
ATOM     57  C   UNL A   1      42.568  27.317  30.430  1.00  0.00     0.031 C 
ATOM     58  C   UNL A   1      42.670  29.842  35.951  1.00  0.00     0.029 A 
ATOM     59  C   UNL A   1      42.326  29.535  34.644  1.00  0.00     0.049 A 
ATOM     60  H   UNL A   1      40.816  30.376  33.434  1.00  0.00     0.167 HD
ATOM     61  C   UNL A   1      42.517  28.305  32.498  1.00  0.00     0.074 A 
ATOM     62  C   UNL A   1      43.129  27.319  31.630  1.00  0.00     0.031 C 
ATOM     63  C   UNL A   1      42.916  28.556  33.769  1.00  0.00     0.037 A 
BRANCH  50  64
ATOM     64  C   UNL A   1      39.723  33.030  36.589  1.00  0.00     0.057 A 
ATOM     65  C   UNL A   1      38.803  32.703  37.592  1.00  0.00     0.134 A 
ATOM     66  C   UNL A   1      40.497  34.184  36.770  1.00  0.00     0.134 A 
ATOM     67  F   UNL A   1      38.022  31.619  37.470  1.00  0.00    -0.206 F 
ATOM     68  C   UNL A   1      38.639  33.506  38.722  1.00  0.00     0.040 A 
ATOM     69  C   UNL A   1      40.359  34.981  37.908  1.00  0.00     0.040 A 
ATOM     70  F   UNL A   1      41.399  34.551  35.848  1.00  0.00    -0.206 F 
ATOM     71  C   UNL A   1      39.424  34.646  38.885  1.00  0.00     0.006 A 
ENDBRANCH  50  64
BRANCH  51  72
ATOM     72  C   UNL A   1      40.798  27.806  28.151  1.00  0.00     0.057 A 
ATOM     73  C   UNL A   1      40.202  26.555  27.961  1.00  0.00     0.134 A 
ATOM     74  C   UNL A   1      41.574  28.318  27.103  1.00  0.00     0.134 A 
ATOM     75  F   UNL A   1      39.461  26.006  28.936  1.00  0.00    -0.206 F 
ATOM     76  C   UNL A   1      40.383  25.829  26.782  1.00  0.00     0.040 A 
ATOM     77  C   UNL A   1      41.747  27.613  25.911  1.00  0.00     0.040 A 
ATOM     78  F   UNL A   1      42.166  29.516  27.221  1.00  0.00    -0.206 F 
ATOM     79  C   UNL A   1      41.154  26.361  25.751  1.00  0.00     0.006 A 
ENDBRANCH  51  72
BRANCH  63  80
ATOM     80  C   UNL A   1      44.047  27.732  34.304  1.00  0.00     0.057 A 
ATOM     81  C   UNL A   1      45.373  28.181  34.255  1.00  0.00     0.134 A 
ATOM     82  C   UNL A   1      43.802  26.496  34.914  1.00  0.00     0.134 A 
ATOM     83  F   UNL A   1      45.673  29.352  33.671  1.00  0.00    -0.206 F 
ATOM     84  C   UNL A   1      46.419  27.420  34.778  1.00  0.00     0.040 A 
ATOM     85  C   UNL A   1      44.837  25.736  35.461  1.00  0.00     0.040 A 
ATOM     86  F   UNL A   1      42.554  26.014  34.999  1.00  0.00    -0.206 F 
ATOM     87  C   UNL A   1      46.150  26.196  35.390  1.00  0.00     0.006 A 
ENDBRANCH  63  80
ENDBRANCH  37  38
ENDBRANCH  29  32
ENDBRANCH  27  28
ENDBRANCH  26  27
ENDBRANCH   1  26
TORSDOF 15
ENDMDL
MODEL 2
REMARK VINA RESULT:     -11.3      0.477      6.309
REMARK SMILES C[NH2+][C@]1(C(=O)NCCCCNC(=O)c2ccc(-c3c4nc(c(-c5c(F)cccc5F)c5ccc([nH]5)c(-c5c(F)cccc5F)c5nc(c(-c6c(F)cccc6F)c6ccc3[nH]6)C=C5)C=C4)cc2)CC[C@@H]([N@@H+](C)C[C@@H]2CCCCO2)C1
REMARK SMILES IDX 8 1 7 2 6 3 4 4 5 5 3 7 68 8 80 9 69 10 70 11 2 12 1 13
REMARK SMILES IDX 71 16 72 17 73 19 74 20 75 21 79 22 76 23 78 24 77 25 9 26
REMARK SMILES IDX 10 27 11 28 12 29 13 31 14 32 15 33 67 34 16 35 66 36 17 37
REMARK SMILES IDX 18 38 19 39 60 40 20 41 65 42 59 43 61 44 21 45 64 46 58 47
REMARK SMILES IDX 57 48 22 50 48 51 31 52 47 53 32 54 35 55 46 56 62 57 33 58
REMARK SMILES IDX 34 59 45 61 63 62 36 63 23 64 24 65 29 66 25 67 26 68 28 69
REMARK SMILES IDX 30 70 27 71 49 72 50 73 55 74 51 75 52 76 54 77 56 78 53 79
REMARK SMILES IDX 37 80 38 81 43 82 39 83 40 84 42 85 44 86 41 87
REMARK H PARENT 6 6 2 14 2 15 71 18 11 30 61 49 35 60
REMARK Flexibility Score: inf
ROOT
ATOM      1  C   UNL A   1      31.388  30.843  25.975  1.00  0.00     0.023 C 
ENDROOT
BRANCH   1   2
ATOM      2  C   UNL A   1      32.536  29.998  26.521  1.00  0.00     0.116 C 
BRANCH   2   3
ATOM      3  N   UNL A   1      33.472  29.657  25.477  1.00  0.00    -0.351 N 
ATOM      4  C   UNL A   1      33.570  28.563  24.681  1.00  0.00     0.281 C 
ATOM      5  O   UNL A   1      34.536  28.569  23.902  1.00  0.00    -0.268 OA
ATOM      6  H   UNL A   1      34.162  30.341  25.314  1.00  0.00     0.163 HD
BRANCH   4   7
ATOM      7  C   UNL A   1      32.518  27.398  24.628  1.00  0.00     0.181 C 
ATOM      8  C   UNL A   1      31.467  27.284  25.744  1.00  0.00     0.085 C 
ATOM      9  C   UNL A   1      31.625  27.557  23.373  1.00  0.00     0.144 C 
ATOM     10  C   UNL A   1      30.414  26.358  25.143  1.00  0.00     0.072 C 
ATOM     11  C   UNL A   1      30.322  26.767  23.663  1.00  0.00     0.191 C 
BRANCH   7  12
ATOM     12  N   UNL A   1      33.276  26.107  24.468  1.00  0.00    -0.336 N 
ATOM     13  C   UNL A   1      33.836  25.594  25.718  1.00  0.00     0.331 C 
ATOM     14  H   UNL A   1      32.640  25.406  24.088  1.00  0.00     0.346 HD
ATOM     15  H   UNL A   1      34.061  26.299  23.846  1.00  0.00     0.346 HD
ENDBRANCH   7  12
BRANCH  11  16
ATOM     16  N   UNL A   1      29.093  27.435  23.184  1.00  0.00    -0.333 N 
ATOM     17  C   UNL A   1      27.905  26.976  23.898  1.00  0.00     0.333 C 
ATOM     18  H   UNL A   1      29.053  27.114  22.217  1.00  0.00     0.348 HD
BRANCH  16  19
ATOM     19  C   UNL A   1      29.109  28.898  22.981  1.00  0.00     0.294 C 
BRANCH  19  20
ATOM     20  C   UNL A   1      27.826  29.617  22.473  1.00  0.00     0.173 C 
ATOM     21  C   UNL A   1      27.998  30.351  21.134  1.00  0.00     0.038 C 
ATOM     22  O   UNL A   1      27.256  30.470  23.480  1.00  0.00    -0.372 OA
ATOM     23  C   UNL A   1      28.658  31.715  21.286  1.00  0.00     0.005 C 
ATOM     24  C   UNL A   1      27.906  31.726  23.650  1.00  0.00     0.161 C 
ATOM     25  C   UNL A   1      27.942  32.518  22.357  1.00  0.00     0.029 C 
ENDBRANCH  19  20
ENDBRANCH  16  19
ENDBRANCH  11  16
ENDBRANCH   4   7
ENDBRANCH   2   3
ENDBRANCH   1   2
BRANCH   1  26
ATOM     26  C   UNL A   1      31.266  32.224  26.623  1.00  0.00     0.023 C 
BRANCH  26  27
ATOM     27  C   UNL A   1      32.585  32.960  26.843  1.00  0.00     0.116 C 
BRANCH  27  28
ATOM     28  N   UNL A   1      32.446  34.165  27.643  1.00  0.00    -0.352 N 
ATOM     29  C   UNL A   1      33.239  34.626  28.665  1.00  0.00     0.251 C 
ATOM     30  H   UNL A   1      31.672  34.730  27.421  1.00  0.00     0.163 HD
ATOM     31  O   UNL A   1      32.948  35.654  29.264  1.00  0.00    -0.269 OA
BRANCH  29  32
ATOM     32  C   UNL A   1      34.410  33.828  29.075  1.00  0.00     0.039 A 
ATOM     33  C   UNL A   1      35.684  34.316  28.776  1.00  0.00     0.014 A 
ATOM     34  C   UNL A   1      34.251  32.650  29.807  1.00  0.00     0.014 A 
ATOM     35  C   UNL A   1      36.806  33.663  29.285  1.00  0.00     0.010 A 
ATOM     36  C   UNL A   1      35.366  32.037  30.366  1.00  0.00     0.010 A 
ATOM     37  C   UNL A   1      36.650  32.545  30.120  1.00  0.00    -0.014 A 
BRANCH  37  38
ATOM     38  C   UNL A   1      37.820  31.906  30.770  1.00  0.00     0.031 A 
ATOM     39  C   UNL A   1      38.593  30.842  30.050  1.00  0.00     0.074 A 
ATOM     40  C   UNL A   1      38.126  32.228  32.042  1.00  0.00     0.049 A 
ATOM     41  N   UNL A   1      39.584  30.107  30.482  1.00  0.00    -0.248 NA
ATOM     42  C   UNL A   1      38.176  30.544  28.670  1.00  0.00     0.031 C 
ATOM     43  C   UNL A   1      37.410  33.206  32.865  1.00  0.00     0.029 A 
ATOM     44  N   UNL A   1      39.111  31.755  32.871  1.00  0.00    -0.354 N 
ATOM     45  C   UNL A   1      39.896  29.246  29.438  1.00  0.00     0.074 A 
ATOM     46  C   UNL A   1      38.962  29.520  28.368  1.00  0.00     0.031 C 
ATOM     47  C   UNL A   1      37.989  33.270  34.075  1.00  0.00     0.029 A 
ATOM     48  C   UNL A   1      39.095  32.319  34.123  1.00  0.00     0.049 A 
ATOM     49  H   UNL A   1      39.767  31.076  32.595  1.00  0.00     0.167 HD
ATOM     50  C   UNL A   1      40.885  28.324  29.373  1.00  0.00     0.037 A 
ATOM     51  C   UNL A   1      39.880  32.088  35.191  1.00  0.00     0.037 A 
ATOM     52  C   UNL A   1      41.831  28.078  30.427  1.00  0.00     0.049 A 
ATOM     53  C   UNL A   1      40.988  31.079  35.083  1.00  0.00     0.074 A 
ATOM     54  C   UNL A   1      42.914  27.216  30.430  1.00  0.00     0.029 A 
ATOM     55  N   UNL A   1      41.810  28.699  31.666  1.00  0.00    -0.354 N 
ATOM     56  N   UNL A   1      41.316  30.320  34.066  1.00  0.00    -0.248 NA
ATOM     57  C   UNL A   1      41.839  30.898  36.268  1.00  0.00     0.031 C 
ATOM     58  C   UNL A   1      43.529  27.291  31.685  1.00  0.00     0.029 A 
ATOM     59  C   UNL A   1      42.850  28.227  32.449  1.00  0.00     0.049 A 
ATOM     60  H   UNL A   1      41.151  29.374  31.949  1.00  0.00     0.167 HD
ATOM     61  C   UNL A   1      42.423  29.591  34.477  1.00  0.00     0.074 A 
ATOM     62  C   UNL A   1      42.718  30.007  35.833  1.00  0.00     0.031 C 
ATOM     63  C   UNL A   1      43.131  28.659  33.794  1.00  0.00     0.037 A 
BRANCH  50  64
ATOM     64  C   UNL A   1      40.992  27.517  28.112  1.00  0.00     0.057 A 
ATOM     65  C   UNL A   1      40.320  26.298  27.958  1.00  0.00     0.134 A 
ATOM     66  C   UNL A   1      41.754  27.978  27.031  1.00  0.00     0.134 A 
ATOM     67  F   UNL A   1      39.586  25.795  28.962  1.00  0.00    -0.206 F 
ATOM     68  C   UNL A   1      40.423  25.552  26.782  1.00  0.00     0.040 A 
ATOM     69  C   UNL A   1      41.844  27.253  25.842  1.00  0.00     0.040 A 
ATOM     70  F   UNL A   1      42.419  29.141  27.112  1.00  0.00    -0.206 F 
ATOM     71  C   UNL A   1      41.182  26.034  25.717  1.00  0.00     0.006 A 
ENDBRANCH  50  64
BRANCH  51  72
ATOM     72  C   UNL A   1      39.664  32.849  36.447  1.00  0.00     0.057 A 
ATOM     73  C   UNL A   1      40.417  33.993  36.733  1.00  0.00     0.134 A 
ATOM     74  C   UNL A   1      38.704  32.455  37.386  1.00  0.00     0.134 A 
ATOM     75  F   UNL A   1      41.364  34.409  35.878  1.00  0.00    -0.206 F 
ATOM     76  C   UNL A   1      40.234  34.712  37.916  1.00  0.00     0.040 A 
ATOM     77  C   UNL A   1      38.496  33.175  38.563  1.00  0.00     0.040 A 
ATOM     78  F   UNL A   1      37.945  31.371  37.165  1.00  0.00    -0.206 F 
ATOM     79  C   UNL A   1      39.267  34.305  38.833  1.00  0.00     0.006 A 
ENDBRANCH  51  72
BRANCH  63  80
ATOM     80  C   UNL A   1      44.309  28.050  34.491  1.00  0.00     0.057 A 
ATOM     81  C   UNL A   1      44.220  26.815  35.146  1.00  0.00     0.134 A 
ATOM     82  C   UNL A   1      45.556  28.685  34.470  1.00  0.00     0.134 A 
ATOM     83  F   UNL A   1      43.048  26.163  35.211  1.00  0.00    -0.206 F 
ATOM     84  C   UNL A   1      45.327  26.241  35.771  1.00  0.00     0.040 A 
ATOM     85  C   UNL A   1      46.676  28.111  35.074  1.00  0.00     0.040 A 
ATOM     86  F   UNL A   1      45.708  29.867  33.855  1.00  0.00    -0.206 F 
ATOM     87  C   UNL A   1      46.562  26.887  35.730  1.00  0.00     0.006 A 
ENDBRANCH  63  80
ENDBRANCH  37  38
ENDBRANCH  29  32
ENDBRANCH  27  28
ENDBRANCH  26  27
ENDBRANCH   1  26
TORSDOF 15
ENDMDL
MODEL 3
REMARK VINA RESULT:     -11.3      5.203      9.374
REMARK SMILES C[NH2+][C@]1(C(=O)NCCCCNC(=O)c2ccc(-c3c4nc(c(-c5c(F)cccc5F)c5ccc([nH]5)c(-c5c(F)cccc5F)c5nc(c(-c6c(F)cccc6F)c6ccc3[nH]6)C=C5)C=C4)cc2)CC[C@@H]([N@@H+](C)C[C@@H]2CCCCO2)C1
REMARK SMILES IDX 8 1 7 2 6 3 4 4 5 5 3 7 68 8 80 9 69 10 70 11 2 12 1 13
REMARK SMILES IDX 71 16 72 17 73 19 74 20 75 21 79 22 76 23 78 24 77 25 9 26
REMARK SMILES IDX 10 27 11 28 12 29 13 31 14 32 15 33 67 34 16 35 66 36 17 37
REMARK SMILES IDX 18 38 19 39 60 40 20 41 65 42 59 43 61 44 21 45 64 46 58 47
REMARK SMILES IDX 57 48 22 50 48 51 31 52 47 53 32 54 35 55 46 56 62 57 33 58
REMARK SMILES IDX 34 59 45 61 63 62 36 63 23 64 24 65 29 66 25 67 26 68 28 69
REMARK SMILES IDX 30 70 27 71 49 72 50 73 55 74 51 75 52 76 54 77 56 78 53 79
REMARK SMILES IDX 37 80 38 81 43 82 39 83 40 84 42 85 44 86 41 87
REMARK H PARENT 6 6 2 14 2 15 71 18 11 30 61 49 35 60
REMARK Flexibility Score: inf
ROOT
ATOM      1  C   UNL A   1      36.727  21.077  25.271  1.00  0.00     0.023 C 
ENDROOT
BRANCH   1   2
ATOM      2  C   UNL A   1      36.574  22.592  25.183  1.00  0.00     0.116 C 
BRANCH   2   3
ATOM      3  N   UNL A   1      36.000  22.984  23.919  1.00  0.00    -0.351 N 
ATOM      4  C   UNL A   1      34.735  23.341  23.580  1.00  0.00     0.281 C 
ATOM      5  O   UNL A   1      34.566  23.583  22.374  1.00  0.00    -0.268 OA
ATOM      6  H   UNL A   1      36.639  22.995  23.171  1.00  0.00     0.163 HD
BRANCH   4   7
ATOM      7  C   UNL A   1      33.561  23.552  24.601  1.00  0.00     0.181 C 
ATOM      8  C   UNL A   1      33.793  24.429  25.842  1.00  0.00     0.085 C 
ATOM      9  C   UNL A   1      32.391  24.293  23.908  1.00  0.00     0.144 C 
ATOM     10  C   UNL A   1      32.378  24.738  26.324  1.00  0.00     0.072 C 
ATOM     11  C   UNL A   1      31.556  24.944  25.040  1.00  0.00     0.191 C 
BRANCH   7  12
ATOM     12  N   UNL A   1      33.048  22.191  24.992  1.00  0.00    -0.336 N 
ATOM     13  C   UNL A   1      32.471  21.437  23.879  1.00  0.00     0.331 C 
ATOM     14  H   UNL A   1      33.826  21.654  25.376  1.00  0.00     0.346 HD
ATOM     15  H   UNL A   1      32.303  22.338  25.671  1.00  0.00     0.346 HD
ENDBRANCH   7  12
BRANCH  11  16
ATOM     16  N   UNL A   1      31.062  26.301  24.723  1.00  0.00    -0.333 N 
ATOM     17  C   UNL A   1      29.631  26.311  24.433  1.00  0.00     0.333 C 
ATOM     18  H   UNL A   1      31.582  26.510  23.870  1.00  0.00     0.348 HD
BRANCH  16  19
ATOM     19  C   UNL A   1      31.481  27.430  25.577  1.00  0.00     0.294 C 
BRANCH  19  20
ATOM     20  C   UNL A   1      32.650  28.349  25.116  1.00  0.00     0.173 C 
ATOM     21  C   UNL A   1      33.949  28.172  25.916  1.00  0.00     0.038 C 
ATOM     22  O   UNL A   1      32.250  29.729  25.046  1.00  0.00    -0.372 OA
ATOM     23  C   UNL A   1      33.935  28.917  27.245  1.00  0.00     0.005 C 
ATOM     24  C   UNL A   1      32.194  30.408  26.297  1.00  0.00     0.161 C 
ATOM     25  C   UNL A   1      33.526  30.362  27.021  1.00  0.00     0.029 C 
ENDBRANCH  19  20
ENDBRANCH  16  19
ENDBRANCH  11  16
ENDBRANCH   4   7
ENDBRANCH   2   3
ENDBRANCH   1   2
BRANCH   1  26
ATOM     26  C   UNL A   1      38.124  20.568  24.908  1.00  0.00     0.023 C 
BRANCH  26  27
ATOM     27  C   UNL A   1      39.090  20.421  26.082  1.00  0.00     0.116 C 
BRANCH  27  28
ATOM     28  N   UNL A   1      39.998  19.295  25.942  1.00  0.00    -0.352 N 
ATOM     29  C   UNL A   1      41.363  19.256  26.091  1.00  0.00     0.251 C 
ATOM     30  H   UNL A   1      39.575  18.439  25.707  1.00  0.00     0.163 HD
ATOM     31  O   UNL A   1      41.981  18.217  25.895  1.00  0.00    -0.269 OA
BRANCH  29  32
ATOM     32  C   UNL A   1      42.080  20.502  26.423  1.00  0.00     0.039 A 
ATOM     33  C   UNL A   1      42.517  21.315  25.376  1.00  0.00     0.014 A 
ATOM     34  C   UNL A   1      42.254  20.894  27.752  1.00  0.00     0.014 A 
ATOM     35  C   UNL A   1      43.057  22.569  25.660  1.00  0.00     0.010 A 
ATOM     36  C   UNL A   1      42.734  22.168  28.031  1.00  0.00     0.010 A 
ATOM     37  C   UNL A   1      43.128  23.020  26.988  1.00  0.00    -0.014 A 
BRANCH  37  38
ATOM     38  C   UNL A   1      43.586  24.393  27.307  1.00  0.00     0.031 A 
ATOM     39  C   UNL A   1      42.596  25.439  27.725  1.00  0.00     0.074 A 
ATOM     40  C   UNL A   1      44.883  24.713  27.134  1.00  0.00     0.049 A 
ATOM     41  N   UNL A   1      42.788  26.711  27.958  1.00  0.00    -0.248 NA
ATOM     42  C   UNL A   1      41.197  25.003  27.870  1.00  0.00     0.031 C 
ATOM     43  C   UNL A   1      45.929  23.795  26.676  1.00  0.00     0.029 A 
ATOM     44  N   UNL A   1      45.541  25.904  27.310  1.00  0.00    -0.354 N 
ATOM     45  C   UNL A   1      41.536  27.232  28.256  1.00  0.00     0.074 A 
ATOM     46  C   UNL A   1      40.585  26.149  28.133  1.00  0.00     0.031 C 
ATOM     47  C   UNL A   1      47.099  24.454  26.621  1.00  0.00     0.029 A 
ATOM     48  C   UNL A   1      46.880  25.843  27.010  1.00  0.00     0.049 A 
ATOM     49  H   UNL A   1      45.095  26.725  27.621  1.00  0.00     0.167 HD
ATOM     50  C   UNL A   1      41.213  28.496  28.618  1.00  0.00     0.037 A 
ATOM     51  C   UNL A   1      47.822  26.803  27.039  1.00  0.00     0.037 A 
ATOM     52  C   UNL A   1      42.166  29.562  28.770  1.00  0.00     0.049 A 
ATOM     53  C   UNL A   1      47.442  28.191  27.471  1.00  0.00     0.074 A 
ATOM     54  C   UNL A   1      41.948  30.858  29.203  1.00  0.00     0.029 A 
ATOM     55  N   UNL A   1      43.521  29.452  28.498  1.00  0.00    -0.354 N 
ATOM     56  N   UNL A   1      46.266  28.654  27.818  1.00  0.00    -0.248 NA
ATOM     57  C   UNL A   1      48.520  29.189  27.523  1.00  0.00     0.031 C 
ATOM     58  C   UNL A   1      43.168  31.543  29.160  1.00  0.00     0.029 A 
ATOM     59  C   UNL A   1      44.150  30.662  28.737  1.00  0.00     0.049 A 
ATOM     60  H   UNL A   1      43.969  28.635  28.180  1.00  0.00     0.167 HD
ATOM     61  C   UNL A   1      46.465  29.987  28.151  1.00  0.00     0.074 A 
ATOM     62  C   UNL A   1      47.878  30.255  27.978  1.00  0.00     0.031 C 
ATOM     63  C   UNL A   1      45.559  30.907  28.564  1.00  0.00     0.037 A 
BRANCH  50  64
ATOM     64  C   UNL A   1      39.765  28.788  28.879  1.00  0.00     0.057 A 
ATOM     65  C   UNL A   1      39.212  28.688  30.162  1.00  0.00     0.134 A 
ATOM     66  C   UNL A   1      38.920  29.200  27.840  1.00  0.00     0.134 A 
ATOM     67  F   UNL A   1      39.965  28.284  31.196  1.00  0.00    -0.206 F 
ATOM     68  C   UNL A   1      37.864  28.961  30.398  1.00  0.00     0.040 A 
ATOM     69  C   UNL A   1      37.577  29.500  28.070  1.00  0.00     0.040 A 
ATOM     70  F   UNL A   1      39.387  29.320  26.588  1.00  0.00    -0.206 F 
ATOM     71  C   UNL A   1      37.043  29.375  29.351  1.00  0.00     0.006 A 
ENDBRANCH  50  64
BRANCH  51  72
ATOM     72  C   UNL A   1      49.222  26.477  26.675  1.00  0.00     0.057 A 
ATOM     73  C   UNL A   1      49.687  26.658  25.368  1.00  0.00     0.134 A 
ATOM     74  C   UNL A   1      50.129  25.983  27.621  1.00  0.00     0.134 A 
ATOM     75  F   UNL A   1      48.859  27.112  24.415  1.00  0.00    -0.206 F 
ATOM     76  C   UNL A   1      50.998  26.343  25.007  1.00  0.00     0.040 A 
ATOM     77  C   UNL A   1      51.449  25.684  27.280  1.00  0.00     0.040 A 
ATOM     78  F   UNL A   1      49.746  25.796  28.893  1.00  0.00    -0.206 F 
ATOM     79  C   UNL A   1      51.885  25.859  25.967  1.00  0.00     0.006 A 
ENDBRANCH  51  72
BRANCH  63  80
ATOM     80  C   UNL A   1      46.074  32.278  28.882  1.00  0.00     0.057 A 
ATOM     81  C   UNL A   1      46.515  32.619  30.166  1.00  0.00     0.134 A 
ATOM     82  C   UNL A   1      46.167  33.253  27.882  1.00  0.00     0.134 A 
ATOM     83  F   UNL A   1      46.439  31.732  31.170  1.00  0.00    -0.206 F 
ATOM     84  C   UNL A   1      47.016  33.890  30.449  1.00  0.00     0.040 A 
ATOM     85  C   UNL A   1      46.687  34.520  28.148  1.00  0.00     0.040 A 
ATOM     86  F   UNL A   1      45.766  32.985  26.630  1.00  0.00    -0.206 F 
ATOM     87  C   UNL A   1      47.109  34.843  29.435  1.00  0.00     0.006 A 
ENDBRANCH  63  80
ENDBRANCH  37  38
ENDBRANCH  29  32
ENDBRANCH  27  28
ENDBRANCH  26  27
ENDBRANCH   1  26
TORSDOF 15
ENDMDL
