MODEL 1
REMARK VINA RESULT:     -13.3      0.000      0.000
REMARK SMILES O=C(NCCCCNC(=O)c1ccccc1Nc1cccc(S(F)(F)(F)(F)F)c1)c1ccc(-c2c3nc(c(-c4c(F)cccc4F)c4ccc([nH]4)c(-c4c(F)cccc4F)c4nc(c(-c5c(F)cccc5F)c5ccc2[nH]5)C=C4)C=C3)cc1
REMARK SMILES IDX 6 1 5 2 4 3 3 4 1 5 2 6 30 8 31 9 83 10 32 11 82 12 33 13
REMARK SMILES IDX 34 14 35 15 76 16 36 17 81 18 75 19 77 20 37 21 80 22 74 23
REMARK SMILES IDX 73 24 38 26 64 27 47 28 63 29 48 30 51 31 62 32 78 33 49 34
REMARK SMILES IDX 50 35 61 37 79 38 52 39 39 40 40 41 45 42 41 43 42 44 44 45
REMARK SMILES IDX 46 46 43 47 65 48 66 49 71 50 67 51 68 52 70 53 72 54 69 55
REMARK SMILES IDX 53 56 54 57 59 58 55 59 56 60 58 61 60 62 57 63 7 64 8 65
REMARK SMILES IDX 9 66 10 68 11 69 12 70 16 71 13 72 15 73 14 74 17 75 18 77
REMARK SMILES IDX 19 78 29 79 20 80 22 81 21 82 23 83 24 84 25 85 26 86 27 87
REMARK SMILES IDX 28 88
REMARK H PARENT 3 7 77 25 51 36 8 67 17 76
REMARK Flexibility Score: inf
ROOT
ATOM      1  C   UNL A   1      32.257  30.144  26.926  1.00  0.00     0.023 C 
ENDROOT
BRANCH   1   2
ATOM      2  C   UNL A   1      31.856  31.597  26.733  1.00  0.00     0.023 C 
BRANCH   2   3
ATOM      3  C   UNL A   1      32.951  32.502  27.275  1.00  0.00     0.116 C 
BRANCH   3   4
ATOM      4  N   UNL A   1      32.404  33.845  27.515  1.00  0.00    -0.352 N 
ATOM      5  O   UNL A   1      32.528  35.869  28.751  1.00  0.00    -0.269 OA
ATOM      6  C   UNL A   1      33.001  34.708  28.543  1.00  0.00     0.251 C 
ATOM      7  H   UNL A   1      31.637  34.165  26.987  1.00  0.00     0.163 HD
BRANCH   6   8
ATOM      8  C   UNL A   1      34.185  34.214  29.358  1.00  0.00     0.039 A 
ATOM      9  C   UNL A   1      35.451  34.536  28.897  1.00  0.00     0.014 A 
ATOM     10  C   UNL A   1      34.016  33.399  30.393  1.00  0.00     0.014 A 
ATOM     11  C   UNL A   1      36.478  33.714  29.419  1.00  0.00     0.010 A 
ATOM     12  C   UNL A   1      35.085  32.732  30.941  1.00  0.00     0.010 A 
ATOM     13  C   UNL A   1      36.358  32.958  30.496  1.00  0.00    -0.014 A 
BRANCH  13  14
ATOM     14  C   UNL A   1      37.569  32.370  31.201  1.00  0.00     0.031 A 
ATOM     15  C   UNL A   1      37.950  32.826  32.465  1.00  0.00     0.074 A 
ATOM     16  C   UNL A   1      38.172  31.310  30.546  1.00  0.00     0.049 A 
ATOM     17  N   UNL A   1      38.899  32.326  33.257  1.00  0.00    -0.248 NA
ATOM     18  C   UNL A   1      37.334  33.973  33.148  1.00  0.00     0.031 C 
ATOM     19  C   UNL A   1      37.787  30.840  29.275  1.00  0.00     0.029 A 
ATOM     20  N   UNL A   1      39.222  30.534  30.983  1.00  0.00    -0.354 N 
ATOM     21  C   UNL A   1      38.959  33.016  34.398  1.00  0.00     0.074 A 
ATOM     22  C   UNL A   1      37.957  34.090  34.341  1.00  0.00     0.031 C 
ATOM     23  C   UNL A   1      38.602  29.804  28.945  1.00  0.00     0.029 A 
ATOM     24  C   UNL A   1      39.508  29.608  30.004  1.00  0.00     0.049 A 
ATOM     25  H   UNL A   1      39.688  30.626  31.846  1.00  0.00     0.167 HD
ATOM     26  C   UNL A   1      39.808  32.792  35.483  1.00  0.00     0.037 A 
ATOM     27  C   UNL A   1      40.500  28.641  30.017  1.00  0.00     0.037 A 
ATOM     28  C   UNL A   1      40.771  31.797  35.513  1.00  0.00     0.049 A 
ATOM     29  C   UNL A   1      41.388  28.453  31.078  1.00  0.00     0.074 A 
ATOM     30  C   UNL A   1      41.630  31.553  36.601  1.00  0.00     0.029 A 
ATOM     31  N   UNL A   1      41.074  30.886  34.524  1.00  0.00    -0.354 N 
ATOM     32  N   UNL A   1      41.422  29.118  32.234  1.00  0.00    -0.248 NA
ATOM     33  C   UNL A   1      42.464  27.453  31.087  1.00  0.00     0.031 C 
ATOM     34  C   UNL A   1      42.445  30.516  36.271  1.00  0.00     0.029 A 
ATOM     35  C   UNL A   1      42.110  30.095  34.970  1.00  0.00     0.049 A 
ATOM     36  H   UNL A   1      40.626  30.813  33.650  1.00  0.00     0.167 HD
ATOM     37  C   UNL A   1      42.399  28.645  33.009  1.00  0.00     0.074 A 
ATOM     38  C   UNL A   1      43.088  27.571  32.280  1.00  0.00     0.031 C 
ATOM     39  C   UNL A   1      42.742  29.062  34.296  1.00  0.00     0.037 A 
BRANCH  26  40
ATOM     40  C   UNL A   1      39.667  33.691  36.701  1.00  0.00     0.057 A 
ATOM     41  C   UNL A   1      38.796  33.247  37.681  1.00  0.00     0.134 A 
ATOM     42  C   UNL A   1      40.384  34.797  36.866  1.00  0.00     0.134 A 
ATOM     43  F   UNL A   1      38.255  32.032  37.674  1.00  0.00    -0.206 F 
ATOM     44  C   UNL A   1      38.533  34.202  38.691  1.00  0.00     0.040 A 
ATOM     45  C   UNL A   1      40.168  35.615  37.949  1.00  0.00     0.040 A 
ATOM     46  F   UNL A   1      41.319  35.114  35.976  1.00  0.00    -0.206 F 
ATOM     47  C   UNL A   1      39.278  35.266  38.927  1.00  0.00     0.006 A 
ENDBRANCH  26  40
BRANCH  27  48
ATOM     48  C   UNL A   1      40.629  27.731  28.805  1.00  0.00     0.057 A 
ATOM     49  C   UNL A   1      41.471  28.045  27.750  1.00  0.00     0.134 A 
ATOM     50  C   UNL A   1      39.832  26.670  28.758  1.00  0.00     0.134 A 
ATOM     51  F   UNL A   1      42.455  28.934  27.849  1.00  0.00    -0.206 F 
ATOM     52  C   UNL A   1      41.188  27.334  26.560  1.00  0.00     0.040 A 
ATOM     53  C   UNL A   1      39.708  25.940  27.600  1.00  0.00     0.040 A 
ATOM     54  F   UNL A   1      39.149  26.310  29.841  1.00  0.00    -0.206 F 
ATOM     55  C   UNL A   1      40.465  26.231  26.500  1.00  0.00     0.006 A 
ENDBRANCH  27  48
BRANCH  39  56
ATOM     56  C   UNL A   1      43.876  28.339  35.003  1.00  0.00     0.057 A 
ATOM     57  C   UNL A   1      43.553  27.237  35.778  1.00  0.00     0.134 A 
ATOM     58  C   UNL A   1      45.121  28.797  34.943  1.00  0.00     0.134 A 
ATOM     59  F   UNL A   1      42.393  26.594  35.676  1.00  0.00    -0.206 F 
ATOM     60  C   UNL A   1      44.568  26.859  36.688  1.00  0.00     0.040 A 
ATOM     61  C   UNL A   1      46.095  28.287  35.767  1.00  0.00     0.040 A 
ATOM     62  F   UNL A   1      45.428  29.759  34.077  1.00  0.00    -0.206 F 
ATOM     63  C   UNL A   1      45.831  27.236  36.601  1.00  0.00     0.006 A 
ENDBRANCH  39  56
ENDBRANCH  13  14
ENDBRANCH   6   8
ENDBRANCH   3   4
ENDBRANCH   2   3
ENDBRANCH   1   2
BRANCH   1  64
ATOM     64  C   UNL A   1      31.947  29.360  25.659  1.00  0.00     0.116 C 
BRANCH  64  65
ATOM     65  N   UNL A   1      32.927  29.703  24.619  1.00  0.00    -0.352 N 
ATOM     66  C   UNL A   1      33.408  28.668  23.693  1.00  0.00     0.253 C 
ATOM     67  H   UNL A   1      33.262  30.626  24.543  1.00  0.00     0.163 HD
ATOM     68  O   UNL A   1      34.255  28.964  22.793  1.00  0.00    -0.269 OA
BRANCH  66  69
ATOM     69  C   UNL A   1      32.892  27.244  23.811  1.00  0.00     0.063 A 
ATOM     70  C   UNL A   1      33.480  26.469  24.797  1.00  0.00     0.016 A 
ATOM     71  C   UNL A   1      31.868  26.790  23.098  1.00  0.00     0.051 A 
ATOM     72  C   UNL A   1      33.098  25.107  24.760  1.00  0.00     0.001 A 
ATOM     73  C   UNL A   1      31.462  25.482  23.211  1.00  0.00     0.027 A 
ATOM     74  C   UNL A   1      32.037  24.643  24.124  1.00  0.00     0.002 A 
BRANCH  71  75
ATOM     75  N   UNL A   1      31.164  27.694  22.178  1.00  0.00    -0.355 N 
ATOM     76  H   UNL A   1      31.497  27.820  21.260  1.00  0.00     0.167 HD
BRANCH  75  77
ATOM     77  C   UNL A   1      29.961  28.410  22.629  1.00  0.00     0.040 A 
ATOM     78  C   UNL A   1      28.850  27.673  23.004  1.00  0.00     0.026 A 
ATOM     79  C   UNL A   1      29.950  29.737  22.660  1.00  0.00     0.050 A 
ATOM     80  C   UNL A   1      27.667  28.441  23.126  1.00  0.00     0.004 A 
ATOM     81  C   UNL A   1      28.787  30.421  22.919  1.00  0.00     0.109 A 
ATOM     82  C   UNL A   1      27.636  29.755  23.241  1.00  0.00     0.024 A 
BRANCH  81  83
ATOM     83  S   UNL A   1      28.778  32.229  22.835  1.00  0.00     0.310 S 
ATOM     84  F   UNL A   1      27.340  32.328  23.499  1.00  0.00    -0.094 F 
ATOM     85  F   UNL A   1      28.051  32.124  21.441  1.00  0.00    -0.094 F 
ATOM     86  F   UNL A   1      28.778  33.782  22.751  1.00  0.00    -0.094 F 
ATOM     87  F   UNL A   1      29.376  32.316  24.294  1.00  0.00    -0.094 F 
ATOM     88  F   UNL A   1      28.681  30.658  22.985  1.00  0.00    -0.094 F 
ENDBRANCH  81  83
ENDBRANCH  75  77
ENDBRANCH  71  75
ENDBRANCH  66  69
ENDBRANCH  64  65
ENDBRANCH   1  64
TORSDOF 14
ENDMDL
MODEL 2
REMARK VINA RESULT:     -13.2      1.834      2.379
REMARK SMILES O=C(NCCCCNC(=O)c1ccccc1Nc1cccc(S(F)(F)(F)(F)F)c1)c1ccc(-c2c3nc(c(-c4c(F)cccc4F)c4ccc([nH]4)c(-c4c(F)cccc4F)c4nc(c(-c5c(F)cccc5F)c5ccc2[nH]5)C=C4)C=C3)cc1
REMARK SMILES IDX 6 1 5 2 4 3 3 4 1 5 2 6 30 8 31 9 83 10 32 11 82 12 33 13
REMARK SMILES IDX 34 14 35 15 76 16 36 17 81 18 75 19 77 20 37 21 80 22 74 23
REMARK SMILES IDX 73 24 38 26 64 27 47 28 63 29 48 30 51 31 62 32 78 33 49 34
REMARK SMILES IDX 50 35 61 37 79 38 52 39 39 40 40 41 45 42 41 43 42 44 44 45
REMARK SMILES IDX 46 46 43 47 65 48 66 49 71 50 67 51 68 52 70 53 72 54 69 55
REMARK SMILES IDX 53 56 54 57 59 58 55 59 56 60 58 61 60 62 57 63 7 64 8 65
REMARK SMILES IDX 9 66 10 68 11 69 12 70 16 71 13 72 15 73 14 74 17 75 18 77
REMARK SMILES IDX 19 78 29 79 20 80 22 81 21 82 23 83 24 84 25 85 26 86 27 87
REMARK SMILES IDX 28 88
REMARK H PARENT 3 7 77 25 51 36 8 67 17 76
REMARK Flexibility Score: inf
ROOT
ATOM      1  C   UNL A   1      31.827  30.001  25.411  1.00  0.00     0.023 C 
ENDROOT
BRANCH   1   2
ATOM      2  C   UNL A   1      31.682  30.641  26.783  1.00  0.00     0.023 C 
BRANCH   2   3
ATOM      3  C   UNL A   1      32.783  31.671  26.981  1.00  0.00     0.116 C 
BRANCH   3   4
ATOM      4  N   UNL A   1      32.184  32.969  27.322  1.00  0.00    -0.352 N 
ATOM      5  O   UNL A   1      32.396  35.033  28.478  1.00  0.00    -0.269 OA
ATOM      6  C   UNL A   1      32.913  33.910  28.183  1.00  0.00     0.251 C 
ATOM      7  H   UNL A   1      31.294  33.207  26.974  1.00  0.00     0.163 HD
BRANCH   6   8
ATOM      8  C   UNL A   1      34.287  33.544  28.720  1.00  0.00     0.039 A 
ATOM      9  C   UNL A   1      35.385  33.926  27.966  1.00  0.00     0.014 A 
ATOM     10  C   UNL A   1      34.423  32.777  29.795  1.00  0.00     0.014 A 
ATOM     11  C   UNL A   1      36.566  33.206  28.267  1.00  0.00     0.010 A 
ATOM     12  C   UNL A   1      35.638  32.216  30.105  1.00  0.00     0.010 A 
ATOM     13  C   UNL A   1      36.754  32.503  29.370  1.00  0.00    -0.014 A 
BRANCH  13  14
ATOM     14  C   UNL A   1      38.137  32.040  29.797  1.00  0.00     0.031 A 
ATOM     15  C   UNL A   1      38.897  32.793  30.694  1.00  0.00     0.074 A 
ATOM     16  C   UNL A   1      38.514  30.798  29.316  1.00  0.00     0.049 A 
ATOM     17  N   UNL A   1      40.058  32.457  31.258  1.00  0.00    -0.248 NA
ATOM     18  C   UNL A   1      38.516  34.127  31.180  1.00  0.00     0.031 C 
ATOM     19  C   UNL A   1      37.747  30.029  28.418  1.00  0.00     0.029 A 
ATOM     20  N   UNL A   1      39.660  30.092  29.604  1.00  0.00    -0.354 N 
ATOM     21  C   UNL A   1      40.472  33.426  32.077  1.00  0.00     0.074 A 
ATOM     22  C   UNL A   1      39.488  34.517  32.034  1.00  0.00     0.031 C 
ATOM     23  C   UNL A   1      38.429  28.882  28.158  1.00  0.00     0.029 A 
ATOM     24  C   UNL A   1      39.631  28.914  28.890  1.00  0.00     0.049 A 
ATOM     25  H   UNL A   1      40.377  30.380  30.214  1.00  0.00     0.167 HD
ATOM     26  C   UNL A   1      41.628  33.443  32.858  1.00  0.00     0.037 A 
ATOM     27  C   UNL A   1      40.589  27.913  28.866  1.00  0.00     0.037 A 
ATOM     28  C   UNL A   1      42.565  32.422  32.867  1.00  0.00     0.049 A 
ATOM     29  C   UNL A   1      41.774  27.955  29.603  1.00  0.00     0.074 A 
ATOM     30  C   UNL A   1      43.732  32.419  33.654  1.00  0.00     0.029 A 
ATOM     31  N   UNL A   1      42.547  31.255  32.134  1.00  0.00    -0.354 N 
ATOM     32  N   UNL A   1      42.167  28.907  30.451  1.00  0.00    -0.248 NA
ATOM     33  C   UNL A   1      42.811  26.916  29.559  1.00  0.00     0.031 C 
ATOM     34  C   UNL A   1      44.413  31.272  33.395  1.00  0.00     0.029 A 
ATOM     35  C   UNL A   1      43.684  30.538  32.440  1.00  0.00     0.049 A 
ATOM     36  H   UNL A   1      41.843  30.980  31.503  1.00  0.00     0.167 HD
ATOM     37  C   UNL A   1      43.349  28.589  30.984  1.00  0.00     0.074 A 
ATOM     38  C   UNL A   1      43.783  27.307  30.412  1.00  0.00     0.031 C 
ATOM     39  C   UNL A   1      44.081  29.315  31.924  1.00  0.00     0.037 A 
BRANCH  26  40
ATOM     40  C   UNL A   1      41.872  34.648  33.751  1.00  0.00     0.057 A 
ATOM     41  C   UNL A   1      41.372  34.557  35.039  1.00  0.00     0.134 A 
ATOM     42  C   UNL A   1      42.585  35.700  33.362  1.00  0.00     0.134 A 
ATOM     43  F   UNL A   1      40.879  33.431  35.547  1.00  0.00    -0.206 F 
ATOM     44  C   UNL A   1      41.434  35.769  35.766  1.00  0.00     0.040 A 
ATOM     45  C   UNL A   1      42.716  36.796  34.179  1.00  0.00     0.040 A 
ATOM     46  F   UNL A   1      43.176  35.690  32.171  1.00  0.00    -0.206 F 
ATOM     47  C   UNL A   1      42.196  36.798  35.444  1.00  0.00     0.006 A 
ENDBRANCH  26  40
BRANCH  27  48
ATOM     48  C   UNL A   1      40.335  26.700  27.985  1.00  0.00     0.057 A 
ATOM     49  C   UNL A   1      39.647  25.594  28.457  1.00  0.00     0.134 A 
ATOM     50  C   UNL A   1      40.881  26.706  26.775  1.00  0.00     0.134 A 
ATOM     51  F   UNL A   1      38.878  25.628  29.542  1.00  0.00    -0.206 F 
ATOM     52  C   UNL A   1      39.837  24.427  27.681  1.00  0.00     0.040 A 
ATOM     53  C   UNL A   1      40.910  25.562  26.015  1.00  0.00     0.040 A 
ATOM     54  F   UNL A   1      41.403  27.831  26.293  1.00  0.00    -0.206 F 
ATOM     55  C   UNL A   1      40.302  24.416  26.445  1.00  0.00     0.006 A 
ENDBRANCH  27  48
BRANCH  39  56
ATOM     56  C   UNL A   1      45.394  28.727  32.415  1.00  0.00     0.057 A 
ATOM     57  C   UNL A   1      45.357  27.924  33.543  1.00  0.00     0.134 A 
ATOM     58  C   UNL A   1      46.544  29.040  31.830  1.00  0.00     0.134 A 
ATOM     59  F   UNL A   1      44.236  27.382  34.011  1.00  0.00    -0.206 F 
ATOM     60  C   UNL A   1      46.620  27.734  34.153  1.00  0.00     0.040 A 
ATOM     61  C   UNL A   1      47.741  28.703  32.415  1.00  0.00     0.040 A 
ATOM     62  F   UNL A   1      46.537  29.685  30.667  1.00  0.00    -0.206 F 
ATOM     63  C   UNL A   1      47.779  27.960  33.562  1.00  0.00     0.006 A 
ENDBRANCH  39  56
ENDBRANCH  13  14
ENDBRANCH   6   8
ENDBRANCH   3   4
ENDBRANCH   2   3
ENDBRANCH   1   2
BRANCH   1  64
ATOM     64  C   UNL A   1      33.177  29.307  25.316  1.00  0.00     0.116 C 
BRANCH  64  65
ATOM     65  N   UNL A   1      33.715  29.465  23.958  1.00  0.00    -0.352 N 
ATOM     66  C   UNL A   1      33.700  28.329  23.024  1.00  0.00     0.253 C 
ATOM     67  H   UNL A   1      34.087  30.331  23.674  1.00  0.00     0.163 HD
ATOM     68  O   UNL A   1      34.165  28.466  21.849  1.00  0.00    -0.269 OA
BRANCH  66  69
ATOM     69  C   UNL A   1      33.128  26.992  23.464  1.00  0.00     0.063 A 
ATOM     70  C   UNL A   1      33.851  26.315  24.432  1.00  0.00     0.016 A 
ATOM     71  C   UNL A   1      31.954  26.540  23.039  1.00  0.00     0.051 A 
ATOM     72  C   UNL A   1      33.382  25.004  24.686  1.00  0.00     0.001 A 
ATOM     73  C   UNL A   1      31.495  25.306  23.434  1.00  0.00     0.027 A 
ATOM     74  C   UNL A   1      32.187  24.557  24.344  1.00  0.00     0.002 A 
BRANCH  71  75
ATOM     75  N   UNL A   1      31.138  27.365  22.136  1.00  0.00    -0.355 N 
ATOM     76  H   UNL A   1      31.375  27.433  21.183  1.00  0.00     0.167 HD
BRANCH  75  77
ATOM     77  C   UNL A   1      29.969  28.089  22.658  1.00  0.00     0.040 A 
ATOM     78  C   UNL A   1      28.924  27.361  23.200  1.00  0.00     0.026 A 
ATOM     79  C   UNL A   1      29.926  29.415  22.593  1.00  0.00     0.050 A 
ATOM     80  C   UNL A   1      27.740  28.112  23.389  1.00  0.00     0.004 A 
ATOM     81  C   UNL A   1      28.778  30.093  22.923  1.00  0.00     0.109 A 
ATOM     82  C   UNL A   1      27.685  29.431  23.411  1.00  0.00     0.024 A 
BRANCH  81  83
ATOM     83  S   UNL A   1      28.711  31.889  22.710  1.00  0.00     0.310 S 
ATOM     84  F   UNL A   1      27.287  31.994  23.401  1.00  0.00    -0.094 F 
ATOM     85  F   UNL A   1      27.955  31.663  21.346  1.00  0.00    -0.094 F 
ATOM     86  F   UNL A   1      28.661  33.431  22.514  1.00  0.00    -0.094 F 
ATOM     87  F   UNL A   1      29.340  32.099  24.142  1.00  0.00    -0.094 F 
ATOM     88  F   UNL A   1      28.666  30.331  22.975  1.00  0.00    -0.094 F 
ENDBRANCH  81  83
ENDBRANCH  75  77
ENDBRANCH  71  75
ENDBRANCH  66  69
ENDBRANCH  64  65
ENDBRANCH   1  64
TORSDOF 14
ENDMDL
MODEL 3
REMARK VINA RESULT:     -13.2      6.292     10.843
REMARK SMILES O=C(NCCCCNC(=O)c1ccccc1Nc1cccc(S(F)(F)(F)(F)F)c1)c1ccc(-c2c3nc(c(-c4c(F)cccc4F)c4ccc([nH]4)c(-c4c(F)cccc4F)c4nc(c(-c5c(F)cccc5F)c5ccc2[nH]5)C=C4)C=C3)cc1
REMARK SMILES IDX 6 1 5 2 4 3 3 4 1 5 2 6 30 8 31 9 83 10 32 11 82 12 33 13
REMARK SMILES IDX 34 14 35 15 76 16 36 17 81 18 75 19 77 20 37 21 80 22 74 23
REMARK SMILES IDX 73 24 38 26 64 27 47 28 63 29 48 30 51 31 62 32 78 33 49 34
REMARK SMILES IDX 50 35 61 37 79 38 52 39 39 40 40 41 45 42 41 43 42 44 44 45
REMARK SMILES IDX 46 46 43 47 65 48 66 49 71 50 67 51 68 52 70 53 72 54 69 55
REMARK SMILES IDX 53 56 54 57 59 58 55 59 56 60 58 61 60 62 57 63 7 64 8 65
REMARK SMILES IDX 9 66 10 68 11 69 12 70 16 71 13 72 15 73 14 74 17 75 18 77
REMARK SMILES IDX 19 78 29 79 20 80 22 81 21 82 23 83 24 84 25 85 26 86 27 87
REMARK SMILES IDX 28 88
REMARK H PARENT 3 7 77 25 51 36 8 67 17 76
REMARK Flexibility Score: inf
ROOT
ATOM      1  C   UNL A   1      37.430  21.633  24.919  1.00  0.00     0.023 C 
ENDROOT
BRANCH   1   2
ATOM      2  C   UNL A   1      38.105  20.271  24.977  1.00  0.00     0.023 C 
BRANCH   2   3
ATOM      3  C   UNL A   1      39.237  20.309  25.991  1.00  0.00     0.116 C 
BRANCH   3   4
ATOM      4  N   UNL A   1      40.142  19.175  25.759  1.00  0.00    -0.352 N 
ATOM      5  O   UNL A   1      42.365  18.341  25.810  1.00  0.00    -0.269 OA
ATOM      6  C   UNL A   1      41.582  19.321  26.012  1.00  0.00     0.251 C 
ATOM      7  H   UNL A   1      39.783  18.318  25.433  1.00  0.00     0.163 HD
BRANCH   6   8
ATOM      8  C   UNL A   1      42.136  20.644  26.515  1.00  0.00     0.039 A 
ATOM      9  C   UNL A   1      42.104  20.866  27.883  1.00  0.00     0.014 A 
ATOM     10  C   UNL A   1      42.513  21.598  25.672  1.00  0.00     0.014 A 
ATOM     11  C   UNL A   1      42.216  22.229  28.245  1.00  0.00     0.010 A 
ATOM     12  C   UNL A   1      42.736  22.878  26.117  1.00  0.00     0.010 A 
ATOM     13  C   UNL A   1      42.665  23.182  27.449  1.00  0.00    -0.014 A 
BRANCH  13  14
ATOM     14  C   UNL A   1      43.081  24.542  27.984  1.00  0.00     0.031 A 
ATOM     15  C   UNL A   1      44.430  24.866  28.140  1.00  0.00     0.074 A 
ATOM     16  C   UNL A   1      42.042  25.433  28.192  1.00  0.00     0.049 A 
ATOM     17  N   UNL A   1      44.949  26.049  28.470  1.00  0.00    -0.248 NA
ATOM     18  C   UNL A   1      45.534  23.913  27.953  1.00  0.00     0.031 C 
ATOM     19  C   UNL A   1      40.680  25.115  28.027  1.00  0.00     0.029 A 
ATOM     20  N   UNL A   1      42.124  26.750  28.583  1.00  0.00    -0.354 N 
ATOM     21  C   UNL A   1      46.282  25.976  28.503  1.00  0.00     0.074 A 
ATOM     22  C   UNL A   1      46.676  24.599  28.177  1.00  0.00     0.031 C 
ATOM     23  C   UNL A   1      39.950  26.222  28.328  1.00  0.00     0.029 A 
ATOM     24  C   UNL A   1      40.844  27.250  28.684  1.00  0.00     0.049 A 
ATOM     25  H   UNL A   1      42.954  27.249  28.762  1.00  0.00     0.167 HD
ATOM     26  C   UNL A   1      47.182  27.003  28.791  1.00  0.00     0.037 A 
ATOM     27  C   UNL A   1      40.459  28.525  29.064  1.00  0.00     0.037 A 
ATOM     28  C   UNL A   1      46.798  28.290  29.128  1.00  0.00     0.049 A 
ATOM     29  C   UNL A   1      41.357  29.537  29.408  1.00  0.00     0.074 A 
ATOM     30  C   UNL A   1      47.693  29.339  29.414  1.00  0.00     0.029 A 
ATOM     31  N   UNL A   1      45.517  28.783  29.253  1.00  0.00    -0.354 N 
ATOM     32  N   UNL A   1      42.690  29.474  29.403  1.00  0.00    -0.248 NA
ATOM     33  C   UNL A   1      40.959  30.882  29.844  1.00  0.00     0.031 C 
ATOM     34  C   UNL A   1      46.963  30.446  29.714  1.00  0.00     0.029 A 
ATOM     35  C   UNL A   1      45.600  30.107  29.622  1.00  0.00     0.049 A 
ATOM     36  H   UNL A   1      44.686  28.276  29.101  1.00  0.00     0.167 HD
ATOM     37  C   UNL A   1      43.208  30.646  29.773  1.00  0.00     0.074 A 
ATOM     38  C   UNL A   1      42.102  31.567  30.069  1.00  0.00     0.031 C 
ATOM     39  C   UNL A   1      44.558  30.986  29.873  1.00  0.00     0.037 A 
BRANCH  26  40
ATOM     40  C   UNL A   1      48.669  26.691  28.728  1.00  0.00     0.057 A 
ATOM     41  C   UNL A   1      49.277  26.890  27.500  1.00  0.00     0.134 A 
ATOM     42  C   UNL A   1      49.372  26.323  29.793  1.00  0.00     0.134 A 
ATOM     43  F   UNL A   1      48.672  27.495  26.482  1.00  0.00    -0.206 F 
ATOM     44  C   UNL A   1      50.599  26.394  27.427  1.00  0.00     0.040 A 
ATOM     45  C   UNL A   1      50.697  25.980  29.672  1.00  0.00     0.040 A 
ATOM     46  F   UNL A   1      48.788  26.286  30.987  1.00  0.00    -0.206 F 
ATOM     47  C   UNL A   1      51.347  26.097  28.475  1.00  0.00     0.006 A 
ENDBRANCH  26  40
BRANCH  27  48
ATOM     48  C   UNL A   1      38.972  28.841  29.109  1.00  0.00     0.057 A 
ATOM     49  C   UNL A   1      38.331  29.461  28.049  1.00  0.00     0.134 A 
ATOM     50  C   UNL A   1      38.333  28.582  30.244  1.00  0.00     0.134 A 
ATOM     51  F   UNL A   1      38.844  29.512  26.822  1.00  0.00    -0.206 F 
ATOM     52  C   UNL A   1      37.083  30.033  28.389  1.00  0.00     0.040 A 
ATOM     53  C   UNL A   1      37.061  29.058  30.454  1.00  0.00     0.040 A 
ATOM     54  F   UNL A   1      38.929  27.854  31.184  1.00  0.00    -0.206 F 
ATOM     55  C   UNL A   1      36.390  29.730  29.472  1.00  0.00     0.006 A 
ENDBRANCH  27  48
BRANCH  39  56
ATOM     56  C   UNL A   1      44.908  32.408  30.281  1.00  0.00     0.057 A 
ATOM     57  C   UNL A   1      45.054  33.349  29.274  1.00  0.00     0.134 A 
ATOM     58  C   UNL A   1      45.144  32.717  31.550  1.00  0.00     0.134 A 
ATOM     59  F   UNL A   1      44.593  33.167  28.040  1.00  0.00    -0.206 F 
ATOM     60  C   UNL A   1      45.737  34.520  29.678  1.00  0.00     0.040 A 
ATOM     61  C   UNL A   1      45.687  33.934  31.885  1.00  0.00     0.040 A 
ATOM     62  F   UNL A   1      44.851  31.840  32.507  1.00  0.00    -0.206 F 
ATOM     63  C   UNL A   1      45.913  34.889  30.933  1.00  0.00     0.006 A 
ENDBRANCH  39  56
ENDBRANCH  13  14
ENDBRANCH   6   8
ENDBRANCH   3   4
ENDBRANCH   2   3
ENDBRANCH   1   2
BRANCH   1  64
ATOM     64  C   UNL A   1      35.923  21.455  25.015  1.00  0.00     0.116 C 
BRANCH  64  65
ATOM     65  N   UNL A   1      35.526  21.394  26.429  1.00  0.00    -0.352 N 
ATOM     66  C   UNL A   1      34.375  22.176  26.904  1.00  0.00     0.253 C 
ATOM     67  H   UNL A   1      36.032  20.831  27.058  1.00  0.00     0.163 HD
ATOM     68  O   UNL A   1      34.032  22.123  28.127  1.00  0.00    -0.269 OA
BRANCH  66  69
ATOM     69  C   UNL A   1      33.596  23.047  25.933  1.00  0.00     0.063 A 
ATOM     70  C   UNL A   1      34.153  24.283  25.650  1.00  0.00     0.016 A 
ATOM     71  C   UNL A   1      32.507  22.621  25.302  1.00  0.00     0.051 A 
ATOM     72  C   UNL A   1      33.315  25.127  24.882  1.00  0.00     0.001 A 
ATOM     73  C   UNL A   1      31.813  23.458  24.462  1.00  0.00     0.027 A 
ATOM     74  C   UNL A   1      32.274  24.714  24.182  1.00  0.00     0.002 A 
BRANCH  71  75
ATOM     75  N   UNL A   1      32.040  21.242  25.506  1.00  0.00    -0.355 N 
ATOM     76  H   UNL A   1      31.461  21.027  26.273  1.00  0.00     0.167 HD
BRANCH  75  77
ATOM     77  C   UNL A   1      32.437  20.185  24.564  1.00  0.00     0.040 A 
ATOM     78  C   UNL A   1      32.105  20.326  23.227  1.00  0.00     0.026 A 
ATOM     79  C   UNL A   1      33.092  19.116  25.003  1.00  0.00     0.050 A 
ATOM     80  C   UNL A   1      32.257  19.140  22.471  1.00  0.00     0.004 A 
ATOM     81  C   UNL A   1      33.324  18.048  24.170  1.00  0.00     0.109 A 
ATOM     82  C   UNL A   1      32.970  18.096  22.850  1.00  0.00     0.024 A 
BRANCH  81  83
ATOM     83  S   UNL A   1      34.112  16.558  24.829  1.00  0.00     0.310 S 
ATOM     84  F   UNL A   1      34.403  15.980  23.381  1.00  0.00    -0.094 F 
ATOM     85  F   UNL A   1      32.714  15.834  24.762  1.00  0.00    -0.094 F 
ATOM     86  F   UNL A   1      34.779  15.279  25.408  1.00  0.00    -0.094 F 
ATOM     87  F   UNL A   1      35.527  17.254  24.756  1.00  0.00    -0.094 F 
ATOM     88  F   UNL A   1      33.470  17.826  24.137  1.00  0.00    -0.094 F 
ENDBRANCH  81  83
ENDBRANCH  75  77
ENDBRANCH  71  75
ENDBRANCH  66  69
ENDBRANCH  64  65
ENDBRANCH   1  64
TORSDOF 14
ENDMDL
