MODEL 1
REMARK VINA RESULT:     -11.6      0.000      0.000
REMARK SMILES C[C@H](NC(=O)[C@@H](C)Oc1ccc(Cl)cc1Br)C(=O)NCCCCNC(=O)c1ccc(-c2c3nc(c(-c4c(F)cccc4F)c4ccc([nH]4)c(-c4c(F)cccc4F)c4nc(c(-c5c(F)cccc5F)c5ccc2[nH]5)C=C4)C=C3)cc1
REMARK SMILES IDX 20 1 19 2 17 3 18 4 2 6 1 7 3 8 4 9 5 11 6 12 7 13 8 14 9 15
REMARK SMILES IDX 10 16 15 17 11 18 14 19 16 20 12 21 13 22 21 23 22 24 23 25
REMARK SMILES IDX 24 26 25 27 26 29 27 30 28 31 80 32 29 33 79 34 30 35 31 36
REMARK SMILES IDX 32 37 73 38 33 39 78 40 72 41 74 42 34 43 77 44 71 45 70 46
REMARK SMILES IDX 35 48 61 49 44 50 60 51 45 52 48 53 59 54 75 55 46 56 47 57
REMARK SMILES IDX 58 59 76 60 49 61 36 62 37 63 42 64 38 65 39 66 41 67 43 68
REMARK SMILES IDX 40 69 62 70 63 71 68 72 64 73 65 74 67 75 69 76 66 77 50 78
REMARK SMILES IDX 51 79 56 80 52 81 53 82 55 83 57 84 54 85
REMARK H PARENT 19 5 3 10 24 28 74 47 48 58
REMARK Flexibility Score: inf
ROOT
ATOM      1  C   UNL A   1      32.935  28.919  23.491  1.00  0.00     0.116 C 
ENDROOT
BRANCH   1   2
ATOM      2  N   UNL A   1      31.825  29.514  22.770  1.00  0.00    -0.354 N 
ATOM      3  C   UNL A   1      30.711  28.890  22.265  1.00  0.00     0.242 C 
ATOM      4  O   UNL A   1      29.806  29.581  21.799  1.00  0.00    -0.273 OA
ATOM      5  H   UNL A   1      31.876  30.486  22.626  1.00  0.00     0.163 HD
BRANCH   3   6
ATOM      6  C   UNL A   1      30.581  27.351  22.386  1.00  0.00     0.168 C 
ATOM      7  C   UNL A   1      30.365  27.018  23.850  1.00  0.00     0.041 C 
BRANCH   6   8
ATOM      8  N   UNL A   1      31.707  26.779  21.623  1.00  0.00    -0.341 N 
ATOM      9  C   UNL A   1      32.483  25.679  21.556  1.00  0.00     0.261 C 
ATOM     10  H   UNL A   1      31.986  27.416  20.927  1.00  0.00     0.164 HD
ATOM     11  O   UNL A   1      33.096  25.570  20.482  1.00  0.00    -0.271 OA
BRANCH   9  12
ATOM     12  C   UNL A   1      32.749  24.624  22.668  1.00  0.00     0.258 C 
ATOM     13  C   UNL A   1      33.980  24.944  23.518  1.00  0.00     0.064 C 
BRANCH  12  14
ATOM     14  O   UNL A   1      31.763  23.933  23.424  1.00  0.00    -0.480 OA
BRANCH  14  15
ATOM     15  C   UNL A   1      31.962  22.609  23.648  1.00  0.00     0.134 A 
ATOM     16  C   UNL A   1      32.110  21.727  22.578  1.00  0.00     0.049 A 
ATOM     17  C   UNL A   1      32.108  22.141  24.962  1.00  0.00     0.061 A 
ATOM     18  C   UNL A   1      32.285  20.364  22.821  1.00  0.00     0.024 A 
ATOM     19  C   UNL A   1      32.279  20.779  25.208  1.00  0.00     0.040 A 
ATOM     20  Br  UNL A   1      32.007  23.315  26.451  1.00  0.00    -0.047 Br
ATOM     21  C   UNL A   1      32.347  19.895  24.133  1.00  0.00     0.042 A 
ATOM     22  Cl  UNL A   1      32.504  18.208  24.427  1.00  0.00    -0.084 Cl
ENDBRANCH  14  15
ENDBRANCH  12  14
ENDBRANCH   9  12
ENDBRANCH   6   8
ENDBRANCH   3   6
ENDBRANCH   1   2
BRANCH   1  23
ATOM     23  C   UNL A   1      33.040  29.429  24.923  1.00  0.00     0.023 C 
BRANCH  23  24
ATOM     24  C   UNL A   1      33.896  28.539  25.820  1.00  0.00     0.023 C 
BRANCH  24  25
ATOM     25  C   UNL A   1      33.657  28.727  27.315  1.00  0.00     0.116 C 
BRANCH  25  26
ATOM     26  N   UNL A   1      33.659  30.116  27.749  1.00  0.00    -0.352 N 
ATOM     27  C   UNL A   1      34.723  30.815  28.278  1.00  0.00     0.251 C 
ATOM     28  H   UNL A   1      32.811  30.607  27.656  1.00  0.00     0.163 HD
ATOM     29  O   UNL A   1      34.604  31.963  28.674  1.00  0.00    -0.269 OA
BRANCH  27  30
ATOM     30  C   UNL A   1      36.012  30.105  28.399  1.00  0.00     0.039 A 
ATOM     31  C   UNL A   1      36.915  30.165  27.337  1.00  0.00     0.014 A 
ATOM     32  C   UNL A   1      36.368  29.516  29.614  1.00  0.00     0.014 A 
ATOM     33  C   UNL A   1      38.217  29.701  27.523  1.00  0.00     0.010 A 
ATOM     34  C   UNL A   1      37.684  29.119  29.818  1.00  0.00     0.010 A 
ATOM     35  C   UNL A   1      38.621  29.216  28.778  1.00  0.00    -0.014 A 
BRANCH  35  36
ATOM     36  C   UNL A   1      40.028  28.815  29.029  1.00  0.00     0.031 A 
ATOM     37  C   UNL A   1      40.970  29.773  29.699  1.00  0.00     0.074 A 
ATOM     38  C   UNL A   1      40.474  27.623  28.585  1.00  0.00     0.049 A 
ATOM     39  N   UNL A   1      42.249  29.641  29.940  1.00  0.00    -0.248 NA
ATOM     40  C   UNL A   1      40.407  31.063  30.126  1.00  0.00     0.031 C 
ATOM     41  C   UNL A   1      39.673  26.630  27.867  1.00  0.00     0.029 A 
ATOM     42  N   UNL A   1      41.718  27.050  28.666  1.00  0.00    -0.354 N 
ATOM     43  C   UNL A   1      42.647  30.836  30.523  1.00  0.00     0.074 A 
ATOM     44  C   UNL A   1      41.487  31.700  30.555  1.00  0.00     0.031 C 
ATOM     45  C   UNL A   1      40.438  25.559  27.597  1.00  0.00     0.029 A 
ATOM     46  C   UNL A   1      41.789  25.802  28.095  1.00  0.00     0.049 A 
ATOM     47  H   UNL A   1      42.488  27.492  29.092  1.00  0.00     0.167 HD
ATOM     48  C   UNL A   1      43.862  31.176  31.011  1.00  0.00     0.037 A 
ATOM     49  C   UNL A   1      42.826  24.951  27.988  1.00  0.00     0.037 A 
ATOM     50  C   UNL A   1      45.004  30.301  31.019  1.00  0.00     0.049 A 
ATOM     51  C   UNL A   1      44.160  25.341  28.563  1.00  0.00     0.074 A 
ATOM     52  C   UNL A   1      46.257  30.524  31.561  1.00  0.00     0.029 A 
ATOM     53  N   UNL A   1      45.026  29.032  30.462  1.00  0.00    -0.354 N 
ATOM     54  N   UNL A   1      44.503  26.447  29.177  1.00  0.00    -0.248 NA
ATOM     55  C   UNL A   1      45.249  24.363  28.433  1.00  0.00     0.031 C 
ATOM     56  C   UNL A   1      47.049  29.400  31.305  1.00  0.00     0.029 A 
ATOM     57  C   UNL A   1      46.277  28.465  30.634  1.00  0.00     0.049 A 
ATOM     58  H   UNL A   1      44.266  28.599  30.010  1.00  0.00     0.167 HD
ATOM     59  C   UNL A   1      45.836  26.287  29.532  1.00  0.00     0.074 A 
ATOM     60  C   UNL A   1      46.236  24.973  29.072  1.00  0.00     0.031 C 
ATOM     61  C   UNL A   1      46.654  27.151  30.180  1.00  0.00     0.037 A 
BRANCH  48  62
ATOM     62  C   UNL A   1      44.011  32.552  31.587  1.00  0.00     0.057 A 
ATOM     63  C   UNL A   1      43.768  32.814  32.941  1.00  0.00     0.134 A 
ATOM     64  C   UNL A   1      44.424  33.623  30.784  1.00  0.00     0.134 A 
ATOM     65  F   UNL A   1      43.355  31.834  33.759  1.00  0.00    -0.206 F 
ATOM     66  C   UNL A   1      43.901  34.098  33.471  1.00  0.00     0.040 A 
ATOM     67  C   UNL A   1      44.586  34.906  31.308  1.00  0.00     0.040 A 
ATOM     68  F   UNL A   1      44.676  33.439  29.480  1.00  0.00    -0.206 F 
ATOM     69  C   UNL A   1      44.318  35.147  32.654  1.00  0.00     0.006 A 
ENDBRANCH  48  62
BRANCH  49  70
ATOM     70  C   UNL A   1      42.642  23.627  27.345  1.00  0.00     0.057 A 
ATOM     71  C   UNL A   1      42.273  22.507  28.101  1.00  0.00     0.134 A 
ATOM     72  C   UNL A   1      42.840  23.443  25.972  1.00  0.00     0.134 A 
ATOM     73  F   UNL A   1      42.086  22.619  29.424  1.00  0.00    -0.206 F 
ATOM     74  C   UNL A   1      42.126  21.248  27.519  1.00  0.00     0.040 A 
ATOM     75  C   UNL A   1      42.677  22.193  25.373  1.00  0.00     0.040 A 
ATOM     76  F   UNL A   1      43.188  24.477  25.194  1.00  0.00    -0.206 F 
ATOM     77  C   UNL A   1      42.326  21.089  26.148  1.00  0.00     0.006 A 
ENDBRANCH  49  70
BRANCH  61  78
ATOM     78  C   UNL A   1      48.052  26.689  30.461  1.00  0.00     0.057 A 
ATOM     79  C   UNL A   1      48.361  25.917  31.586  1.00  0.00     0.134 A 
ATOM     80  C   UNL A   1      49.091  26.985  29.569  1.00  0.00     0.134 A 
ATOM     81  F   UNL A   1      47.412  25.613  32.483  1.00  0.00    -0.206 F 
ATOM     82  C   UNL A   1      49.661  25.470  31.825  1.00  0.00     0.040 A 
ATOM     83  C   UNL A   1      50.389  26.524  29.785  1.00  0.00     0.040 A 
ATOM     84  F   UNL A   1      48.858  27.715  28.467  1.00  0.00    -0.206 F 
ATOM     85  C   UNL A   1      50.678  25.766  30.920  1.00  0.00     0.006 A 
ENDBRANCH  61  78
ENDBRANCH  35  36
ENDBRANCH  27  30
ENDBRANCH  25  26
ENDBRANCH  24  25
ENDBRANCH  23  24
ENDBRANCH   1  23
TORSDOF 15
ENDMDL
MODEL 2
REMARK VINA RESULT:     -11.6      3.349      4.876
REMARK SMILES C[C@H](NC(=O)[C@@H](C)Oc1ccc(Cl)cc1Br)C(=O)NCCCCNC(=O)c1ccc(-c2c3nc(c(-c4c(F)cccc4F)c4ccc([nH]4)c(-c4c(F)cccc4F)c4nc(c(-c5c(F)cccc5F)c5ccc2[nH]5)C=C4)C=C3)cc1
REMARK SMILES IDX 20 1 19 2 17 3 18 4 2 6 1 7 3 8 4 9 5 11 6 12 7 13 8 14 9 15
REMARK SMILES IDX 10 16 15 17 11 18 14 19 16 20 12 21 13 22 21 23 22 24 23 25
REMARK SMILES IDX 24 26 25 27 26 29 27 30 28 31 80 32 29 33 79 34 30 35 31 36
REMARK SMILES IDX 32 37 73 38 33 39 78 40 72 41 74 42 34 43 77 44 71 45 70 46
REMARK SMILES IDX 35 48 61 49 44 50 60 51 45 52 48 53 59 54 75 55 46 56 47 57
REMARK SMILES IDX 58 59 76 60 49 61 36 62 37 63 42 64 38 65 39 66 41 67 43 68
REMARK SMILES IDX 40 69 62 70 63 71 68 72 64 73 65 74 67 75 69 76 66 77 50 78
REMARK SMILES IDX 51 79 56 80 52 81 53 82 55 83 57 84 54 85
REMARK H PARENT 19 5 3 10 24 28 74 47 48 58
REMARK Flexibility Score: inf
ROOT
ATOM      1  C   UNL A   1      31.889  29.691  25.248  1.00  0.00     0.116 C 
ENDROOT
BRANCH   1   2
ATOM      2  N   UNL A   1      32.993  29.663  24.307  1.00  0.00    -0.354 N 
ATOM      3  C   UNL A   1      33.586  28.568  23.728  1.00  0.00     0.242 C 
ATOM      4  O   UNL A   1      34.425  28.746  22.847  1.00  0.00    -0.273 OA
ATOM      5  H   UNL A   1      33.363  30.538  24.051  1.00  0.00     0.163 HD
BRANCH   3   6
ATOM      6  C   UNL A   1      33.113  27.148  24.127  1.00  0.00     0.168 C 
ATOM      7  C   UNL A   1      33.736  26.811  25.468  1.00  0.00     0.041 C 
BRANCH   6   8
ATOM      8  N   UNL A   1      33.324  26.293  22.943  1.00  0.00    -0.341 N 
ATOM      9  C   UNL A   1      33.435  24.998  22.584  1.00  0.00     0.261 C 
ATOM     10  H   UNL A   1      33.414  26.860  22.143  1.00  0.00     0.164 HD
ATOM     11  O   UNL A   1      33.279  24.807  21.368  1.00  0.00    -0.271 OA
BRANCH   9  12
ATOM     12  C   UNL A   1      33.809  23.785  23.481  1.00  0.00     0.258 C 
ATOM     13  C   UNL A   1      35.297  23.730  23.828  1.00  0.00     0.064 C 
BRANCH  12  14
ATOM     14  O   UNL A   1      33.014  23.231  24.522  1.00  0.00    -0.480 OA
BRANCH  14  15
ATOM     15  C   UNL A   1      32.898  21.880  24.569  1.00  0.00     0.134 A 
ATOM     16  C   UNL A   1      32.471  21.169  23.447  1.00  0.00     0.049 A 
ATOM     17  C   UNL A   1      33.294  21.188  25.724  1.00  0.00     0.061 A 
ATOM     18  C   UNL A   1      32.327  19.783  23.518  1.00  0.00     0.024 A 
ATOM     19  C   UNL A   1      33.148  19.803  25.797  1.00  0.00     0.040 A 
ATOM     20  Br  UNL A   1      33.969  22.101  27.245  1.00  0.00    -0.047 Br
ATOM     21  C   UNL A   1      32.646  19.110  24.697  1.00  0.00     0.042 A 
ATOM     22  Cl  UNL A   1      32.412  17.410  24.797  1.00  0.00    -0.084 Cl
ENDBRANCH  14  15
ENDBRANCH  12  14
ENDBRANCH   9  12
ENDBRANCH   6   8
ENDBRANCH   3   6
ENDBRANCH   1   2
BRANCH   1  23
ATOM     23  C   UNL A   1      32.298  30.238  26.610  1.00  0.00     0.023 C 
BRANCH  23  24
ATOM     24  C   UNL A   1      31.818  31.665  26.856  1.00  0.00     0.023 C 
BRANCH  24  25
ATOM     25  C   UNL A   1      32.897  32.620  27.357  1.00  0.00     0.116 C 
BRANCH  25  26
ATOM     26  N   UNL A   1      32.419  33.967  27.635  1.00  0.00    -0.352 N 
ATOM     27  C   UNL A   1      32.964  34.868  28.525  1.00  0.00     0.251 C 
ATOM     28  H   UNL A   1      31.625  34.264  27.136  1.00  0.00     0.163 HD
ATOM     29  O   UNL A   1      32.449  35.955  28.733  1.00  0.00    -0.269 OA
BRANCH  27  30
ATOM     30  C   UNL A   1      34.173  34.452  29.262  1.00  0.00     0.039 A 
ATOM     31  C   UNL A   1      34.023  33.742  30.454  1.00  0.00     0.014 A 
ATOM     32  C   UNL A   1      35.434  34.640  28.689  1.00  0.00     0.014 A 
ATOM     33  C   UNL A   1      35.141  33.146  31.036  1.00  0.00     0.010 A 
ATOM     34  C   UNL A   1      36.532  33.987  29.234  1.00  0.00     0.010 A 
ATOM     35  C   UNL A   1      36.394  33.227  30.406  1.00  0.00    -0.014 A 
BRANCH  35  36
ATOM     36  C   UNL A   1      37.575  32.514  30.952  1.00  0.00     0.031 A 
ATOM     37  C   UNL A   1      38.229  33.005  32.211  1.00  0.00     0.074 A 
ATOM     38  C   UNL A   1      38.102  31.474  30.275  1.00  0.00     0.049 A 
ATOM     39  N   UNL A   1      39.309  32.568  32.806  1.00  0.00    -0.248 NA
ATOM     40  C   UNL A   1      37.605  34.163  32.870  1.00  0.00     0.031 C 
ATOM     41  C   UNL A   1      37.595  30.939  29.009  1.00  0.00     0.029 A 
ATOM     42  N   UNL A   1      39.191  30.688  30.555  1.00  0.00    -0.354 N 
ATOM     43  C   UNL A   1      39.506  33.408  33.893  1.00  0.00     0.074 A 
ATOM     44  C   UNL A   1      38.464  34.411  33.848  1.00  0.00     0.031 C 
ATOM     45  C   UNL A   1      38.355  29.896  28.637  1.00  0.00     0.029 A 
ATOM     46  C   UNL A   1      39.419  29.707  29.619  1.00  0.00     0.049 A 
ATOM     47  H   UNL A   1      39.757  30.814  31.350  1.00  0.00     0.167 HD
ATOM     48  C   UNL A   1      40.454  33.338  34.856  1.00  0.00     0.037 A 
ATOM     49  C   UNL A   1      40.377  28.763  29.562  1.00  0.00     0.037 A 
ATOM     50  C   UNL A   1      41.462  32.315  34.925  1.00  0.00     0.049 A 
ATOM     51  C   UNL A   1      41.402  28.689  30.659  1.00  0.00     0.074 A 
ATOM     52  C   UNL A   1      42.419  32.111  35.903  1.00  0.00     0.029 A 
ATOM     53  N   UNL A   1      41.639  31.320  33.976  1.00  0.00    -0.354 N 
ATOM     54  N   UNL A   1      41.532  29.447  31.720  1.00  0.00    -0.248 NA
ATOM     55  C   UNL A   1      42.411  27.626  30.552  1.00  0.00     0.031 C 
ATOM     56  C   UNL A   1      43.195  31.009  35.532  1.00  0.00     0.029 A 
ATOM     57  C   UNL A   1      42.699  30.507  34.339  1.00  0.00     0.049 A 
ATOM     58  H   UNL A   1      41.093  31.208  33.165  1.00  0.00     0.167 HD
ATOM     59  C   UNL A   1      42.617  28.936  32.421  1.00  0.00     0.074 A 
ATOM     60  C   UNL A   1      43.103  27.798  31.669  1.00  0.00     0.031 C 
ATOM     61  C   UNL A   1      43.161  29.370  33.584  1.00  0.00     0.037 A 
BRANCH  48  62
ATOM     62  C   UNL A   1      40.432  34.394  35.920  1.00  0.00     0.057 A 
ATOM     63  C   UNL A   1      41.129  35.601  35.774  1.00  0.00     0.134 A 
ATOM     64  C   UNL A   1      39.690  34.212  37.093  1.00  0.00     0.134 A 
ATOM     65  F   UNL A   1      41.871  35.828  34.679  1.00  0.00    -0.206 F 
ATOM     66  C   UNL A   1      41.112  36.578  36.770  1.00  0.00     0.040 A 
ATOM     67  C   UNL A   1      39.644  35.193  38.085  1.00  0.00     0.040 A 
ATOM     68  F   UNL A   1      38.999  33.081  37.294  1.00  0.00    -0.206 F 
ATOM     69  C   UNL A   1      40.362  36.377  37.927  1.00  0.00     0.006 A 
ENDBRANCH  48  62
BRANCH  49  70
ATOM     70  C   UNL A   1      40.393  27.784  28.448  1.00  0.00     0.057 A 
ATOM     71  C   UNL A   1      39.713  26.564  28.554  1.00  0.00     0.134 A 
ATOM     72  C   UNL A   1      41.095  28.031  27.262  1.00  0.00     0.134 A 
ATOM     73  F   UNL A   1      39.039  26.264  29.674  1.00  0.00    -0.206 F 
ATOM     74  C   UNL A   1      39.744  25.618  27.529  1.00  0.00     0.040 A 
ATOM     75  C   UNL A   1      41.118  27.102  26.221  1.00  0.00     0.040 A 
ATOM     76  F   UNL A   1      41.760  29.183  27.097  1.00  0.00    -0.206 F 
ATOM     77  C   UNL A   1      40.447  25.888  26.356  1.00  0.00     0.006 A 
ENDBRANCH  49  70
BRANCH  61  78
ATOM     78  C   UNL A   1      44.320  28.593  34.130  1.00  0.00     0.057 A 
ATOM     79  C   UNL A   1      45.644  28.958  33.861  1.00  0.00     0.134 A 
ATOM     80  C   UNL A   1      44.106  27.493  34.970  1.00  0.00     0.134 A 
ATOM     81  F   UNL A   1      45.913  29.994  33.053  1.00  0.00    -0.206 F 
ATOM     82  C   UNL A   1      46.717  28.244  34.396  1.00  0.00     0.040 A 
ATOM     83  C   UNL A   1      45.170  26.786  35.528  1.00  0.00     0.040 A 
ATOM     84  F   UNL A   1      42.860  27.098  35.272  1.00  0.00    -0.206 F 
ATOM     85  C   UNL A   1      46.481  27.159  35.238  1.00  0.00     0.006 A 
ENDBRANCH  61  78
ENDBRANCH  35  36
ENDBRANCH  27  30
ENDBRANCH  25  26
ENDBRANCH  24  25
ENDBRANCH  23  24
ENDBRANCH   1  23
TORSDOF 15
ENDMDL
MODEL 3
REMARK VINA RESULT:     -11.5      1.530      2.291
REMARK SMILES C[C@H](NC(=O)[C@@H](C)Oc1ccc(Cl)cc1Br)C(=O)NCCCCNC(=O)c1ccc(-c2c3nc(c(-c4c(F)cccc4F)c4ccc([nH]4)c(-c4c(F)cccc4F)c4nc(c(-c5c(F)cccc5F)c5ccc2[nH]5)C=C4)C=C3)cc1
REMARK SMILES IDX 20 1 19 2 17 3 18 4 2 6 1 7 3 8 4 9 5 11 6 12 7 13 8 14 9 15
REMARK SMILES IDX 10 16 15 17 11 18 14 19 16 20 12 21 13 22 21 23 22 24 23 25
REMARK SMILES IDX 24 26 25 27 26 29 27 30 28 31 80 32 29 33 79 34 30 35 31 36
REMARK SMILES IDX 32 37 73 38 33 39 78 40 72 41 74 42 34 43 77 44 71 45 70 46
REMARK SMILES IDX 35 48 61 49 44 50 60 51 45 52 48 53 59 54 75 55 46 56 47 57
REMARK SMILES IDX 58 59 76 60 49 61 36 62 37 63 42 64 38 65 39 66 41 67 43 68
REMARK SMILES IDX 40 69 62 70 63 71 68 72 64 73 65 74 67 75 69 76 66 77 50 78
REMARK SMILES IDX 51 79 56 80 52 81 53 82 55 83 57 84 54 85
REMARK H PARENT 19 5 3 10 24 28 74 47 48 58
REMARK Flexibility Score: inf
ROOT
ATOM      1  C   UNL A   1      31.440  29.095  25.132  1.00  0.00     0.116 C 
ENDROOT
BRANCH   1   2
ATOM      2  N   UNL A   1      30.902  28.966  23.790  1.00  0.00    -0.354 N 
ATOM      3  C   UNL A   1      31.150  27.977  22.870  1.00  0.00     0.242 C 
ATOM      4  O   UNL A   1      30.497  27.962  21.828  1.00  0.00    -0.273 OA
ATOM      5  H   UNL A   1      30.282  29.675  23.504  1.00  0.00     0.163 HD
BRANCH   3   6
ATOM      6  C   UNL A   1      32.167  26.860  23.211  1.00  0.00     0.168 C 
ATOM      7  C   UNL A   1      33.458  27.168  22.477  1.00  0.00     0.041 C 
BRANCH   6   8
ATOM      8  N   UNL A   1      31.457  25.580  23.015  1.00  0.00    -0.341 N 
ATOM      9  C   UNL A   1      31.395  24.325  23.502  1.00  0.00     0.261 C 
ATOM     10  H   UNL A   1      30.809  25.676  22.281  1.00  0.00     0.164 HD
ATOM     11  O   UNL A   1      30.360  23.720  23.179  1.00  0.00    -0.271 OA
BRANCH   9  12
ATOM     12  C   UNL A   1      32.475  23.558  24.316  1.00  0.00     0.258 C 
ATOM     13  C   UNL A   1      31.998  23.148  25.710  1.00  0.00     0.064 C 
BRANCH  12  14
ATOM     14  O   UNL A   1      33.417  22.629  23.797  1.00  0.00    -0.480 OA
BRANCH  14  15
ATOM     15  C   UNL A   1      34.649  22.602  24.368  1.00  0.00     0.134 A 
ATOM     16  C   UNL A   1      35.379  23.780  24.524  1.00  0.00     0.049 A 
ATOM     17  C   UNL A   1      35.149  21.397  24.883  1.00  0.00     0.061 A 
ATOM     18  C   UNL A   1      36.656  23.734  25.086  1.00  0.00     0.024 A 
ATOM     19  C   UNL A   1      36.426  21.349  25.441  1.00  0.00     0.040 A 
ATOM     20  Br  UNL A   1      34.155  19.783  24.778  1.00  0.00    -0.047 Br
ATOM     21  C   UNL A   1      37.181  22.517  25.522  1.00  0.00     0.042 A 
ATOM     22  Cl  UNL A   1      38.776  22.458  26.159  1.00  0.00    -0.084 Cl
ENDBRANCH  14  15
ENDBRANCH  12  14
ENDBRANCH   9  12
ENDBRANCH   6   8
ENDBRANCH   3   6
ENDBRANCH   1   2
BRANCH   1  23
ATOM     23  C   UNL A   1      32.843  29.689  25.143  1.00  0.00     0.023 C 
BRANCH  23  24
ATOM     24  C   UNL A   1      33.872  28.794  25.828  1.00  0.00     0.023 C 
BRANCH  24  25
ATOM     25  C   UNL A   1      33.823  28.822  27.352  1.00  0.00     0.116 C 
BRANCH  25  26
ATOM     26  N   UNL A   1      33.821  30.160  27.925  1.00  0.00    -0.352 N 
ATOM     27  C   UNL A   1      34.883  30.803  28.525  1.00  0.00     0.251 C 
ATOM     28  H   UNL A   1      32.974  30.658  27.879  1.00  0.00     0.163 HD
ATOM     29  O   UNL A   1      34.762  31.906  29.034  1.00  0.00    -0.269 OA
BRANCH  27  30
ATOM     30  C   UNL A   1      36.172  30.085  28.578  1.00  0.00     0.039 A 
ATOM     31  C   UNL A   1      37.045  30.189  27.494  1.00  0.00     0.014 A 
ATOM     32  C   UNL A   1      36.561  29.444  29.757  1.00  0.00     0.014 A 
ATOM     33  C   UNL A   1      38.350  29.713  27.622  1.00  0.00     0.010 A 
ATOM     34  C   UNL A   1      37.880  29.035  29.905  1.00  0.00     0.010 A 
ATOM     35  C   UNL A   1      38.788  29.175  28.844  1.00  0.00    -0.014 A 
BRANCH  35  36
ATOM     36  C   UNL A   1      40.200  28.759  29.036  1.00  0.00     0.031 A 
ATOM     37  C   UNL A   1      41.185  29.717  29.642  1.00  0.00     0.074 A 
ATOM     38  C   UNL A   1      40.609  27.553  28.597  1.00  0.00     0.049 A 
ATOM     39  N   UNL A   1      42.472  29.573  29.825  1.00  0.00    -0.248 NA
ATOM     40  C   UNL A   1      40.658  31.023  30.068  1.00  0.00     0.031 C 
ATOM     41  C   UNL A   1      39.763  26.556  27.937  1.00  0.00     0.029 A 
ATOM     42  N   UNL A   1      41.848  26.965  28.631  1.00  0.00    -0.354 N 
ATOM     43  C   UNL A   1      42.911  30.774  30.365  1.00  0.00     0.074 A 
ATOM     44  C   UNL A   1      41.765  31.654  30.434  1.00  0.00     0.031 C 
ATOM     45  C   UNL A   1      40.502  25.470  27.654  1.00  0.00     0.029 A 
ATOM     46  C   UNL A   1      41.877  25.705  28.083  1.00  0.00     0.049 A 
ATOM     47  H   UNL A   1      42.643  27.404  29.011  1.00  0.00     0.167 HD
ATOM     48  C   UNL A   1      44.153  31.107  30.788  1.00  0.00     0.037 A 
ATOM     49  C   UNL A   1      42.897  24.838  27.945  1.00  0.00     0.037 A 
ATOM     50  C   UNL A   1      45.282  30.217  30.761  1.00  0.00     0.049 A 
ATOM     51  C   UNL A   1      44.261  25.221  28.449  1.00  0.00     0.074 A 
ATOM     52  C   UNL A   1      46.562  30.434  31.239  1.00  0.00     0.029 A 
ATOM     53  N   UNL A   1      45.262  28.937  30.229  1.00  0.00    -0.354 N 
ATOM     54  N   UNL A   1      44.647  26.334  29.023  1.00  0.00    -0.248 NA
ATOM     55  C   UNL A   1      45.331  24.226  28.287  1.00  0.00     0.031 C 
ATOM     56  C   UNL A   1      47.327  29.294  30.969  1.00  0.00     0.029 A 
ATOM     57  C   UNL A   1      46.513  28.356  30.354  1.00  0.00     0.049 A 
ATOM     58  H   UNL A   1      44.477  28.505  29.823  1.00  0.00     0.167 HD
ATOM     59  C   UNL A   1      45.993  26.164  29.318  1.00  0.00     0.074 A 
ATOM     60  C   UNL A   1      46.355  24.836  28.867  1.00  0.00     0.031 C 
ATOM     61  C   UNL A   1      46.852  27.029  29.910  1.00  0.00     0.037 A 
BRANCH  48  62
ATOM     62  C   UNL A   1      44.346  32.492  31.329  1.00  0.00     0.057 A 
ATOM     63  C   UNL A   1      44.197  32.778  32.692  1.00  0.00     0.134 A 
ATOM     64  C   UNL A   1      44.706  33.547  30.480  1.00  0.00     0.134 A 
ATOM     65  F   UNL A   1      43.839  31.814  33.553  1.00  0.00    -0.206 F 
ATOM     66  C   UNL A   1      44.371  34.070  33.189  1.00  0.00     0.040 A 
ATOM     67  C   UNL A   1      44.908  34.838  30.970  1.00  0.00     0.040 A 
ATOM     68  F   UNL A   1      44.867  33.339  29.166  1.00  0.00    -0.206 F 
ATOM     69  C   UNL A   1      44.735  35.103  32.327  1.00  0.00     0.006 A 
ENDBRANCH  48  62
BRANCH  49  70
ATOM     70  C   UNL A   1      42.666  23.504  27.339  1.00  0.00     0.057 A 
ATOM     71  C   UNL A   1      42.826  23.303  25.962  1.00  0.00     0.134 A 
ATOM     72  C   UNL A   1      42.271  22.405  28.110  1.00  0.00     0.134 A 
ATOM     73  F   UNL A   1      43.186  24.324  25.170  1.00  0.00    -0.206 F 
ATOM     74  C   UNL A   1      42.583  22.064  25.370  1.00  0.00     0.040 A 
ATOM     75  C   UNL A   1      42.043  21.154  27.534  1.00  0.00     0.040 A 
ATOM     76  F   UNL A   1      42.108  22.531  29.434  1.00  0.00    -0.206 F 
ATOM     77  C   UNL A   1      42.192  20.982  26.159  1.00  0.00     0.006 A 
ENDBRANCH  49  70
BRANCH  61  78
ATOM     78  C   UNL A   1      48.256  26.554  30.134  1.00  0.00     0.057 A 
ATOM     79  C   UNL A   1      49.274  26.803  29.207  1.00  0.00     0.134 A 
ATOM     80  C   UNL A   1      48.598  25.879  31.312  1.00  0.00     0.134 A 
ATOM     81  F   UNL A   1      49.004  27.433  28.054  1.00  0.00    -0.206 F 
ATOM     82  C   UNL A   1      50.584  26.381  29.436  1.00  0.00     0.040 A 
ATOM     83  C   UNL A   1      49.909  25.472  31.562  1.00  0.00     0.040 A 
ATOM     84  F   UNL A   1      47.669  25.617  32.243  1.00  0.00    -0.206 F 
ATOM     85  C   UNL A   1      50.906  25.719  30.620  1.00  0.00     0.006 A 
ENDBRANCH  61  78
ENDBRANCH  35  36
ENDBRANCH  27  30
ENDBRANCH  25  26
ENDBRANCH  24  25
ENDBRANCH  23  24
ENDBRANCH   1  23
TORSDOF 15
ENDMDL
