MODEL 1
REMARK VINA RESULT:     -13.3      0.000      0.000
REMARK SMILES C[C@@]1(Oc2c[nH]c3ccc(Br)c(Cl)c23)O[C@@H](C(=O)NCCCCNC(=O)c2ccc(-c3c4nc(c(-c5c(F)cccc5F)c5ccc([nH]5)c(-c5c(F)cccc5F)c5nc(c(-c6c(F)cccc6F)c6ccc3[nH]6)C=C5)C=C4)cc2)[C@@](C)(O)[C@@](C)(O)[C@@]1(C)O
REMARK SMILES IDX 21 1 20 2 19 3 17 4 18 5 16 7 1 8 2 9 15 10 87 11 84 12
REMARK SMILES IDX 88 13 81 14 85 15 82 16 3 17 4 18 5 19 14 20 6 21 7 22 12 23
REMARK SMILES IDX 8 25 10 26 13 27 9 28 11 29 89 30 86 32 83 34 22 36 23 37
REMARK SMILES IDX 24 38 25 39 26 41 27 42 28 43 80 44 29 45 79 46 30 47 31 48
REMARK SMILES IDX 32 49 73 50 33 51 78 52 72 53 74 54 34 55 77 56 71 57 70 58
REMARK SMILES IDX 35 60 61 61 44 62 60 63 45 64 48 65 59 66 75 67 46 68 47 69
REMARK SMILES IDX 58 71 76 72 49 73 36 74 37 75 42 76 38 77 39 78 41 79 43 80
REMARK SMILES IDX 40 81 62 82 63 83 68 84 64 85 65 86 67 87 69 88 66 89 50 90
REMARK SMILES IDX 51 91 56 92 52 93 53 94 55 95 57 96 54 97
REMARK H PARENT 19 6 6 24 89 31 86 33 83 35 24 40 74 59 48 70
REMARK Flexibility Score: inf
ROOT
ATOM      1  C   UNL A   1      39.513  21.522  26.156  1.00  0.00     0.023 C 
ENDROOT
BRANCH   1   2
ATOM      2  C   UNL A   1      38.142  21.481  25.453  1.00  0.00     0.116 C 
BRANCH   2   3
ATOM      3  N   UNL A   1      36.950  21.940  26.197  1.00  0.00    -0.354 N 
ATOM      4  C   UNL A   1      35.594  21.713  26.123  1.00  0.00     0.252 C 
ATOM      5  O   UNL A   1      35.027  21.791  27.229  1.00  0.00    -0.272 OA
ATOM      6  H   UNL A   1      37.183  22.561  26.924  1.00  0.00     0.163 HD
BRANCH   4   7
ATOM      7  C   UNL A   1      34.654  21.491  24.820  1.00  0.00     0.246 C 
ATOM      8  C   UNL A   1      35.235  24.428  24.232  1.00  0.00     0.094 C 
ATOM      9  C   UNL A   1      33.992  23.640  23.774  1.00  0.00     0.240 C 
ATOM     10  O   UNL A   1      34.590  22.306  23.623  1.00  0.00    -0.322 OA
ATOM     11  C   UNL A   1      32.556  23.307  24.400  1.00  0.00     0.158 C 
ATOM     12  C   UNL A   1      32.385  22.197  25.505  1.00  0.00     0.128 C 
ATOM     13  C   UNL A   1      31.655  22.905  23.189  1.00  0.00     0.053 C 
ATOM     14  C   UNL A   1      33.236  20.959  25.231  1.00  0.00     0.129 C 
ATOM     15  C   UNL A   1      30.902  21.943  25.884  1.00  0.00     0.049 C 
ATOM     16  C   UNL A   1      32.622  19.988  24.212  1.00  0.00     0.049 C 
BRANCH   9  17
ATOM     17  O   UNL A   1      33.826  24.317  22.472  1.00  0.00    -0.457 OA
BRANCH  17  18
ATOM     18  C   UNL A   1      33.237  25.551  22.234  1.00  0.00     0.150 A 
ATOM     19  C   UNL A   1      32.703  25.683  20.966  1.00  0.00     0.130 A 
ATOM     20  C   UNL A   1      32.623  26.646  22.991  1.00  0.00     0.061 A 
ATOM     21  N   UNL A   1      31.585  26.471  21.051  1.00  0.00    -0.358 N 
ATOM     22  C   UNL A   1      31.391  26.853  22.352  1.00  0.00     0.051 A 
ATOM     23  C   UNL A   1      32.747  27.375  24.195  1.00  0.00     0.068 A 
ATOM     24  H   UNL A   1      31.010  26.724  20.292  1.00  0.00     0.166 HD
ATOM     25  C   UNL A   1      30.256  27.374  23.000  1.00  0.00     0.028 A 
ATOM     26  C   UNL A   1      31.626  27.782  24.934  1.00  0.00     0.037 A 
ATOM     27  Cl  UNL A   1      34.336  27.933  24.508  1.00  0.00    -0.082 Cl
ATOM     28  C   UNL A   1      30.370  27.718  24.349  1.00  0.00     0.019 A 
ATOM     29  Br  UNL A   1      31.750  28.348  26.743  1.00  0.00    -0.049 Br
ENDBRANCH  17  18
ENDBRANCH   9  17
BRANCH  11  30
ATOM     30  O   UNL A   1      31.992  24.419  25.045  1.00  0.00    -0.380 OA
ATOM     31  H   UNL A   1      32.438  25.227  24.749  1.00  0.00     0.211 HD
ENDBRANCH  11  30
BRANCH  12  32
ATOM     32  O   UNL A   1      32.846  22.691  26.771  1.00  0.00    -0.384 OA
ATOM     33  H   UNL A   1      32.083  22.926  27.324  1.00  0.00     0.211 HD
ENDBRANCH  12  32
BRANCH  14  34
ATOM     34  O   UNL A   1      33.317  20.201  26.466  1.00  0.00    -0.384 OA
ATOM     35  H   UNL A   1      32.532  20.380  27.008  1.00  0.00     0.211 HD
ENDBRANCH  14  34
ENDBRANCH   4   7
ENDBRANCH   2   3
ENDBRANCH   1   2
BRANCH   1  36
ATOM     36  C   UNL A   1      40.329  20.223  26.157  1.00  0.00     0.023 C 
BRANCH  36  37
ATOM     37  C   UNL A   1      41.721  20.309  26.775  1.00  0.00     0.116 C 
BRANCH  37  38
ATOM     38  N   UNL A   1      42.799  19.702  25.997  1.00  0.00    -0.352 N 
ATOM     39  C   UNL A   1      43.741  20.380  25.237  1.00  0.00     0.251 C 
ATOM     40  H   UNL A   1      42.863  18.719  26.015  1.00  0.00     0.163 HD
ATOM     41  O   UNL A   1      44.443  19.827  24.396  1.00  0.00    -0.269 OA
BRANCH  39  42
ATOM     42  C   UNL A   1      43.889  21.822  25.485  1.00  0.00     0.039 A 
ATOM     43  C   UNL A   1      43.077  22.747  24.825  1.00  0.00     0.014 A 
ATOM     44  C   UNL A   1      44.742  22.204  26.519  1.00  0.00     0.014 A 
ATOM     45  C   UNL A   1      43.030  24.048  25.310  1.00  0.00     0.010 A 
ATOM     46  C   UNL A   1      44.589  23.444  27.081  1.00  0.00     0.010 A 
ATOM     47  C   UNL A   1      43.753  24.375  26.468  1.00  0.00    -0.014 A 
BRANCH  47  48
ATOM     48  C   UNL A   1      43.560  25.667  27.111  1.00  0.00     0.031 A 
ATOM     49  C   UNL A   1      44.556  26.719  26.760  1.00  0.00     0.074 A 
ATOM     50  C   UNL A   1      42.448  25.959  27.812  1.00  0.00     0.049 A 
ATOM     51  N   UNL A   1      45.459  27.237  27.526  1.00  0.00    -0.248 NA
ATOM     52  C   UNL A   1      44.635  27.173  25.364  1.00  0.00     0.031 C 
ATOM     53  C   UNL A   1      41.237  25.149  27.992  1.00  0.00     0.029 A 
ATOM     54  N   UNL A   1      42.141  27.111  28.464  1.00  0.00    -0.354 N 
ATOM     55  C   UNL A   1      46.094  28.225  26.773  1.00  0.00     0.074 A 
ATOM     56  C   UNL A   1      45.663  28.024  25.414  1.00  0.00     0.031 C 
ATOM     57  C   UNL A   1      40.256  25.911  28.522  1.00  0.00     0.029 A 
ATOM     58  C   UNL A   1      40.823  27.195  28.885  1.00  0.00     0.049 A 
ATOM     59  H   UNL A   1      42.799  27.825  28.623  1.00  0.00     0.167 HD
ATOM     60  C   UNL A   1      46.740  29.264  27.376  1.00  0.00     0.037 A 
ATOM     61  C   UNL A   1      40.232  28.248  29.494  1.00  0.00     0.037 A 
ATOM     62  C   UNL A   1      46.972  28.980  28.772  1.00  0.00     0.049 A 
ATOM     63  C   UNL A   1      41.308  29.081  30.081  1.00  0.00     0.074 A 
ATOM     64  C   UNL A   1      47.682  28.030  29.478  1.00  0.00     0.029 A 
ATOM     65  N   UNL A   1      46.109  29.546  29.679  1.00  0.00    -0.354 N 
ATOM     66  N   UNL A   1      42.062  28.689  31.071  1.00  0.00    -0.248 NA
ATOM     67  C   UNL A   1      41.860  30.154  29.270  1.00  0.00     0.031 C 
ATOM     68  C   UNL A   1      46.878  27.743  30.622  1.00  0.00     0.029 A 
ATOM     69  C   UNL A   1      45.756  28.575  30.578  1.00  0.00     0.049 A 
ATOM     70  H   UNL A   1      45.799  30.480  29.681  1.00  0.00     0.167 HD
ATOM     71  C   UNL A   1      43.334  29.146  30.755  1.00  0.00     0.074 A 
ATOM     72  C   UNL A   1      43.127  30.129  29.694  1.00  0.00     0.031 C 
ATOM     73  C   UNL A   1      44.448  28.479  31.184  1.00  0.00     0.037 A 
BRANCH  60  74
ATOM     74  C   UNL A   1      46.806  30.682  26.845  1.00  0.00     0.057 A 
ATOM     75  C   UNL A   1      45.686  31.504  26.618  1.00  0.00     0.134 A 
ATOM     76  C   UNL A   1      48.041  31.362  26.879  1.00  0.00     0.134 A 
ATOM     77  F   UNL A   1      44.437  31.030  26.580  1.00  0.00    -0.206 F 
ATOM     78  C   UNL A   1      45.775  32.897  26.512  1.00  0.00     0.040 A 
ATOM     79  C   UNL A   1      48.137  32.759  26.822  1.00  0.00     0.040 A 
ATOM     80  F   UNL A   1      49.191  30.696  27.064  1.00  0.00    -0.206 F 
ATOM     81  C   UNL A   1      46.997  33.533  26.658  1.00  0.00     0.006 A 
ENDBRANCH  60  74
BRANCH  61  82
ATOM     82  C   UNL A   1      38.830  28.689  29.370  1.00  0.00     0.057 A 
ATOM     83  C   UNL A   1      38.375  29.322  28.200  1.00  0.00     0.134 A 
ATOM     84  C   UNL A   1      37.969  28.727  30.472  1.00  0.00     0.134 A 
ATOM     85  F   UNL A   1      39.158  29.408  27.113  1.00  0.00    -0.206 F 
ATOM     86  C   UNL A   1      37.137  29.965  28.129  1.00  0.00     0.040 A 
ATOM     87  C   UNL A   1      36.726  29.371  30.416  1.00  0.00     0.040 A 
ATOM     88  F   UNL A   1      38.336  28.184  31.641  1.00  0.00    -0.206 F 
ATOM     89  C   UNL A   1      36.311  30.001  29.246  1.00  0.00     0.006 A 
ENDBRANCH  61  82
BRANCH  73  90
ATOM     90  C   UNL A   1      44.249  27.391  32.205  1.00  0.00     0.057 A 
ATOM     91  C   UNL A   1      44.253  27.723  33.563  1.00  0.00     0.134 A 
ATOM     92  C   UNL A   1      44.183  26.025  31.891  1.00  0.00     0.134 A 
ATOM     93  F   UNL A   1      44.378  29.003  33.945  1.00  0.00    -0.206 F 
ATOM     94  C   UNL A   1      44.170  26.748  34.560  1.00  0.00     0.040 A 
ATOM     95  C   UNL A   1      44.067  25.040  32.876  1.00  0.00     0.040 A 
ATOM     96  F   UNL A   1      44.280  25.600  30.628  1.00  0.00    -0.206 F 
ATOM     97  C   UNL A   1      44.063  25.401  34.218  1.00  0.00     0.006 A 
ENDBRANCH  73  90
ENDBRANCH  47  48
ENDBRANCH  39  42
ENDBRANCH  37  38
ENDBRANCH  36  37
ENDBRANCH   1  36
TORSDOF 16
ENDMDL
MODEL 2
REMARK VINA RESULT:     -12.9      2.963      8.077
REMARK SMILES C[C@@]1(Oc2c[nH]c3ccc(Br)c(Cl)c23)O[C@@H](C(=O)NCCCCNC(=O)c2ccc(-c3c4nc(c(-c5c(F)cccc5F)c5ccc([nH]5)c(-c5c(F)cccc5F)c5nc(c(-c6c(F)cccc6F)c6ccc3[nH]6)C=C5)C=C4)cc2)[C@@](C)(O)[C@@](C)(O)[C@@]1(C)O
REMARK SMILES IDX 21 1 20 2 19 3 17 4 18 5 16 7 1 8 2 9 15 10 87 11 84 12
REMARK SMILES IDX 88 13 81 14 85 15 82 16 3 17 4 18 5 19 14 20 6 21 7 22 12 23
REMARK SMILES IDX 8 25 10 26 13 27 9 28 11 29 89 30 86 32 83 34 22 36 23 37
REMARK SMILES IDX 24 38 25 39 26 41 27 42 28 43 80 44 29 45 79 46 30 47 31 48
REMARK SMILES IDX 32 49 73 50 33 51 78 52 72 53 74 54 34 55 77 56 71 57 70 58
REMARK SMILES IDX 35 60 61 61 44 62 60 63 45 64 48 65 59 66 75 67 46 68 47 69
REMARK SMILES IDX 58 71 76 72 49 73 36 74 37 75 42 76 38 77 39 78 41 79 43 80
REMARK SMILES IDX 40 81 62 82 63 83 68 84 64 85 65 86 67 87 69 88 66 89 50 90
REMARK SMILES IDX 51 91 56 92 52 93 53 94 55 95 57 96 54 97
REMARK H PARENT 19 6 6 24 89 31 86 33 83 35 24 40 74 59 48 70
REMARK Flexibility Score: inf
ROOT
ATOM      1  C   UNL A   1      32.906  30.624  27.256  1.00  0.00     0.023 C 
ENDROOT
BRANCH   1   2
ATOM      2  C   UNL A   1      34.074  29.703  26.848  1.00  0.00     0.116 C 
BRANCH   2   3
ATOM      3  N   UNL A   1      34.206  29.314  25.428  1.00  0.00    -0.354 N 
ATOM      4  C   UNL A   1      33.338  29.078  24.385  1.00  0.00     0.252 C 
ATOM      5  O   UNL A   1      33.827  29.355  23.274  1.00  0.00    -0.272 OA
ATOM      6  H   UNL A   1      35.146  29.191  25.163  1.00  0.00     0.163 HD
BRANCH   4   7
ATOM      7  C   UNL A   1      31.866  28.396  24.401  1.00  0.00     0.246 C 
ATOM      8  C   UNL A   1      33.138  26.327  26.246  1.00  0.00     0.094 C 
ATOM      9  C   UNL A   1      31.914  26.101  25.336  1.00  0.00     0.240 C 
ATOM     10  O   UNL A   1      31.337  27.452  25.364  1.00  0.00    -0.322 OA
ATOM     11  C   UNL A   1      31.689  25.659  23.814  1.00  0.00     0.158 C 
ATOM     12  C   UNL A   1      31.909  26.673  22.629  1.00  0.00     0.128 C 
ATOM     13  C   UNL A   1      30.212  25.161  23.737  1.00  0.00     0.053 C 
ATOM     14  C   UNL A   1      31.380  28.070  22.945  1.00  0.00     0.129 C 
ATOM     15  C   UNL A   1      31.517  26.084  21.248  1.00  0.00     0.049 C 
ATOM     16  C   UNL A   1      29.865  28.226  22.751  1.00  0.00     0.049 C 
BRANCH   9  17
ATOM     17  O   UNL A   1      31.194  25.178  26.238  1.00  0.00    -0.457 OA
BRANCH  17  18
ATOM     18  C   UNL A   1      31.453  23.830  26.443  1.00  0.00     0.150 A 
ATOM     19  C   UNL A   1      30.326  23.078  26.715  1.00  0.00     0.130 A 
ATOM     20  C   UNL A   1      32.465  22.832  26.083  1.00  0.00     0.061 A 
ATOM     21  N   UNL A   1      30.499  21.833  26.170  1.00  0.00    -0.358 N 
ATOM     22  C   UNL A   1      31.720  21.768  25.552  1.00  0.00     0.051 A 
ATOM     23  C   UNL A   1      33.857  22.671  25.906  1.00  0.00     0.068 A 
ATOM     24  H   UNL A   1      29.844  21.097  26.215  1.00  0.00     0.166 HD
ATOM     25  C   UNL A   1      32.227  20.861  24.603  1.00  0.00     0.028 A 
ATOM     26  C   UNL A   1      34.387  21.883  24.873  1.00  0.00     0.037 A 
ATOM     27  Cl  UNL A   1      34.798  23.287  27.199  1.00  0.00    -0.082 Cl
ATOM     28  C   UNL A   1      33.548  21.023  24.180  1.00  0.00     0.019 A 
ATOM     29  Br  UNL A   1      36.202  22.004  24.329  1.00  0.00    -0.049 Br
ENDBRANCH  17  18
ENDBRANCH   9  17
BRANCH  11  30
ATOM     30  O   UNL A   1      32.548  24.613  23.437  1.00  0.00    -0.380 OA
ATOM     31  H   UNL A   1      33.461  24.939  23.404  1.00  0.00     0.211 HD
ENDBRANCH  11  30
BRANCH  12  32
ATOM     32  O   UNL A   1      33.313  26.853  22.392  1.00  0.00    -0.384 OA
ATOM     33  H   UNL A   1      33.513  27.802  22.339  1.00  0.00     0.211 HD
ENDBRANCH  12  32
BRANCH  14  34
ATOM     34  O   UNL A   1      31.975  28.990  21.993  1.00  0.00    -0.384 OA
ATOM     35  H   UNL A   1      31.486  29.829  22.004  1.00  0.00     0.211 HD
ENDBRANCH  14  34
ENDBRANCH   4   7
ENDBRANCH   2   3
ENDBRANCH   1   2
BRANCH   1  36
ATOM     36  C   UNL A   1      33.214  32.122  27.369  1.00  0.00     0.023 C 
BRANCH  36  37
ATOM     37  C   UNL A   1      34.531  32.484  28.047  1.00  0.00     0.116 C 
BRANCH  37  38
ATOM     38  N   UNL A   1      34.460  32.725  29.487  1.00  0.00    -0.352 N 
ATOM     39  C   UNL A   1      35.242  32.115  30.458  1.00  0.00     0.251 C 
ATOM     40  H   UNL A   1      33.794  33.382  29.797  1.00  0.00     0.163 HD
ATOM     41  O   UNL A   1      34.962  32.142  31.652  1.00  0.00    -0.269 OA
BRANCH  39  42
ATOM     42  C   UNL A   1      36.458  31.426  30.002  1.00  0.00     0.039 A 
ATOM     43  C   UNL A   1      37.664  32.116  29.870  1.00  0.00     0.014 A 
ATOM     44  C   UNL A   1      36.391  30.038  29.878  1.00  0.00     0.014 A 
ATOM     45  C   UNL A   1      38.836  31.380  29.747  1.00  0.00     0.010 A 
ATOM     46  C   UNL A   1      37.555  29.315  29.898  1.00  0.00     0.010 A 
ATOM     47  C   UNL A   1      38.776  29.979  29.809  1.00  0.00    -0.014 A 
BRANCH  47  48
ATOM     48  C   UNL A   1      40.001  29.197  29.888  1.00  0.00     0.031 A 
ATOM     49  C   UNL A   1      40.566  29.015  31.256  1.00  0.00     0.074 A 
ATOM     50  C   UNL A   1      40.484  28.513  28.833  1.00  0.00     0.049 A 
ATOM     51  N   UNL A   1      41.658  29.514  31.732  1.00  0.00    -0.248 NA
ATOM     52  C   UNL A   1      39.768  28.283  32.252  1.00  0.00     0.031 C 
ATOM     53  C   UNL A   1      39.886  28.332  27.505  1.00  0.00     0.029 A 
ATOM     54  N   UNL A   1      41.609  27.754  28.764  1.00  0.00    -0.354 N 
ATOM     55  C   UNL A   1      41.796  29.003  33.022  1.00  0.00     0.074 A 
ATOM     56  C   UNL A   1      40.530  28.395  33.343  1.00  0.00     0.031 C 
ATOM     57  C   UNL A   1      40.542  27.356  26.840  1.00  0.00     0.029 A 
ATOM     58  C   UNL A   1      41.706  26.981  27.618  1.00  0.00     0.049 A 
ATOM     59  H   UNL A   1      42.296  27.754  29.468  1.00  0.00     0.167 HD
ATOM     60  C   UNL A   1      43.018  28.926  33.623  1.00  0.00     0.037 A 
ATOM     61  C   UNL A   1      42.680  26.090  27.321  1.00  0.00     0.037 A 
ATOM     62  C   UNL A   1      43.981  29.745  32.927  1.00  0.00     0.049 A 
ATOM     63  C   UNL A   1      43.858  26.428  28.154  1.00  0.00     0.074 A 
ATOM     64  C   UNL A   1      44.115  31.092  32.657  1.00  0.00     0.029 A 
ATOM     65  N   UNL A   1      44.839  29.108  32.063  1.00  0.00    -0.354 N 
ATOM     66  N   UNL A   1      44.553  27.523  28.007  1.00  0.00    -0.248 NA
ATOM     67  C   UNL A   1      43.983  25.785  29.452  1.00  0.00     0.031 C 
ATOM     68  C   UNL A   1      44.662  31.151  31.339  1.00  0.00     0.029 A 
ATOM     69  C   UNL A   1      44.885  29.842  30.908  1.00  0.00     0.049 A 
ATOM     70  H   UNL A   1      45.330  28.274  32.242  1.00  0.00     0.167 HD
ATOM     71  C   UNL A   1      44.849  27.935  29.298  1.00  0.00     0.074 A 
ATOM     72  C   UNL A   1      44.566  26.773  30.138  1.00  0.00     0.031 C 
ATOM     73  C   UNL A   1      45.021  29.259  29.592  1.00  0.00     0.037 A 
BRANCH  60  74
ATOM     74  C   UNL A   1      43.463  27.828  34.569  1.00  0.00     0.057 A 
ATOM     75  C   UNL A   1      43.490  27.944  35.972  1.00  0.00     0.134 A 
ATOM     76  C   UNL A   1      43.548  26.507  34.082  1.00  0.00     0.134 A 
ATOM     77  F   UNL A   1      43.394  29.118  36.603  1.00  0.00    -0.206 F 
ATOM     78  C   UNL A   1      43.518  26.834  36.824  1.00  0.00     0.040 A 
ATOM     79  C   UNL A   1      43.527  25.389  34.926  1.00  0.00     0.040 A 
ATOM     80  F   UNL A   1      43.556  26.256  32.765  1.00  0.00    -0.206 F 
ATOM     81  C   UNL A   1      43.492  25.551  36.303  1.00  0.00     0.006 A 
ENDBRANCH  60  74
BRANCH  61  82
ATOM     82  C   UNL A   1      42.549  24.835  26.558  1.00  0.00     0.057 A 
ATOM     83  C   UNL A   1      41.844  23.740  27.088  1.00  0.00     0.134 A 
ATOM     84  C   UNL A   1      43.309  24.587  25.410  1.00  0.00     0.134 A 
ATOM     85  F   UNL A   1      41.148  23.855  28.230  1.00  0.00    -0.206 F 
ATOM     86  C   UNL A   1      41.897  22.467  26.516  1.00  0.00     0.040 A 
ATOM     87  C   UNL A   1      43.374  23.314  24.828  1.00  0.00     0.040 A 
ATOM     88  F   UNL A   1      44.046  25.561  24.858  1.00  0.00    -0.206 F 
ATOM     89  C   UNL A   1      42.675  22.248  25.386  1.00  0.00     0.006 A 
ENDBRANCH  61  82
BRANCH  73  90
ATOM     90  C   UNL A   1      45.124  30.215  28.434  1.00  0.00     0.057 A 
ATOM     91  C   UNL A   1      46.388  30.565  27.951  1.00  0.00     0.134 A 
ATOM     92  C   UNL A   1      44.028  30.886  27.872  1.00  0.00     0.134 A 
ATOM     93  F   UNL A   1      47.491  30.014  28.483  1.00  0.00    -0.206 F 
ATOM     94  C   UNL A   1      46.555  31.518  26.944  1.00  0.00     0.040 A 
ATOM     95  C   UNL A   1      44.175  31.818  26.840  1.00  0.00     0.040 A 
ATOM     96  F   UNL A   1      42.789  30.699  28.338  1.00  0.00    -0.206 F 
ATOM     97  C   UNL A   1      45.445  32.140  26.375  1.00  0.00     0.006 A 
ENDBRANCH  73  90
ENDBRANCH  47  48
ENDBRANCH  39  42
ENDBRANCH  37  38
ENDBRANCH  36  37
ENDBRANCH   1  36
TORSDOF 16
ENDMDL
MODEL 3
REMARK VINA RESULT:     -12.9      2.827      7.969
REMARK SMILES C[C@@]1(Oc2c[nH]c3ccc(Br)c(Cl)c23)O[C@@H](C(=O)NCCCCNC(=O)c2ccc(-c3c4nc(c(-c5c(F)cccc5F)c5ccc([nH]5)c(-c5c(F)cccc5F)c5nc(c(-c6c(F)cccc6F)c6ccc3[nH]6)C=C5)C=C4)cc2)[C@@](C)(O)[C@@](C)(O)[C@@]1(C)O
REMARK SMILES IDX 21 1 20 2 19 3 17 4 18 5 16 7 1 8 2 9 15 10 87 11 84 12
REMARK SMILES IDX 88 13 81 14 85 15 82 16 3 17 4 18 5 19 14 20 6 21 7 22 12 23
REMARK SMILES IDX 8 25 10 26 13 27 9 28 11 29 89 30 86 32 83 34 22 36 23 37
REMARK SMILES IDX 24 38 25 39 26 41 27 42 28 43 80 44 29 45 79 46 30 47 31 48
REMARK SMILES IDX 32 49 73 50 33 51 78 52 72 53 74 54 34 55 77 56 71 57 70 58
REMARK SMILES IDX 35 60 61 61 44 62 60 63 45 64 48 65 59 66 75 67 46 68 47 69
REMARK SMILES IDX 58 71 76 72 49 73 36 74 37 75 42 76 38 77 39 78 41 79 43 80
REMARK SMILES IDX 40 81 62 82 63 83 68 84 64 85 65 86 67 87 69 88 66 89 50 90
REMARK SMILES IDX 51 91 56 92 52 93 53 94 55 95 57 96 54 97
REMARK H PARENT 19 6 6 24 89 31 86 33 83 35 24 40 74 59 48 70
REMARK Flexibility Score: inf
ROOT
ATOM      1  C   UNL A   1      32.681  29.960  27.295  1.00  0.00     0.023 C 
ENDROOT
BRANCH   1   2
ATOM      2  C   UNL A   1      33.841  28.944  27.317  1.00  0.00     0.116 C 
BRANCH   2   3
ATOM      3  N   UNL A   1      34.262  28.323  26.044  1.00  0.00    -0.354 N 
ATOM      4  C   UNL A   1      33.693  27.468  25.128  1.00  0.00     0.252 C 
ATOM      5  O   UNL A   1      34.103  27.654  23.967  1.00  0.00    -0.272 OA
ATOM      6  H   UNL A   1      35.177  28.585  25.788  1.00  0.00     0.163 HD
BRANCH   4   7
ATOM      7  C   UNL A   1      32.692  26.214  25.369  1.00  0.00     0.246 C 
ATOM      8  C   UNL A   1      34.398  24.794  23.276  1.00  0.00     0.094 C 
ATOM      9  C   UNL A   1      32.924  24.486  23.606  1.00  0.00     0.240 C 
ATOM     10  O   UNL A   1      32.918  24.822  25.036  1.00  0.00    -0.322 OA
ATOM     11  C   UNL A   1      31.504  25.040  23.115  1.00  0.00     0.158 C 
ATOM     12  C   UNL A   1      30.939  26.415  23.637  1.00  0.00     0.128 C 
ATOM     13  C   UNL A   1      30.469  23.934  23.495  1.00  0.00     0.053 C 
ATOM     14  C   UNL A   1      31.198  26.629  25.126  1.00  0.00     0.129 C 
ATOM     15  C   UNL A   1      29.499  26.706  23.139  1.00  0.00     0.049 C 
ATOM     16  C   UNL A   1      30.200  25.911  26.046  1.00  0.00     0.049 C 
BRANCH   9  17
ATOM     17  O   UNL A   1      32.997  23.028  23.385  1.00  0.00    -0.457 OA
BRANCH  17  18
ATOM     18  C   UNL A   1      33.358  22.054  24.306  1.00  0.00     0.150 A 
ATOM     19  C   UNL A   1      32.515  20.959  24.326  1.00  0.00     0.130 A 
ATOM     20  C   UNL A   1      34.559  21.587  25.006  1.00  0.00     0.061 A 
ATOM     21  N   UNL A   1      33.263  19.846  24.605  1.00  0.00    -0.358 N 
ATOM     22  C   UNL A   1      34.575  20.204  24.769  1.00  0.00     0.051 A 
ATOM     23  C   UNL A   1      35.742  22.053  25.622  1.00  0.00     0.068 A 
ATOM     24  H   UNL A   1      32.910  18.929  24.677  1.00  0.00     0.166 HD
ATOM     25  C   UNL A   1      35.751  19.432  24.749  1.00  0.00     0.028 A 
ATOM     26  C   UNL A   1      36.962  21.371  25.494  1.00  0.00     0.037 A 
ATOM     27  Cl  UNL A   1      35.491  23.338  26.727  1.00  0.00    -0.082 Cl
ATOM     28  C   UNL A   1      36.965  20.078  24.995  1.00  0.00     0.019 A 
ATOM     29  Br  UNL A   1      38.629  22.182  25.908  1.00  0.00    -0.049 Br
ENDBRANCH  17  18
ENDBRANCH   9  17
BRANCH  11  30
ATOM     30  O   UNL A   1      31.470  25.244  21.725  1.00  0.00    -0.380 OA
ATOM     31  H   UNL A   1      30.839  25.950  21.518  1.00  0.00     0.211 HD
ENDBRANCH  11  30
BRANCH  12  32
ATOM     32  O   UNL A   1      31.613  27.501  22.983  1.00  0.00    -0.384 OA
ATOM     33  H   UNL A   1      31.109  27.768  22.197  1.00  0.00     0.211 HD
ENDBRANCH  12  32
BRANCH  14  34
ATOM     34  O   UNL A   1      31.013  28.042  25.405  1.00  0.00    -0.384 OA
ATOM     35  H   UNL A   1      30.654  28.482  24.617  1.00  0.00     0.211 HD
ENDBRANCH  14  34
ENDBRANCH   4   7
ENDBRANCH   2   3
ENDBRANCH   1   2
BRANCH   1  36
ATOM     36  C   UNL A   1      33.063  31.446  27.297  1.00  0.00     0.023 C 
BRANCH  36  37
ATOM     37  C   UNL A   1      34.426  31.784  27.889  1.00  0.00     0.116 C 
BRANCH  37  38
ATOM     38  N   UNL A   1      34.420  32.229  29.281  1.00  0.00    -0.352 N 
ATOM     39  C   UNL A   1      35.265  31.781  30.287  1.00  0.00     0.251 C 
ATOM     40  H   UNL A   1      33.754  32.912  29.529  1.00  0.00     0.163 HD
ATOM     41  O   UNL A   1      35.045  31.975  31.479  1.00  0.00    -0.269 OA
BRANCH  39  42
ATOM     42  C   UNL A   1      36.474  31.055  29.871  1.00  0.00     0.039 A 
ATOM     43  C   UNL A   1      37.667  31.737  29.620  1.00  0.00     0.014 A 
ATOM     44  C   UNL A   1      36.422  29.662  29.907  1.00  0.00     0.014 A 
ATOM     45  C   UNL A   1      38.843  31.003  29.542  1.00  0.00     0.010 A 
ATOM     46  C   UNL A   1      37.595  28.956  29.969  1.00  0.00     0.010 A 
ATOM     47  C   UNL A   1      38.804  29.617  29.765  1.00  0.00    -0.014 A 
BRANCH  47  48
ATOM     48  C   UNL A   1      40.041  28.861  29.890  1.00  0.00     0.031 A 
ATOM     49  C   UNL A   1      40.593  28.747  31.270  1.00  0.00     0.074 A 
ATOM     50  C   UNL A   1      40.547  28.140  28.870  1.00  0.00     0.049 A 
ATOM     51  N   UNL A   1      41.672  29.284  31.735  1.00  0.00    -0.248 NA
ATOM     52  C   UNL A   1      39.797  28.045  32.288  1.00  0.00     0.031 C 
ATOM     53  C   UNL A   1      39.966  27.893  27.545  1.00  0.00     0.029 A 
ATOM     54  N   UNL A   1      41.685  27.399  28.845  1.00  0.00    -0.354 N 
ATOM     55  C   UNL A   1      41.804  28.832  33.047  1.00  0.00     0.074 A 
ATOM     56  C   UNL A   1      40.545  28.216  33.381  1.00  0.00     0.031 C 
ATOM     57  C   UNL A   1      40.646  26.901  26.929  1.00  0.00     0.029 A 
ATOM     58  C   UNL A   1      41.808  26.579  27.734  1.00  0.00     0.049 A 
ATOM     59  H   UNL A   1      42.364  27.441  29.556  1.00  0.00     0.167 HD
ATOM     60  C   UNL A   1      43.020  28.802  33.663  1.00  0.00     0.037 A 
ATOM     61  C   UNL A   1      42.800  25.693  27.486  1.00  0.00     0.037 A 
ATOM     62  C   UNL A   1      43.978  29.607  32.943  1.00  0.00     0.049 A 
ATOM     63  C   UNL A   1      43.962  26.087  28.316  1.00  0.00     0.074 A 
ATOM     64  C   UNL A   1      44.091  30.943  32.617  1.00  0.00     0.029 A 
ATOM     65  N   UNL A   1      44.855  28.948  32.116  1.00  0.00    -0.354 N 
ATOM     66  N   UNL A   1      44.641  27.186  28.129  1.00  0.00    -0.248 NA
ATOM     67  C   UNL A   1      44.084  25.502  29.641  1.00  0.00     0.031 C 
ATOM     68  C   UNL A   1      44.652  30.955  31.303  1.00  0.00     0.029 A 
ATOM     69  C   UNL A   1      44.902  29.632  30.931  1.00  0.00     0.049 A 
ATOM     70  H   UNL A   1      45.358  28.131  32.336  1.00  0.00     0.167 HD
ATOM     71  C   UNL A   1      44.915  27.658  29.404  1.00  0.00     0.074 A 
ATOM     72  C   UNL A   1      44.643  26.528  30.290  1.00  0.00     0.031 C 
ATOM     73  C   UNL A   1      45.062  28.996  29.643  1.00  0.00     0.037 A 
BRANCH  60  74
ATOM     74  C   UNL A   1      43.473  27.753  34.660  1.00  0.00     0.057 A 
ATOM     75  C   UNL A   1      43.535  27.947  36.053  1.00  0.00     0.134 A 
ATOM     76  C   UNL A   1      43.530  26.405  34.248  1.00  0.00     0.134 A 
ATOM     77  F   UNL A   1      43.469  29.157  36.618  1.00  0.00    -0.206 F 
ATOM     78  C   UNL A   1      43.569  26.887  36.967  1.00  0.00     0.040 A 
ATOM     79  C   UNL A   1      43.515  25.337  35.154  1.00  0.00     0.040 A 
ATOM     80  F   UNL A   1      43.504  26.080  32.947  1.00  0.00    -0.206 F 
ATOM     81  C   UNL A   1      43.514  25.577  36.521  1.00  0.00     0.006 A 
ENDBRANCH  60  74
BRANCH  61  82
ATOM     82  C   UNL A   1      42.698  24.404  26.776  1.00  0.00     0.057 A 
ATOM     83  C   UNL A   1      42.230  23.254  27.436  1.00  0.00     0.134 A 
ATOM     84  C   UNL A   1      43.282  24.206  25.521  1.00  0.00     0.134 A 
ATOM     85  F   UNL A   1      41.724  23.328  28.677  1.00  0.00    -0.206 F 
ATOM     86  C   UNL A   1      42.342  21.976  26.883  1.00  0.00     0.040 A 
ATOM     87  C   UNL A   1      43.405  22.930  24.956  1.00  0.00     0.040 A 
ATOM     88  F   UNL A   1      43.793  25.240  24.837  1.00  0.00    -0.206 F 
ATOM     89  C   UNL A   1      42.943  21.809  25.642  1.00  0.00     0.006 A 
ENDBRANCH  61  82
BRANCH  73  90
ATOM     90  C   UNL A   1      45.162  29.903  28.445  1.00  0.00     0.057 A 
ATOM     91  C   UNL A   1      46.425  30.234  27.946  1.00  0.00     0.134 A 
ATOM     92  C   UNL A   1      44.064  30.549  27.858  1.00  0.00     0.134 A 
ATOM     93  F   UNL A   1      47.529  29.706  28.498  1.00  0.00    -0.206 F 
ATOM     94  C   UNL A   1      46.588  31.145  26.900  1.00  0.00     0.040 A 
ATOM     95  C   UNL A   1      44.209  31.438  26.789  1.00  0.00     0.040 A 
ATOM     96  F   UNL A   1      42.826  30.381  28.334  1.00  0.00    -0.206 F 
ATOM     97  C   UNL A   1      45.477  31.741  26.308  1.00  0.00     0.006 A 
ENDBRANCH  73  90
ENDBRANCH  47  48
ENDBRANCH  39  42
ENDBRANCH  37  38
ENDBRANCH  36  37
ENDBRANCH   1  36
TORSDOF 16
ENDMDL
