MODEL 1
REMARK VINA RESULT:     -11.6      0.000      0.000
REMARK SMILES O=C(NCCCCNC(=O)[C@H](c1ccc(Cl)cc1)[NH+]1CCCCC1)c1ccc(-c2c3nc(c(-c4c(F)cccc4F)c4ccc([nH]4)c(-c4c(F)cccc4F)c4nc(c(-c5c(F)cccc5F)c5ccc2[nH]5)C=C4)C=C3)cc1
REMARK SMILES IDX 5 1 4 2 3 3 1 4 2 5 25 7 26 8 78 9 27 10 77 11 28 12 29 13
REMARK SMILES IDX 30 14 71 15 31 16 76 17 70 18 72 19 32 20 75 21 69 22 68 23
REMARK SMILES IDX 33 25 59 26 42 27 58 28 43 29 46 30 57 31 73 32 44 33 45 34
REMARK SMILES IDX 56 36 74 37 47 38 34 39 35 40 40 41 36 42 37 43 39 44 41 45
REMARK SMILES IDX 38 46 60 47 61 48 66 49 62 50 63 51 65 52 67 53 64 54 48 55
REMARK SMILES IDX 49 56 54 57 50 58 51 59 53 60 55 61 52 62 6 63 7 64 8 65
REMARK SMILES IDX 9 66 10 68 11 69 19 70 20 71 24 72 21 74 23 75 22 76 12 77
REMARK SMILES IDX 13 78 18 79 14 80 17 81 15 82 16 83
REMARK H PARENT 3 6 72 24 46 35 8 67 19 73
REMARK Flexibility Score: inf
ROOT
ATOM      1  C   UNL A   1      37.813  19.505  24.953  1.00  0.00     0.023 C 
ENDROOT
BRANCH   1   2
ATOM      2  C   UNL A   1      39.002  20.002  25.751  1.00  0.00     0.116 C 
BRANCH   2   3
ATOM      3  N   UNL A   1      40.119  19.068  25.763  1.00  0.00    -0.352 N 
ATOM      4  O   UNL A   1      42.288  18.448  25.928  1.00  0.00    -0.269 OA
ATOM      5  C   UNL A   1      41.436  19.318  26.066  1.00  0.00     0.251 C 
ATOM      6  H   UNL A   1      39.904  18.138  25.524  1.00  0.00     0.163 HD
BRANCH   5   7
ATOM      7  C   UNL A   1      41.816  20.666  26.533  1.00  0.00     0.039 A 
ATOM      8  C   UNL A   1      41.794  20.968  27.896  1.00  0.00     0.014 A 
ATOM      9  C   UNL A   1      42.163  21.641  25.594  1.00  0.00     0.014 A 
ATOM     10  C   UNL A   1      41.981  22.277  28.312  1.00  0.00     0.010 A 
ATOM     11  C   UNL A   1      42.445  22.938  26.024  1.00  0.00     0.010 A 
ATOM     12  C   UNL A   1      42.338  23.267  27.383  1.00  0.00    -0.014 A 
BRANCH  12  13
ATOM     13  C   UNL A   1      42.712  24.612  27.876  1.00  0.00     0.031 A 
ATOM     14  C   UNL A   1      41.675  25.643  28.206  1.00  0.00     0.074 A 
ATOM     15  C   UNL A   1      44.023  24.886  28.013  1.00  0.00     0.049 A 
ATOM     16  N   UNL A   1      41.846  26.877  28.605  1.00  0.00    -0.248 NA
ATOM     17  C   UNL A   1      40.264  25.247  28.065  1.00  0.00     0.031 C 
ATOM     18  C   UNL A   1      45.113  23.955  27.700  1.00  0.00     0.029 A 
ATOM     19  N   UNL A   1      44.666  26.015  28.447  1.00  0.00    -0.354 N 
ATOM     20  C   UNL A   1      40.572  27.415  28.737  1.00  0.00     0.074 A 
ATOM     21  C   UNL A   1      39.634  26.376  28.368  1.00  0.00     0.031 C 
ATOM     22  C   UNL A   1      46.286  24.540  27.979  1.00  0.00     0.029 A 
ATOM     23  C   UNL A   1      46.035  25.906  28.420  1.00  0.00     0.049 A 
ATOM     24  H   UNL A   1      44.194  26.824  28.748  1.00  0.00     0.167 HD
ATOM     25  C   UNL A   1      40.228  28.664  29.129  1.00  0.00     0.037 A 
ATOM     26  C   UNL A   1      46.987  26.817  28.685  1.00  0.00     0.037 A 
ATOM     27  C   UNL A   1      41.174  29.677  29.522  1.00  0.00     0.049 A 
ATOM     28  C   UNL A   1      46.572  28.196  29.092  1.00  0.00     0.074 A 
ATOM     29  C   UNL A   1      40.922  30.945  30.017  1.00  0.00     0.029 A 
ATOM     30  N   UNL A   1      42.553  29.541  29.454  1.00  0.00    -0.354 N 
ATOM     31  N   UNL A   1      45.363  28.675  29.264  1.00  0.00    -0.248 NA
ATOM     32  C   UNL A   1      47.647  29.168  29.328  1.00  0.00     0.031 C 
ATOM     33  C   UNL A   1      42.149  31.593  30.205  1.00  0.00     0.029 A 
ATOM     34  C   UNL A   1      43.164  30.715  29.862  1.00  0.00     0.049 A 
ATOM     35  H   UNL A   1      43.026  28.729  29.160  1.00  0.00     0.167 HD
ATOM     36  C   UNL A   1      45.530  30.001  29.628  1.00  0.00     0.074 A 
ATOM     37  C   UNL A   1      46.959  30.245  29.678  1.00  0.00     0.031 C 
ATOM     38  C   UNL A   1      44.587  30.937  29.890  1.00  0.00     0.037 A 
BRANCH  25  39
ATOM     39  C   UNL A   1      38.773  29.025  29.138  1.00  0.00     0.057 A 
ATOM     40  C   UNL A   1      37.988  28.916  30.292  1.00  0.00     0.134 A 
ATOM     41  C   UNL A   1      38.171  29.567  27.994  1.00  0.00     0.134 A 
ATOM     42  F   UNL A   1      38.503  28.400  31.417  1.00  0.00    -0.206 F 
ATOM     43  C   UNL A   1      36.653  29.328  30.306  1.00  0.00     0.040 A 
ATOM     44  C   UNL A   1      36.843  29.997  28.001  1.00  0.00     0.040 A 
ATOM     45  F   UNL A   1      38.869  29.703  26.857  1.00  0.00    -0.206 F 
ATOM     46  C   UNL A   1      36.081  29.877  29.161  1.00  0.00     0.006 A 
ENDBRANCH  25  39
BRANCH  26  47
ATOM     47  C   UNL A   1      48.414  26.453  28.525  1.00  0.00     0.057 A 
ATOM     48  C   UNL A   1      49.090  26.678  27.323  1.00  0.00     0.134 A 
ATOM     49  C   UNL A   1      49.142  25.892  29.583  1.00  0.00     0.134 A 
ATOM     50  F   UNL A   1      48.442  27.199  26.271  1.00  0.00    -0.206 F 
ATOM     51  C   UNL A   1      50.439  26.353  27.174  1.00  0.00     0.040 A 
ATOM     52  C   UNL A   1      50.497  25.587  29.457  1.00  0.00     0.040 A 
ATOM     53  F   UNL A   1      48.550  25.663  30.765  1.00  0.00    -0.206 F 
ATOM     54  C   UNL A   1      51.148  25.812  28.245  1.00  0.00     0.006 A 
ENDBRANCH  26  47
BRANCH  38  55
ATOM     55  C   UNL A   1      45.077  32.306  30.248  1.00  0.00     0.057 A 
ATOM     56  C   UNL A   1      45.415  32.636  31.566  1.00  0.00     0.134 A 
ATOM     57  C   UNL A   1      45.239  33.290  29.266  1.00  0.00     0.134 A 
ATOM     58  F   UNL A   1      45.264  31.738  32.553  1.00  0.00    -0.206 F 
ATOM     59  C   UNL A   1      45.884  33.907  31.898  1.00  0.00     0.040 A 
ATOM     60  C   UNL A   1      45.727  34.557  29.583  1.00  0.00     0.040 A 
ATOM     61  F   UNL A   1      44.934  33.031  27.986  1.00  0.00    -0.206 F 
ATOM     62  C   UNL A   1      46.046  34.870  30.903  1.00  0.00     0.006 A 
ENDBRANCH  38  55
ENDBRANCH  12  13
ENDBRANCH   5   7
ENDBRANCH   2   3
ENDBRANCH   1   2
BRANCH   1  63
ATOM     63  C   UNL A   1      36.630  20.461  24.895  1.00  0.00     0.023 C 
BRANCH  63  64
ATOM     64  C   UNL A   1      36.908  21.890  25.352  1.00  0.00     0.116 C 
BRANCH  64  65
ATOM     65  N   UNL A   1      36.122  22.292  26.501  1.00  0.00    -0.351 N 
ATOM     66  C   UNL A   1      34.867  22.806  26.627  1.00  0.00     0.283 C 
ATOM     67  H   UNL A   1      36.587  22.169  27.361  1.00  0.00     0.163 HD
ATOM     68  O   UNL A   1      34.394  22.673  27.769  1.00  0.00    -0.268 OA
BRANCH  66  69
ATOM     69  C   UNL A   1      34.032  23.514  25.498  1.00  0.00     0.305 C 
BRANCH  69  70
ATOM     70  N   UNL A   1      33.144  22.546  24.759  1.00  0.00    -0.321 N 
ATOM     71  C   UNL A   1      33.215  22.591  23.297  1.00  0.00     0.263 C 
ATOM     72  C   UNL A   1      33.176  21.182  25.306  1.00  0.00     0.263 C 
ATOM     73  H   UNL A   1      32.210  22.907  24.953  1.00  0.00     0.349 HD
ATOM     74  C   UNL A   1      32.156  21.692  22.648  1.00  0.00     0.062 C 
ATOM     75  C   UNL A   1      32.153  20.244  24.664  1.00  0.00     0.062 C 
ATOM     76  C   UNL A   1      32.272  20.262  23.147  1.00  0.00     0.012 C 
ENDBRANCH  69  70
BRANCH  69  77
ATOM     77  C   UNL A   1      33.396  24.868  25.821  1.00  0.00     0.019 A 
ATOM     78  C   UNL A   1      32.045  25.009  26.173  1.00  0.00     0.012 A 
ATOM     79  C   UNL A   1      34.186  26.035  25.751  1.00  0.00     0.012 A 
ATOM     80  C   UNL A   1      31.510  26.259  26.501  1.00  0.00     0.021 A 
ATOM     81  C   UNL A   1      33.653  27.285  26.081  1.00  0.00     0.021 A 
ATOM     82  C   UNL A   1      32.320  27.389  26.465  1.00  0.00     0.041 A 
ATOM     83  Cl  UNL A   1      31.673  28.917  26.911  1.00  0.00    -0.084 Cl
ENDBRANCH  69  77
ENDBRANCH  66  69
ENDBRANCH  64  65
ENDBRANCH  63  64
ENDBRANCH   1  63
TORSDOF 13
ENDMDL
MODEL 2
REMARK VINA RESULT:     -11.6      5.312     11.421
REMARK SMILES O=C(NCCCCNC(=O)[C@H](c1ccc(Cl)cc1)[NH+]1CCCCC1)c1ccc(-c2c3nc(c(-c4c(F)cccc4F)c4ccc([nH]4)c(-c4c(F)cccc4F)c4nc(c(-c5c(F)cccc5F)c5ccc2[nH]5)C=C4)C=C3)cc1
REMARK SMILES IDX 5 1 4 2 3 3 1 4 2 5 25 7 26 8 78 9 27 10 77 11 28 12 29 13
REMARK SMILES IDX 30 14 71 15 31 16 76 17 70 18 72 19 32 20 75 21 69 22 68 23
REMARK SMILES IDX 33 25 59 26 42 27 58 28 43 29 46 30 57 31 73 32 44 33 45 34
REMARK SMILES IDX 56 36 74 37 47 38 34 39 35 40 40 41 36 42 37 43 39 44 41 45
REMARK SMILES IDX 38 46 60 47 61 48 66 49 62 50 63 51 65 52 67 53 64 54 48 55
REMARK SMILES IDX 49 56 54 57 50 58 51 59 53 60 55 61 52 62 6 63 7 64 8 65
REMARK SMILES IDX 9 66 10 68 11 69 19 70 20 71 24 72 21 74 23 75 22 76 12 77
REMARK SMILES IDX 13 78 18 79 14 80 17 81 15 82 16 83
REMARK H PARENT 3 6 72 24 46 35 8 67 19 73
REMARK Flexibility Score: inf
ROOT
ATOM      1  C   UNL A   1      33.299  35.631  32.473  1.00  0.00     0.023 C 
ENDROOT
BRANCH   1   2
ATOM      2  C   UNL A   1      33.518  36.271  31.116  1.00  0.00     0.116 C 
BRANCH   2   3
ATOM      3  N   UNL A   1      32.801  35.602  30.040  1.00  0.00    -0.352 N 
ATOM      4  O   UNL A   1      32.559  34.201  28.282  1.00  0.00    -0.269 OA
ATOM      5  C   UNL A   1      33.244  34.593  29.220  1.00  0.00     0.251 C 
ATOM      6  H   UNL A   1      31.881  35.912  29.880  1.00  0.00     0.163 HD
BRANCH   5   7
ATOM      7  C   UNL A   1      34.576  34.006  29.467  1.00  0.00     0.039 A 
ATOM      8  C   UNL A   1      35.676  34.419  28.712  1.00  0.00     0.014 A 
ATOM      9  C   UNL A   1      34.713  33.010  30.438  1.00  0.00     0.014 A 
ATOM     10  C   UNL A   1      36.881  33.744  28.829  1.00  0.00     0.010 A 
ATOM     11  C   UNL A   1      35.953  32.395  30.619  1.00  0.00     0.010 A 
ATOM     12  C   UNL A   1      37.038  32.747  29.803  1.00  0.00    -0.014 A 
BRANCH  12  13
ATOM     13  C   UNL A   1      38.383  32.172  30.030  1.00  0.00     0.031 A 
ATOM     14  C   UNL A   1      38.778  30.847  29.449  1.00  0.00     0.074 A 
ATOM     15  C   UNL A   1      39.246  32.876  30.788  1.00  0.00     0.049 A 
ATOM     16  N   UNL A   1      39.901  30.193  29.594  1.00  0.00    -0.248 NA
ATOM     17  C   UNL A   1      37.788  30.163  28.602  1.00  0.00     0.031 C 
ATOM     18  C   UNL A   1      38.951  34.169  31.415  1.00  0.00     0.029 A 
ATOM     19  N   UNL A   1      40.538  32.615  31.159  1.00  0.00    -0.354 N 
ATOM     20  C   UNL A   1      39.747  29.009  28.884  1.00  0.00     0.074 A 
ATOM     21  C   UNL A   1      38.417  29.030  28.312  1.00  0.00     0.031 C 
ATOM     22  C   UNL A   1      40.038  34.600  32.068  1.00  0.00     0.029 A 
ATOM     23  C   UNL A   1      41.078  33.585  31.967  1.00  0.00     0.049 A 
ATOM     24  H   UNL A   1      41.030  31.812  30.875  1.00  0.00     0.167 HD
ATOM     25  C   UNL A   1      40.639  28.003  28.732  1.00  0.00     0.037 A 
ATOM     26  C   UNL A   1      42.268  33.637  32.590  1.00  0.00     0.037 A 
ATOM     27  C   UNL A   1      41.970  28.012  29.283  1.00  0.00     0.049 A 
ATOM     28  C   UNL A   1      43.222  32.496  32.419  1.00  0.00     0.074 A 
ATOM     29  C   UNL A   1      42.979  27.080  29.113  1.00  0.00     0.029 A 
ATOM     30  N   UNL A   1      42.473  28.997  30.120  1.00  0.00    -0.354 N 
ATOM     31  N   UNL A   1      43.083  31.408  31.701  1.00  0.00    -0.248 NA
ATOM     32  C   UNL A   1      44.490  32.579  33.154  1.00  0.00     0.031 C 
ATOM     33  C   UNL A   1      44.077  27.478  29.885  1.00  0.00     0.029 A 
ATOM     34  C   UNL A   1      43.764  28.677  30.505  1.00  0.00     0.049 A 
ATOM     35  H   UNL A   1      41.983  29.806  30.397  1.00  0.00     0.167 HD
ATOM     36  C   UNL A   1      44.243  30.676  31.896  1.00  0.00     0.074 A 
ATOM     37  C   UNL A   1      45.087  31.456  32.780  1.00  0.00     0.031 C 
ATOM     38  C   UNL A   1      44.578  29.462  31.396  1.00  0.00     0.037 A 
BRANCH  25  39
ATOM     39  C   UNL A   1      40.213  26.793  27.956  1.00  0.00     0.057 A 
ATOM     40  C   UNL A   1      40.650  26.558  26.647  1.00  0.00     0.134 A 
ATOM     41  C   UNL A   1      39.417  25.809  28.559  1.00  0.00     0.134 A 
ATOM     42  F   UNL A   1      41.408  27.462  26.011  1.00  0.00    -0.206 F 
ATOM     43  C   UNL A   1      40.306  25.389  25.963  1.00  0.00     0.040 A 
ATOM     44  C   UNL A   1      39.081  24.630  27.891  1.00  0.00     0.040 A 
ATOM     45  F   UNL A   1      38.969  25.971  29.813  1.00  0.00    -0.206 F 
ATOM     46  C   UNL A   1      39.526  24.418  26.589  1.00  0.00     0.006 A 
ENDBRANCH  25  39
BRANCH  26  47
ATOM     47  C   UNL A   1      42.589  34.791  33.462  1.00  0.00     0.057 A 
ATOM     48  C   UNL A   1      43.047  35.999  32.928  1.00  0.00     0.134 A 
ATOM     49  C   UNL A   1      42.419  34.719  34.851  1.00  0.00     0.134 A 
ATOM     50  F   UNL A   1      43.242  36.122  31.607  1.00  0.00    -0.206 F 
ATOM     51  C   UNL A   1      43.333  37.094  33.745  1.00  0.00     0.040 A 
ATOM     52  C   UNL A   1      42.676  35.814  35.676  1.00  0.00     0.040 A 
ATOM     53  F   UNL A   1      41.972  33.590  35.420  1.00  0.00    -0.206 F 
ATOM     54  C   UNL A   1      43.141  37.005  35.122  1.00  0.00     0.006 A 
ENDBRANCH  26  47
BRANCH  38  55
ATOM     55  C   UNL A   1      45.910  28.912  31.800  1.00  0.00     0.057 A 
ATOM     56  C   UNL A   1      46.045  28.073  32.913  1.00  0.00     0.134 A 
ATOM     57  C   UNL A   1      47.060  29.199  31.055  1.00  0.00     0.134 A 
ATOM     58  F   UNL A   1      44.980  27.778  33.675  1.00  0.00    -0.206 F 
ATOM     59  C   UNL A   1      47.284  27.550  33.281  1.00  0.00     0.040 A 
ATOM     60  C   UNL A   1      48.300  28.664  31.402  1.00  0.00     0.040 A 
ATOM     61  F   UNL A   1      46.992  29.993  29.977  1.00  0.00    -0.206 F 
ATOM     62  C   UNL A   1      48.416  27.842  32.521  1.00  0.00     0.006 A 
ENDBRANCH  38  55
ENDBRANCH  12  13
ENDBRANCH   5   7
ENDBRANCH   2   3
ENDBRANCH   1   2
BRANCH   1  63
ATOM     63  C   UNL A   1      34.409  35.869  33.486  1.00  0.00     0.023 C 
BRANCH  63  64
ATOM     64  C   UNL A   1      35.485  34.789  33.557  1.00  0.00     0.116 C 
BRANCH  64  65
ATOM     65  N   UNL A   1      35.495  34.065  34.812  1.00  0.00    -0.351 N 
ATOM     66  C   UNL A   1      36.503  33.616  35.611  1.00  0.00     0.283 C 
ATOM     67  H   UNL A   1      34.596  33.856  35.155  1.00  0.00     0.163 HD
ATOM     68  O   UNL A   1      36.138  33.377  36.775  1.00  0.00    -0.268 OA
BRANCH  66  69
ATOM     69  C   UNL A   1      38.001  33.393  35.186  1.00  0.00     0.305 C 
BRANCH  69  70
ATOM     70  N   UNL A   1      38.964  33.796  36.274  1.00  0.00    -0.321 N 
ATOM     71  C   UNL A   1      38.932  35.204  36.676  1.00  0.00     0.263 C 
ATOM     72  C   UNL A   1      38.994  32.863  37.410  1.00  0.00     0.263 C 
ATOM     73  H   UNL A   1      39.870  33.711  35.813  1.00  0.00     0.349 HD
ATOM     74  C   UNL A   1      40.059  35.540  37.659  1.00  0.00     0.062 C 
ATOM     75  C   UNL A   1      40.087  33.181  38.430  1.00  0.00     0.062 C 
ATOM     76  C   UNL A   1      40.011  34.634  38.878  1.00  0.00     0.012 C 
ENDBRANCH  69  70
BRANCH  69  77
ATOM     77  C   UNL A   1      38.350  32.098  34.451  1.00  0.00     0.019 A 
ATOM     78  C   UNL A   1      39.636  31.534  34.472  1.00  0.00     0.012 A 
ATOM     79  C   UNL A   1      37.353  31.440  33.702  1.00  0.00     0.012 A 
ATOM     80  C   UNL A   1      39.906  30.327  33.820  1.00  0.00     0.021 A 
ATOM     81  C   UNL A   1      37.620  30.231  33.052  1.00  0.00     0.021 A 
ATOM     82  C   UNL A   1      38.894  29.675  33.123  1.00  0.00     0.041 A 
ATOM     83  Cl  UNL A   1      39.216  28.169  32.360  1.00  0.00    -0.084 Cl
ENDBRANCH  69  77
ENDBRANCH  66  69
ENDBRANCH  64  65
ENDBRANCH  63  64
ENDBRANCH   1  63
TORSDOF 13
ENDMDL
MODEL 3
REMARK VINA RESULT:     -11.6      5.087      9.785
REMARK SMILES O=C(NCCCCNC(=O)[C@H](c1ccc(Cl)cc1)[NH+]1CCCCC1)c1ccc(-c2c3nc(c(-c4c(F)cccc4F)c4ccc([nH]4)c(-c4c(F)cccc4F)c4nc(c(-c5c(F)cccc5F)c5ccc2[nH]5)C=C4)C=C3)cc1
REMARK SMILES IDX 5 1 4 2 3 3 1 4 2 5 25 7 26 8 78 9 27 10 77 11 28 12 29 13
REMARK SMILES IDX 30 14 71 15 31 16 76 17 70 18 72 19 32 20 75 21 69 22 68 23
REMARK SMILES IDX 33 25 59 26 42 27 58 28 43 29 46 30 57 31 73 32 44 33 45 34
REMARK SMILES IDX 56 36 74 37 47 38 34 39 35 40 40 41 36 42 37 43 39 44 41 45
REMARK SMILES IDX 38 46 60 47 61 48 66 49 62 50 63 51 65 52 67 53 64 54 48 55
REMARK SMILES IDX 49 56 54 57 50 58 51 59 53 60 55 61 52 62 6 63 7 64 8 65
REMARK SMILES IDX 9 66 10 68 11 69 19 70 20 71 24 72 21 74 23 75 22 76 12 77
REMARK SMILES IDX 13 78 18 79 14 80 17 81 15 82 16 83
REMARK H PARENT 3 6 72 24 46 35 8 67 19 73
REMARK Flexibility Score: inf
ROOT
ATOM      1  C   UNL A   1      31.353  32.301  26.537  1.00  0.00     0.023 C 
ENDROOT
BRANCH   1   2
ATOM      2  C   UNL A   1      32.629  32.823  27.167  1.00  0.00     0.116 C 
BRANCH   2   3
ATOM      3  N   UNL A   1      32.524  34.200  27.627  1.00  0.00    -0.352 N 
ATOM      4  O   UNL A   1      33.000  35.978  28.942  1.00  0.00    -0.269 OA
ATOM      5  C   UNL A   1      33.277  34.839  28.582  1.00  0.00     0.251 C 
ATOM      6  H   UNL A   1      31.825  34.744  27.198  1.00  0.00     0.163 HD
BRANCH   5   7
ATOM      7  C   UNL A   1      34.410  34.119  29.196  1.00  0.00     0.039 A 
ATOM      8  C   UNL A   1      35.714  34.356  28.753  1.00  0.00     0.014 A 
ATOM      9  C   UNL A   1      34.159  33.175  30.195  1.00  0.00     0.014 A 
ATOM     10  C   UNL A   1      36.750  33.555  29.209  1.00  0.00     0.010 A 
ATOM     11  C   UNL A   1      35.218  32.435  30.721  1.00  0.00     0.010 A 
ATOM     12  C   UNL A   1      36.516  32.608  30.217  1.00  0.00    -0.014 A 
BRANCH  12  13
ATOM     13  C   UNL A   1      37.669  31.897  30.814  1.00  0.00     0.031 A 
ATOM     14  C   UNL A   1      38.432  30.858  30.049  1.00  0.00     0.074 A 
ATOM     15  C   UNL A   1      38.010  32.209  32.080  1.00  0.00     0.049 A 
ATOM     16  N   UNL A   1      39.435  30.119  30.448  1.00  0.00    -0.248 NA
ATOM     17  C   UNL A   1      38.016  30.607  28.659  1.00  0.00     0.031 C 
ATOM     18  C   UNL A   1      37.319  33.194  32.918  1.00  0.00     0.029 A 
ATOM     19  N   UNL A   1      39.015  31.739  32.882  1.00  0.00    -0.354 N 
ATOM     20  C   UNL A   1      39.753  29.297  29.375  1.00  0.00     0.074 A 
ATOM     21  C   UNL A   1      38.833  29.622  28.306  1.00  0.00     0.031 C 
ATOM     22  C   UNL A   1      37.937  33.275  34.104  1.00  0.00     0.029 A 
ATOM     23  C   UNL A   1      39.018  32.300  34.135  1.00  0.00     0.049 A 
ATOM     24  H   UNL A   1      39.671  31.065  32.590  1.00  0.00     0.167 HD
ATOM     25  C   UNL A   1      40.727  28.359  29.301  1.00  0.00     0.037 A 
ATOM     26  C   UNL A   1      39.784  32.034  35.208  1.00  0.00     0.037 A 
ATOM     27  C   UNL A   1      41.654  28.070  30.364  1.00  0.00     0.049 A 
ATOM     28  C   UNL A   1      40.835  30.974  35.098  1.00  0.00     0.074 A 
ATOM     29  C   UNL A   1      42.730  27.199  30.356  1.00  0.00     0.029 A 
ATOM     30  N   UNL A   1      41.609  28.638  31.630  1.00  0.00    -0.354 N 
ATOM     31  N   UNL A   1      41.160  30.241  34.061  1.00  0.00    -0.248 NA
ATOM     32  C   UNL A   1      41.615  30.689  36.309  1.00  0.00     0.031 C 
ATOM     33  C   UNL A   1      43.307  27.205  31.631  1.00  0.00     0.029 A 
ATOM     34  C   UNL A   1      42.614  28.107  32.422  1.00  0.00     0.049 A 
ATOM     35  H   UNL A   1      40.958  29.318  31.920  1.00  0.00     0.167 HD
ATOM     36  C   UNL A   1      42.181  29.410  34.490  1.00  0.00     0.074 A 
ATOM     37  C   UNL A   1      42.441  29.746  35.877  1.00  0.00     0.031 C 
ATOM     38  C   UNL A   1      42.842  28.448  33.802  1.00  0.00     0.037 A 
BRANCH  25  39
ATOM     39  C   UNL A   1      40.837  27.556  28.040  1.00  0.00     0.057 A 
ATOM     40  C   UNL A   1      41.637  27.965  26.967  1.00  0.00     0.134 A 
ATOM     41  C   UNL A   1      40.196  26.314  27.933  1.00  0.00     0.134 A 
ATOM     42  F   UNL A   1      42.272  29.145  27.004  1.00  0.00    -0.206 F 
ATOM     43  C   UNL A   1      41.791  27.170  25.828  1.00  0.00     0.040 A 
ATOM     44  C   UNL A   1      40.356  25.504  26.807  1.00  0.00     0.040 A 
ATOM     45  F   UNL A   1      39.419  25.862  28.928  1.00  0.00    -0.206 F 
ATOM     46  C   UNL A   1      41.156  25.932  25.751  1.00  0.00     0.006 A 
ENDBRANCH  25  39
BRANCH  26  47
ATOM     47  C   UNL A   1      39.542  32.757  36.478  1.00  0.00     0.057 A 
ATOM     48  C   UNL A   1      38.558  32.338  37.376  1.00  0.00     0.134 A 
ATOM     49  C   UNL A   1      40.311  33.874  36.834  1.00  0.00     0.134 A 
ATOM     50  F   UNL A   1      37.781  31.285  37.083  1.00  0.00    -0.206 F 
ATOM     51  C   UNL A   1      38.339  33.006  38.582  1.00  0.00     0.040 A 
ATOM     52  C   UNL A   1      40.122  34.535  38.047  1.00  0.00     0.040 A 
ATOM     53  F   UNL A   1      41.279  34.317  36.018  1.00  0.00    -0.206 F 
ATOM     54  C   UNL A   1      39.127  34.104  38.923  1.00  0.00     0.006 A 
ENDBRANCH  26  47
BRANCH  38  55
ATOM     55  C   UNL A   1      43.901  27.695  34.545  1.00  0.00     0.057 A 
ATOM     56  C   UNL A   1      43.624  26.473  35.170  1.00  0.00     0.134 A 
ATOM     57  C   UNL A   1      45.212  28.181  34.613  1.00  0.00     0.134 A 
ATOM     58  F   UNL A   1      42.381  25.967  35.152  1.00  0.00    -0.206 F 
ATOM     59  C   UNL A   1      44.614  25.766  35.851  1.00  0.00     0.040 A 
ATOM     60  C   UNL A   1      46.215  27.472  35.274  1.00  0.00     0.040 A 
ATOM     61  F   UNL A   1      45.538  29.345  34.032  1.00  0.00    -0.206 F 
ATOM     62  C   UNL A   1      45.915  26.263  35.900  1.00  0.00     0.006 A 
ENDBRANCH  38  55
ENDBRANCH  12  13
ENDBRANCH   5   7
ENDBRANCH   2   3
ENDBRANCH   1   2
BRANCH   1  63
ATOM     63  C   UNL A   1      31.402  30.848  26.087  1.00  0.00     0.023 C 
BRANCH  63  64
ATOM     64  C   UNL A   1      32.701  30.105  26.382  1.00  0.00     0.116 C 
BRANCH  64  65
ATOM     65  N   UNL A   1      33.446  29.748  25.192  1.00  0.00    -0.351 N 
ATOM     66  C   UNL A   1      33.350  28.705  24.321  1.00  0.00     0.283 C 
ATOM     67  H   UNL A   1      34.163  30.385  24.968  1.00  0.00     0.163 HD
ATOM     68  O   UNL A   1      33.895  28.927  23.226  1.00  0.00    -0.268 OA
BRANCH  66  69
ATOM     69  C   UNL A   1      32.643  27.326  24.592  1.00  0.00     0.305 C 
BRANCH  69  70
ATOM     70  N   UNL A   1      31.274  27.260  23.964  1.00  0.00    -0.321 N 
ATOM     71  C   UNL A   1      30.273  26.467  24.681  1.00  0.00     0.263 C 
ATOM     72  C   UNL A   1      30.771  28.563  23.506  1.00  0.00     0.263 C 
ATOM     73  H   UNL A   1      31.440  26.708  23.122  1.00  0.00     0.349 HD
ATOM     74  C   UNL A   1      28.976  26.326  23.876  1.00  0.00     0.062 C 
ATOM     75  C   UNL A   1      29.462  28.469  22.722  1.00  0.00     0.062 C 
ATOM     76  C   UNL A   1      28.414  27.687  23.501  1.00  0.00     0.012 C 
ENDBRANCH  69  70
BRANCH  69  77
ATOM     77  C   UNL A   1      33.483  26.054  24.464  1.00  0.00     0.019 A 
ATOM     78  C   UNL A   1      34.320  25.589  25.490  1.00  0.00     0.012 A 
ATOM     79  C   UNL A   1      33.437  25.315  23.263  1.00  0.00     0.012 A 
ATOM     80  C   UNL A   1      35.042  24.399  25.351  1.00  0.00     0.021 A 
ATOM     81  C   UNL A   1      34.156  24.124  23.123  1.00  0.00     0.021 A 
ATOM     82  C   UNL A   1      34.947  23.667  24.172  1.00  0.00     0.041 A 
ATOM     83  Cl  UNL A   1      35.801  22.183  24.020  1.00  0.00    -0.084 Cl
ENDBRANCH  69  77
ENDBRANCH  66  69
ENDBRANCH  64  65
ENDBRANCH  63  64
ENDBRANCH   1  63
TORSDOF 13
ENDMDL
