MODEL 1
REMARK VINA RESULT:     -11.8      0.000      0.000
REMARK SMILES Cc1ccc(Cl)c(Nc2ccccc2C(=O)NCC(=O)NCCCCNC(=O)c2ccc(-c3c4nc(c(-c5c(F)cccc5F)c5ccc([nH]5)c(-c5c(F)cccc5F)c5nc(c(-c6c(F)cccc6F)c6ccc3[nH]6)C=C5)C=C4)cc2)c1Cl
REMARK SMILES IDX 22 1 21 2 19 3 20 4 18 6 17 7 15 8 16 9 14 11 9 12 10 13
REMARK SMILES IDX 11 14 13 15 12 16 8 17 7 19 1 20 2 21 3 22 83 23 4 24 84 25
REMARK SMILES IDX 5 26 6 27 23 28 24 29 25 30 26 31 27 32 28 34 29 35 30 36
REMARK SMILES IDX 82 37 31 38 81 39 32 40 33 41 34 42 75 43 35 44 80 45 74 46
REMARK SMILES IDX 76 47 36 48 79 49 73 50 72 51 37 53 63 54 46 55 62 56 47 57
REMARK SMILES IDX 50 58 61 59 77 60 48 61 49 62 60 64 78 65 51 66 38 67 39 68
REMARK SMILES IDX 44 69 40 70 41 71 43 72 45 73 42 74 64 75 65 76 70 77 66 78
REMARK SMILES IDX 67 79 69 80 71 81 68 82 52 83 53 84 58 85 54 86 55 87 57 88
REMARK SMILES IDX 59 89 56 90
REMARK H PARENT 21 5 17 10 8 18 26 33 76 52 50 63
REMARK Flexibility Score: inf
ROOT
ATOM      1  C   UNL A   1      35.156  19.957  24.833  1.00  0.00     0.116 C 
ENDROOT
BRANCH   1   2
ATOM      2  N   UNL A   1      34.182  18.906  24.983  1.00  0.00    -0.355 N 
ATOM      3  C   UNL A   1      32.863  19.063  25.285  1.00  0.00     0.239 C 
ATOM      4  O   UNL A   1      32.197  18.058  25.540  1.00  0.00    -0.273 OA
ATOM      5  H   UNL A   1      34.502  17.983  24.853  1.00  0.00     0.163 HD
BRANCH   3   6
ATOM      6  C   UNL A   1      32.201  20.413  25.021  1.00  0.00     0.216 C 
BRANCH   6   7
ATOM      7  N   UNL A   1      31.980  21.436  26.021  1.00  0.00    -0.343 N 
ATOM      8  C   UNL A   1      32.424  22.732  26.139  1.00  0.00     0.253 C 
ATOM      9  O   UNL A   1      31.710  23.458  26.841  1.00  0.00    -0.269 OA
ATOM     10  H   UNL A   1      31.398  21.148  26.760  1.00  0.00     0.164 HD
BRANCH   8  11
ATOM     11  C   UNL A   1      33.758  23.278  25.691  1.00  0.00     0.063 A 
ATOM     12  C   UNL A   1      34.138  24.006  24.539  1.00  0.00     0.051 A 
ATOM     13  C   UNL A   1      35.519  24.281  24.348  1.00  0.00     0.027 A 
ATOM     14  C   UNL A   1      36.495  23.933  25.281  1.00  0.00     0.002 A 
ATOM     15  C   UNL A   1      34.778  22.951  26.630  1.00  0.00     0.016 A 
ATOM     16  C   UNL A   1      36.119  23.284  26.440  1.00  0.00     0.001 A 
BRANCH  12  17
ATOM     17  N   UNL A   1      33.313  24.638  23.584  1.00  0.00    -0.352 N 
ATOM     18  H   UNL A   1      33.520  24.373  22.658  1.00  0.00     0.167 HD
BRANCH  17  19
ATOM     19  C   UNL A   1      32.251  25.572  23.671  1.00  0.00     0.077 A 
ATOM     20  C   UNL A   1      31.536  29.117  24.920  1.00  0.00     0.046 C 
ATOM     21  C   UNL A   1      31.337  27.708  24.435  1.00  0.00    -0.030 A 
ATOM     22  C   UNL A   1      30.054  27.142  24.473  1.00  0.00     0.006 A 
ATOM     23  C   UNL A   1      32.424  26.931  23.989  1.00  0.00     0.069 A 
ATOM     24  C   UNL A   1      29.840  25.839  24.037  1.00  0.00     0.023 A 
ATOM     25  Cl  UNL A   1      33.958  27.709  23.730  1.00  0.00    -0.082 Cl
ATOM     26  C   UNL A   1      30.926  25.068  23.629  1.00  0.00     0.066 A 
ATOM     27  Cl  UNL A   1      30.622  23.413  23.198  1.00  0.00    -0.082 Cl
ENDBRANCH  17  19
ENDBRANCH  12  17
ENDBRANCH   8  11
ENDBRANCH   6   7
ENDBRANCH   3   6
ENDBRANCH   1   2
BRANCH   1  28
ATOM     28  C   UNL A   1      36.561  19.381  24.979  1.00  0.00     0.023 C 
BRANCH  28  29
ATOM     29  C   UNL A   1      37.649  20.398  24.632  1.00  0.00     0.023 C 
BRANCH  29  30
ATOM     30  C   UNL A   1      38.681  20.590  25.731  1.00  0.00     0.116 C 
BRANCH  30  31
ATOM     31  N   UNL A   1      39.678  19.532  25.739  1.00  0.00    -0.352 N 
ATOM     32  C   UNL A   1      41.013  19.634  26.046  1.00  0.00     0.251 C 
ATOM     33  H   UNL A   1      39.358  18.634  25.494  1.00  0.00     0.163 HD
ATOM     34  O   UNL A   1      41.780  18.705  25.853  1.00  0.00    -0.269 OA
BRANCH  32  35
ATOM     35  C   UNL A   1      41.500  20.915  26.590  1.00  0.00     0.039 A 
ATOM     36  C   UNL A   1      42.039  21.857  25.715  1.00  0.00     0.014 A 
ATOM     37  C   UNL A   1      41.352  21.196  27.951  1.00  0.00     0.014 A 
ATOM     38  C   UNL A   1      42.386  23.116  26.202  1.00  0.00     0.010 A 
ATOM     39  C   UNL A   1      41.629  22.475  28.417  1.00  0.00     0.010 A 
ATOM     40  C   UNL A   1      42.155  23.444  27.549  1.00  0.00    -0.014 A 
BRANCH  40  41
ATOM     41  C   UNL A   1      42.468  24.795  28.073  1.00  0.00     0.031 A 
ATOM     42  C   UNL A   1      43.870  25.119  28.510  1.00  0.00     0.074 A 
ATOM     43  C   UNL A   1      41.482  25.702  28.212  1.00  0.00     0.049 A 
ATOM     44  N   UNL A   1      44.332  26.217  29.053  1.00  0.00    -0.248 NA
ATOM     45  C   UNL A   1      44.881  24.062  28.344  1.00  0.00     0.031 C 
ATOM     46  C   UNL A   1      40.074  25.485  27.873  1.00  0.00     0.029 A 
ATOM     47  N   UNL A   1      41.513  26.989  28.688  1.00  0.00    -0.354 N 
ATOM     48  C   UNL A   1      45.674  25.972  29.313  1.00  0.00     0.074 A 
ATOM     49  C   UNL A   1      45.946  24.611  28.910  1.00  0.00     0.031 C 
ATOM     50  C   UNL A   1      39.381  26.607  28.132  1.00  0.00     0.029 A 
ATOM     51  C   UNL A   1      40.285  27.607  28.688  1.00  0.00     0.049 A 
ATOM     52  H   UNL A   1      42.337  27.429  29.000  1.00  0.00     0.167 HD
ATOM     53  C   UNL A   1      46.601  26.818  29.819  1.00  0.00     0.037 A 
ATOM     54  C   UNL A   1      39.932  28.840  29.100  1.00  0.00     0.037 A 
ATOM     55  C   UNL A   1      46.337  28.187  30.173  1.00  0.00     0.049 A 
ATOM     56  C   UNL A   1      40.990  29.759  29.647  1.00  0.00     0.074 A 
ATOM     57  C   UNL A   1      47.230  29.149  30.610  1.00  0.00     0.029 A 
ATOM     58  N   UNL A   1      45.088  28.786  30.130  1.00  0.00    -0.354 N 
ATOM     59  N   UNL A   1      42.275  29.545  29.799  1.00  0.00    -0.248 NA
ATOM     60  C   UNL A   1      40.550  31.095  30.074  1.00  0.00     0.031 C 
ATOM     61  C   UNL A   1      46.514  30.319  30.877  1.00  0.00     0.029 A 
ATOM     62  C   UNL A   1      45.183  30.099  30.557  1.00  0.00     0.049 A 
ATOM     63  H   UNL A   1      44.258  28.343  29.838  1.00  0.00     0.167 HD
ATOM     64  C   UNL A   1      42.800  30.728  30.303  1.00  0.00     0.074 A 
ATOM     65  C   UNL A   1      41.698  31.660  30.418  1.00  0.00     0.031 C 
ATOM     66  C   UNL A   1      44.078  31.018  30.644  1.00  0.00     0.037 A 
BRANCH  53  67
ATOM     67  C   UNL A   1      47.994  26.297  30.017  1.00  0.00     0.057 A 
ATOM     68  C   UNL A   1      48.407  25.733  31.230  1.00  0.00     0.134 A 
ATOM     69  C   UNL A   1      48.908  26.293  28.956  1.00  0.00     0.134 A 
ATOM     70  F   UNL A   1      47.583  25.717  32.289  1.00  0.00    -0.206 F 
ATOM     71  C   UNL A   1      49.686  25.194  31.385  1.00  0.00     0.040 A 
ATOM     72  C   UNL A   1      50.180  25.735  29.091  1.00  0.00     0.040 A 
ATOM     73  F   UNL A   1      48.573  26.816  27.766  1.00  0.00    -0.206 F 
ATOM     74  C   UNL A   1      50.572  25.184  30.309  1.00  0.00     0.006 A 
ENDBRANCH  53  67
BRANCH  54  75
ATOM     75  C   UNL A   1      38.520  29.293  29.005  1.00  0.00     0.057 A 
ATOM     76  C   UNL A   1      37.675  29.264  30.121  1.00  0.00     0.134 A 
ATOM     77  C   UNL A   1      37.968  29.717  27.791  1.00  0.00     0.134 A 
ATOM     78  F   UNL A   1      38.141  28.850  31.309  1.00  0.00    -0.206 F 
ATOM     79  C   UNL A   1      36.324  29.603  30.027  1.00  0.00     0.040 A 
ATOM     80  C   UNL A   1      36.625  30.086  27.687  1.00  0.00     0.040 A 
ATOM     81  F   UNL A   1      38.724  29.777  26.685  1.00  0.00    -0.206 F 
ATOM     82  C   UNL A   1      35.796  30.017  28.806  1.00  0.00     0.006 A 
ENDBRANCH  54  75
BRANCH  66  83
ATOM     83  C   UNL A   1      44.364  32.410  31.124  1.00  0.00     0.057 A 
ATOM     84  C   UNL A   1      44.678  33.449  30.239  1.00  0.00     0.134 A 
ATOM     85  C   UNL A   1      44.284  32.721  32.488  1.00  0.00     0.134 A 
ATOM     86  F   UNL A   1      44.782  33.213  28.923  1.00  0.00    -0.206 F 
ATOM     87  C   UNL A   1      44.925  34.745  30.696  1.00  0.00     0.040 A 
ATOM     88  C   UNL A   1      44.501  34.018  32.953  1.00  0.00     0.040 A 
ATOM     89  F   UNL A   1      43.977  31.773  33.386  1.00  0.00    -0.206 F 
ATOM     90  C   UNL A   1      44.829  35.033  32.057  1.00  0.00     0.006 A 
ENDBRANCH  66  83
ENDBRANCH  40  41
ENDBRANCH  32  35
ENDBRANCH  30  31
ENDBRANCH  29  30
ENDBRANCH  28  29
ENDBRANCH   1  28
TORSDOF 15
ENDMDL
MODEL 2
REMARK VINA RESULT:     -11.5      1.768      6.694
REMARK SMILES Cc1ccc(Cl)c(Nc2ccccc2C(=O)NCC(=O)NCCCCNC(=O)c2ccc(-c3c4nc(c(-c5c(F)cccc5F)c5ccc([nH]5)c(-c5c(F)cccc5F)c5nc(c(-c6c(F)cccc6F)c6ccc3[nH]6)C=C5)C=C4)cc2)c1Cl
REMARK SMILES IDX 22 1 21 2 19 3 20 4 18 6 17 7 15 8 16 9 14 11 9 12 10 13
REMARK SMILES IDX 11 14 13 15 12 16 8 17 7 19 1 20 2 21 3 22 83 23 4 24 84 25
REMARK SMILES IDX 5 26 6 27 23 28 24 29 25 30 26 31 27 32 28 34 29 35 30 36
REMARK SMILES IDX 82 37 31 38 81 39 32 40 33 41 34 42 75 43 35 44 80 45 74 46
REMARK SMILES IDX 76 47 36 48 79 49 73 50 72 51 37 53 63 54 46 55 62 56 47 57
REMARK SMILES IDX 50 58 61 59 77 60 48 61 49 62 60 64 78 65 51 66 38 67 39 68
REMARK SMILES IDX 44 69 40 70 41 71 43 72 45 73 42 74 64 75 65 76 70 77 66 78
REMARK SMILES IDX 67 79 69 80 71 81 68 82 52 83 53 84 58 85 54 86 55 87 57 88
REMARK SMILES IDX 59 89 56 90
REMARK H PARENT 21 5 17 10 8 18 26 33 76 52 50 63
REMARK Flexibility Score: inf
ROOT
ATOM      1  C   UNL A   1      36.834  21.586  24.369  1.00  0.00     0.116 C 
ENDROOT
BRANCH   1   2
ATOM      2  N   UNL A   1      37.542  22.540  25.184  1.00  0.00    -0.355 N 
ATOM      3  C   UNL A   1      37.076  23.750  25.602  1.00  0.00     0.239 C 
ATOM      4  O   UNL A   1      37.861  24.521  26.157  1.00  0.00    -0.273 OA
ATOM      5  H   UNL A   1      38.452  22.293  25.467  1.00  0.00     0.163 HD
BRANCH   3   6
ATOM      6  C   UNL A   1      35.568  23.989  25.633  1.00  0.00     0.216 C 
BRANCH   6   7
ATOM      7  N   UNL A   1      34.797  24.546  24.543  1.00  0.00    -0.343 N 
ATOM      8  C   UNL A   1      34.091  25.719  24.406  1.00  0.00     0.253 C 
ATOM      9  O   UNL A   1      33.937  26.094  23.237  1.00  0.00    -0.269 OA
ATOM     10  H   UNL A   1      34.773  23.975  23.742  1.00  0.00     0.164 HD
BRANCH   8  11
ATOM     11  C   UNL A   1      33.331  26.451  25.486  1.00  0.00     0.063 A 
ATOM     12  C   UNL A   1      32.095  26.177  26.117  1.00  0.00     0.051 A 
ATOM     13  C   UNL A   1      31.586  27.138  27.032  1.00  0.00     0.027 A 
ATOM     14  C   UNL A   1      32.287  28.290  27.389  1.00  0.00     0.002 A 
ATOM     15  C   UNL A   1      34.028  27.628  25.883  1.00  0.00     0.016 A 
ATOM     16  C   UNL A   1      33.527  28.524  26.827  1.00  0.00     0.001 A 
BRANCH  12  17
ATOM     17  N   UNL A   1      31.326  24.995  26.074  1.00  0.00    -0.352 N 
ATOM     18  H   UNL A   1      30.491  25.057  26.594  1.00  0.00     0.167 HD
BRANCH  17  19
ATOM     19  C   UNL A   1      31.498  23.737  25.445  1.00  0.00     0.077 A 
ATOM     20  C   UNL A   1      33.525  20.512  25.804  1.00  0.00     0.046 C 
ATOM     21  C   UNL A   1      32.656  21.594  25.226  1.00  0.00    -0.030 A 
ATOM     22  C   UNL A   1      32.348  21.571  23.857  1.00  0.00     0.006 A 
ATOM     23  C   UNL A   1      32.189  22.657  26.023  1.00  0.00     0.069 A 
ATOM     24  C   UNL A   1      31.553  22.563  23.292  1.00  0.00     0.023 A 
ATOM     25  Cl  UNL A   1      32.382  22.556  27.749  1.00  0.00    -0.082 Cl
ATOM     26  C   UNL A   1      31.123  23.626  24.082  1.00  0.00     0.066 A 
ATOM     27  Cl  UNL A   1      30.226  24.895  23.305  1.00  0.00    -0.082 Cl
ENDBRANCH  17  19
ENDBRANCH  12  17
ENDBRANCH   8  11
ENDBRANCH   6   7
ENDBRANCH   3   6
ENDBRANCH   1   2
BRANCH   1  28
ATOM     28  C   UNL A   1      36.981  20.191  24.967  1.00  0.00     0.023 C 
BRANCH  28  29
ATOM     29  C   UNL A   1      38.383  19.613  24.765  1.00  0.00     0.023 C 
BRANCH  29  30
ATOM     30  C   UNL A   1      39.276  19.733  25.990  1.00  0.00     0.116 C 
BRANCH  30  31
ATOM     31  N   UNL A   1      40.509  18.976  25.846  1.00  0.00    -0.352 N 
ATOM     32  C   UNL A   1      41.797  19.428  25.990  1.00  0.00     0.251 C 
ATOM     33  H   UNL A   1      40.407  18.024  25.618  1.00  0.00     0.163 HD
ATOM     34  O   UNL A   1      42.751  18.734  25.680  1.00  0.00    -0.269 OA
BRANCH  32  35
ATOM     35  C   UNL A   1      41.996  20.796  26.504  1.00  0.00     0.039 A 
ATOM     36  C   UNL A   1      41.977  21.008  27.882  1.00  0.00     0.014 A 
ATOM     37  C   UNL A   1      42.270  21.841  25.617  1.00  0.00     0.014 A 
ATOM     38  C   UNL A   1      42.287  22.272  28.379  1.00  0.00     0.010 A 
ATOM     39  C   UNL A   1      42.650  23.080  26.119  1.00  0.00     0.010 A 
ATOM     40  C   UNL A   1      42.656  23.308  27.504  1.00  0.00    -0.014 A 
BRANCH  40  41
ATOM     41  C   UNL A   1      43.040  24.644  28.018  1.00  0.00     0.031 A 
ATOM     42  C   UNL A   1      41.978  25.674  28.288  1.00  0.00     0.074 A 
ATOM     43  C   UNL A   1      44.343  24.948  28.179  1.00  0.00     0.049 A 
ATOM     44  N   UNL A   1      42.113  26.916  28.677  1.00  0.00    -0.248 NA
ATOM     45  C   UNL A   1      40.582  25.265  28.063  1.00  0.00     0.031 C 
ATOM     46  C   UNL A   1      45.466  24.050  27.898  1.00  0.00     0.029 A 
ATOM     47  N   UNL A   1      44.944  26.104  28.609  1.00  0.00    -0.354 N 
ATOM     48  C   UNL A   1      40.828  27.439  28.720  1.00  0.00     0.074 A 
ATOM     49  C   UNL A   1      39.928  26.398  28.277  1.00  0.00     0.031 C 
ATOM     50  C   UNL A   1      46.616  24.682  28.184  1.00  0.00     0.029 A 
ATOM     51  C   UNL A   1      46.317  26.038  28.631  1.00  0.00     0.049 A 
ATOM     52  H   UNL A   1      44.439  26.906  28.878  1.00  0.00     0.167 HD
ATOM     53  C   UNL A   1      40.433  28.670  29.117  1.00  0.00     0.037 A 
ATOM     54  C   UNL A   1      47.228  26.972  28.967  1.00  0.00     0.037 A 
ATOM     55  C   UNL A   1      41.327  29.687  29.604  1.00  0.00     0.049 A 
ATOM     56  C   UNL A   1      46.754  28.327  29.415  1.00  0.00     0.074 A 
ATOM     57  C   UNL A   1      41.013  30.935  30.114  1.00  0.00     0.029 A 
ATOM     58  N   UNL A   1      42.707  29.572  29.640  1.00  0.00    -0.354 N 
ATOM     59  N   UNL A   1      45.528  28.776  29.541  1.00  0.00    -0.248 NA
ATOM     60  C   UNL A   1      47.791  29.305  29.776  1.00  0.00     0.031 C 
ATOM     61  C   UNL A   1      42.208  31.594  30.416  1.00  0.00     0.029 A 
ATOM     62  C   UNL A   1      43.262  30.737  30.141  1.00  0.00     0.049 A 
ATOM     63  H   UNL A   1      43.217  28.779  29.354  1.00  0.00     0.167 HD
ATOM     64  C   UNL A   1      45.647  30.072  30.028  1.00  0.00     0.074 A 
ATOM     65  C   UNL A   1      47.062  30.331  30.189  1.00  0.00     0.031 C 
ATOM     66  C   UNL A   1      44.672  30.968  30.315  1.00  0.00     0.037 A 
BRANCH  53  67
ATOM     67  C   UNL A   1      38.969  28.994  29.055  1.00  0.00     0.057 A 
ATOM     68  C   UNL A   1      38.137  28.872  30.175  1.00  0.00     0.134 A 
ATOM     69  C   UNL A   1      38.403  29.503  27.880  1.00  0.00     0.134 A 
ATOM     70  F   UNL A   1      38.615  28.378  31.327  1.00  0.00    -0.206 F 
ATOM     71  C   UNL A   1      36.790  29.235  30.124  1.00  0.00     0.040 A 
ATOM     72  C   UNL A   1      37.065  29.893  27.824  1.00  0.00     0.040 A 
ATOM     73  F   UNL A   1      39.147  29.647  26.772  1.00  0.00    -0.206 F 
ATOM     74  C   UNL A   1      36.253  29.758  28.949  1.00  0.00     0.006 A 
ENDBRANCH  53  67
BRANCH  54  75
ATOM     75  C   UNL A   1      48.681  26.667  28.906  1.00  0.00     0.057 A 
ATOM     76  C   UNL A   1      49.356  26.142  30.015  1.00  0.00     0.134 A 
ATOM     77  C   UNL A   1      49.438  26.938  27.761  1.00  0.00     0.134 A 
ATOM     78  F   UNL A   1      48.689  25.878  31.148  1.00  0.00    -0.206 F 
ATOM     79  C   UNL A   1      50.737  25.934  30.001  1.00  0.00     0.040 A 
ATOM     80  C   UNL A   1      50.815  26.708  27.722  1.00  0.00     0.040 A 
ATOM     81  F   UNL A   1      48.851  27.433  26.661  1.00  0.00    -0.206 F 
ATOM     82  C   UNL A   1      51.469  26.216  28.850  1.00  0.00     0.006 A 
ENDBRANCH  54  75
BRANCH  66  83
ATOM     83  C   UNL A   1      45.098  32.292  30.878  1.00  0.00     0.057 A 
ATOM     84  C   UNL A   1      45.279  32.488  32.253  1.00  0.00     0.134 A 
ATOM     85  C   UNL A   1      45.371  33.371  30.027  1.00  0.00     0.134 A 
ATOM     86  F   UNL A   1      45.023  31.498  33.121  1.00  0.00    -0.206 F 
ATOM     87  C   UNL A   1      45.693  33.719  32.764  1.00  0.00     0.040 A 
ATOM     88  C   UNL A   1      45.812  34.597  30.524  1.00  0.00     0.040 A 
ATOM     89  F   UNL A   1      45.228  33.245  28.699  1.00  0.00    -0.206 F 
ATOM     90  C   UNL A   1      45.968  34.775  31.897  1.00  0.00     0.006 A 
ENDBRANCH  66  83
ENDBRANCH  40  41
ENDBRANCH  32  35
ENDBRANCH  30  31
ENDBRANCH  29  30
ENDBRANCH  28  29
ENDBRANCH   1  28
TORSDOF 15
ENDMDL
MODEL 3
REMARK VINA RESULT:     -11.4      2.157      3.552
REMARK SMILES Cc1ccc(Cl)c(Nc2ccccc2C(=O)NCC(=O)NCCCCNC(=O)c2ccc(-c3c4nc(c(-c5c(F)cccc5F)c5ccc([nH]5)c(-c5c(F)cccc5F)c5nc(c(-c6c(F)cccc6F)c6ccc3[nH]6)C=C5)C=C4)cc2)c1Cl
REMARK SMILES IDX 22 1 21 2 19 3 20 4 18 6 17 7 15 8 16 9 14 11 9 12 10 13
REMARK SMILES IDX 11 14 13 15 12 16 8 17 7 19 1 20 2 21 3 22 83 23 4 24 84 25
REMARK SMILES IDX 5 26 6 27 23 28 24 29 25 30 26 31 27 32 28 34 29 35 30 36
REMARK SMILES IDX 82 37 31 38 81 39 32 40 33 41 34 42 75 43 35 44 80 45 74 46
REMARK SMILES IDX 76 47 36 48 79 49 73 50 72 51 37 53 63 54 46 55 62 56 47 57
REMARK SMILES IDX 50 58 61 59 77 60 48 61 49 62 60 64 78 65 51 66 38 67 39 68
REMARK SMILES IDX 44 69 40 70 41 71 43 72 45 73 42 74 64 75 65 76 70 77 66 78
REMARK SMILES IDX 67 79 69 80 71 81 68 82 52 83 53 84 58 85 54 86 55 87 57 88
REMARK SMILES IDX 59 89 56 90
REMARK H PARENT 21 5 17 10 8 18 26 33 76 52 50 63
REMARK Flexibility Score: inf
ROOT
ATOM      1  C   UNL A   1      36.684  21.668  24.475  1.00  0.00     0.116 C 
ENDROOT
BRANCH   1   2
ATOM      2  N   UNL A   1      37.361  22.579  25.362  1.00  0.00    -0.355 N 
ATOM      3  C   UNL A   1      36.899  23.790  25.783  1.00  0.00     0.239 C 
ATOM      4  O   UNL A   1      37.666  24.524  26.409  1.00  0.00    -0.273 OA
ATOM      5  H   UNL A   1      38.243  22.299  25.697  1.00  0.00     0.163 HD
BRANCH   3   6
ATOM      6  C   UNL A   1      35.400  24.071  25.721  1.00  0.00     0.216 C 
BRANCH   6   7
ATOM      7  N   UNL A   1      34.728  24.736  24.625  1.00  0.00    -0.343 N 
ATOM      8  C   UNL A   1      34.078  25.945  24.529  1.00  0.00     0.253 C 
ATOM      9  O   UNL A   1      34.019  26.407  23.383  1.00  0.00    -0.269 OA
ATOM     10  H   UNL A   1      34.738  24.224  23.785  1.00  0.00     0.164 HD
BRANCH   8  11
ATOM     11  C   UNL A   1      33.275  26.631  25.608  1.00  0.00     0.063 A 
ATOM     12  C   UNL A   1      31.978  26.382  26.116  1.00  0.00     0.051 A 
ATOM     13  C   UNL A   1      31.449  27.294  27.070  1.00  0.00     0.027 A 
ATOM     14  C   UNL A   1      32.181  28.367  27.577  1.00  0.00     0.002 A 
ATOM     15  C   UNL A   1      34.000  27.726  26.157  1.00  0.00     0.016 A 
ATOM     16  C   UNL A   1      33.473  28.571  27.134  1.00  0.00     0.001 A 
BRANCH  12  17
ATOM     17  N   UNL A   1      31.151  25.257  25.912  1.00  0.00    -0.352 N 
ATOM     18  H   UNL A   1      30.247  25.368  26.285  1.00  0.00     0.167 HD
BRANCH  17  19
ATOM     19  C   UNL A   1      31.345  24.000  25.287  1.00  0.00     0.077 A 
ATOM     20  C   UNL A   1      33.291  20.739  25.759  1.00  0.00     0.046 C 
ATOM     21  C   UNL A   1      32.481  21.840  25.131  1.00  0.00    -0.030 A 
ATOM     22  C   UNL A   1      32.265  21.829  23.745  1.00  0.00     0.006 A 
ATOM     23  C   UNL A   1      31.978  22.905  25.903  1.00  0.00     0.069 A 
ATOM     24  C   UNL A   1      31.526  22.838  23.135  1.00  0.00     0.023 A 
ATOM     25  Cl  UNL A   1      32.053  22.791  27.638  1.00  0.00    -0.082 Cl
ATOM     26  C   UNL A   1      31.061  23.903  23.901  1.00  0.00     0.066 A 
ATOM     27  Cl  UNL A   1      30.239  25.191  23.075  1.00  0.00    -0.082 Cl
ENDBRANCH  17  19
ENDBRANCH  12  17
ENDBRANCH   8  11
ENDBRANCH   6   7
ENDBRANCH   3   6
ENDBRANCH   1   2
BRANCH   1  28
ATOM     28  C   UNL A   1      36.823  20.242  24.999  1.00  0.00     0.023 C 
BRANCH  28  29
ATOM     29  C   UNL A   1      38.192  19.636  24.688  1.00  0.00     0.023 C 
BRANCH  29  30
ATOM     30  C   UNL A   1      39.240  19.911  25.754  1.00  0.00     0.116 C 
BRANCH  30  31
ATOM     31  N   UNL A   1      40.228  18.847  25.840  1.00  0.00    -0.352 N 
ATOM     32  C   UNL A   1      41.581  18.968  26.039  1.00  0.00     0.251 C 
ATOM     33  H   UNL A   1      39.885  17.930  25.744  1.00  0.00     0.163 HD
ATOM     34  O   UNL A   1      42.326  18.009  25.925  1.00  0.00    -0.269 OA
BRANCH  32  35
ATOM     35  C   UNL A   1      42.114  20.303  26.366  1.00  0.00     0.039 A 
ATOM     36  C   UNL A   1      42.502  21.148  25.327  1.00  0.00     0.014 A 
ATOM     37  C   UNL A   1      42.156  20.731  27.697  1.00  0.00     0.014 A 
ATOM     38  C   UNL A   1      42.889  22.454  25.622  1.00  0.00     0.010 A 
ATOM     39  C   UNL A   1      42.471  22.054  27.979  1.00  0.00     0.010 A 
ATOM     40  C   UNL A   1      42.846  22.925  26.945  1.00  0.00    -0.014 A 
BRANCH  40  41
ATOM     41  C   UNL A   1      43.203  24.327  27.270  1.00  0.00     0.031 A 
ATOM     42  C   UNL A   1      44.640  24.765  27.208  1.00  0.00     0.074 A 
ATOM     43  C   UNL A   1      42.245  25.182  27.680  1.00  0.00     0.049 A 
ATOM     44  N   UNL A   1      45.163  25.925  27.516  1.00  0.00    -0.248 NA
ATOM     45  C   UNL A   1      45.624  23.761  26.772  1.00  0.00     0.031 C 
ATOM     46  C   UNL A   1      40.825  24.857  27.833  1.00  0.00     0.029 A 
ATOM     47  N   UNL A   1      42.325  26.499  28.056  1.00  0.00    -0.354 N 
ATOM     48  C   UNL A   1      46.532  25.781  27.333  1.00  0.00     0.074 A 
ATOM     49  C   UNL A   1      46.768  24.412  26.930  1.00  0.00     0.031 C 
ATOM     50  C   UNL A   1      40.166  25.951  28.248  1.00  0.00     0.029 A 
ATOM     51  C   UNL A   1      41.118  27.041  28.428  1.00  0.00     0.049 A 
ATOM     52  H   UNL A   1      43.168  27.008  28.059  1.00  0.00     0.167 HD
ATOM     53  C   UNL A   1      47.502  26.714  27.466  1.00  0.00     0.037 A 
ATOM     54  C   UNL A   1      40.819  28.277  28.872  1.00  0.00     0.037 A 
ATOM     55  C   UNL A   1      47.258  28.087  27.819  1.00  0.00     0.049 A 
ATOM     56  C   UNL A   1      41.920  29.295  28.997  1.00  0.00     0.074 A 
ATOM     57  C   UNL A   1      48.164  29.130  27.891  1.00  0.00     0.029 A 
ATOM     58  N   UNL A   1      46.018  28.606  28.158  1.00  0.00    -0.354 N 
ATOM     59  N   UNL A   1      43.198  29.170  28.729  1.00  0.00    -0.248 NA
ATOM     60  C   UNL A   1      41.536  30.629  29.479  1.00  0.00     0.031 C 
ATOM     61  C   UNL A   1      47.481  30.272  28.320  1.00  0.00     0.029 A 
ATOM     62  C   UNL A   1      46.141  29.950  28.466  1.00  0.00     0.049 A 
ATOM     63  H   UNL A   1      45.177  28.095  28.176  1.00  0.00     0.167 HD
ATOM     64  C   UNL A   1      43.761  30.416  28.975  1.00  0.00     0.074 A 
ATOM     65  C   UNL A   1      42.684  31.285  29.399  1.00  0.00     0.031 C 
ATOM     66  C   UNL A   1      45.053  30.805  28.864  1.00  0.00     0.037 A 
BRANCH  53  67
ATOM     67  C   UNL A   1      48.921  26.294  27.221  1.00  0.00     0.057 A 
ATOM     68  C   UNL A   1      49.503  26.363  25.949  1.00  0.00     0.134 A 
ATOM     69  C   UNL A   1      49.735  25.886  28.285  1.00  0.00     0.134 A 
ATOM     70  F   UNL A   1      48.774  26.734  24.886  1.00  0.00    -0.206 F 
ATOM     71  C   UNL A   1      50.843  26.029  25.742  1.00  0.00     0.040 A 
ATOM     72  C   UNL A   1      51.082  25.574  28.095  1.00  0.00     0.040 A 
ATOM     73  F   UNL A   1      49.238  25.801  29.529  1.00  0.00    -0.206 F 
ATOM     74  C   UNL A   1      51.639  25.644  26.820  1.00  0.00     0.006 A 
ENDBRANCH  53  67
BRANCH  54  75
ATOM     75  C   UNL A   1      39.421  28.637  29.223  1.00  0.00     0.057 A 
ATOM     76  C   UNL A   1      38.562  29.210  28.278  1.00  0.00     0.134 A 
ATOM     77  C   UNL A   1      38.926  28.464  30.521  1.00  0.00     0.134 A 
ATOM     78  F   UNL A   1      38.984  29.419  27.022  1.00  0.00    -0.206 F 
ATOM     79  C   UNL A   1      37.276  29.634  28.617  1.00  0.00     0.040 A 
ATOM     80  C   UNL A   1      37.631  28.857  30.868  1.00  0.00     0.040 A 
ATOM     81  F   UNL A   1      39.693  27.912  31.473  1.00  0.00    -0.206 F 
ATOM     82  C   UNL A   1      36.807  29.456  29.917  1.00  0.00     0.006 A 
ENDBRANCH  54  75
BRANCH  66  83
ATOM     83  C   UNL A   1      45.367  32.243  29.155  1.00  0.00     0.057 A 
ATOM     84  C   UNL A   1      45.773  32.670  30.425  1.00  0.00     0.134 A 
ATOM     85  C   UNL A   1      45.299  33.204  28.137  1.00  0.00     0.134 A 
ATOM     86  F   UNL A   1      45.846  31.801  31.444  1.00  0.00    -0.206 F 
ATOM     87  C   UNL A   1      46.079  34.008  30.679  1.00  0.00     0.040 A 
ATOM     88  C   UNL A   1      45.630  34.538  28.373  1.00  0.00     0.040 A 
ATOM     89  F   UNL A   1      44.927  32.858  26.896  1.00  0.00    -0.206 F 
ATOM     90  C   UNL A   1      46.015  34.945  29.649  1.00  0.00     0.006 A 
ENDBRANCH  66  83
ENDBRANCH  40  41
ENDBRANCH  32  35
ENDBRANCH  30  31
ENDBRANCH  29  30
ENDBRANCH  28  29
ENDBRANCH   1  28
TORSDOF 15
ENDMDL
