MODEL 1
REMARK VINA RESULT:     -11.7      0.000      0.000
REMARK SMILES CN1CC(=O)N(CC(=O)N2CCCC[C@H]2C(=O)NCCCCNC(=O)c2ccc(-c3c4nc(c(-c5c(F)cccc5F)c5ccc([nH]5)c(-c5c(F)cccc5F)c5nc(c(-c6c(F)cccc6F)c6ccc3[nH]6)C=C5)C=C4)cc2)C1=O
REMARK SMILES IDX 20 1 19 2 18 3 16 4 17 5 15 7 10 8 11 9 12 10 14 11 13 12
REMARK SMILES IDX 8 13 9 14 7 15 6 16 1 17 2 18 3 19 80 20 4 21 81 22 5 23
REMARK SMILES IDX 21 24 22 25 23 26 24 27 25 29 26 30 27 31 79 32 28 33 78 34
REMARK SMILES IDX 29 35 30 36 31 37 72 38 32 39 77 40 71 41 73 42 33 43 76 44
REMARK SMILES IDX 70 45 69 46 34 48 60 49 43 50 59 51 44 52 47 53 58 54 74 55
REMARK SMILES IDX 45 56 46 57 57 59 75 60 48 61 35 62 36 63 41 64 37 65 38 66
REMARK SMILES IDX 40 67 42 68 39 69 61 70 62 71 67 72 63 73 64 74 66 75 68 76
REMARK SMILES IDX 65 77 49 78 50 79 55 80 51 81 52 82 54 83 56 84 53 85
REMARK H PARENT 18 6 23 28 73 47 47 58
REMARK Flexibility Score: inf
ROOT
ATOM      1  C   UNL A   1      31.773  30.504  26.871  1.00  0.00     0.023 C 
ENDROOT
BRANCH   1   2
ATOM      2  C   UNL A   1      32.612  29.968  25.717  1.00  0.00     0.116 C 
BRANCH   2   3
ATOM      3  N   UNL A   1      31.833  29.698  24.530  1.00  0.00    -0.354 N 
ATOM      4  C   UNL A   1      31.515  28.546  23.883  1.00  0.00     0.242 C 
ATOM      5  O   UNL A   1      30.768  28.676  22.902  1.00  0.00    -0.273 OA
ATOM      6  H   UNL A   1      31.461  30.506  24.109  1.00  0.00     0.163 HD
BRANCH   4   7
ATOM      7  C   UNL A   1      32.141  27.153  24.205  1.00  0.00     0.174 C 
ATOM      8  N   UNL A   1      31.442  25.923  23.802  1.00  0.00    -0.329 N 
ATOM      9  C   UNL A   1      31.473  25.652  22.354  1.00  0.00     0.120 C 
ATOM     10  C   UNL A   1      32.887  25.638  21.787  1.00  0.00     0.022 C 
ATOM     11  C   UNL A   1      33.597  27.099  23.687  1.00  0.00     0.035 C 
ATOM     12  C   UNL A   1      33.650  26.899  22.176  1.00  0.00     0.004 C 
BRANCH   8  13
ATOM     13  C   UNL A   1      30.713  25.060  24.620  1.00  0.00     0.243 C 
ATOM     14  O   UNL A   1      29.947  25.538  25.472  1.00  0.00    -0.273 OA
BRANCH  13  15
ATOM     15  C   UNL A   1      31.020  23.547  24.753  1.00  0.00     0.230 C 
BRANCH  15  16
ATOM     16  N   UNL A   1      32.169  23.061  25.473  1.00  0.00    -0.253 N 
ATOM     17  C   UNL A   1      35.490  21.673  25.723  1.00  0.00     0.149 C 
ATOM     18  N   UNL A   1      34.213  22.316  25.918  1.00  0.00    -0.318 N 
ATOM     19  C   UNL A   1      33.625  22.496  27.223  1.00  0.00     0.221 C 
ATOM     20  C   UNL A   1      33.357  22.698  24.906  1.00  0.00     0.327 C 
ATOM     21  C   UNL A   1      32.251  23.013  26.835  1.00  0.00     0.250 C 
ATOM     22  O   UNL A   1      33.605  22.669  23.711  1.00  0.00    -0.248 OA
ATOM     23  O   UNL A   1      31.374  23.329  27.625  1.00  0.00    -0.272 OA
ENDBRANCH  15  16
ENDBRANCH  13  15
ENDBRANCH   8  13
ENDBRANCH   4   7
ENDBRANCH   2   3
ENDBRANCH   1   2
BRANCH   1  24
ATOM     24  C   UNL A   1      31.541  32.010  26.841  1.00  0.00     0.023 C 
BRANCH  24  25
ATOM     25  C   UNL A   1      32.743  32.850  27.248  1.00  0.00     0.116 C 
BRANCH  25  26
ATOM     26  N   UNL A   1      32.398  34.203  27.667  1.00  0.00    -0.352 N 
ATOM     27  C   UNL A   1      32.990  34.973  28.639  1.00  0.00     0.251 C 
ATOM     28  H   UNL A   1      31.643  34.620  27.190  1.00  0.00     0.163 HD
ATOM     29  O   UNL A   1      32.531  36.066  28.948  1.00  0.00    -0.269 OA
BRANCH  27  30
ATOM     30  C   UNL A   1      34.171  34.435  29.340  1.00  0.00     0.039 A 
ATOM     31  C   UNL A   1      33.989  33.719  30.524  1.00  0.00     0.014 A 
ATOM     32  C   UNL A   1      35.442  34.575  28.776  1.00  0.00     0.014 A 
ATOM     33  C   UNL A   1      35.081  33.077  31.108  1.00  0.00     0.010 A 
ATOM     34  C   UNL A   1      36.507  33.862  29.311  1.00  0.00     0.010 A 
ATOM     35  C   UNL A   1      36.338  33.112  30.485  1.00  0.00    -0.014 A 
BRANCH  35  36
ATOM     36  C   UNL A   1      37.504  32.397  31.057  1.00  0.00     0.031 A 
ATOM     37  C   UNL A   1      38.125  32.893  32.333  1.00  0.00     0.074 A 
ATOM     38  C   UNL A   1      38.043  31.351  30.400  1.00  0.00     0.049 A 
ATOM     39  N   UNL A   1      39.199  32.471  32.951  1.00  0.00    -0.248 NA
ATOM     40  C   UNL A   1      37.472  34.042  32.983  1.00  0.00     0.031 C 
ATOM     41  C   UNL A   1      37.564  30.807  29.127  1.00  0.00     0.029 A 
ATOM     42  N   UNL A   1      39.122  30.563  30.711  1.00  0.00    -0.354 N 
ATOM     43  C   UNL A   1      39.357  33.313  34.045  1.00  0.00     0.074 A 
ATOM     44  C   UNL A   1      38.309  34.306  33.973  1.00  0.00     0.031 C 
ATOM     45  C   UNL A   1      38.328  29.758  28.781  1.00  0.00     0.029 A 
ATOM     46  C   UNL A   1      39.371  29.576  29.788  1.00  0.00     0.049 A 
ATOM     47  H   UNL A   1      39.667  30.692  31.521  1.00  0.00     0.167 HD
ATOM     48  C   UNL A   1      40.274  33.246  35.036  1.00  0.00     0.037 A 
ATOM     49  C   UNL A   1      40.331  28.634  29.759  1.00  0.00     0.037 A 
ATOM     50  C   UNL A   1      41.290  32.233  35.127  1.00  0.00     0.049 A 
ATOM     51  C   UNL A   1      41.328  28.571  30.884  1.00  0.00     0.074 A 
ATOM     52  C   UNL A   1      42.238  32.048  36.118  1.00  0.00     0.029 A 
ATOM     53  N   UNL A   1      41.483  31.227  34.192  1.00  0.00    -0.354 N 
ATOM     54  N   UNL A   1      41.433  29.339  31.941  1.00  0.00    -0.248 NA
ATOM     55  C   UNL A   1      42.337  27.504  30.815  1.00  0.00     0.031 C 
ATOM     56  C   UNL A   1      43.023  30.944  35.768  1.00  0.00     0.029 A 
ATOM     57  C   UNL A   1      42.538  30.420  34.581  1.00  0.00     0.049 A 
ATOM     58  H   UNL A   1      40.950  31.105  33.374  1.00  0.00     0.167 HD
ATOM     59  C   UNL A   1      42.490  28.826  32.680  1.00  0.00     0.074 A 
ATOM     60  C   UNL A   1      42.990  27.677  31.955  1.00  0.00     0.031 C 
ATOM     61  C   UNL A   1      43.003  29.266  33.856  1.00  0.00     0.037 A 
BRANCH  48  62
ATOM     62  C   UNL A   1      40.203  34.289  36.112  1.00  0.00     0.057 A 
ATOM     63  C   UNL A   1      40.930  35.484  36.027  1.00  0.00     0.134 A 
ATOM     64  C   UNL A   1      39.385  34.109  37.233  1.00  0.00     0.134 A 
ATOM     65  F   UNL A   1      41.746  35.712  34.986  1.00  0.00    -0.206 F 
ATOM     66  C   UNL A   1      40.865  36.452  37.031  1.00  0.00     0.040 A 
ATOM     67  C   UNL A   1      39.291  35.081  38.231  1.00  0.00     0.040 A 
ATOM     68  F   UNL A   1      38.662  32.989  37.377  1.00  0.00    -0.206 F 
ATOM     69  C   UNL A   1      40.037  36.254  38.134  1.00  0.00     0.006 A 
ENDBRANCH  48  62
BRANCH  49  70
ATOM     70  C   UNL A   1      40.382  27.647  28.651  1.00  0.00     0.057 A 
ATOM     71  C   UNL A   1      41.146  27.891  27.504  1.00  0.00     0.134 A 
ATOM     72  C   UNL A   1      39.654  26.452  28.698  1.00  0.00     0.134 A 
ATOM     73  F   UNL A   1      41.851  29.026  27.394  1.00  0.00    -0.206 F 
ATOM     74  C   UNL A   1      41.163  26.999  26.431  1.00  0.00     0.040 A 
ATOM     75  C   UNL A   1      39.681  25.539  27.642  1.00  0.00     0.040 A 
ATOM     76  F   UNL A   1      38.908  26.155  29.772  1.00  0.00    -0.206 F 
ATOM     77  C   UNL A   1      40.431  25.816  26.500  1.00  0.00     0.006 A 
ENDBRANCH  49  70
BRANCH  61  78
ATOM     78  C   UNL A   1      44.124  28.472  34.455  1.00  0.00     0.057 A 
ATOM     79  C   UNL A   1      43.891  27.381  35.301  1.00  0.00     0.134 A 
ATOM     80  C   UNL A   1      45.455  28.781  34.146  1.00  0.00     0.134 A 
ATOM     81  F   UNL A   1      42.638  27.042  35.644  1.00  0.00    -0.206 F 
ATOM     82  C   UNL A   1      44.944  26.637  35.836  1.00  0.00     0.040 A 
ATOM     83  C   UNL A   1      46.515  28.029  34.654  1.00  0.00     0.040 A 
ATOM     84  F   UNL A   1      45.745  29.808  33.334  1.00  0.00    -0.206 F 
ATOM     85  C   UNL A   1      46.259  26.957  35.508  1.00  0.00     0.006 A 
ENDBRANCH  61  78
ENDBRANCH  35  36
ENDBRANCH  27  30
ENDBRANCH  25  26
ENDBRANCH  24  25
ENDBRANCH   1  24
TORSDOF 14
ENDMDL
MODEL 2
REMARK VINA RESULT:     -11.7      4.105      9.400
REMARK SMILES CN1CC(=O)N(CC(=O)N2CCCC[C@H]2C(=O)NCCCCNC(=O)c2ccc(-c3c4nc(c(-c5c(F)cccc5F)c5ccc([nH]5)c(-c5c(F)cccc5F)c5nc(c(-c6c(F)cccc6F)c6ccc3[nH]6)C=C5)C=C4)cc2)C1=O
REMARK SMILES IDX 20 1 19 2 18 3 16 4 17 5 15 7 10 8 11 9 12 10 14 11 13 12
REMARK SMILES IDX 8 13 9 14 7 15 6 16 1 17 2 18 3 19 80 20 4 21 81 22 5 23
REMARK SMILES IDX 21 24 22 25 23 26 24 27 25 29 26 30 27 31 79 32 28 33 78 34
REMARK SMILES IDX 29 35 30 36 31 37 72 38 32 39 77 40 71 41 73 42 33 43 76 44
REMARK SMILES IDX 70 45 69 46 34 48 60 49 43 50 59 51 44 52 47 53 58 54 74 55
REMARK SMILES IDX 45 56 46 57 57 59 75 60 48 61 35 62 36 63 41 64 37 65 38 66
REMARK SMILES IDX 40 67 42 68 39 69 61 70 62 71 67 72 63 73 64 74 66 75 68 76
REMARK SMILES IDX 65 77 49 78 50 79 55 80 51 81 52 82 54 83 56 84 53 85
REMARK H PARENT 18 6 23 28 73 47 47 58
REMARK Flexibility Score: inf
ROOT
ATOM      1  C   UNL A   1      38.916  22.520  26.168  1.00  0.00     0.023 C 
ENDROOT
BRANCH   1   2
ATOM      2  C   UNL A   1      37.704  23.294  25.665  1.00  0.00     0.116 C 
BRANCH   2   3
ATOM      3  N   UNL A   1      37.393  23.019  24.281  1.00  0.00    -0.354 N 
ATOM      4  C   UNL A   1      36.290  23.256  23.522  1.00  0.00     0.242 C 
ATOM      5  O   UNL A   1      36.384  22.929  22.330  1.00  0.00    -0.273 OA
ATOM      6  H   UNL A   1      38.122  22.572  23.792  1.00  0.00     0.163 HD
BRANCH   4   7
ATOM      7  C   UNL A   1      34.923  23.753  24.087  1.00  0.00     0.174 C 
ATOM      8  N   UNL A   1      33.855  24.169  23.166  1.00  0.00    -0.329 N 
ATOM      9  C   UNL A   1      33.205  23.059  22.447  1.00  0.00     0.120 C 
ATOM     10  C   UNL A   1      32.674  21.982  23.382  1.00  0.00     0.022 C 
ATOM     11  C   UNL A   1      34.356  22.712  25.080  1.00  0.00     0.035 C 
ATOM     12  C   UNL A   1      33.750  21.515  24.355  1.00  0.00     0.004 C 
BRANCH   8  13
ATOM     13  C   UNL A   1      33.464  25.472  22.861  1.00  0.00     0.243 C 
ATOM     14  O   UNL A   1      33.911  26.014  21.838  1.00  0.00    -0.273 OA
BRANCH  13  15
ATOM     15  C   UNL A   1      32.751  26.407  23.869  1.00  0.00     0.230 C 
BRANCH  15  16
ATOM     16  N   UNL A   1      31.344  26.702  23.774  1.00  0.00    -0.253 N 
ATOM     17  C   UNL A   1      28.513  28.746  22.861  1.00  0.00     0.149 C 
ATOM     18  N   UNL A   1      29.434  27.699  23.233  1.00  0.00    -0.318 N 
ATOM     19  C   UNL A   1      29.011  26.493  23.902  1.00  0.00     0.221 C 
ATOM     20  C   UNL A   1      30.808  27.779  23.127  1.00  0.00     0.327 C 
ATOM     21  C   UNL A   1      30.359  25.871  24.224  1.00  0.00     0.250 C 
ATOM     22  O   UNL A   1      31.432  28.681  22.592  1.00  0.00    -0.248 OA
ATOM     23  O   UNL A   1      30.516  24.801  24.793  1.00  0.00    -0.272 OA
ENDBRANCH  15  16
ENDBRANCH  13  15
ENDBRANCH   8  13
ENDBRANCH   4   7
ENDBRANCH   2   3
ENDBRANCH   1   2
BRANCH   1  24
ATOM     24  C   UNL A   1      39.083  21.134  25.558  1.00  0.00     0.023 C 
BRANCH  24  25
ATOM     25  C   UNL A   1      39.602  20.071  26.516  1.00  0.00     0.116 C 
BRANCH  25  26
ATOM     26  N   UNL A   1      40.713  19.293  25.982  1.00  0.00    -0.352 N 
ATOM     27  C   UNL A   1      42.035  19.653  25.880  1.00  0.00     0.251 C 
ATOM     28  H   UNL A   1      40.486  18.392  25.653  1.00  0.00     0.163 HD
ATOM     29  O   UNL A   1      42.847  18.925  25.321  1.00  0.00    -0.269 OA
BRANCH  27  30
ATOM     30  C   UNL A   1      42.452  20.960  26.421  1.00  0.00     0.039 A 
ATOM     31  C   UNL A   1      42.778  21.987  25.534  1.00  0.00     0.014 A 
ATOM     32  C   UNL A   1      42.441  21.181  27.801  1.00  0.00     0.014 A 
ATOM     33  C   UNL A   1      43.022  23.267  26.033  1.00  0.00     0.010 A 
ATOM     34  C   UNL A   1      42.597  22.472  28.285  1.00  0.00     0.010 A 
ATOM     35  C   UNL A   1      42.896  23.527  27.407  1.00  0.00    -0.014 A 
BRANCH  35  36
ATOM     36  C   UNL A   1      43.101  24.887  27.958  1.00  0.00     0.031 A 
ATOM     37  C   UNL A   1      44.480  25.319  28.373  1.00  0.00     0.074 A 
ATOM     38  C   UNL A   1      42.047  25.705  28.147  1.00  0.00     0.049 A 
ATOM     39  N   UNL A   1      44.861  26.426  28.958  1.00  0.00    -0.248 NA
ATOM     40  C   UNL A   1      45.573  24.362  28.131  1.00  0.00     0.031 C 
ATOM     41  C   UNL A   1      40.653  25.382  27.833  1.00  0.00     0.029 A 
ATOM     42  N   UNL A   1      41.984  26.976  28.660  1.00  0.00    -0.354 N 
ATOM     43  C   UNL A   1      46.226  26.288  29.170  1.00  0.00     0.074 A 
ATOM     44  C   UNL A   1      46.598  24.968  28.709  1.00  0.00     0.031 C 
ATOM     45  C   UNL A   1      39.879  26.437  28.134  1.00  0.00     0.029 A 
ATOM     46  C   UNL A   1      40.713  27.497  28.693  1.00  0.00     0.049 A 
ATOM     47  H   UNL A   1      42.777  27.468  28.974  1.00  0.00     0.167 HD
ATOM     48  C   UNL A   1      47.099  27.189  29.674  1.00  0.00     0.037 A 
ATOM     49  C   UNL A   1      40.275  28.693  29.126  1.00  0.00     0.037 A 
ATOM     50  C   UNL A   1      46.735  28.516  30.094  1.00  0.00     0.049 A 
ATOM     51  C   UNL A   1      41.270  29.685  29.667  1.00  0.00     0.074 A 
ATOM     52  C   UNL A   1      47.551  29.524  30.574  1.00  0.00     0.029 A 
ATOM     53  N   UNL A   1      45.442  29.019  30.074  1.00  0.00    -0.354 N 
ATOM     54  N   UNL A   1      42.567  29.562  29.809  1.00  0.00    -0.248 NA
ATOM     55  C   UNL A   1      40.739  30.986  30.099  1.00  0.00     0.031 C 
ATOM     56  C   UNL A   1      46.749  30.630  30.871  1.00  0.00     0.029 A 
ATOM     57  C   UNL A   1      45.439  30.323  30.537  1.00  0.00     0.049 A 
ATOM     58  H   UNL A   1      44.647  28.523  29.775  1.00  0.00     0.167 HD
ATOM     59  C   UNL A   1      43.011  30.779  30.310  1.00  0.00     0.074 A 
ATOM     60  C   UNL A   1      41.846  31.629  30.439  1.00  0.00     0.031 C 
ATOM     61  C   UNL A   1      44.271  31.160  30.634  1.00  0.00     0.037 A 
BRANCH  48  62
ATOM     62  C   UNL A   1      48.537  26.774  29.779  1.00  0.00     0.057 A 
ATOM     63  C   UNL A   1      49.451  27.023  28.747  1.00  0.00     0.134 A 
ATOM     64  C   UNL A   1      49.018  26.139  30.930  1.00  0.00     0.134 A 
ATOM     65  F   UNL A   1      49.050  27.613  27.610  1.00  0.00    -0.206 F 
ATOM     66  C   UNL A   1      50.788  26.633  28.845  1.00  0.00     0.040 A 
ATOM     67  C   UNL A   1      50.359  25.768  31.051  1.00  0.00     0.040 A 
ATOM     68  F   UNL A   1      48.197  25.872  31.956  1.00  0.00    -0.206 F 
ATOM     69  C   UNL A   1      51.246  26.010  30.004  1.00  0.00     0.006 A 
ENDBRANCH  48  62
BRANCH  49  70
ATOM     70  C   UNL A   1      38.835  29.043  29.037  1.00  0.00     0.057 A 
ATOM     71  C   UNL A   1      38.278  29.498  27.836  1.00  0.00     0.134 A 
ATOM     72  C   UNL A   1      37.988  28.956  30.147  1.00  0.00     0.134 A 
ATOM     73  F   UNL A   1      39.044  29.619  26.741  1.00  0.00    -0.206 F 
ATOM     74  C   UNL A   1      36.940  29.881  27.748  1.00  0.00     0.040 A 
ATOM     75  C   UNL A   1      36.640  29.312  30.067  1.00  0.00     0.040 A 
ATOM     76  F   UNL A   1      38.458  28.520  31.325  1.00  0.00    -0.206 F 
ATOM     77  C   UNL A   1      36.115  29.786  28.867  1.00  0.00     0.006 A 
ENDBRANCH  49  70
BRANCH  61  78
ATOM     78  C   UNL A   1      44.462  32.570  31.105  1.00  0.00     0.057 A 
ATOM     79  C   UNL A   1      44.691  33.625  30.214  1.00  0.00     0.134 A 
ATOM     80  C   UNL A   1      44.371  32.880  32.468  1.00  0.00     0.134 A 
ATOM     81  F   UNL A   1      44.800  33.391  28.896  1.00  0.00    -0.206 F 
ATOM     82  C   UNL A   1      44.847  34.937  30.664  1.00  0.00     0.040 A 
ATOM     83  C   UNL A   1      44.499  34.191  32.928  1.00  0.00     0.040 A 
ATOM     84  F   UNL A   1      44.143  31.915  33.372  1.00  0.00    -0.206 F 
ATOM     85  C   UNL A   1      44.744  35.223  32.024  1.00  0.00     0.006 A 
ENDBRANCH  61  78
ENDBRANCH  35  36
ENDBRANCH  27  30
ENDBRANCH  25  26
ENDBRANCH  24  25
ENDBRANCH   1  24
TORSDOF 14
ENDMDL
MODEL 3
REMARK VINA RESULT:     -11.7      4.448      9.819
REMARK SMILES CN1CC(=O)N(CC(=O)N2CCCC[C@H]2C(=O)NCCCCNC(=O)c2ccc(-c3c4nc(c(-c5c(F)cccc5F)c5ccc([nH]5)c(-c5c(F)cccc5F)c5nc(c(-c6c(F)cccc6F)c6ccc3[nH]6)C=C5)C=C4)cc2)C1=O
REMARK SMILES IDX 20 1 19 2 18 3 16 4 17 5 15 7 10 8 11 9 12 10 14 11 13 12
REMARK SMILES IDX 8 13 9 14 7 15 6 16 1 17 2 18 3 19 80 20 4 21 81 22 5 23
REMARK SMILES IDX 21 24 22 25 23 26 24 27 25 29 26 30 27 31 79 32 28 33 78 34
REMARK SMILES IDX 29 35 30 36 31 37 72 38 32 39 77 40 71 41 73 42 33 43 76 44
REMARK SMILES IDX 70 45 69 46 34 48 60 49 43 50 59 51 44 52 47 53 58 54 74 55
REMARK SMILES IDX 45 56 46 57 57 59 75 60 48 61 35 62 36 63 41 64 37 65 38 66
REMARK SMILES IDX 40 67 42 68 39 69 61 70 62 71 67 72 63 73 64 74 66 75 68 76
REMARK SMILES IDX 65 77 49 78 50 79 55 80 51 81 52 82 54 83 56 84 53 85
REMARK H PARENT 18 6 23 28 73 47 47 58
REMARK Flexibility Score: inf
ROOT
ATOM      1  C   UNL A   1      36.996  20.926  24.704  1.00  0.00     0.023 C 
ENDROOT
BRANCH   1   2
ATOM      2  C   UNL A   1      35.575  20.702  25.207  1.00  0.00     0.116 C 
BRANCH   2   3
ATOM      3  N   UNL A   1      35.295  21.404  26.439  1.00  0.00    -0.354 N 
ATOM      4  C   UNL A   1      34.321  22.283  26.795  1.00  0.00     0.242 C 
ATOM      5  O   UNL A   1      34.350  22.660  27.976  1.00  0.00    -0.273 OA
ATOM      6  H   UNL A   1      35.934  21.207  27.162  1.00  0.00     0.163 HD
BRANCH   4   7
ATOM      7  C   UNL A   1      33.313  22.932  25.796  1.00  0.00     0.174 C 
ATOM      8  N   UNL A   1      32.722  24.244  26.097  1.00  0.00    -0.329 N 
ATOM      9  C   UNL A   1      33.653  25.377  25.961  1.00  0.00     0.120 C 
ATOM     10  C   UNL A   1      34.324  25.427  24.594  1.00  0.00     0.022 C 
ATOM     11  C   UNL A   1      33.928  22.968  24.378  1.00  0.00     0.035 C 
ATOM     12  C   UNL A   1      34.956  24.087  24.240  1.00  0.00     0.004 C 
BRANCH   8  13
ATOM     13  C   UNL A   1      31.431  24.502  26.558  1.00  0.00     0.243 C 
ATOM     14  O   UNL A   1      30.899  23.704  27.345  1.00  0.00    -0.273 OA
BRANCH  13  15
ATOM     15  C   UNL A   1      30.492  25.557  25.920  1.00  0.00     0.230 C 
BRANCH  15  16
ATOM     16  N   UNL A   1      30.930  26.901  25.642  1.00  0.00    -0.253 N 
ATOM     17  C   UNL A   1      31.925  30.243  26.570  1.00  0.00     0.149 C 
ATOM     18  N   UNL A   1      31.671  28.974  25.931  1.00  0.00    -0.318 N 
ATOM     19  C   UNL A   1      31.654  28.816  24.498  1.00  0.00     0.221 C 
ATOM     20  C   UNL A   1      31.287  27.821  26.586  1.00  0.00     0.327 C 
ATOM     21  C   UNL A   1      31.154  27.386  24.387  1.00  0.00     0.250 C 
ATOM     22  O   UNL A   1      31.231  27.672  27.795  1.00  0.00    -0.248 OA
ATOM     23  O   UNL A   1      30.984  26.785  23.336  1.00  0.00    -0.272 OA
ENDBRANCH  15  16
ENDBRANCH  13  15
ENDBRANCH   8  13
ENDBRANCH   4   7
ENDBRANCH   2   3
ENDBRANCH   1   2
BRANCH   1  24
ATOM     24  C   UNL A   1      37.958  19.779  24.987  1.00  0.00     0.023 C 
BRANCH  24  25
ATOM     25  C   UNL A   1      39.204  20.168  25.770  1.00  0.00     0.116 C 
BRANCH  25  26
ATOM     26  N   UNL A   1      40.219  19.122  25.815  1.00  0.00    -0.352 N 
ATOM     27  C   UNL A   1      41.556  19.244  26.107  1.00  0.00     0.251 C 
ATOM     28  H   UNL A   1      39.905  18.212  25.609  1.00  0.00     0.163 HD
ATOM     29  O   UNL A   1      42.313  18.285  26.015  1.00  0.00    -0.269 OA
BRANCH  27  30
ATOM     30  C   UNL A   1      42.074  20.569  26.493  1.00  0.00     0.039 A 
ATOM     31  C   UNL A   1      42.480  21.455  25.494  1.00  0.00     0.014 A 
ATOM     32  C   UNL A   1      42.079  20.953  27.837  1.00  0.00     0.014 A 
ATOM     33  C   UNL A   1      42.824  22.763  25.840  1.00  0.00     0.010 A 
ATOM     34  C   UNL A   1      42.336  22.277  28.166  1.00  0.00     0.010 A 
ATOM     35  C   UNL A   1      42.717  23.193  27.172  1.00  0.00    -0.014 A 
BRANCH  35  36
ATOM     36  C   UNL A   1      43.028  24.589  27.560  1.00  0.00     0.031 A 
ATOM     37  C   UNL A   1      44.463  25.032  27.649  1.00  0.00     0.074 A 
ATOM     38  C   UNL A   1      42.033  25.434  27.895  1.00  0.00     0.049 A 
ATOM     39  N   UNL A   1      44.953  26.176  28.055  1.00  0.00    -0.248 NA
ATOM     40  C   UNL A   1      45.484  24.044  27.266  1.00  0.00     0.031 C 
ATOM     41  C   UNL A   1      40.605  25.108  27.898  1.00  0.00     0.029 A 
ATOM     42  N   UNL A   1      42.075  26.742  28.307  1.00  0.00    -0.354 N 
ATOM     43  C   UNL A   1      46.333  26.035  27.993  1.00  0.00     0.074 A 
ATOM     44  C   UNL A   1      46.605  24.678  27.573  1.00  0.00     0.031 C 
ATOM     45  C   UNL A   1      39.907  26.195  28.267  1.00  0.00     0.029 A 
ATOM     46  C   UNL A   1      40.837  27.282  28.558  1.00  0.00     0.049 A 
ATOM     47  H   UNL A   1      42.914  27.246  28.413  1.00  0.00     0.167 HD
ATOM     48  C   UNL A   1      47.289  26.960  28.236  1.00  0.00     0.037 A 
ATOM     49  C   UNL A   1      40.494  28.515  28.975  1.00  0.00     0.037 A 
ATOM     50  C   UNL A   1      47.015  28.320  28.615  1.00  0.00     0.049 A 
ATOM     51  C   UNL A   1      41.576  29.531  29.221  1.00  0.00     0.074 A 
ATOM     52  C   UNL A   1      47.911  29.351  28.837  1.00  0.00     0.029 A 
ATOM     53  N   UNL A   1      45.745  28.839  28.819  1.00  0.00    -0.354 N 
ATOM     54  N   UNL A   1      42.876  29.402  29.105  1.00  0.00    -0.248 NA
ATOM     55  C   UNL A   1      41.143  30.870  29.648  1.00  0.00     0.031 C 
ATOM     56  C   UNL A   1      47.184  30.488  29.202  1.00  0.00     0.029 A 
ATOM     57  C   UNL A   1      45.835  30.176  29.169  1.00  0.00     0.049 A 
ATOM     58  H   UNL A   1      44.906  28.333  28.729  1.00  0.00     0.167 HD
ATOM     59  C   UNL A   1      43.410  30.647  29.406  1.00  0.00     0.074 A 
ATOM     60  C   UNL A   1      42.295  31.521  29.703  1.00  0.00     0.031 C 
ATOM     61  C   UNL A   1      44.710  31.034  29.435  1.00  0.00     0.037 A 
BRANCH  48  62
ATOM     62  C   UNL A   1      48.718  26.534  28.078  1.00  0.00     0.057 A 
ATOM     63  C   UNL A   1      49.393  26.664  26.856  1.00  0.00     0.134 A 
ATOM     64  C   UNL A   1      49.434  26.009  29.159  1.00  0.00     0.134 A 
ATOM     65  F   UNL A   1      48.759  27.145  25.776  1.00  0.00    -0.206 F 
ATOM     66  C   UNL A   1      50.723  26.264  26.710  1.00  0.00     0.040 A 
ATOM     67  C   UNL A   1      50.772  25.630  29.033  1.00  0.00     0.040 A 
ATOM     68  F   UNL A   1      48.849  25.859  30.357  1.00  0.00    -0.206 F 
ATOM     69  C   UNL A   1      51.418  25.751  27.804  1.00  0.00     0.006 A 
ENDBRANCH  48  62
BRANCH  49  70
ATOM     70  C   UNL A   1      39.065  28.878  29.154  1.00  0.00     0.057 A 
ATOM     71  C   UNL A   1      38.328  29.437  28.104  1.00  0.00     0.134 A 
ATOM     72  C   UNL A   1      38.410  28.698  30.378  1.00  0.00     0.134 A 
ATOM     73  F   UNL A   1      38.906  29.649  26.912  1.00  0.00    -0.206 F 
ATOM     74  C   UNL A   1      37.000  29.833  28.270  1.00  0.00     0.040 A 
ATOM     75  C   UNL A   1      37.075  29.067  30.551  1.00  0.00     0.040 A 
ATOM     76  F   UNL A   1      39.059  28.161  31.421  1.00  0.00    -0.206 F 
ATOM     77  C   UNL A   1      36.369  29.644  29.498  1.00  0.00     0.006 A 
ENDBRANCH  49  70
BRANCH  61  78
ATOM     78  C   UNL A   1      44.990  32.473  29.744  1.00  0.00     0.057 A 
ATOM     79  C   UNL A   1      45.244  32.917  31.047  1.00  0.00     0.134 A 
ATOM     80  C   UNL A   1      45.048  33.421  28.713  1.00  0.00     0.134 A 
ATOM     81  F   UNL A   1      45.192  32.060  32.079  1.00  0.00    -0.206 F 
ATOM     82  C   UNL A   1      45.523  34.257  31.318  1.00  0.00     0.040 A 
ATOM     83  C   UNL A   1      45.351  34.758  28.969  1.00  0.00     0.040 A 
ATOM     84  F   UNL A   1      44.823  33.059  27.442  1.00  0.00    -0.206 F 
ATOM     85  C   UNL A   1      45.584  35.180  30.276  1.00  0.00     0.006 A 
ENDBRANCH  61  78
ENDBRANCH  35  36
ENDBRANCH  27  30
ENDBRANCH  25  26
ENDBRANCH  24  25
ENDBRANCH   1  24
TORSDOF 14
ENDMDL
