MODEL 1
REMARK VINA RESULT:     -12.1      0.000      0.000
REMARK SMILES Nc1ncc(C(=O)NCCCCNC(=O)c2ccc(-c3c4nc(c(-c5c(F)cccc5F)c5ccc([nH]5)c(-c5c(F)cccc5F)c5nc(c(-c6c(F)cccc6F)c6ccc3[nH]6)C=C5)C=C4)cc2)c(-c2ccccc2)n1
REMARK SMILES IDX 11 1 10 2 9 3 8 4 6 5 7 6 5 8 2 9 3 10 77 11 4 12 70 13 1 14
REMARK SMILES IDX 71 17 72 18 76 19 73 20 75 21 74 22 12 23 13 24 14 25 15 27
REMARK SMILES IDX 16 28 17 29 69 30 18 31 68 32 19 33 20 34 21 35 62 36 22 37
REMARK SMILES IDX 67 38 61 39 63 40 23 41 66 42 60 43 59 44 24 46 50 47 33 48
REMARK SMILES IDX 49 49 34 50 37 51 48 52 64 53 35 54 36 55 47 57 65 58 38 59
REMARK SMILES IDX 25 60 26 61 31 62 27 63 28 64 30 65 32 66 29 67 51 68 52 69
REMARK SMILES IDX 57 70 53 71 54 72 56 73 58 74 55 75 39 76 40 77 45 78 41 79
REMARK SMILES IDX 42 80 44 81 46 82 43 83
REMARK H PARENT 8 7 1 15 1 16 13 26 63 45 37 56
REMARK Flexibility Score: inf
ROOT
ATOM      1  C   UNL A   1      37.750  19.977  25.011  1.00  0.00     0.023 C 
ENDROOT
BRANCH   1   2
ATOM      2  C   UNL A   1      36.914  21.128  24.454  1.00  0.00     0.023 C 
BRANCH   2   3
ATOM      3  C   UNL A   1      36.493  22.214  25.432  1.00  0.00     0.116 C 
BRANCH   3   4
ATOM      4  N   UNL A   1      35.535  21.847  26.444  1.00  0.00    -0.352 N 
ATOM      5  C   UNL A   1      34.295  21.267  26.311  1.00  0.00     0.255 C 
ATOM      6  O   UNL A   1      33.703  20.978  27.354  1.00  0.00    -0.269 OA
ATOM      7  H   UNL A   1      35.809  22.040  27.370  1.00  0.00     0.163 HD
BRANCH   5   8
ATOM      8  C   UNL A   1      33.573  21.048  25.031  1.00  0.00     0.084 A 
ATOM      9  C   UNL A   1      32.179  21.081  22.667  1.00  0.00     0.220 A 
ATOM     10  N   UNL A   1      32.428  22.250  23.247  1.00  0.00    -0.221 NA
ATOM     11  N   UNL A   1      32.554  19.907  23.168  1.00  0.00    -0.212 NA
ATOM     12  C   UNL A   1      33.111  22.203  24.416  1.00  0.00     0.131 A 
ATOM     13  C   UNL A   1      33.232  19.887  24.352  1.00  0.00     0.089 A 
BRANCH   9  14
ATOM     14  N   UNL A   1      31.504  21.076  21.484  1.00  0.00    -0.368 N 
ATOM     15  H   UNL A   1      30.922  21.833  21.246  1.00  0.00     0.159 HD
ATOM     16  H   UNL A   1      31.598  20.313  20.868  1.00  0.00     0.159 HD
ENDBRANCH   9  14
BRANCH  13  17
ATOM     17  C   UNL A   1      33.540  18.507  24.746  1.00  0.00     0.001 A 
ATOM     18  C   UNL A   1      34.747  17.876  24.411  1.00  0.00     0.010 A 
ATOM     19  C   UNL A   1      32.591  17.780  25.496  1.00  0.00     0.010 A 
ATOM     20  C   UNL A   1      34.963  16.536  24.757  1.00  0.00     0.001 A 
ATOM     21  C   UNL A   1      32.798  16.439  25.821  1.00  0.00     0.001 A 
ATOM     22  C   UNL A   1      33.984  15.815  25.443  1.00  0.00     0.000 A 
ENDBRANCH  13  17
ENDBRANCH   5   8
ENDBRANCH   3   4
ENDBRANCH   2   3
ENDBRANCH   1   2
BRANCH   1  23
ATOM     23  C   UNL A   1      39.073  20.322  25.689  1.00  0.00     0.116 C 
BRANCH  23  24
ATOM     24  N   UNL A   1      40.026  19.223  25.772  1.00  0.00    -0.352 N 
ATOM     25  C   UNL A   1      41.361  19.204  26.117  1.00  0.00     0.251 C 
ATOM     26  H   UNL A   1      39.652  18.342  25.541  1.00  0.00     0.163 HD
ATOM     27  O   UNL A   1      41.982  18.153  26.106  1.00  0.00    -0.269 OA
BRANCH  25  28
ATOM     28  C   UNL A   1      42.062  20.468  26.444  1.00  0.00     0.039 A 
ATOM     29  C   UNL A   1      42.589  21.234  25.399  1.00  0.00     0.014 A 
ATOM     30  C   UNL A   1      42.160  20.921  27.759  1.00  0.00     0.014 A 
ATOM     31  C   UNL A   1      43.093  22.511  25.663  1.00  0.00     0.010 A 
ATOM     32  C   UNL A   1      42.572  22.226  28.007  1.00  0.00     0.010 A 
ATOM     33  C   UNL A   1      43.022  23.045  26.959  1.00  0.00    -0.014 A 
BRANCH  33  34
ATOM     34  C   UNL A   1      43.367  24.463  27.243  1.00  0.00     0.031 A 
ATOM     35  C   UNL A   1      44.798  24.919  27.195  1.00  0.00     0.074 A 
ATOM     36  C   UNL A   1      42.405  25.314  27.658  1.00  0.00     0.049 A 
ATOM     37  N   UNL A   1      45.316  26.068  27.550  1.00  0.00    -0.248 NA
ATOM     38  C   UNL A   1      45.787  23.937  26.724  1.00  0.00     0.031 C 
ATOM     39  C   UNL A   1      40.986  24.981  27.811  1.00  0.00     0.029 A 
ATOM     40  N   UNL A   1      42.477  26.628  28.049  1.00  0.00    -0.354 N 
ATOM     41  C   UNL A   1      46.687  25.935  27.376  1.00  0.00     0.074 A 
ATOM     42  C   UNL A   1      46.927  24.579  26.930  1.00  0.00     0.031 C 
ATOM     43  C   UNL A   1      40.321  26.067  28.237  1.00  0.00     0.029 A 
ATOM     44  C   UNL A   1      41.269  27.159  28.429  1.00  0.00     0.049 A 
ATOM     45  H   UNL A   1      43.318  27.141  28.055  1.00  0.00     0.167 HD
ATOM     46  C   UNL A   1      47.658  26.863  27.551  1.00  0.00     0.037 A 
ATOM     47  C   UNL A   1      40.958  28.387  28.890  1.00  0.00     0.037 A 
ATOM     48  C   UNL A   1      47.412  28.223  27.952  1.00  0.00     0.049 A 
ATOM     49  C   UNL A   1      42.049  29.409  29.046  1.00  0.00     0.074 A 
ATOM     50  C   UNL A   1      48.318  29.261  28.083  1.00  0.00     0.029 A 
ATOM     51  N   UNL A   1      46.166  28.735  28.281  1.00  0.00    -0.354 N 
ATOM     52  N   UNL A   1      43.334  29.287  28.815  1.00  0.00    -0.248 NA
ATOM     53  C   UNL A   1      41.647  30.740  29.521  1.00  0.00     0.031 C 
ATOM     54  C   UNL A   1      47.625  30.394  28.523  1.00  0.00     0.029 A 
ATOM     55  C   UNL A   1      46.281  30.072  28.626  1.00  0.00     0.049 A 
ATOM     56  H   UNL A   1      45.324  28.225  28.270  1.00  0.00     0.167 HD
ATOM     57  C   UNL A   1      43.888  30.530  29.090  1.00  0.00     0.074 A 
ATOM     58  C   UNL A   1      42.798  31.395  29.493  1.00  0.00     0.031 C 
ATOM     59  C   UNL A   1      45.184  30.920  29.015  1.00  0.00     0.037 A 
BRANCH  46  60
ATOM     60  C   UNL A   1      49.074  26.436  27.301  1.00  0.00     0.057 A 
ATOM     61  C   UNL A   1      49.890  25.943  28.329  1.00  0.00     0.134 A 
ATOM     62  C   UNL A   1      49.625  26.497  26.014  1.00  0.00     0.134 A 
ATOM     63  F   UNL A   1      49.428  25.869  29.586  1.00  0.00    -0.206 F 
ATOM     64  C   UNL A   1      51.211  25.558  28.093  1.00  0.00     0.040 A 
ATOM     65  C   UNL A   1      50.936  26.088  25.761  1.00  0.00     0.040 A 
ATOM     66  F   UNL A   1      48.898  26.951  24.982  1.00  0.00    -0.206 F 
ATOM     67  C   UNL A   1      51.735  25.625  26.804  1.00  0.00     0.006 A 
ENDBRANCH  46  60
BRANCH  47  68
ATOM     68  C   UNL A   1      39.549  28.729  29.206  1.00  0.00     0.057 A 
ATOM     69  C   UNL A   1      39.029  28.518  30.489  1.00  0.00     0.134 A 
ATOM     70  C   UNL A   1      38.688  29.269  28.242  1.00  0.00     0.134 A 
ATOM     71  F   UNL A   1      39.801  27.985  31.448  1.00  0.00    -0.206 F 
ATOM     72  C   UNL A   1      37.702  28.814  30.800  1.00  0.00     0.040 A 
ATOM     73  C   UNL A   1      37.363  29.592  28.547  1.00  0.00     0.040 A 
ATOM     74  F   UNL A   1      39.125  29.503  26.997  1.00  0.00    -0.206 F 
ATOM     75  C   UNL A   1      36.866  29.357  29.828  1.00  0.00     0.006 A 
ENDBRANCH  47  68
BRANCH  59  76
ATOM     76  C   UNL A   1      45.488  32.352  29.339  1.00  0.00     0.057 A 
ATOM     77  C   UNL A   1      45.853  32.756  30.629  1.00  0.00     0.134 A 
ATOM     78  C   UNL A   1      45.454  33.330  28.338  1.00  0.00     0.134 A 
ATOM     79  F   UNL A   1      45.891  31.867  31.634  1.00  0.00    -0.206 F 
ATOM     80  C   UNL A   1      46.156  34.087  30.916  1.00  0.00     0.040 A 
ATOM     81  C   UNL A   1      45.778  34.660  28.608  1.00  0.00     0.040 A 
ATOM     82  F   UNL A   1      45.118  33.008  27.081  1.00  0.00    -0.206 F 
ATOM     83  C   UNL A   1      46.126  35.043  29.902  1.00  0.00     0.006 A 
ENDBRANCH  59  76
ENDBRANCH  33  34
ENDBRANCH  25  28
ENDBRANCH  23  24
ENDBRANCH   1  23
TORSDOF 13
ENDMDL
MODEL 2
REMARK VINA RESULT:     -12.1      5.606      9.258
REMARK SMILES Nc1ncc(C(=O)NCCCCNC(=O)c2ccc(-c3c4nc(c(-c5c(F)cccc5F)c5ccc([nH]5)c(-c5c(F)cccc5F)c5nc(c(-c6c(F)cccc6F)c6ccc3[nH]6)C=C5)C=C4)cc2)c(-c2ccccc2)n1
REMARK SMILES IDX 11 1 10 2 9 3 8 4 6 5 7 6 5 8 2 9 3 10 77 11 4 12 70 13 1 14
REMARK SMILES IDX 71 17 72 18 76 19 73 20 75 21 74 22 12 23 13 24 14 25 15 27
REMARK SMILES IDX 16 28 17 29 69 30 18 31 68 32 19 33 20 34 21 35 62 36 22 37
REMARK SMILES IDX 67 38 61 39 63 40 23 41 66 42 60 43 59 44 24 46 50 47 33 48
REMARK SMILES IDX 49 49 34 50 37 51 48 52 64 53 35 54 36 55 47 57 65 58 38 59
REMARK SMILES IDX 25 60 26 61 31 62 27 63 28 64 30 65 32 66 29 67 51 68 52 69
REMARK SMILES IDX 57 70 53 71 54 72 56 73 58 74 55 75 39 76 40 77 45 78 41 79
REMARK SMILES IDX 42 80 44 81 46 82 43 83
REMARK H PARENT 8 7 1 15 1 16 13 26 63 45 37 56
REMARK Flexibility Score: inf
ROOT
ATOM      1  C   UNL A   1      31.460  29.851  26.799  1.00  0.00     0.023 C 
ENDROOT
BRANCH   1   2
ATOM      2  C   UNL A   1      32.258  28.701  27.413  1.00  0.00     0.023 C 
BRANCH   2   3
ATOM      3  C   UNL A   1      32.204  27.360  26.696  1.00  0.00     0.116 C 
BRANCH   3   4
ATOM      4  N   UNL A   1      30.924  26.702  26.637  1.00  0.00    -0.352 N 
ATOM      5  C   UNL A   1      30.284  26.121  25.567  1.00  0.00     0.255 C 
ATOM      6  O   UNL A   1      29.218  25.547  25.804  1.00  0.00    -0.269 OA
ATOM      7  H   UNL A   1      30.434  26.663  27.489  1.00  0.00     0.163 HD
BRANCH   5   8
ATOM      8  C   UNL A   1      30.715  26.207  24.147  1.00  0.00     0.084 A 
ATOM      9  C   UNL A   1      31.776  26.024  21.623  1.00  0.00     0.220 A 
ATOM     10  N   UNL A   1      32.169  25.125  22.518  1.00  0.00    -0.221 NA
ATOM     11  N   UNL A   1      30.915  27.004  21.882  1.00  0.00    -0.212 NA
ATOM     12  C   UNL A   1      31.636  25.244  23.758  1.00  0.00     0.131 A 
ATOM     13  C   UNL A   1      30.399  27.107  23.141  1.00  0.00     0.089 A 
BRANCH   9  14
ATOM     14  N   UNL A   1      32.277  25.942  20.360  1.00  0.00    -0.368 N 
ATOM     15  H   UNL A   1      33.243  25.814  20.220  1.00  0.00     0.159 HD
ATOM     16  H   UNL A   1      31.672  26.012  19.586  1.00  0.00     0.159 HD
ENDBRANCH   9  14
BRANCH  13  17
ATOM     17  C   UNL A   1      29.487  28.254  23.232  1.00  0.00     0.001 A 
ATOM     18  C   UNL A   1      28.097  28.128  23.095  1.00  0.00     0.010 A 
ATOM     19  C   UNL A   1      30.022  29.538  23.473  1.00  0.00     0.010 A 
ATOM     20  C   UNL A   1      27.279  29.265  23.127  1.00  0.00     0.001 A 
ATOM     21  C   UNL A   1      29.209  30.671  23.482  1.00  0.00     0.001 A 
ATOM     22  C   UNL A   1      27.836  30.534  23.301  1.00  0.00     0.000 A 
ENDBRANCH  13  17
ENDBRANCH   5   8
ENDBRANCH   3   4
ENDBRANCH   2   3
ENDBRANCH   1   2
BRANCH   1  23
ATOM     23  C   UNL A   1      32.242  30.990  26.148  1.00  0.00     0.116 C 
BRANCH  23  24
ATOM     24  N   UNL A   1      32.071  32.291  26.780  1.00  0.00    -0.352 N 
ATOM     25  C   UNL A   1      32.906  33.017  27.603  1.00  0.00     0.251 C 
ATOM     26  H   UNL A   1      31.210  32.727  26.586  1.00  0.00     0.163 HD
ATOM     27  O   UNL A   1      32.549  34.101  28.038  1.00  0.00    -0.269 OA
BRANCH  25  28
ATOM     28  C   UNL A   1      34.216  32.458  28.010  1.00  0.00     0.039 A 
ATOM     29  C   UNL A   1      35.321  33.314  28.076  1.00  0.00     0.014 A 
ATOM     30  C   UNL A   1      34.352  31.118  28.368  1.00  0.00     0.014 A 
ATOM     31  C   UNL A   1      36.521  32.855  28.628  1.00  0.00     0.010 A 
ATOM     32  C   UNL A   1      35.514  30.689  29.003  1.00  0.00     0.010 A 
ATOM     33  C   UNL A   1      36.604  31.560  29.161  1.00  0.00    -0.014 A 
BRANCH  33  34
ATOM     34  C   UNL A   1      37.794  31.100  29.925  1.00  0.00     0.031 A 
ATOM     35  C   UNL A   1      38.761  30.129  29.308  1.00  0.00     0.074 A 
ATOM     36  C   UNL A   1      37.941  31.466  31.215  1.00  0.00     0.049 A 
ATOM     37  N   UNL A   1      39.771  29.501  29.857  1.00  0.00    -0.248 NA
ATOM     38  C   UNL A   1      38.539  29.786  27.895  1.00  0.00     0.031 C 
ATOM     39  C   UNL A   1      37.037  32.352  31.955  1.00  0.00     0.029 A 
ATOM     40  N   UNL A   1      38.893  31.122  32.142  1.00  0.00    -0.354 N 
ATOM     41  C   UNL A   1      40.280  28.669  28.870  1.00  0.00     0.074 A 
ATOM     42  C   UNL A   1      39.441  28.835  27.702  1.00  0.00     0.031 C 
ATOM     43  C   UNL A   1      37.492  32.501  33.209  1.00  0.00     0.029 A 
ATOM     44  C   UNL A   1      38.693  31.689  33.378  1.00  0.00     0.049 A 
ATOM     45  H   UNL A   1      39.649  30.525  31.940  1.00  0.00     0.167 HD
ATOM     46  C   UNL A   1      41.362  27.855  28.921  1.00  0.00     0.037 A 
ATOM     47  C   UNL A   1      39.392  31.563  34.522  1.00  0.00     0.037 A 
ATOM     48  C   UNL A   1      42.221  27.726  30.069  1.00  0.00     0.049 A 
ATOM     49  C   UNL A   1      40.607  30.679  34.546  1.00  0.00     0.074 A 
ATOM     50  C   UNL A   1      43.384  26.988  30.197  1.00  0.00     0.029 A 
ATOM     51  N   UNL A   1      42.010  28.355  31.286  1.00  0.00    -0.354 N 
ATOM     52  N   UNL A   1      41.115  29.947  33.583  1.00  0.00    -0.248 NA
ATOM     53  C   UNL A   1      41.349  30.605  35.812  1.00  0.00     0.031 C 
ATOM     54  C   UNL A   1      43.861  27.145  31.502  1.00  0.00     0.029 A 
ATOM     55  C   UNL A   1      43.016  28.014  32.175  1.00  0.00     0.049 A 
ATOM     56  H   UNL A   1      41.258  28.957  31.489  1.00  0.00     0.167 HD
ATOM     57  C   UNL A   1      42.248  29.349  34.118  1.00  0.00     0.074 A 
ATOM     58  C   UNL A   1      42.360  29.813  35.486  1.00  0.00     0.031 C 
ATOM     59  C   UNL A   1      43.118  28.494  33.529  1.00  0.00     0.037 A 
BRANCH  46  60
ATOM     60  C   UNL A   1      41.679  27.049  27.696  1.00  0.00     0.057 A 
ATOM     61  C   UNL A   1      41.201  25.742  27.528  1.00  0.00     0.134 A 
ATOM     62  C   UNL A   1      42.452  27.590  26.662  1.00  0.00     0.134 A 
ATOM     63  F   UNL A   1      40.464  25.159  28.486  1.00  0.00    -0.206 F 
ATOM     64  C   UNL A   1      41.509  24.992  26.391  1.00  0.00     0.040 A 
ATOM     65  C   UNL A   1      42.743  26.860  25.508  1.00  0.00     0.040 A 
ATOM     66  F   UNL A   1      42.936  28.838  26.753  1.00  0.00    -0.206 F 
ATOM     67  C   UNL A   1      42.278  25.554  25.374  1.00  0.00     0.006 A 
ENDBRANCH  46  60
BRANCH  47  68
ATOM     68  C   UNL A   1      38.982  32.319  35.732  1.00  0.00     0.057 A 
ATOM     69  C   UNL A   1      38.191  31.718  36.719  1.00  0.00     0.134 A 
ATOM     70  C   UNL A   1      39.362  33.651  35.934  1.00  0.00     0.134 A 
ATOM     71  F   UNL A   1      37.780  30.449  36.573  1.00  0.00    -0.206 F 
ATOM     72  C   UNL A   1      37.778  32.417  37.854  1.00  0.00     0.040 A 
ATOM     73  C   UNL A   1      38.975  34.355  37.076  1.00  0.00     0.040 A 
ATOM     74  F   UNL A   1      40.125  34.282  35.030  1.00  0.00    -0.206 F 
ATOM     75  C   UNL A   1      38.175  33.739  38.037  1.00  0.00     0.006 A 
ENDBRANCH  47  68
BRANCH  59  76
ATOM     76  C   UNL A   1      44.287  28.034  34.348  1.00  0.00     0.057 A 
ATOM     77  C   UNL A   1      45.485  28.757  34.396  1.00  0.00     0.134 A 
ATOM     78  C   UNL A   1      44.196  26.876  35.129  1.00  0.00     0.134 A 
ATOM     79  F   UNL A   1      45.638  29.867  33.658  1.00  0.00    -0.206 F 
ATOM     80  C   UNL A   1      46.560  28.333  35.178  1.00  0.00     0.040 A 
ATOM     81  C   UNL A   1      45.255  26.455  35.934  1.00  0.00     0.040 A 
ATOM     82  F   UNL A   1      43.073  26.143  35.134  1.00  0.00    -0.206 F 
ATOM     83  C   UNL A   1      46.444  27.182  35.956  1.00  0.00     0.006 A 
ENDBRANCH  59  76
ENDBRANCH  33  34
ENDBRANCH  25  28
ENDBRANCH  23  24
ENDBRANCH   1  23
TORSDOF 13
ENDMDL
MODEL 3
REMARK VINA RESULT:     -12.1      1.814      2.397
REMARK SMILES Nc1ncc(C(=O)NCCCCNC(=O)c2ccc(-c3c4nc(c(-c5c(F)cccc5F)c5ccc([nH]5)c(-c5c(F)cccc5F)c5nc(c(-c6c(F)cccc6F)c6ccc3[nH]6)C=C5)C=C4)cc2)c(-c2ccccc2)n1
REMARK SMILES IDX 11 1 10 2 9 3 8 4 6 5 7 6 5 8 2 9 3 10 77 11 4 12 70 13 1 14
REMARK SMILES IDX 71 17 72 18 76 19 73 20 75 21 74 22 12 23 13 24 14 25 15 27
REMARK SMILES IDX 16 28 17 29 69 30 18 31 68 32 19 33 20 34 21 35 62 36 22 37
REMARK SMILES IDX 67 38 61 39 63 40 23 41 66 42 60 43 59 44 24 46 50 47 33 48
REMARK SMILES IDX 49 49 34 50 37 51 48 52 64 53 35 54 36 55 47 57 65 58 38 59
REMARK SMILES IDX 25 60 26 61 31 62 27 63 28 64 30 65 32 66 29 67 51 68 52 69
REMARK SMILES IDX 57 70 53 71 54 72 56 73 58 74 55 75 39 76 40 77 45 78 41 79
REMARK SMILES IDX 42 80 44 81 46 82 43 83
REMARK H PARENT 8 7 1 15 1 16 13 26 63 45 37 56
REMARK Flexibility Score: inf
ROOT
ATOM      1  C   UNL A   1      37.606  20.502  24.858  1.00  0.00     0.023 C 
ENDROOT
BRANCH   1   2
ATOM      2  C   UNL A   1      36.309  21.203  25.260  1.00  0.00     0.023 C 
BRANCH   2   3
ATOM      3  C   UNL A   1      36.123  22.638  24.791  1.00  0.00     0.116 C 
BRANCH   3   4
ATOM      4  N   UNL A   1      35.499  22.831  23.507  1.00  0.00    -0.352 N 
ATOM      5  C   UNL A   1      34.165  22.900  23.180  1.00  0.00     0.255 C 
ATOM      6  O   UNL A   1      33.895  23.156  22.004  1.00  0.00    -0.269 OA
ATOM      7  H   UNL A   1      36.121  22.927  22.750  1.00  0.00     0.163 HD
BRANCH   5   8
ATOM      8  C   UNL A   1      33.031  22.602  24.094  1.00  0.00     0.084 A 
ATOM      9  C   UNL A   1      30.947  22.484  25.875  1.00  0.00     0.220 A 
ATOM     10  N   UNL A   1      31.471  23.678  25.625  1.00  0.00    -0.221 NA
ATOM     11  N   UNL A   1      31.379  21.352  25.325  1.00  0.00    -0.212 NA
ATOM     12  C   UNL A   1      32.503  23.706  24.748  1.00  0.00     0.131 A 
ATOM     13  C   UNL A   1      32.426  21.406  24.452  1.00  0.00     0.089 A 
BRANCH   9  14
ATOM     14  N   UNL A   1      29.901  22.404  26.742  1.00  0.00    -0.368 N 
ATOM     15  H   UNL A   1      29.996  21.903  27.584  1.00  0.00     0.159 HD
ATOM     16  H   UNL A   1      29.048  22.847  26.526  1.00  0.00     0.159 HD
ENDBRANCH   9  14
BRANCH  13  17
ATOM     17  C   UNL A   1      32.765  20.062  23.969  1.00  0.00     0.001 A 
ATOM     18  C   UNL A   1      32.200  19.510  22.810  1.00  0.00     0.010 A 
ATOM     19  C   UNL A   1      33.699  19.289  24.691  1.00  0.00     0.010 A 
ATOM     20  C   UNL A   1      32.509  18.198  22.430  1.00  0.00     0.001 A 
ATOM     21  C   UNL A   1      33.991  17.975  24.323  1.00  0.00     0.001 A 
ATOM     22  C   UNL A   1      33.387  17.428  23.195  1.00  0.00     0.000 A 
ENDBRANCH  13  17
ENDBRANCH   5   8
ENDBRANCH   3   4
ENDBRANCH   2   3
ENDBRANCH   1   2
BRANCH   1  23
ATOM     23  C   UNL A   1      38.843  20.749  25.719  1.00  0.00     0.116 C 
BRANCH  23  24
ATOM     24  N   UNL A   1      39.847  19.696  25.667  1.00  0.00    -0.352 N 
ATOM     25  C   UNL A   1      41.175  19.689  26.042  1.00  0.00     0.251 C 
ATOM     26  H   UNL A   1      39.523  18.842  25.299  1.00  0.00     0.163 HD
ATOM     27  O   UNL A   1      41.849  18.681  25.895  1.00  0.00    -0.269 OA
BRANCH  25  28
ATOM     28  C   UNL A   1      41.803  20.922  26.571  1.00  0.00     0.039 A 
ATOM     29  C   UNL A   1      42.345  21.841  25.666  1.00  0.00     0.014 A 
ATOM     30  C   UNL A   1      41.821  21.196  27.937  1.00  0.00     0.014 A 
ATOM     31  C   UNL A   1      42.779  23.089  26.124  1.00  0.00     0.010 A 
ATOM     32  C   UNL A   1      42.164  22.470  28.379  1.00  0.00     0.010 A 
ATOM     33  C   UNL A   1      42.625  23.439  27.474  1.00  0.00    -0.014 A 
BRANCH  33  34
ATOM     34  C   UNL A   1      42.894  24.818  27.962  1.00  0.00     0.031 A 
ATOM     35  C   UNL A   1      44.280  25.213  28.390  1.00  0.00     0.074 A 
ATOM     36  C   UNL A   1      41.869  25.679  28.130  1.00  0.00     0.049 A 
ATOM     37  N   UNL A   1      44.686  26.311  28.977  1.00  0.00    -0.248 NA
ATOM     38  C   UNL A   1      45.345  24.224  28.166  1.00  0.00     0.031 C 
ATOM     39  C   UNL A   1      40.465  25.399  27.815  1.00  0.00     0.029 A 
ATOM     40  N   UNL A   1      41.844  26.958  28.628  1.00  0.00    -0.354 N 
ATOM     41  C   UNL A   1      46.041  26.131  29.220  1.00  0.00     0.074 A 
ATOM     42  C   UNL A   1      46.379  24.800  28.762  1.00  0.00     0.031 C 
ATOM     43  C   UNL A   1      39.724  26.480  28.102  1.00  0.00     0.029 A 
ATOM     44  C   UNL A   1      40.588  27.514  28.662  1.00  0.00     0.049 A 
ATOM     45  H   UNL A   1      42.652  27.432  28.932  1.00  0.00     0.167 HD
ATOM     46  C   UNL A   1      46.930  27.000  29.757  1.00  0.00     0.037 A 
ATOM     47  C   UNL A   1      40.175  28.718  29.102  1.00  0.00     0.037 A 
ATOM     48  C   UNL A   1      46.599  28.339  30.171  1.00  0.00     0.049 A 
ATOM     49  C   UNL A   1      41.185  29.679  29.665  1.00  0.00     0.074 A 
ATOM     50  C   UNL A   1      47.442  29.324  30.654  1.00  0.00     0.029 A 
ATOM     51  N   UNL A   1      45.324  28.881  30.143  1.00  0.00    -0.354 N 
ATOM     52  N   UNL A   1      42.476  29.518  29.828  1.00  0.00    -0.248 NA
ATOM     53  C   UNL A   1      40.683  30.990  30.100  1.00  0.00     0.031 C 
ATOM     54  C   UNL A   1      46.670  30.453  30.951  1.00  0.00     0.029 A 
ATOM     55  C   UNL A   1      45.353  30.183  30.613  1.00  0.00     0.049 A 
ATOM     56  H   UNL A   1      44.516  28.410  29.835  1.00  0.00     0.167 HD
ATOM     57  C   UNL A   1      42.944  30.712  30.358  1.00  0.00     0.074 A 
ATOM     58  C   UNL A   1      41.800  31.594  30.477  1.00  0.00     0.031 C 
ATOM     59  C   UNL A   1      44.207  31.050  30.714  1.00  0.00     0.037 A 
BRANCH  46  60
ATOM     60  C   UNL A   1      48.345  26.530  29.918  1.00  0.00     0.057 A 
ATOM     61  C   UNL A   1      49.323  26.785  28.946  1.00  0.00     0.134 A 
ATOM     62  C   UNL A   1      48.744  25.833  31.065  1.00  0.00     0.134 A 
ATOM     63  F   UNL A   1      49.006  27.437  27.817  1.00  0.00    -0.206 F 
ATOM     64  C   UNL A   1      50.637  26.335  29.095  1.00  0.00     0.040 A 
ATOM     65  C   UNL A   1      50.060  25.402  31.238  1.00  0.00     0.040 A 
ATOM     66  F   UNL A   1      47.861  25.561  32.038  1.00  0.00    -0.206 F 
ATOM     67  C   UNL A   1      51.009  25.646  30.247  1.00  0.00     0.006 A 
ENDBRANCH  46  60
BRANCH  47  68
ATOM     68  C   UNL A   1      38.744  29.099  28.999  1.00  0.00     0.057 A 
ATOM     69  C   UNL A   1      37.893  28.997  30.106  1.00  0.00     0.134 A 
ATOM     70  C   UNL A   1      38.191  29.569  27.801  1.00  0.00     0.134 A 
ATOM     71  F   UNL A   1      38.361  28.535  31.275  1.00  0.00    -0.206 F 
ATOM     72  C   UNL A   1      36.541  29.330  30.023  1.00  0.00     0.040 A 
ATOM     73  C   UNL A   1      36.845  29.928  27.711  1.00  0.00     0.040 A 
ATOM     74  F   UNL A   1      38.954  29.697  26.707  1.00  0.00    -0.206 F 
ATOM     75  C   UNL A   1      36.014  29.802  28.823  1.00  0.00     0.006 A 
ENDBRANCH  47  68
BRANCH  59  76
ATOM     76  C   UNL A   1      44.425  32.441  31.229  1.00  0.00     0.057 A 
ATOM     77  C   UNL A   1      44.379  32.738  32.596  1.00  0.00     0.134 A 
ATOM     78  C   UNL A   1      44.726  33.486  30.348  1.00  0.00     0.134 A 
ATOM     79  F   UNL A   1      44.082  31.782  33.490  1.00  0.00    -0.206 F 
ATOM     80  C   UNL A   1      44.605  34.031  33.068  1.00  0.00     0.040 A 
ATOM     81  C   UNL A   1      44.978  34.779  30.809  1.00  0.00     0.040 A 
ATOM     82  F   UNL A   1      44.793  33.266  29.026  1.00  0.00    -0.206 F 
ATOM     83  C   UNL A   1      44.913  35.055  32.173  1.00  0.00     0.006 A 
ENDBRANCH  59  76
ENDBRANCH  33  34
ENDBRANCH  25  28
ENDBRANCH  23  24
ENDBRANCH   1  23
TORSDOF 13
ENDMDL
