MODEL 1
REMARK VINA RESULT:     -11.4      0.000      0.000
REMARK SMILES CC(C)C[C@H](NC(=O)CNC(=O)[C@@H](NC(=O)OCc1ccccc1)C(C)C)C(=O)NCCCCNC(=O)c1ccc(-c2c3nc(c(-c4c(F)cccc4F)c4ccc([nH]4)c(-c4c(F)cccc4F)c4nc(c(-c5c(F)cccc5F)c5ccc2[nH]5)C=C4)C=C3)cc1
REMARK SMILES IDX 28 1 29 2 30 3 5 5 4 6 2 7 1 8 3 9 6 10 7 11 8 13 9 14 10 15
REMARK SMILES IDX 11 16 12 18 13 19 14 20 15 21 16 23 17 24 18 25 19 26 20 27
REMARK SMILES IDX 24 28 21 29 23 30 22 31 25 32 26 33 27 34 31 35 32 36 33 37
REMARK SMILES IDX 34 38 35 39 36 40 37 42 38 43 39 44 91 45 40 46 90 47 41 48
REMARK SMILES IDX 42 49 43 50 84 51 44 52 89 53 83 54 85 55 45 56 88 57 82 58
REMARK SMILES IDX 81 59 46 61 72 62 55 63 71 64 56 65 59 66 70 67 86 68 57 69
REMARK SMILES IDX 58 70 69 72 87 73 60 74 47 75 48 76 53 77 49 78 50 79 52 80
REMARK SMILES IDX 54 81 51 82 73 83 74 84 79 85 75 86 76 87 78 88 80 89 77 90
REMARK SMILES IDX 61 91 62 92 67 93 63 94 64 95 66 96 68 97 65 98
REMARK H PARENT 30 4 6 12 10 17 14 22 35 41 85 60 59 71
REMARK Flexibility Score: inf
ROOT
ATOM      1  C   UNL A   1      34.136  21.421  26.235  1.00  0.00     0.242 C 
ATOM      2  O   UNL A   1      33.965  21.455  27.456  1.00  0.00    -0.273 OA
ATOM      3  N   UNL A   1      35.307  21.905  25.739  1.00  0.00    -0.354 N 
ATOM      4  H   UNL A   1      35.863  22.400  26.385  1.00  0.00     0.163 HD
ENDROOT
BRANCH   1   5
ATOM      5  C   UNL A   1      33.135  20.705  25.313  1.00  0.00     0.171 C 
BRANCH   5   6
ATOM      6  C   UNL A   1      33.657  19.332  24.855  1.00  0.00     0.038 C 
BRANCH   6   7
ATOM      7  C   UNL A   1      32.575  18.328  24.375  1.00  0.00    -0.015 C 
ATOM      8  C   UNL A   1      32.759  17.790  22.955  1.00  0.00     0.007 C 
ATOM      9  C   UNL A   1      32.522  17.141  25.341  1.00  0.00     0.007 C 
ENDBRANCH   6   7
ENDBRANCH   5   6
BRANCH   5  10
ATOM     10  N   UNL A   1      32.694  21.588  24.229  1.00  0.00    -0.343 N 
ATOM     11  C   UNL A   1      32.020  22.768  24.241  1.00  0.00     0.240 C 
ATOM     12  H   UNL A   1      32.930  21.269  23.328  1.00  0.00     0.164 HD
ATOM     13  O   UNL A   1      32.026  23.413  23.186  1.00  0.00    -0.273 OA
BRANCH  11  14
ATOM     14  C   UNL A   1      31.395  23.377  25.502  1.00  0.00     0.216 C 
BRANCH  14  15
ATOM     15  N   UNL A   1      30.368  24.372  25.297  1.00  0.00    -0.345 N 
ATOM     16  C   UNL A   1      30.401  25.712  25.120  1.00  0.00     0.243 C 
ATOM     17  H   UNL A   1      29.457  23.997  25.283  1.00  0.00     0.164 HD
ATOM     18  O   UNL A   1      29.300  26.234  24.896  1.00  0.00    -0.273 OA
BRANCH  16  19
ATOM     19  C   UNL A   1      31.694  26.584  25.060  1.00  0.00     0.177 C 
BRANCH  19  20
ATOM     20  N   UNL A   1      32.365  26.579  23.752  1.00  0.00    -0.309 N 
ATOM     21  C   UNL A   1      31.917  26.679  22.478  1.00  0.00     0.408 C 
ATOM     22  H   UNL A   1      33.343  26.485  23.816  1.00  0.00     0.167 HD
ATOM     23  O   UNL A   1      32.590  26.262  21.544  1.00  0.00    -0.225 OA
BRANCH  21  24
ATOM     24  O   UNL A   1      30.754  27.349  22.360  1.00  0.00    -0.445 OA
BRANCH  24  25
ATOM     25  C   UNL A   1      30.896  28.774  22.278  1.00  0.00     0.270 C 
BRANCH  25  26
ATOM     26  C   UNL A   1      29.707  29.558  22.808  1.00  0.00    -0.011 A 
ATOM     27  C   UNL A   1      29.809  30.839  23.375  1.00  0.00     0.007 A 
ATOM     28  C   UNL A   1      28.426  29.004  22.670  1.00  0.00     0.007 A 
ATOM     29  C   UNL A   1      28.679  31.546  23.786  1.00  0.00     0.000 A 
ATOM     30  C   UNL A   1      27.292  29.707  23.088  1.00  0.00     0.000 A 
ATOM     31  C   UNL A   1      27.419  30.979  23.642  1.00  0.00     0.000 A 
ENDBRANCH  25  26
ENDBRANCH  24  25
ENDBRANCH  21  24
ENDBRANCH  19  20
BRANCH  19  32
ATOM     32  C   UNL A   1      31.509  27.949  25.754  1.00  0.00     0.015 C 
ATOM     33  C   UNL A   1      31.502  27.812  27.285  1.00  0.00     0.010 C 
ATOM     34  C   UNL A   1      32.645  28.912  25.385  1.00  0.00     0.010 C 
ENDBRANCH  19  32
ENDBRANCH  16  19
ENDBRANCH  14  15
ENDBRANCH  11  14
ENDBRANCH   5  10
ENDBRANCH   1   5
BRANCH   3  35
ATOM     35  C   UNL A   1      35.857  21.803  24.405  1.00  0.00     0.116 C 
BRANCH  35  36
ATOM     36  C   UNL A   1      37.376  21.706  24.443  1.00  0.00     0.023 C 
BRANCH  36  37
ATOM     37  C   UNL A   1      37.892  20.349  24.914  1.00  0.00     0.023 C 
BRANCH  37  38
ATOM     38  C   UNL A   1      38.931  20.422  26.024  1.00  0.00     0.116 C 
BRANCH  38  39
ATOM     39  N   UNL A   1      39.996  19.439  25.863  1.00  0.00    -0.352 N 
ATOM     40  C   UNL A   1      41.347  19.606  26.029  1.00  0.00     0.251 C 
ATOM     41  H   UNL A   1      39.706  18.536  25.600  1.00  0.00     0.163 HD
ATOM     42  O   UNL A   1      42.132  18.721  25.713  1.00  0.00    -0.269 OA
BRANCH  40  43
ATOM     43  C   UNL A   1      41.837  20.887  26.566  1.00  0.00     0.039 A 
ATOM     44  C   UNL A   1      42.277  21.868  25.676  1.00  0.00     0.014 A 
ATOM     45  C   UNL A   1      41.790  21.135  27.941  1.00  0.00     0.014 A 
ATOM     46  C   UNL A   1      42.610  23.130  26.165  1.00  0.00     0.010 A 
ATOM     47  C   UNL A   1      42.038  22.417  28.412  1.00  0.00     0.010 A 
ATOM     48  C   UNL A   1      42.454  23.425  27.530  1.00  0.00    -0.014 A 
BRANCH  48  49
ATOM     49  C   UNL A   1      42.726  24.784  28.055  1.00  0.00     0.031 A 
ATOM     50  C   UNL A   1      44.117  25.160  28.481  1.00  0.00     0.074 A 
ATOM     51  C   UNL A   1      41.710  25.657  28.204  1.00  0.00     0.049 A 
ATOM     52  N   UNL A   1      44.544  26.272  29.021  1.00  0.00    -0.248 NA
ATOM     53  C   UNL A   1      45.162  24.138  28.304  1.00  0.00     0.031 C 
ATOM     54  C   UNL A   1      40.308  25.391  27.876  1.00  0.00     0.029 A 
ATOM     55  N   UNL A   1      41.701  26.944  28.681  1.00  0.00    -0.354 N 
ATOM     56  C   UNL A   1      45.900  26.080  29.255  1.00  0.00     0.074 A 
ATOM     57  C   UNL A   1      46.211  24.724  28.860  1.00  0.00     0.031 C 
ATOM     58  C   UNL A   1      39.580  26.490  28.136  1.00  0.00     0.029 A 
ATOM     59  C   UNL A   1      40.453  27.520  28.688  1.00  0.00     0.049 A 
ATOM     60  H   UNL A   1      42.511  27.410  28.990  1.00  0.00     0.167 HD
ATOM     61  C   UNL A   1      46.808  26.964  29.730  1.00  0.00     0.037 A 
ATOM     62  C   UNL A   1      40.058  28.738  29.102  1.00  0.00     0.037 A 
ATOM     63  C   UNL A   1      46.497  28.317  30.106  1.00  0.00     0.049 A 
ATOM     64  C   UNL A   1      41.085  29.695  29.642  1.00  0.00     0.074 A 
ATOM     65  C   UNL A   1      47.354  29.307  30.549  1.00  0.00     0.029 A 
ATOM     66  N   UNL A   1      45.224  28.868  30.086  1.00  0.00    -0.354 N 
ATOM     67  N   UNL A   1      42.377  29.526  29.791  1.00  0.00    -0.248 NA
ATOM     68  C   UNL A   1      40.600  31.017  30.065  1.00  0.00     0.031 C 
ATOM     69  C   UNL A   1      46.594  30.442  30.847  1.00  0.00     0.029 A 
ATOM     70  C   UNL A   1      45.271  30.179  30.531  1.00  0.00     0.049 A 
ATOM     71  H   UNL A   1      44.408  28.398  29.797  1.00  0.00     0.167 HD
ATOM     72  C   UNL A   1      42.863  30.725  30.295  1.00  0.00     0.074 A 
ATOM     73  C   UNL A   1      41.729  31.620  30.410  1.00  0.00     0.031 C 
ATOM     74  C   UNL A   1      44.133  31.058  30.631  1.00  0.00     0.037 A 
BRANCH  61  75
ATOM     75  C   UNL A   1      48.228  26.492  29.865  1.00  0.00     0.057 A 
ATOM     76  C   UNL A   1      48.687  25.856  31.027  1.00  0.00     0.134 A 
ATOM     77  C   UNL A   1      49.136  26.642  28.811  1.00  0.00     0.134 A 
ATOM     78  F   UNL A   1      47.872  25.692  32.081  1.00  0.00    -0.206 F 
ATOM     79  C   UNL A   1      50.005  25.413  31.145  1.00  0.00     0.040 A 
ATOM     80  C   UNL A   1      50.448  26.175  28.905  1.00  0.00     0.040 A 
ATOM     81  F   UNL A   1      48.762  27.236  27.667  1.00  0.00    -0.206 F 
ATOM     82  C   UNL A   1      50.888  25.565  30.077  1.00  0.00     0.006 A 
ENDBRANCH  61  75
BRANCH  62  83
ATOM     83  C   UNL A   1      38.629  29.131  29.010  1.00  0.00     0.057 A 
ATOM     84  C   UNL A   1      38.091  29.630  27.818  1.00  0.00     0.134 A 
ATOM     85  C   UNL A   1      37.770  29.034  30.112  1.00  0.00     0.134 A 
ATOM     86  F   UNL A   1      38.866  29.764  26.731  1.00  0.00    -0.206 F 
ATOM     87  C   UNL A   1      36.760  30.043  27.732  1.00  0.00     0.040 A 
ATOM     88  C   UNL A   1      36.430  29.415  30.032  1.00  0.00     0.040 A 
ATOM     89  F   UNL A   1      38.221  28.554  31.281  1.00  0.00    -0.206 F 
ATOM     90  C   UNL A   1      35.924  29.931  28.840  1.00  0.00     0.006 A 
ENDBRANCH  62  83
BRANCH  74  91
ATOM     91  C   UNL A   1      44.373  32.458  31.118  1.00  0.00     0.057 A 
ATOM     92  C   UNL A   1      44.351  32.785  32.480  1.00  0.00     0.134 A 
ATOM     93  C   UNL A   1      44.668  33.485  30.211  1.00  0.00     0.134 A 
ATOM     94  F   UNL A   1      44.063  31.853  33.399  1.00  0.00    -0.206 F 
ATOM     95  C   UNL A   1      44.590  34.089  32.919  1.00  0.00     0.040 A 
ATOM     96  C   UNL A   1      44.939  34.783  30.640  1.00  0.00     0.040 A 
ATOM     97  F   UNL A   1      44.715  33.237  28.893  1.00  0.00    -0.206 F 
ATOM     98  C   UNL A   1      44.894  35.090  31.998  1.00  0.00     0.006 A 
ENDBRANCH  74  91
ENDBRANCH  48  49
ENDBRANCH  40  43
ENDBRANCH  38  39
ENDBRANCH  37  38
ENDBRANCH  36  37
ENDBRANCH  35  36
ENDBRANCH   3  35
TORSDOF 22
ENDMDL
MODEL 2
REMARK VINA RESULT:     -11.2      1.800      2.798
REMARK SMILES CC(C)C[C@H](NC(=O)CNC(=O)[C@@H](NC(=O)OCc1ccccc1)C(C)C)C(=O)NCCCCNC(=O)c1ccc(-c2c3nc(c(-c4c(F)cccc4F)c4ccc([nH]4)c(-c4c(F)cccc4F)c4nc(c(-c5c(F)cccc5F)c5ccc2[nH]5)C=C4)C=C3)cc1
REMARK SMILES IDX 28 1 29 2 30 3 5 5 4 6 2 7 1 8 3 9 6 10 7 11 8 13 9 14 10 15
REMARK SMILES IDX 11 16 12 18 13 19 14 20 15 21 16 23 17 24 18 25 19 26 20 27
REMARK SMILES IDX 24 28 21 29 23 30 22 31 25 32 26 33 27 34 31 35 32 36 33 37
REMARK SMILES IDX 34 38 35 39 36 40 37 42 38 43 39 44 91 45 40 46 90 47 41 48
REMARK SMILES IDX 42 49 43 50 84 51 44 52 89 53 83 54 85 55 45 56 88 57 82 58
REMARK SMILES IDX 81 59 46 61 72 62 55 63 71 64 56 65 59 66 70 67 86 68 57 69
REMARK SMILES IDX 58 70 69 72 87 73 60 74 47 75 48 76 53 77 49 78 50 79 52 80
REMARK SMILES IDX 54 81 51 82 73 83 74 84 79 85 75 86 76 87 78 88 80 89 77 90
REMARK SMILES IDX 61 91 62 92 67 93 63 94 64 95 66 96 68 97 65 98
REMARK H PARENT 30 4 6 12 10 17 14 22 35 41 85 60 59 71
REMARK Flexibility Score: inf
ROOT
ATOM      1  C   UNL A   1      33.950  21.826  24.151  1.00  0.00     0.242 C 
ATOM      2  O   UNL A   1      33.314  22.475  23.317  1.00  0.00    -0.273 OA
ATOM      3  N   UNL A   1      35.292  22.033  24.235  1.00  0.00    -0.354 N 
ATOM      4  H   UNL A   1      35.680  22.570  23.506  1.00  0.00     0.163 HD
ENDROOT
BRANCH   1   5
ATOM      5  C   UNL A   1      33.231  20.933  25.176  1.00  0.00     0.171 C 
BRANCH   5   6
ATOM      6  C   UNL A   1      32.193  20.015  24.510  1.00  0.00     0.038 C 
BRANCH   6   7
ATOM      7  C   UNL A   1      32.665  18.563  24.224  1.00  0.00    -0.015 C 
ATOM      8  C   UNL A   1      32.509  18.093  22.777  1.00  0.00     0.007 C 
ATOM      9  C   UNL A   1      34.136  18.422  24.624  1.00  0.00     0.007 C 
ENDBRANCH   6   7
ENDBRANCH   5   6
BRANCH   5  10
ATOM     10  N   UNL A   1      32.720  21.727  26.298  1.00  0.00    -0.343 N 
ATOM     11  C   UNL A   1      31.673  22.588  26.393  1.00  0.00     0.240 C 
ATOM     12  H   UNL A   1      33.227  21.616  27.134  1.00  0.00     0.164 HD
ATOM     13  O   UNL A   1      31.325  22.903  27.537  1.00  0.00    -0.273 OA
BRANCH  11  14
ATOM     14  C   UNL A   1      30.845  23.057  25.190  1.00  0.00     0.216 C 
BRANCH  14  15
ATOM     15  N   UNL A   1      30.231  24.360  25.297  1.00  0.00    -0.345 N 
ATOM     16  C   UNL A   1      30.571  25.583  24.832  1.00  0.00     0.243 C 
ATOM     17  H   UNL A   1      29.393  24.357  25.816  1.00  0.00     0.164 HD
ATOM     18  O   UNL A   1      29.746  26.477  25.066  1.00  0.00    -0.273 OA
BRANCH  16  19
ATOM     19  C   UNL A   1      31.821  25.900  23.953  1.00  0.00     0.177 C 
BRANCH  19  20
ATOM     20  N   UNL A   1      33.038  25.179  24.351  1.00  0.00    -0.309 N 
ATOM     21  C   UNL A   1      34.055  25.470  25.197  1.00  0.00     0.408 C 
ATOM     22  H   UNL A   1      33.134  24.302  23.912  1.00  0.00     0.167 HD
ATOM     23  O   UNL A   1      35.142  24.918  25.082  1.00  0.00    -0.225 OA
BRANCH  21  24
ATOM     24  O   UNL A   1      33.713  26.314  26.190  1.00  0.00    -0.445 OA
BRANCH  24  25
ATOM     25  C   UNL A   1      34.391  27.577  26.154  1.00  0.00     0.270 C 
BRANCH  25  26
ATOM     26  C   UNL A   1      33.482  28.785  26.309  1.00  0.00    -0.011 A 
ATOM     27  C   UNL A   1      33.742  29.847  27.192  1.00  0.00     0.007 A 
ATOM     28  C   UNL A   1      32.353  28.882  25.484  1.00  0.00     0.007 A 
ATOM     29  C   UNL A   1      32.910  30.966  27.248  1.00  0.00     0.000 A 
ATOM     30  C   UNL A   1      31.514  29.999  25.544  1.00  0.00     0.000 A 
ATOM     31  C   UNL A   1      31.796  31.042  26.424  1.00  0.00     0.000 A 
ENDBRANCH  25  26
ENDBRANCH  24  25
ENDBRANCH  21  24
ENDBRANCH  19  20
BRANCH  19  32
ATOM     32  C   UNL A   1      31.481  25.936  22.449  1.00  0.00     0.015 C 
ATOM     33  C   UNL A   1      31.023  27.334  22.003  1.00  0.00     0.010 C 
ATOM     34  C   UNL A   1      32.703  25.562  21.600  1.00  0.00     0.010 C 
ENDBRANCH  19  32
ENDBRANCH  16  19
ENDBRANCH  14  15
ENDBRANCH  11  14
ENDBRANCH   5  10
ENDBRANCH   1   5
BRANCH   3  35
ATOM     35  C   UNL A   1      36.234  21.581  25.236  1.00  0.00     0.116 C 
BRANCH  35  36
ATOM     36  C   UNL A   1      37.602  21.316  24.622  1.00  0.00     0.023 C 
BRANCH  36  37
ATOM     37  C   UNL A   1      38.206  19.974  25.027  1.00  0.00     0.023 C 
BRANCH  37  38
ATOM     38  C   UNL A   1      39.262  20.064  26.121  1.00  0.00     0.116 C 
BRANCH  38  39
ATOM     39  N   UNL A   1      40.280  19.027  26.005  1.00  0.00    -0.352 N 
ATOM     40  C   UNL A   1      41.644  19.159  26.053  1.00  0.00     0.251 C 
ATOM     41  H   UNL A   1      39.943  18.111  25.876  1.00  0.00     0.163 HD
ATOM     42  O   UNL A   1      42.376  18.212  25.791  1.00  0.00    -0.269 OA
BRANCH  40  43
ATOM     43  C   UNL A   1      42.213  20.475  26.392  1.00  0.00     0.039 A 
ATOM     44  C   UNL A   1      42.605  21.327  25.359  1.00  0.00     0.014 A 
ATOM     45  C   UNL A   1      42.288  20.883  27.727  1.00  0.00     0.014 A 
ATOM     46  C   UNL A   1      43.012  22.624  25.665  1.00  0.00     0.010 A 
ATOM     47  C   UNL A   1      42.609  22.201  28.020  1.00  0.00     0.010 A 
ATOM     48  C   UNL A   1      42.979  23.083  26.994  1.00  0.00    -0.014 A 
BRANCH  48  49
ATOM     49  C   UNL A   1      43.331  24.483  27.329  1.00  0.00     0.031 A 
ATOM     50  C   UNL A   1      44.768  24.922  27.301  1.00  0.00     0.074 A 
ATOM     51  C   UNL A   1      42.366  25.339  27.717  1.00  0.00     0.049 A 
ATOM     52  N   UNL A   1      45.284  26.081  27.620  1.00  0.00    -0.248 NA
ATOM     53  C   UNL A   1      45.760  23.916  26.886  1.00  0.00     0.031 C 
ATOM     54  C   UNL A   1      40.942  25.016  27.835  1.00  0.00     0.029 A 
ATOM     55  N   UNL A   1      42.439  26.656  28.094  1.00  0.00    -0.354 N 
ATOM     56  C   UNL A   1      46.656  25.940  27.454  1.00  0.00     0.074 A 
ATOM     57  C   UNL A   1      46.898  24.568  27.070  1.00  0.00     0.031 C 
ATOM     58  C   UNL A   1      40.274  26.112  28.230  1.00  0.00     0.029 A 
ATOM     59  C   UNL A   1      41.224  27.201  28.434  1.00  0.00     0.049 A 
ATOM     60  H   UNL A   1      43.282  27.163  28.120  1.00  0.00     0.167 HD
ATOM     61  C   UNL A   1      47.623  26.878  27.583  1.00  0.00     0.037 A 
ATOM     62  C   UNL A   1      40.913  28.436  28.869  1.00  0.00     0.037 A 
ATOM     63  C   UNL A   1      47.375  28.248  27.949  1.00  0.00     0.049 A 
ATOM     64  C   UNL A   1      42.008  29.455  29.021  1.00  0.00     0.074 A 
ATOM     65  C   UNL A   1      48.279  29.288  28.056  1.00  0.00     0.029 A 
ATOM     66  N   UNL A   1      46.129  28.764  28.272  1.00  0.00    -0.354 N 
ATOM     67  N   UNL A   1      43.294  29.329  28.792  1.00  0.00    -0.248 NA
ATOM     68  C   UNL A   1      41.610  30.791  29.485  1.00  0.00     0.031 C 
ATOM     69  C   UNL A   1      47.590  30.423  28.494  1.00  0.00     0.029 A 
ATOM     70  C   UNL A   1      46.245  30.105  28.601  1.00  0.00     0.049 A 
ATOM     71  H   UNL A   1      45.286  28.255  28.267  1.00  0.00     0.167 HD
ATOM     72  C   UNL A   1      43.852  30.573  29.054  1.00  0.00     0.074 A 
ATOM     73  C   UNL A   1      42.763  31.445  29.443  1.00  0.00     0.031 C 
ATOM     74  C   UNL A   1      45.149  30.960  28.978  1.00  0.00     0.037 A 
BRANCH  61  75
ATOM     75  C   UNL A   1      49.040  26.452  27.322  1.00  0.00     0.057 A 
ATOM     76  C   UNL A   1      49.881  26.013  28.354  1.00  0.00     0.134 A 
ATOM     77  C   UNL A   1      49.558  26.447  26.022  1.00  0.00     0.134 A 
ATOM     78  F   UNL A   1      49.452  26.006  29.626  1.00  0.00    -0.206 F 
ATOM     79  C   UNL A   1      51.194  25.612  28.105  1.00  0.00     0.040 A 
ATOM     80  C   UNL A   1      50.859  26.018  25.756  1.00  0.00     0.040 A 
ATOM     81  F   UNL A   1      48.805  26.850  24.986  1.00  0.00    -0.206 F 
ATOM     82  C   UNL A   1      51.684  25.606  26.800  1.00  0.00     0.006 A 
ENDBRANCH  61  75
BRANCH  62  83
ATOM     83  C   UNL A   1      39.503  28.786  29.180  1.00  0.00     0.057 A 
ATOM     84  C   UNL A   1      38.979  28.606  30.466  1.00  0.00     0.134 A 
ATOM     85  C   UNL A   1      38.641  29.292  28.199  1.00  0.00     0.134 A 
ATOM     86  F   UNL A   1      39.750  28.109  31.445  1.00  0.00    -0.206 F 
ATOM     87  C   UNL A   1      37.645  28.891  30.759  1.00  0.00     0.040 A 
ATOM     88  C   UNL A   1      37.313  29.609  28.485  1.00  0.00     0.040 A 
ATOM     89  F   UNL A   1      39.083  29.497  26.949  1.00  0.00    -0.206 F 
ATOM     90  C   UNL A   1      36.808  29.398  29.768  1.00  0.00     0.006 A 
ENDBRANCH  62  83
BRANCH  74  91
ATOM     91  C   UNL A   1      45.457  32.398  29.284  1.00  0.00     0.057 A 
ATOM     92  C   UNL A   1      45.391  33.396  28.304  1.00  0.00     0.134 A 
ATOM     93  C   UNL A   1      45.786  32.792  30.588  1.00  0.00     0.134 A 
ATOM     94  F   UNL A   1      45.095  33.085  27.034  1.00  0.00    -0.206 F 
ATOM     95  C   UNL A   1      45.666  34.732  28.606  1.00  0.00     0.040 A 
ATOM     96  C   UNL A   1      46.032  34.126  30.908  1.00  0.00     0.040 A 
ATOM     97  F   UNL A   1      45.856  31.887  31.576  1.00  0.00    -0.206 F 
ATOM     98  C   UNL A   1      45.979  35.100  29.913  1.00  0.00     0.006 A 
ENDBRANCH  74  91
ENDBRANCH  48  49
ENDBRANCH  40  43
ENDBRANCH  38  39
ENDBRANCH  37  38
ENDBRANCH  36  37
ENDBRANCH  35  36
ENDBRANCH   3  35
TORSDOF 22
ENDMDL
MODEL 3
REMARK VINA RESULT:     -11.1      1.658      2.335
REMARK SMILES CC(C)C[C@H](NC(=O)CNC(=O)[C@@H](NC(=O)OCc1ccccc1)C(C)C)C(=O)NCCCCNC(=O)c1ccc(-c2c3nc(c(-c4c(F)cccc4F)c4ccc([nH]4)c(-c4c(F)cccc4F)c4nc(c(-c5c(F)cccc5F)c5ccc2[nH]5)C=C4)C=C3)cc1
REMARK SMILES IDX 28 1 29 2 30 3 5 5 4 6 2 7 1 8 3 9 6 10 7 11 8 13 9 14 10 15
REMARK SMILES IDX 11 16 12 18 13 19 14 20 15 21 16 23 17 24 18 25 19 26 20 27
REMARK SMILES IDX 24 28 21 29 23 30 22 31 25 32 26 33 27 34 31 35 32 36 33 37
REMARK SMILES IDX 34 38 35 39 36 40 37 42 38 43 39 44 91 45 40 46 90 47 41 48
REMARK SMILES IDX 42 49 43 50 84 51 44 52 89 53 83 54 85 55 45 56 88 57 82 58
REMARK SMILES IDX 81 59 46 61 72 62 55 63 71 64 56 65 59 66 70 67 86 68 57 69
REMARK SMILES IDX 58 70 69 72 87 73 60 74 47 75 48 76 53 77 49 78 50 79 52 80
REMARK SMILES IDX 54 81 51 82 73 83 74 84 79 85 75 86 76 87 78 88 80 89 77 90
REMARK SMILES IDX 61 91 62 92 67 93 63 94 64 95 66 96 68 97 65 98
REMARK H PARENT 30 4 6 12 10 17 14 22 35 41 85 60 59 71
REMARK Flexibility Score: inf
ROOT
ATOM      1  C   UNL A   1      34.177  22.771  26.135  1.00  0.00     0.242 C 
ATOM      2  O   UNL A   1      34.108  23.829  26.766  1.00  0.00    -0.273 OA
ATOM      3  N   UNL A   1      35.411  22.252  25.891  1.00  0.00    -0.354 N 
ATOM      4  H   UNL A   1      36.166  22.849  26.096  1.00  0.00     0.163 HD
ENDROOT
BRANCH   1   5
ATOM      5  C   UNL A   1      32.910  21.976  25.777  1.00  0.00     0.171 C 
BRANCH   5   6
ATOM      6  C   UNL A   1      32.496  22.186  24.311  1.00  0.00     0.038 C 
BRANCH   6   7
ATOM      7  C   UNL A   1      32.720  20.972  23.369  1.00  0.00    -0.015 C 
ATOM      8  C   UNL A   1      32.529  19.597  24.011  1.00  0.00     0.007 C 
ATOM      9  C   UNL A   1      31.778  21.083  22.168  1.00  0.00     0.007 C 
ENDBRANCH   6   7
ENDBRANCH   5   6
BRANCH   5  10
ATOM     10  N   UNL A   1      31.846  22.215  26.758  1.00  0.00    -0.343 N 
ATOM     11  C   UNL A   1      30.878  23.167  26.827  1.00  0.00     0.240 C 
ATOM     12  H   UNL A   1      31.829  21.569  27.499  1.00  0.00     0.164 HD
ATOM     13  O   UNL A   1      29.959  22.955  27.627  1.00  0.00    -0.273 OA
BRANCH  11  14
ATOM     14  C   UNL A   1      30.807  24.379  25.890  1.00  0.00     0.216 C 
BRANCH  14  15
ATOM     15  N   UNL A   1      30.704  25.676  26.519  1.00  0.00    -0.345 N 
ATOM     16  C   UNL A   1      31.487  26.777  26.500  1.00  0.00     0.243 C 
ATOM     17  H   UNL A   1      29.897  25.778  27.075  1.00  0.00     0.164 HD
ATOM     18  O   UNL A   1      31.032  27.750  27.116  1.00  0.00    -0.273 OA
BRANCH  16  19
ATOM     19  C   UNL A   1      32.808  26.932  25.685  1.00  0.00     0.177 C 
BRANCH  19  20
ATOM     20  N   UNL A   1      32.776  26.303  24.356  1.00  0.00    -0.309 N 
ATOM     21  C   UNL A   1      31.962  26.443  23.282  1.00  0.00     0.408 C 
ATOM     22  H   UNL A   1      33.495  25.645  24.219  1.00  0.00     0.167 HD
ATOM     23  O   UNL A   1      31.876  25.555  22.444  1.00  0.00    -0.225 OA
BRANCH  21  24
ATOM     24  O   UNL A   1      31.374  27.652  23.199  1.00  0.00    -0.445 OA
BRANCH  24  25
ATOM     25  C   UNL A   1      30.200  27.684  22.375  1.00  0.00     0.270 C 
BRANCH  25  26
ATOM     26  C   UNL A   1      29.368  28.948  22.513  1.00  0.00    -0.011 A 
ATOM     27  C   UNL A   1      29.759  30.198  22.003  1.00  0.00     0.007 A 
ATOM     28  C   UNL A   1      28.110  28.857  23.126  1.00  0.00     0.007 A 
ATOM     29  C   UNL A   1      28.928  31.314  22.096  1.00  0.00     0.000 A 
ATOM     30  C   UNL A   1      27.279  29.976  23.227  1.00  0.00     0.000 A 
ATOM     31  C   UNL A   1      27.687  31.204  22.710  1.00  0.00     0.000 A 
ENDBRANCH  25  26
ENDBRANCH  24  25
ENDBRANCH  21  24
ENDBRANCH  19  20
BRANCH  19  32
ATOM     32  C   UNL A   1      33.386  28.360  25.776  1.00  0.00     0.015 C 
ATOM     33  C   UNL A   1      34.172  28.573  27.080  1.00  0.00     0.010 C 
ATOM     34  C   UNL A   1      34.345  28.641  24.612  1.00  0.00     0.010 C 
ENDBRANCH  19  32
ENDBRANCH  16  19
ENDBRANCH  14  15
ENDBRANCH  11  14
ENDBRANCH   5  10
ENDBRANCH   1   5
BRANCH   3  35
ATOM     35  C   UNL A   1      35.778  20.951  25.374  1.00  0.00     0.116 C 
BRANCH  35  36
ATOM     36  C   UNL A   1      37.118  21.005  24.653  1.00  0.00     0.023 C 
BRANCH  36  37
ATOM     37  C   UNL A   1      38.030  19.822  24.965  1.00  0.00     0.023 C 
BRANCH  37  38
ATOM     38  C   UNL A   1      39.230  20.166  25.837  1.00  0.00     0.116 C 
BRANCH  38  39
ATOM     39  N   UNL A   1      40.208  19.087  25.897  1.00  0.00    -0.352 N 
ATOM     40  C   UNL A   1      41.563  19.170  26.092  1.00  0.00     0.251 C 
ATOM     41  H   UNL A   1      39.848  18.178  25.783  1.00  0.00     0.163 HD
ATOM     42  O   UNL A   1      42.277  18.182  25.970  1.00  0.00    -0.269 OA
BRANCH  40  43
ATOM     43  C   UNL A   1      42.149  20.482  26.417  1.00  0.00     0.039 A 
ATOM     44  C   UNL A   1      42.542  21.323  25.376  1.00  0.00     0.014 A 
ATOM     45  C   UNL A   1      42.237  20.899  27.748  1.00  0.00     0.014 A 
ATOM     46  C   UNL A   1      42.966  22.618  25.669  1.00  0.00     0.010 A 
ATOM     47  C   UNL A   1      42.574  22.216  28.030  1.00  0.00     0.010 A 
ATOM     48  C   UNL A   1      42.946  23.086  26.995  1.00  0.00    -0.014 A 
BRANCH  48  49
ATOM     49  C   UNL A   1      43.316  24.485  27.317  1.00  0.00     0.031 A 
ATOM     50  C   UNL A   1      44.754  24.915  27.251  1.00  0.00     0.074 A 
ATOM     51  C   UNL A   1      42.366  25.348  27.728  1.00  0.00     0.049 A 
ATOM     52  N   UNL A   1      45.285  26.071  27.554  1.00  0.00    -0.248 NA
ATOM     53  C   UNL A   1      45.729  23.902  26.813  1.00  0.00     0.031 C 
ATOM     54  C   UNL A   1      40.944  25.034  27.883  1.00  0.00     0.029 A 
ATOM     55  N   UNL A   1      42.457  26.666  28.100  1.00  0.00    -0.354 N 
ATOM     56  C   UNL A   1      46.652  25.922  27.353  1.00  0.00     0.074 A 
ATOM     57  C   UNL A   1      46.875  24.546  26.966  1.00  0.00     0.031 C 
ATOM     58  C   UNL A   1      40.293  26.135  28.292  1.00  0.00     0.029 A 
ATOM     59  C   UNL A   1      41.254  27.219  28.469  1.00  0.00     0.049 A 
ATOM     60  H   UNL A   1      43.304  27.167  28.102  1.00  0.00     0.167 HD
ATOM     61  C   UNL A   1      47.628  26.854  27.455  1.00  0.00     0.037 A 
ATOM     62  C   UNL A   1      40.962  28.457  28.909  1.00  0.00     0.037 A 
ATOM     63  C   UNL A   1      47.397  28.225  27.823  1.00  0.00     0.049 A 
ATOM     64  C   UNL A   1      42.068  29.469  29.030  1.00  0.00     0.074 A 
ATOM     65  C   UNL A   1      48.310  29.260  27.905  1.00  0.00     0.029 A 
ATOM     66  N   UNL A   1      46.163  28.751  28.177  1.00  0.00    -0.354 N 
ATOM     67  N   UNL A   1      43.346  29.334  28.768  1.00  0.00    -0.248 NA
ATOM     68  C   UNL A   1      41.690  30.809  29.500  1.00  0.00     0.031 C 
ATOM     69  C   UNL A   1      47.640  30.400  28.357  1.00  0.00     0.029 A 
ATOM     70  C   UNL A   1      46.297  30.091  28.500  1.00  0.00     0.049 A 
ATOM     71  H   UNL A   1      45.317  28.246  28.195  1.00  0.00     0.167 HD
ATOM     72  C   UNL A   1      43.919  30.576  29.013  1.00  0.00     0.074 A 
ATOM     73  C   UNL A   1      42.845  31.455  29.427  1.00  0.00     0.031 C 
ATOM     74  C   UNL A   1      45.215  30.954  28.902  1.00  0.00     0.037 A 
BRANCH  61  75
ATOM     75  C   UNL A   1      49.034  26.418  27.158  1.00  0.00     0.057 A 
ATOM     76  C   UNL A   1      49.560  26.454  25.860  1.00  0.00     0.134 A 
ATOM     77  C   UNL A   1      49.883  25.991  28.186  1.00  0.00     0.134 A 
ATOM     78  F   UNL A   1      48.795  26.840  24.826  1.00  0.00    -0.206 F 
ATOM     79  C   UNL A   1      50.870  26.055  25.591  1.00  0.00     0.040 A 
ATOM     80  C   UNL A   1      51.205  25.620  27.934  1.00  0.00     0.040 A 
ATOM     81  F   UNL A   1      49.447  25.938  29.454  1.00  0.00    -0.206 F 
ATOM     82  C   UNL A   1      51.700  25.644  26.632  1.00  0.00     0.006 A 
ENDBRANCH  61  75
BRANCH  62  83
ATOM     83  C   UNL A   1      39.563  28.816  29.255  1.00  0.00     0.057 A 
ATOM     84  C   UNL A   1      39.061  28.610  30.546  1.00  0.00     0.134 A 
ATOM     85  C   UNL A   1      38.690  29.358  28.304  1.00  0.00     0.134 A 
ATOM     86  F   UNL A   1      39.843  28.079  31.497  1.00  0.00    -0.206 F 
ATOM     87  C   UNL A   1      37.736  28.904  30.871  1.00  0.00     0.040 A 
ATOM     88  C   UNL A   1      37.371  29.683  28.623  1.00  0.00     0.040 A 
ATOM     89  F   UNL A   1      39.111  29.588  27.051  1.00  0.00    -0.206 F 
ATOM     90  C   UNL A   1      36.888  29.447  29.909  1.00  0.00     0.006 A 
ENDBRANCH  62  83
BRANCH  74  91
ATOM     91  C   UNL A   1      45.541  32.391  29.197  1.00  0.00     0.057 A 
ATOM     92  C   UNL A   1      45.938  32.816  30.471  1.00  0.00     0.134 A 
ATOM     93  C   UNL A   1      45.492  33.353  28.179  1.00  0.00     0.134 A 
ATOM     94  F   UNL A   1      45.993  31.949  31.492  1.00  0.00    -0.206 F 
ATOM     95  C   UNL A   1      46.252  34.153  30.726  1.00  0.00     0.040 A 
ATOM     96  C   UNL A   1      45.834  34.684  28.415  1.00  0.00     0.040 A 
ATOM     97  F   UNL A   1      45.129  33.010  26.933  1.00  0.00    -0.206 F 
ATOM     98  C   UNL A   1      46.208  35.089  29.695  1.00  0.00     0.006 A 
ENDBRANCH  74  91
ENDBRANCH  48  49
ENDBRANCH  40  43
ENDBRANCH  38  39
ENDBRANCH  37  38
ENDBRANCH  36  37
ENDBRANCH  35  36
ENDBRANCH   3  35
TORSDOF 22
ENDMDL
