MODEL 1
REMARK VINA RESULT:     -12.4      0.000      0.000
REMARK SMILES CCOc1cc([C@@H]2[NH2+][C@H](C(=O)NCCCCNC(=O)c3ccc(-c4c5nc(c(-c6c(F)cccc6F)c6ccc([nH]6)c(-c6c(F)cccc6F)c6nc(c(-c7c(F)cccc7F)c7ccc4[nH]7)C=C6)C=C5)cc3)CS2)ccc1OCc1ccc(Cl)cc1
REMARK SMILES IDX 13 1 12 2 10 3 11 4 9 6 7 7 8 8 75 9 74 12 6 13 4 14 5 15
REMARK SMILES IDX 78 16 77 17 76 18 3 19 2 20 1 21 79 22 80 23 81 24 82 25
REMARK SMILES IDX 87 26 83 27 86 28 84 29 85 30 14 31 15 32 16 33 17 34 18 35
REMARK SMILES IDX 19 37 20 38 21 39 73 40 22 41 72 42 23 43 24 44 25 45 66 46
REMARK SMILES IDX 26 47 71 48 65 49 67 50 27 51 70 52 64 53 63 54 28 56 54 57
REMARK SMILES IDX 37 58 53 59 38 60 41 61 52 62 68 63 39 64 40 65 51 67 69 68
REMARK SMILES IDX 42 69 29 70 30 71 35 72 31 73 32 74 34 75 36 76 33 77 55 78
REMARK SMILES IDX 56 79 61 80 57 81 58 82 60 83 62 84 59 85 43 86 44 87 49 88
REMARK SMILES IDX 45 89 46 90 48 91 50 92 47 93
REMARK H PARENT 12 5 8 10 8 11 17 36 67 55 41 66
REMARK Flexibility Score: inf
ROOT
ATOM      1  C   UNL A   1      32.482  29.634  26.935  1.00  0.00     0.116 C 
ENDROOT
BRANCH   1   2
ATOM      2  N   UNL A   1      31.832  28.350  27.128  1.00  0.00    -0.351 N 
ATOM      3  C   UNL A   1      31.442  27.401  26.233  1.00  0.00     0.279 C 
ATOM      4  O   UNL A   1      30.881  26.399  26.692  1.00  0.00    -0.268 OA
ATOM      5  H   UNL A   1      31.641  28.128  28.068  1.00  0.00     0.163 HD
BRANCH   3   6
ATOM      6  C   UNL A   1      31.700  27.510  24.721  1.00  0.00     0.283 C 
ATOM      7  C   UNL A   1      33.125  26.517  23.011  1.00  0.00     0.274 C 
ATOM      8  N   UNL A   1      33.077  27.087  24.371  1.00  0.00    -0.321 N 
ATOM      9  S   UNL A   1      31.472  26.732  22.276  1.00  0.00    -0.088 SA
ATOM     10  H   UNL A   1      33.697  27.897  24.414  1.00  0.00     0.348 HD
ATOM     11  H   UNL A   1      33.378  26.372  25.033  1.00  0.00     0.348 HD
ATOM     12  C   UNL A   1      30.661  26.783  23.889  1.00  0.00     0.151 C 
BRANCH   7  13
ATOM     13  C   UNL A   1      33.631  25.073  23.121  1.00  0.00     0.024 A 
ATOM     14  C   UNL A   1      34.635  23.386  24.611  1.00  0.00     0.161 A 
ATOM     15  C   UNL A   1      34.491  24.722  24.201  1.00  0.00     0.061 A 
ATOM     16  C   UNL A   1      33.933  22.402  23.911  1.00  0.00     0.161 A 
ATOM     17  C   UNL A   1      33.239  22.716  22.741  1.00  0.00     0.051 A 
ATOM     18  C   UNL A   1      33.096  24.037  22.342  1.00  0.00     0.015 A 
BRANCH  14  19
ATOM     19  O   UNL A   1      35.097  23.133  25.884  1.00  0.00    -0.490 OA
BRANCH  19  20
ATOM     20  C   UNL A   1      36.442  23.569  26.111  1.00  0.00     0.226 C 
ATOM     21  C   UNL A   1      37.391  22.693  25.287  1.00  0.00     0.049 C 
ENDBRANCH  19  20
ENDBRANCH  14  19
BRANCH  16  22
ATOM     22  O   UNL A   1      33.585  21.178  24.402  1.00  0.00    -0.485 OA
BRANCH  22  23
ATOM     23  C   UNL A   1      34.609  20.247  24.686  1.00  0.00     0.265 C 
BRANCH  23  24
ATOM     24  C   UNL A   1      34.074  18.852  24.808  1.00  0.00    -0.011 A 
ATOM     25  C   UNL A   1      34.772  17.787  24.223  1.00  0.00     0.009 A 
ATOM     26  C   UNL A   1      32.901  18.599  25.524  1.00  0.00     0.009 A 
ATOM     27  C   UNL A   1      34.339  16.479  24.402  1.00  0.00     0.021 A 
ATOM     28  C   UNL A   1      32.471  17.288  25.712  1.00  0.00     0.021 A 
ATOM     29  C   UNL A   1      33.198  16.235  25.160  1.00  0.00     0.041 A 
ATOM     30  Cl  UNL A   1      32.687  14.615  25.428  1.00  0.00    -0.084 Cl
ENDBRANCH  23  24
ENDBRANCH  22  23
ENDBRANCH  16  22
ENDBRANCH   7  13
ENDBRANCH   3   6
ENDBRANCH   1   2
BRANCH   1  31
ATOM     31  C   UNL A   1      31.598  30.588  26.138  1.00  0.00     0.023 C 
BRANCH  31  32
ATOM     32  C   UNL A   1      31.432  32.040  26.599  1.00  0.00     0.023 C 
BRANCH  32  33
ATOM     33  C   UNL A   1      32.613  32.802  27.187  1.00  0.00     0.116 C 
BRANCH  33  34
ATOM     34  N   UNL A   1      32.315  34.118  27.737  1.00  0.00    -0.352 N 
ATOM     35  C   UNL A   1      33.001  34.871  28.664  1.00  0.00     0.251 C 
ATOM     36  H   UNL A   1      31.494  34.536  27.390  1.00  0.00     0.163 HD
ATOM     37  O   UNL A   1      32.611  35.988  29.008  1.00  0.00    -0.269 OA
BRANCH  35  38
ATOM     38  C   UNL A   1      34.210  34.323  29.297  1.00  0.00     0.039 A 
ATOM     39  C   UNL A   1      34.110  33.425  30.370  1.00  0.00     0.014 A 
ATOM     40  C   UNL A   1      35.450  34.706  28.801  1.00  0.00     0.014 A 
ATOM     41  C   UNL A   1      35.260  32.837  30.889  1.00  0.00     0.010 A 
ATOM     42  C   UNL A   1      36.583  34.066  29.255  1.00  0.00     0.010 A 
ATOM     43  C   UNL A   1      36.495  33.156  30.321  1.00  0.00    -0.014 A 
BRANCH  43  44
ATOM     44  C   UNL A   1      37.772  32.740  30.918  1.00  0.00     0.031 A 
ATOM     45  C   UNL A   1      38.453  31.567  30.280  1.00  0.00     0.074 A 
ATOM     46  C   UNL A   1      38.181  33.281  32.076  1.00  0.00     0.049 A 
ATOM     47  N   UNL A   1      39.369  30.776  30.761  1.00  0.00    -0.248 NA
ATOM     48  C   UNL A   1      37.965  31.187  28.939  1.00  0.00     0.031 C 
ATOM     49  C   UNL A   1      37.547  34.412  32.756  1.00  0.00     0.029 A 
ATOM     50  N   UNL A   1      39.199  32.913  32.909  1.00  0.00    -0.354 N 
ATOM     51  C   UNL A   1      39.526  29.777  29.808  1.00  0.00     0.074 A 
ATOM     52  C   UNL A   1      38.575  30.029  28.752  1.00  0.00     0.031 C 
ATOM     53  C   UNL A   1      38.185  34.635  33.918  1.00  0.00     0.029 A 
ATOM     54  C   UNL A   1      39.235  33.635  34.077  1.00  0.00     0.049 A 
ATOM     55  H   UNL A   1      39.843  32.200  32.694  1.00  0.00     0.167 HD
ATOM     56  C   UNL A   1      40.406  28.751  29.819  1.00  0.00     0.037 A 
ATOM     57  C   UNL A   1      40.018  33.469  35.158  1.00  0.00     0.037 A 
ATOM     58  C   UNL A   1      41.355  28.562  30.883  1.00  0.00     0.049 A 
ATOM     59  C   UNL A   1      41.014  32.340  35.134  1.00  0.00     0.074 A 
ATOM     60  C   UNL A   1      42.346  27.609  31.003  1.00  0.00     0.029 A 
ATOM     61  N   UNL A   1      41.427  29.369  32.012  1.00  0.00    -0.354 N 
ATOM     62  N   UNL A   1      41.194  31.416  34.217  1.00  0.00    -0.248 NA
ATOM     63  C   UNL A   1      41.918  32.233  36.283  1.00  0.00     0.031 C 
ATOM     64  C   UNL A   1      42.992  27.815  32.226  1.00  0.00     0.029 A 
ATOM     65  C   UNL A   1      42.441  28.931  32.842  1.00  0.00     0.049 A 
ATOM     66  H   UNL A   1      40.841  30.139  32.195  1.00  0.00     0.167 HD
ATOM     67  C   UNL A   1      42.253  30.636  34.661  1.00  0.00     0.074 A 
ATOM     68  C   UNL A   1      42.680  31.210  35.924  1.00  0.00     0.031 C 
ATOM     69  C   UNL A   1      42.825  29.547  34.089  1.00  0.00     0.037 A 
BRANCH  56  70
ATOM     70  C   UNL A   1      40.363  27.784  28.671  1.00  0.00     0.057 A 
ATOM     71  C   UNL A   1      39.621  26.595  28.724  1.00  0.00     0.134 A 
ATOM     72  C   UNL A   1      41.086  28.034  27.497  1.00  0.00     0.134 A 
ATOM     73  F   UNL A   1      38.922  26.278  29.824  1.00  0.00    -0.206 F 
ATOM     74  C   UNL A   1      39.627  25.677  27.672  1.00  0.00     0.040 A 
ATOM     75  C   UNL A   1      41.072  27.139  26.423  1.00  0.00     0.040 A 
ATOM     76  F   UNL A   1      41.823  29.147  27.373  1.00  0.00    -0.206 F 
ATOM     77  C   UNL A   1      40.349  25.951  26.513  1.00  0.00     0.006 A 
ENDBRANCH  56  70
BRANCH  57  78
ATOM     78  C   UNL A   1      39.915  34.402  36.307  1.00  0.00     0.057 A 
ATOM     79  C   UNL A   1      39.153  34.069  37.433  1.00  0.00     0.134 A 
ATOM     80  C   UNL A   1      40.595  35.627  36.333  1.00  0.00     0.134 A 
ATOM     81  F   UNL A   1      38.472  32.915  37.467  1.00  0.00    -0.206 F 
ATOM     82  C   UNL A   1      39.053  34.924  38.533  1.00  0.00     0.040 A 
ATOM     83  C   UNL A   1      40.526  36.480  37.437  1.00  0.00     0.040 A 
ATOM     84  F   UNL A   1      41.357  36.001  35.295  1.00  0.00    -0.206 F 
ATOM     85  C   UNL A   1      39.747  36.131  38.539  1.00  0.00     0.006 A 
ENDBRANCH  57  78
BRANCH  69  86
ATOM     86  C   UNL A   1      43.995  28.948  34.810  1.00  0.00     0.057 A 
ATOM     87  C   UNL A   1      43.831  27.987  35.815  1.00  0.00     0.134 A 
ATOM     88  C   UNL A   1      45.302  29.314  34.464  1.00  0.00     0.134 A 
ATOM     89  F   UNL A   1      42.604  27.605  36.198  1.00  0.00    -0.206 F 
ATOM     90  C   UNL A   1      44.929  27.435  36.475  1.00  0.00     0.040 A 
ATOM     91  C   UNL A   1      46.407  28.745  35.093  1.00  0.00     0.040 A 
ATOM     92  F   UNL A   1      45.523  30.219  33.499  1.00  0.00    -0.206 F 
ATOM     93  C   UNL A   1      46.222  27.809  36.108  1.00  0.00     0.006 A 
ENDBRANCH  69  86
ENDBRANCH  43  44
ENDBRANCH  35  38
ENDBRANCH  33  34
ENDBRANCH  32  33
ENDBRANCH  31  32
ENDBRANCH   1  31
TORSDOF 17
ENDMDL
MODEL 2
REMARK VINA RESULT:     -12.1      1.030      6.298
REMARK SMILES CCOc1cc([C@@H]2[NH2+][C@H](C(=O)NCCCCNC(=O)c3ccc(-c4c5nc(c(-c6c(F)cccc6F)c6ccc([nH]6)c(-c6c(F)cccc6F)c6nc(c(-c7c(F)cccc7F)c7ccc4[nH]7)C=C6)C=C5)cc3)CS2)ccc1OCc1ccc(Cl)cc1
REMARK SMILES IDX 13 1 12 2 10 3 11 4 9 6 7 7 8 8 75 9 74 12 6 13 4 14 5 15
REMARK SMILES IDX 78 16 77 17 76 18 3 19 2 20 1 21 79 22 80 23 81 24 82 25
REMARK SMILES IDX 87 26 83 27 86 28 84 29 85 30 14 31 15 32 16 33 17 34 18 35
REMARK SMILES IDX 19 37 20 38 21 39 73 40 22 41 72 42 23 43 24 44 25 45 66 46
REMARK SMILES IDX 26 47 71 48 65 49 67 50 27 51 70 52 64 53 63 54 28 56 54 57
REMARK SMILES IDX 37 58 53 59 38 60 41 61 52 62 68 63 39 64 40 65 51 67 69 68
REMARK SMILES IDX 42 69 29 70 30 71 35 72 31 73 32 74 34 75 36 76 33 77 55 78
REMARK SMILES IDX 56 79 61 80 57 81 58 82 60 83 62 84 59 85 43 86 44 87 49 88
REMARK SMILES IDX 45 89 46 90 48 91 50 92 47 93
REMARK H PARENT 12 5 8 10 8 11 17 36 67 55 41 66
REMARK Flexibility Score: inf
ROOT
ATOM      1  C   UNL A   1      32.393  29.428  27.212  1.00  0.00     0.116 C 
ENDROOT
BRANCH   1   2
ATOM      2  N   UNL A   1      31.563  28.240  27.300  1.00  0.00    -0.351 N 
ATOM      3  C   UNL A   1      31.369  27.216  26.425  1.00  0.00     0.279 C 
ATOM      4  O   UNL A   1      30.571  26.335  26.765  1.00  0.00    -0.268 OA
ATOM      5  H   UNL A   1      31.052  28.162  28.139  1.00  0.00     0.163 HD
BRANCH   3   6
ATOM      6  C   UNL A   1      32.115  27.099  25.085  1.00  0.00     0.283 C 
ATOM      7  C   UNL A   1      34.095  26.024  24.156  1.00  0.00     0.274 C 
ATOM      8  N   UNL A   1      33.554  26.805  25.284  1.00  0.00    -0.321 N 
ATOM      9  S   UNL A   1      32.776  25.896  22.905  1.00  0.00    -0.088 SA
ATOM     10  H   UNL A   1      34.069  27.683  25.358  1.00  0.00     0.348 HD
ATOM     11  H   UNL A   1      33.659  26.257  26.138  1.00  0.00     0.348 HD
ATOM     12  C   UNL A   1      31.467  26.115  24.130  1.00  0.00     0.151 C 
BRANCH   7  13
ATOM     13  C   UNL A   1      34.627  24.696  24.711  1.00  0.00     0.024 A 
ATOM     14  C   UNL A   1      34.169  22.803  26.221  1.00  0.00     0.161 A 
ATOM     15  C   UNL A   1      34.056  24.167  25.904  1.00  0.00     0.061 A 
ATOM     16  C   UNL A   1      34.886  21.980  25.349  1.00  0.00     0.161 A 
ATOM     17  C   UNL A   1      35.602  22.524  24.281  1.00  0.00     0.051 A 
ATOM     18  C   UNL A   1      35.484  23.871  23.969  1.00  0.00     0.015 A 
BRANCH  14  19
ATOM     19  O   UNL A   1      33.267  22.254  27.105  1.00  0.00    -0.490 OA
BRANCH  19  20
ATOM     20  C   UNL A   1      31.987  22.898  27.104  1.00  0.00     0.226 C 
ATOM     21  C   UNL A   1      31.144  22.318  25.963  1.00  0.00     0.049 C 
ENDBRANCH  19  20
ENDBRANCH  14  19
BRANCH  16  22
ATOM     22  O   UNL A   1      34.733  20.630  25.230  1.00  0.00    -0.485 OA
BRANCH  22  23
ATOM     23  C   UNL A   1      33.754  20.136  24.339  1.00  0.00     0.265 C 
BRANCH  23  24
ATOM     24  C   UNL A   1      33.465  18.685  24.579  1.00  0.00    -0.011 A 
ATOM     25  C   UNL A   1      34.076  17.713  23.776  1.00  0.00     0.009 A 
ATOM     26  C   UNL A   1      32.612  18.291  25.613  1.00  0.00     0.009 A 
ATOM     27  C   UNL A   1      33.888  16.362  24.042  1.00  0.00     0.021 A 
ATOM     28  C   UNL A   1      32.430  16.938  25.886  1.00  0.00     0.021 A 
ATOM     29  C   UNL A   1      33.078  15.981  25.106  1.00  0.00     0.041 A 
ATOM     30  Cl  UNL A   1      32.884  14.312  25.472  1.00  0.00    -0.084 Cl
ENDBRANCH  23  24
ENDBRANCH  22  23
ENDBRANCH  16  22
ENDBRANCH   7  13
ENDBRANCH   3   6
ENDBRANCH   1   2
BRANCH   1  31
ATOM     31  C   UNL A   1      31.741  30.496  26.340  1.00  0.00     0.023 C 
BRANCH  31  32
ATOM     32  C   UNL A   1      31.513  31.905  26.900  1.00  0.00     0.023 C 
BRANCH  32  33
ATOM     33  C   UNL A   1      32.652  32.917  26.925  1.00  0.00     0.116 C 
BRANCH  33  34
ATOM     34  N   UNL A   1      32.400  34.144  27.669  1.00  0.00    -0.352 N 
ATOM     35  C   UNL A   1      33.098  34.711  28.713  1.00  0.00     0.251 C 
ATOM     36  H   UNL A   1      31.605  34.649  27.380  1.00  0.00     0.163 HD
ATOM     37  O   UNL A   1      32.749  35.778  29.221  1.00  0.00    -0.269 OA
BRANCH  35  38
ATOM     38  C   UNL A   1      34.267  34.015  29.270  1.00  0.00     0.039 A 
ATOM     39  C   UNL A   1      35.563  34.341  28.843  1.00  0.00     0.014 A 
ATOM     40  C   UNL A   1      34.058  33.035  30.234  1.00  0.00     0.014 A 
ATOM     41  C   UNL A   1      36.663  33.744  29.455  1.00  0.00     0.010 A 
ATOM     42  C   UNL A   1      35.143  32.504  30.897  1.00  0.00     0.010 A 
ATOM     43  C   UNL A   1      36.446  32.831  30.487  1.00  0.00    -0.014 A 
BRANCH  43  44
ATOM     44  C   UNL A   1      37.524  32.011  31.059  1.00  0.00     0.031 A 
ATOM     45  C   UNL A   1      38.166  32.535  32.308  1.00  0.00     0.074 A 
ATOM     46  C   UNL A   1      38.005  30.962  30.375  1.00  0.00     0.049 A 
ATOM     47  N   UNL A   1      39.320  32.241  32.835  1.00  0.00    -0.248 NA
ATOM     48  C   UNL A   1      37.430  33.604  33.014  1.00  0.00     0.031 C 
ATOM     49  C   UNL A   1      37.435  30.418  29.142  1.00  0.00     0.029 A 
ATOM     50  N   UNL A   1      39.117  30.200  30.599  1.00  0.00    -0.354 N 
ATOM     51  C   UNL A   1      39.473  33.125  33.897  1.00  0.00     0.074 A 
ATOM     52  C   UNL A   1      38.324  33.999  33.905  1.00  0.00     0.031 C 
ATOM     53  C   UNL A   1      38.216  29.414  28.707  1.00  0.00     0.029 A 
ATOM     54  C   UNL A   1      39.357  29.283  29.605  1.00  0.00     0.049 A 
ATOM     55  H   UNL A   1      39.689  30.298  31.394  1.00  0.00     0.167 HD
ATOM     56  C   UNL A   1      40.485  33.180  34.791  1.00  0.00     0.037 A 
ATOM     57  C   UNL A   1      40.408  28.459  29.442  1.00  0.00     0.037 A 
ATOM     58  C   UNL A   1      41.593  32.265  34.757  1.00  0.00     0.049 A 
ATOM     59  C   UNL A   1      41.507  28.514  30.469  1.00  0.00     0.074 A 
ATOM     60  C   UNL A   1      42.657  32.158  35.628  1.00  0.00     0.029 A 
ATOM     61  N   UNL A   1      41.761  31.284  33.786  1.00  0.00    -0.354 N 
ATOM     62  N   UNL A   1      41.636  29.321  31.498  1.00  0.00    -0.248 NA
ATOM     63  C   UNL A   1      42.597  27.545  30.321  1.00  0.00     0.031 C 
ATOM     64  C   UNL A   1      43.492  31.137  35.162  1.00  0.00     0.029 A 
ATOM     65  C   UNL A   1      42.918  30.570  34.032  1.00  0.00     0.049 A 
ATOM     66  H   UNL A   1      41.146  31.122  33.035  1.00  0.00     0.167 HD
ATOM     67  C   UNL A   1      42.806  28.938  32.142  1.00  0.00     0.074 A 
ATOM     68  C   UNL A   1      43.335  27.815  31.389  1.00  0.00     0.031 C 
ATOM     69  C   UNL A   1      43.395  29.457  33.248  1.00  0.00     0.037 A 
BRANCH  56  70
ATOM     70  C   UNL A   1      40.427  34.250  35.844  1.00  0.00     0.057 A 
ATOM     71  C   UNL A   1      41.042  35.500  35.671  1.00  0.00     0.134 A 
ATOM     72  C   UNL A   1      39.761  34.028  37.056  1.00  0.00     0.134 A 
ATOM     73  F   UNL A   1      41.716  35.776  34.545  1.00  0.00    -0.206 F 
ATOM     74  C   UNL A   1      41.027  36.471  36.674  1.00  0.00     0.040 A 
ATOM     75  C   UNL A   1      39.710  35.005  38.054  1.00  0.00     0.040 A 
ATOM     76  F   UNL A   1      39.154  32.857  37.296  1.00  0.00    -0.206 F 
ATOM     77  C   UNL A   1      40.353  36.227  37.869  1.00  0.00     0.006 A 
ENDBRANCH  56  70
BRANCH  57  78
ATOM     78  C   UNL A   1      40.443  27.508  28.303  1.00  0.00     0.057 A 
ATOM     79  C   UNL A   1      41.152  27.816  27.136  1.00  0.00     0.134 A 
ATOM     80  C   UNL A   1      39.807  26.261  28.356  1.00  0.00     0.134 A 
ATOM     81  F   UNL A   1      41.777  28.997  27.019  1.00  0.00    -0.206 F 
ATOM     82  C   UNL A   1      41.213  26.932  26.057  1.00  0.00     0.040 A 
ATOM     83  C   UNL A   1      39.881  25.356  27.295  1.00  0.00     0.040 A 
ATOM     84  F   UNL A   1      39.124  25.895  29.450  1.00  0.00    -0.206 F 
ATOM     85  C   UNL A   1      40.581  25.693  26.138  1.00  0.00     0.006 A 
ENDBRANCH  57  78
BRANCH  69  86
ATOM     86  C   UNL A   1      44.646  28.780  33.720  1.00  0.00     0.057 A 
ATOM     87  C   UNL A   1      45.913  29.171  33.271  1.00  0.00     0.134 A 
ATOM     88  C   UNL A   1      44.580  27.749  34.665  1.00  0.00     0.134 A 
ATOM     89  F   UNL A   1      46.040  30.146  32.357  1.00  0.00    -0.206 F 
ATOM     90  C   UNL A   1      47.070  28.537  33.721  1.00  0.00     0.040 A 
ATOM     91  C   UNL A   1      45.730  27.130  35.148  1.00  0.00     0.040 A 
ATOM     92  F   UNL A   1      43.395  27.339  35.145  1.00  0.00    -0.206 F 
ATOM     93  C   UNL A   1      46.980  27.517  34.669  1.00  0.00     0.006 A 
ENDBRANCH  69  86
ENDBRANCH  43  44
ENDBRANCH  35  38
ENDBRANCH  33  34
ENDBRANCH  32  33
ENDBRANCH  31  32
ENDBRANCH   1  31
TORSDOF 17
ENDMDL
MODEL 3
REMARK VINA RESULT:     -11.9      3.423      8.308
REMARK SMILES CCOc1cc([C@@H]2[NH2+][C@H](C(=O)NCCCCNC(=O)c3ccc(-c4c5nc(c(-c6c(F)cccc6F)c6ccc([nH]6)c(-c6c(F)cccc6F)c6nc(c(-c7c(F)cccc7F)c7ccc4[nH]7)C=C6)C=C5)cc3)CS2)ccc1OCc1ccc(Cl)cc1
REMARK SMILES IDX 13 1 12 2 10 3 11 4 9 6 7 7 8 8 75 9 74 12 6 13 4 14 5 15
REMARK SMILES IDX 78 16 77 17 76 18 3 19 2 20 1 21 79 22 80 23 81 24 82 25
REMARK SMILES IDX 87 26 83 27 86 28 84 29 85 30 14 31 15 32 16 33 17 34 18 35
REMARK SMILES IDX 19 37 20 38 21 39 73 40 22 41 72 42 23 43 24 44 25 45 66 46
REMARK SMILES IDX 26 47 71 48 65 49 67 50 27 51 70 52 64 53 63 54 28 56 54 57
REMARK SMILES IDX 37 58 53 59 38 60 41 61 52 62 68 63 39 64 40 65 51 67 69 68
REMARK SMILES IDX 42 69 29 70 30 71 35 72 31 73 32 74 34 75 36 76 33 77 55 78
REMARK SMILES IDX 56 79 61 80 57 81 58 82 60 83 62 84 59 85 43 86 44 87 49 88
REMARK SMILES IDX 45 89 46 90 48 91 50 92 47 93
REMARK H PARENT 12 5 8 10 8 11 17 36 67 55 41 66
REMARK Flexibility Score: inf
ROOT
ATOM      1  C   UNL A   1      39.157  21.059  25.843  1.00  0.00     0.116 C 
ENDROOT
BRANCH   1   2
ATOM      2  N   UNL A   1      38.581  22.369  25.595  1.00  0.00    -0.351 N 
ATOM      3  C   UNL A   1      37.288  22.794  25.598  1.00  0.00     0.279 C 
ATOM      4  O   UNL A   1      37.091  23.983  25.323  1.00  0.00    -0.268 OA
ATOM      5  H   UNL A   1      39.241  23.071  25.389  1.00  0.00     0.163 HD
BRANCH   3   6
ATOM      6  C   UNL A   1      36.102  21.884  25.958  1.00  0.00     0.283 C 
ATOM      7  C   UNL A   1      33.797  22.066  26.729  1.00  0.00     0.274 C 
ATOM      8  N   UNL A   1      35.180  22.541  26.916  1.00  0.00    -0.321 N 
ATOM      9  S   UNL A   1      33.846  20.732  25.487  1.00  0.00    -0.088 SA
ATOM     10  H   UNL A   1      35.479  22.328  27.869  1.00  0.00     0.348 HD
ATOM     11  H   UNL A   1      35.203  23.548  26.752  1.00  0.00     0.348 HD
ATOM     12  C   UNL A   1      35.366  21.360  24.740  1.00  0.00     0.151 C 
BRANCH   7  13
ATOM     13  C   UNL A   1      32.923  23.278  26.381  1.00  0.00     0.024 A 
ATOM     14  C   UNL A   1      32.749  25.326  25.021  1.00  0.00     0.161 A 
ATOM     15  C   UNL A   1      33.522  24.402  25.744  1.00  0.00     0.061 A 
ATOM     16  C   UNL A   1      31.367  25.131  24.967  1.00  0.00     0.161 A 
ATOM     17  C   UNL A   1      30.755  24.142  25.740  1.00  0.00     0.051 A 
ATOM     18  C   UNL A   1      31.523  23.229  26.449  1.00  0.00     0.015 A 
BRANCH  14  19
ATOM     19  O   UNL A   1      33.374  26.115  24.080  1.00  0.00    -0.490 OA
BRANCH  19  20
ATOM     20  C   UNL A   1      33.671  25.435  22.855  1.00  0.00     0.226 C 
ATOM     21  C   UNL A   1      33.225  26.314  21.681  1.00  0.00     0.049 C 
ENDBRANCH  19  20
ENDBRANCH  14  19
BRANCH  16  22
ATOM     22  O   UNL A   1      30.538  25.612  23.997  1.00  0.00    -0.485 OA
BRANCH  22  23
ATOM     23  C   UNL A   1      29.352  26.273  24.388  1.00  0.00     0.265 C 
BRANCH  23  24
ATOM     24  C   UNL A   1      29.142  27.540  23.616  1.00  0.00    -0.011 A 
ATOM     25  C   UNL A   1      30.242  28.206  23.059  1.00  0.00     0.009 A 
ATOM     26  C   UNL A   1      27.856  28.051  23.423  1.00  0.00     0.009 A 
ATOM     27  C   UNL A   1      30.056  29.332  22.266  1.00  0.00     0.021 A 
ATOM     28  C   UNL A   1      27.667  29.174  22.622  1.00  0.00     0.021 A 
ATOM     29  C   UNL A   1      28.767  29.801  22.038  1.00  0.00     0.041 A 
ATOM     30  Cl  UNL A   1      28.526  31.163  21.016  1.00  0.00    -0.084 Cl
ENDBRANCH  23  24
ENDBRANCH  22  23
ENDBRANCH  16  22
ENDBRANCH   7  13
ENDBRANCH   3   6
ENDBRANCH   1   2
BRANCH   1  31
ATOM     31  C   UNL A   1      40.577  21.172  26.387  1.00  0.00     0.023 C 
BRANCH  31  32
ATOM     32  C   UNL A   1      40.846  21.989  27.656  1.00  0.00     0.023 C 
BRANCH  32  33
ATOM     33  C   UNL A   1      41.666  23.271  27.588  1.00  0.00     0.116 C 
BRANCH  33  34
ATOM     34  N   UNL A   1      41.537  24.048  26.362  1.00  0.00    -0.352 N 
ATOM     35  C   UNL A   1      41.309  25.395  26.181  1.00  0.00     0.251 C 
ATOM     36  H   UNL A   1      41.628  23.529  25.530  1.00  0.00     0.163 HD
ATOM     37  O   UNL A   1      41.245  25.896  25.058  1.00  0.00    -0.269 OA
BRANCH  35  38
ATOM     38  C   UNL A   1      41.097  26.260  27.351  1.00  0.00     0.039 A 
ATOM     39  C   UNL A   1      41.958  27.337  27.610  1.00  0.00     0.014 A 
ATOM     40  C   UNL A   1      40.018  25.992  28.187  1.00  0.00     0.014 A 
ATOM     41  C   UNL A   1      41.682  28.205  28.663  1.00  0.00     0.010 A 
ATOM     42  C   UNL A   1      39.695  26.895  29.176  1.00  0.00     0.010 A 
ATOM     43  C   UNL A   1      40.543  27.983  29.438  1.00  0.00    -0.014 A 
BRANCH  43  44
ATOM     44  C   UNL A   1      40.273  28.724  30.679  1.00  0.00     0.031 A 
ATOM     45  C   UNL A   1      39.197  29.765  30.610  1.00  0.00     0.074 A 
ATOM     46  C   UNL A   1      41.086  28.582  31.737  1.00  0.00     0.049 A 
ATOM     47  N   UNL A   1      38.971  30.780  31.395  1.00  0.00    -0.248 NA
ATOM     48  C   UNL A   1      38.301  29.693  29.438  1.00  0.00     0.031 C 
ATOM     49  C   UNL A   1      42.165  27.600  31.854  1.00  0.00     0.029 A 
ATOM     50  N   UNL A   1      41.159  29.305  32.894  1.00  0.00    -0.354 N 
ATOM     51  C   UNL A   1      37.948  31.494  30.784  1.00  0.00     0.074 A 
ATOM     52  C   UNL A   1      37.637  30.832  29.539  1.00  0.00     0.031 C 
ATOM     53  C   UNL A   1      42.806  27.794  33.019  1.00  0.00     0.029 A 
ATOM     54  C   UNL A   1      42.212  28.940  33.698  1.00  0.00     0.049 A 
ATOM     55  H   UNL A   1      40.522  30.017  33.128  1.00  0.00     0.167 HD
ATOM     56  C   UNL A   1      37.320  32.600  31.242  1.00  0.00     0.037 A 
ATOM     57  C   UNL A   1      42.648  29.504  34.838  1.00  0.00     0.037 A 
ATOM     58  C   UNL A   1      37.648  33.204  32.505  1.00  0.00     0.049 A 
ATOM     59  C   UNL A   1      41.912  30.714  35.347  1.00  0.00     0.074 A 
ATOM     60  C   UNL A   1      37.061  34.286  33.128  1.00  0.00     0.029 A 
ATOM     61  N   UNL A   1      38.663  32.754  33.341  1.00  0.00    -0.354 N 
ATOM     62  N   UNL A   1      40.918  31.371  34.793  1.00  0.00    -0.248 NA
ATOM     63  C   UNL A   1      42.348  31.258  36.638  1.00  0.00     0.031 C 
ATOM     64  C   UNL A   1      37.746  34.514  34.326  1.00  0.00     0.029 A 
ATOM     65  C   UNL A   1      38.725  33.541  34.475  1.00  0.00     0.049 A 
ATOM     66  H   UNL A   1      39.251  31.987  33.154  1.00  0.00     0.167 HD
ATOM     67  C   UNL A   1      40.585  32.385  35.680  1.00  0.00     0.074 A 
ATOM     68  C   UNL A   1      41.479  32.243  36.815  1.00  0.00     0.031 C 
ATOM     69  C   UNL A   1      39.635  33.349  35.577  1.00  0.00     0.037 A 
BRANCH  56  70
ATOM     70  C   UNL A   1      36.250  33.202  30.377  1.00  0.00     0.057 A 
ATOM     71  C   UNL A   1      34.885  33.016  30.641  1.00  0.00     0.134 A 
ATOM     72  C   UNL A   1      36.584  33.969  29.253  1.00  0.00     0.134 A 
ATOM     73  F   UNL A   1      34.490  32.276  31.688  1.00  0.00    -0.206 F 
ATOM     74  C   UNL A   1      33.896  33.537  29.804  1.00  0.00     0.040 A 
ATOM     75  C   UNL A   1      35.603  34.524  28.427  1.00  0.00     0.040 A 
ATOM     76  F   UNL A   1      37.868  34.187  28.932  1.00  0.00    -0.206 F 
ATOM     77  C   UNL A   1      34.254  34.300  28.695  1.00  0.00     0.006 A 
ENDBRANCH  56  70
BRANCH  57  78
ATOM     78  C   UNL A   1      43.793  28.913  35.575  1.00  0.00     0.057 A 
ATOM     79  C   UNL A   1      45.099  29.360  35.344  1.00  0.00     0.134 A 
ATOM     80  C   UNL A   1      43.618  27.919  36.546  1.00  0.00     0.134 A 
ATOM     81  F   UNL A   1      45.335  30.304  34.421  1.00  0.00    -0.206 F 
ATOM     82  C   UNL A   1      46.191  28.830  36.035  1.00  0.00     0.040 A 
ATOM     83  C   UNL A   1      44.698  27.398  37.264  1.00  0.00     0.040 A 
ATOM     84  F   UNL A   1      42.392  27.456  36.830  1.00  0.00    -0.206 F 
ATOM     85  C   UNL A   1      45.991  27.850  37.004  1.00  0.00     0.006 A 
ENDBRANCH  57  78
BRANCH  69  86
ATOM     86  C   UNL A   1      39.499  34.282  36.742  1.00  0.00     0.057 A 
ATOM     87  C   UNL A   1      38.766  33.937  37.884  1.00  0.00     0.134 A 
ATOM     88  C   UNL A   1      40.141  35.526  36.731  1.00  0.00     0.134 A 
ATOM     89  F   UNL A   1      38.119  32.763  37.949  1.00  0.00    -0.206 F 
ATOM     90  C   UNL A   1      38.651  34.813  38.963  1.00  0.00     0.040 A 
ATOM     91  C   UNL A   1      40.061  36.396  37.816  1.00  0.00     0.040 A 
ATOM     92  F   UNL A   1      40.870  35.908  35.671  1.00  0.00    -0.206 F 
ATOM     93  C   UNL A   1      39.307  36.043  38.933  1.00  0.00     0.006 A 
ENDBRANCH  69  86
ENDBRANCH  43  44
ENDBRANCH  35  38
ENDBRANCH  33  34
ENDBRANCH  32  33
ENDBRANCH  31  32
ENDBRANCH   1  31
TORSDOF 17
ENDMDL
