MODEL 1
REMARK VINA RESULT:     -13.0      0.000      0.000
REMARK SMILES O=C(NCCCCNC(=O)c1ccc(-c2c3nc(c(-c4c(F)cccc4F)c4ccc([nH]4)c(-c4c(F)cccc4F)c4nc(c(-c5c(F)cccc5F)c5ccc2[nH]5)C=C4)C=C3)cc1)c1ccc(/[NH+]=C2\S[C@@H](Cc3ccc(F)cc3)C(=O)N2Cc2ccccc2)cc1
REMARK SMILES IDX 5 1 4 2 3 3 1 4 2 5 65 7 66 8 92 9 67 10 91 11 68 12 69 13
REMARK SMILES IDX 70 14 71 16 83 17 72 18 81 19 82 20 84 21 85 22 86 23 90 24
REMARK SMILES IDX 87 25 89 26 88 27 73 28 74 29 75 30 80 31 76 32 79 33 77 34
REMARK SMILES IDX 78 35 6 36 7 37 8 38 9 39 10 41 11 42 12 43 64 44 13 45
REMARK SMILES IDX 63 46 14 47 15 48 16 49 57 50 17 51 62 52 56 53 58 54 18 55
REMARK SMILES IDX 61 56 55 57 54 58 19 60 45 61 28 62 44 63 29 64 32 65 43 66
REMARK SMILES IDX 59 67 30 68 31 69 42 71 60 72 33 73 20 74 21 75 26 76 22 77
REMARK SMILES IDX 23 78 25 79 27 80 24 81 46 82 47 83 52 84 48 85 49 86 51 87
REMARK SMILES IDX 53 88 50 89 34 90 35 91 40 92 36 93 37 94 39 95 41 96 38 97
REMARK H PARENT 3 6 69 15 8 40 58 59 32 70
REMARK Flexibility Score: inf
ROOT
ATOM      1  C   UNL A   1      36.829  19.194  24.992  1.00  0.00     0.023 C 
ENDROOT
BRANCH   1   2
ATOM      2  C   UNL A   1      35.565  20.045  25.002  1.00  0.00     0.116 C 
BRANCH   2   3
ATOM      3  N   UNL A   1      34.355  19.236  24.985  1.00  0.00    -0.352 N 
ATOM      4  O   UNL A   1      32.135  18.838  25.109  1.00  0.00    -0.269 OA
ATOM      5  C   UNL A   1      33.046  19.644  24.930  1.00  0.00     0.251 C 
ATOM      6  H   UNL A   1      34.495  18.263  25.018  1.00  0.00     0.163 HD
BRANCH   5   7
ATOM      7  C   UNL A   1      32.734  21.060  24.659  1.00  0.00     0.040 A 
ATOM      8  C   UNL A   1      33.032  21.610  23.411  1.00  0.00     0.018 A 
ATOM      9  C   UNL A   1      32.117  21.835  25.645  1.00  0.00     0.018 A 
ATOM     10  C   UNL A   1      32.797  22.961  23.189  1.00  0.00     0.052 A 
ATOM     11  C   UNL A   1      31.843  23.183  25.396  1.00  0.00     0.052 A 
ATOM     12  C   UNL A   1      32.203  23.756  24.176  1.00  0.00     0.125 A 
BRANCH  12  13
ATOM     13  N   UNL A   1      31.840  25.051  23.817  1.00  0.00    -0.235 N 
ATOM     14  C   UNL A   1      32.327  26.109  24.363  1.00  0.00     0.320 C 
ATOM     15  H   UNL A   1      31.169  25.164  23.105  1.00  0.00     0.313 HD
ATOM     16  S   UNL A   1      33.361  26.214  25.758  1.00  0.00    -0.022 SA
ATOM     17  N   UNL A   1      32.075  27.348  23.844  1.00  0.00    -0.186 N 
ATOM     18  C   UNL A   1      33.067  28.006  25.931  1.00  0.00     0.178 C 
ATOM     19  C   UNL A   1      32.510  28.432  24.576  1.00  0.00     0.324 C 
ATOM     20  O   UNL A   1      32.374  29.599  24.226  1.00  0.00    -0.245 OA
BRANCH  17  21
ATOM     21  C   UNL A   1      31.346  27.533  22.589  1.00  0.00     0.283 C 
BRANCH  21  22
ATOM     22  C   UNL A   1      29.917  28.024  22.749  1.00  0.00    -0.006 A 
ATOM     23  C   UNL A   1      29.509  29.254  22.219  1.00  0.00     0.008 A 
ATOM     24  C   UNL A   1      28.979  27.285  23.487  1.00  0.00     0.008 A 
ATOM     25  C   UNL A   1      28.204  29.721  22.422  1.00  0.00     0.000 A 
ATOM     26  C   UNL A   1      27.666  27.727  23.656  1.00  0.00     0.000 A 
ATOM     27  C   UNL A   1      27.280  28.952  23.128  1.00  0.00     0.000 A 
ENDBRANCH  21  22
ENDBRANCH  17  21
BRANCH  18  28
ATOM     28  C   UNL A   1      34.340  28.741  26.358  1.00  0.00     0.063 C 
BRANCH  28  29
ATOM     29  C   UNL A   1      34.083  30.092  26.992  1.00  0.00    -0.046 A 
ATOM     30  C   UNL A   1      35.160  30.857  27.468  1.00  0.00     0.007 A 
ATOM     31  C   UNL A   1      32.782  30.611  27.094  1.00  0.00     0.007 A 
ATOM     32  C   UNL A   1      34.946  32.128  28.002  1.00  0.00     0.039 A 
ATOM     33  C   UNL A   1      32.571  31.886  27.626  1.00  0.00     0.039 A 
ATOM     34  C   UNL A   1      33.655  32.634  28.070  1.00  0.00     0.123 A 
ATOM     35  F   UNL A   1      33.452  33.861  28.568  1.00  0.00    -0.207 F 
ENDBRANCH  28  29
ENDBRANCH  18  28
ENDBRANCH  12  13
ENDBRANCH   5   7
ENDBRANCH   2   3
ENDBRANCH   1   2
BRANCH   1  36
ATOM     36  C   UNL A   1      38.111  19.953  24.666  1.00  0.00     0.023 C 
BRANCH  36  37
ATOM     37  C   UNL A   1      39.068  20.149  25.835  1.00  0.00     0.116 C 
BRANCH  37  38
ATOM     38  N   UNL A   1      40.147  19.173  25.858  1.00  0.00    -0.352 N 
ATOM     39  C   UNL A   1      41.494  19.358  26.048  1.00  0.00     0.251 C 
ATOM     40  H   UNL A   1      39.868  18.240  25.714  1.00  0.00     0.163 HD
ATOM     41  O   UNL A   1      42.264  18.413  25.895  1.00  0.00    -0.269 OA
BRANCH  39  42
ATOM     42  C   UNL A   1      42.027  20.691  26.404  1.00  0.00     0.039 A 
ATOM     43  C   UNL A   1      42.278  21.603  25.376  1.00  0.00     0.014 A 
ATOM     44  C   UNL A   1      42.284  21.048  27.731  1.00  0.00     0.014 A 
ATOM     45  C   UNL A   1      42.726  22.889  25.685  1.00  0.00     0.010 A 
ATOM     46  C   UNL A   1      42.645  22.357  28.043  1.00  0.00     0.010 A 
ATOM     47  C   UNL A   1      42.876  23.291  27.023  1.00  0.00    -0.014 A 
BRANCH  47  48
ATOM     48  C   UNL A   1      43.254  24.690  27.353  1.00  0.00     0.031 A 
ATOM     49  C   UNL A   1      44.630  25.213  27.042  1.00  0.00     0.074 A 
ATOM     50  C   UNL A   1      42.356  25.488  27.964  1.00  0.00     0.049 A 
ATOM     51  N   UNL A   1      45.114  26.418  27.213  1.00  0.00    -0.248 NA
ATOM     52  C   UNL A   1      45.597  24.252  26.491  1.00  0.00     0.031 C 
ATOM     53  C   UNL A   1      41.010  25.085  28.376  1.00  0.00     0.029 A 
ATOM     54  N   UNL A   1      42.435  26.807  28.333  1.00  0.00    -0.354 N 
ATOM     55  C   UNL A   1      46.440  26.356  26.802  1.00  0.00     0.074 A 
ATOM     56  C   UNL A   1      46.701  24.983  26.430  1.00  0.00     0.031 C 
ATOM     57  C   UNL A   1      40.371  26.148  28.890  1.00  0.00     0.029 A 
ATOM     58  C   UNL A   1      41.273  27.296  28.878  1.00  0.00     0.049 A 
ATOM     59  H   UNL A   1      43.247  27.352  28.218  1.00  0.00     0.167 HD
ATOM     60  C   UNL A   1      47.351  27.357  26.720  1.00  0.00     0.037 A 
ATOM     61  C   UNL A   1      40.961  28.533  29.306  1.00  0.00     0.037 A 
ATOM     62  C   UNL A   1      47.082  28.727  27.079  1.00  0.00     0.049 A 
ATOM     63  C   UNL A   1      41.988  29.626  29.202  1.00  0.00     0.074 A 
ATOM     64  C   UNL A   1      47.915  29.827  26.964  1.00  0.00     0.029 A 
ATOM     65  N   UNL A   1      45.897  29.181  27.637  1.00  0.00    -0.354 N 
ATOM     66  N   UNL A   1      43.206  29.576  28.722  1.00  0.00    -0.248 NA
ATOM     67  C   UNL A   1      41.587  30.952  29.690  1.00  0.00     0.031 C 
ATOM     68  C   UNL A   1      47.254  30.935  27.507  1.00  0.00     0.029 A 
ATOM     69  C   UNL A   1      45.986  30.540  27.901  1.00  0.00     0.049 A 
ATOM     70  H   UNL A   1      45.108  28.622  27.818  1.00  0.00     0.167 HD
ATOM     71  C   UNL A   1      43.708  30.868  28.821  1.00  0.00     0.074 A 
ATOM     72  C   UNL A   1      42.651  31.680  29.386  1.00  0.00     0.031 C 
ATOM     73  C   UNL A   1      44.931  31.339  28.473  1.00  0.00     0.037 A 
BRANCH  60  74
ATOM     74  C   UNL A   1      48.727  27.000  26.233  1.00  0.00     0.057 A 
ATOM     75  C   UNL A   1      49.083  27.082  24.879  1.00  0.00     0.134 A 
ATOM     76  C   UNL A   1      49.719  26.587  27.132  1.00  0.00     0.134 A 
ATOM     77  F   UNL A   1      48.181  27.460  23.959  1.00  0.00    -0.206 F 
ATOM     78  C   UNL A   1      50.360  26.733  24.434  1.00  0.00     0.040 A 
ATOM     79  C   UNL A   1      51.008  26.266  26.705  1.00  0.00     0.040 A 
ATOM     80  F   UNL A   1      49.452  26.493  28.444  1.00  0.00    -0.206 F 
ATOM     81  C   UNL A   1      51.329  26.329  25.350  1.00  0.00     0.006 A 
ENDBRANCH  60  74
BRANCH  61  82
ATOM     82  C   UNL A   1      39.600  28.820  29.826  1.00  0.00     0.057 A 
ATOM     83  C   UNL A   1      39.304  28.673  31.187  1.00  0.00     0.134 A 
ATOM     84  C   UNL A   1      38.564  29.239  28.983  1.00  0.00     0.134 A 
ATOM     85  F   UNL A   1      40.250  28.255  32.041  1.00  0.00    -0.206 F 
ATOM     86  C   UNL A   1      38.023  28.910  31.687  1.00  0.00     0.040 A 
ATOM     87  C   UNL A   1      37.286  29.507  29.475  1.00  0.00     0.040 A 
ATOM     88  F   UNL A   1      38.785  29.409  27.671  1.00  0.00    -0.206 F 
ATOM     89  C   UNL A   1      37.010  29.334  30.830  1.00  0.00     0.006 A 
ENDBRANCH  61  82
BRANCH  73  90
ATOM     90  C   UNL A   1      45.174  32.810  28.667  1.00  0.00     0.057 A 
ATOM     91  C   UNL A   1      45.701  33.327  29.858  1.00  0.00     0.134 A 
ATOM     92  C   UNL A   1      44.865  33.722  27.650  1.00  0.00     0.134 A 
ATOM     93  F   UNL A   1      46.007  32.511  30.878  1.00  0.00    -0.206 F 
ATOM     94  C   UNL A   1      45.869  34.701  30.047  1.00  0.00     0.040 A 
ATOM     95  C   UNL A   1      45.061  35.094  27.814  1.00  0.00     0.040 A 
ATOM     96  F   UNL A   1      44.368  33.297  26.479  1.00  0.00    -0.206 F 
ATOM     97  C   UNL A   1      45.552  35.588  29.020  1.00  0.00     0.006 A 
ENDBRANCH  73  90
ENDBRANCH  47  48
ENDBRANCH  39  42
ENDBRANCH  37  38
ENDBRANCH  36  37
ENDBRANCH   1  36
TORSDOF 16
ENDMDL
MODEL 2
REMARK VINA RESULT:     -12.8      4.302     10.459
REMARK SMILES O=C(NCCCCNC(=O)c1ccc(-c2c3nc(c(-c4c(F)cccc4F)c4ccc([nH]4)c(-c4c(F)cccc4F)c4nc(c(-c5c(F)cccc5F)c5ccc2[nH]5)C=C4)C=C3)cc1)c1ccc(/[NH+]=C2\S[C@@H](Cc3ccc(F)cc3)C(=O)N2Cc2ccccc2)cc1
REMARK SMILES IDX 5 1 4 2 3 3 1 4 2 5 65 7 66 8 92 9 67 10 91 11 68 12 69 13
REMARK SMILES IDX 70 14 71 16 83 17 72 18 81 19 82 20 84 21 85 22 86 23 90 24
REMARK SMILES IDX 87 25 89 26 88 27 73 28 74 29 75 30 80 31 76 32 79 33 77 34
REMARK SMILES IDX 78 35 6 36 7 37 8 38 9 39 10 41 11 42 12 43 64 44 13 45
REMARK SMILES IDX 63 46 14 47 15 48 16 49 57 50 17 51 62 52 56 53 58 54 18 55
REMARK SMILES IDX 61 56 55 57 54 58 19 60 45 61 28 62 44 63 29 64 32 65 43 66
REMARK SMILES IDX 59 67 30 68 31 69 42 71 60 72 33 73 20 74 21 75 26 76 22 77
REMARK SMILES IDX 23 78 25 79 27 80 24 81 46 82 47 83 52 84 48 85 49 86 51 87
REMARK SMILES IDX 53 88 50 89 34 90 35 91 40 92 36 93 37 94 39 95 41 96 38 97
REMARK H PARENT 3 6 69 15 8 40 58 59 32 70
REMARK Flexibility Score: inf
ROOT
ATOM      1  C   UNL A   1      30.867  31.361  25.699  1.00  0.00     0.023 C 
ENDROOT
BRANCH   1   2
ATOM      2  C   UNL A   1      31.119  30.087  24.902  1.00  0.00     0.116 C 
BRANCH   2   3
ATOM      3  N   UNL A   1      30.430  30.093  23.619  1.00  0.00    -0.352 N 
ATOM      4  O   UNL A   1      29.805  29.280  21.607  1.00  0.00    -0.269 OA
ATOM      5  C   UNL A   1      30.252  29.062  22.731  1.00  0.00     0.251 C 
ATOM      6  H   UNL A   1      30.039  30.955  23.352  1.00  0.00     0.163 HD
BRANCH   5   7
ATOM      7  C   UNL A   1      30.605  27.687  23.130  1.00  0.00     0.040 A 
ATOM      8  C   UNL A   1      31.599  26.995  22.435  1.00  0.00     0.018 A 
ATOM      9  C   UNL A   1      29.961  27.095  24.220  1.00  0.00     0.018 A 
ATOM     10  C   UNL A   1      31.875  25.676  22.775  1.00  0.00     0.052 A 
ATOM     11  C   UNL A   1      30.279  25.782  24.584  1.00  0.00     0.052 A 
ATOM     12  C   UNL A   1      31.220  25.061  23.848  1.00  0.00     0.125 A 
BRANCH  12  13
ATOM     13  N   UNL A   1      31.676  23.805  24.237  1.00  0.00    -0.235 N 
ATOM     14  C   UNL A   1      32.859  23.582  24.691  1.00  0.00     0.320 C 
ATOM     15  H   UNL A   1      31.058  23.043  24.158  1.00  0.00     0.313 HD
ATOM     16  S   UNL A   1      34.207  24.679  24.753  1.00  0.00    -0.022 SA
ATOM     17  N   UNL A   1      33.187  22.369  25.231  1.00  0.00    -0.186 N 
ATOM     18  C   UNL A   1      35.386  23.326  25.085  1.00  0.00     0.178 C 
ATOM     19  C   UNL A   1      34.512  22.167  25.554  1.00  0.00     0.324 C 
ATOM     20  O   UNL A   1      34.947  21.141  26.063  1.00  0.00    -0.245 OA
BRANCH  17  21
ATOM     21  C   UNL A   1      32.196  21.311  25.429  1.00  0.00     0.283 C 
BRANCH  21  22
ATOM     22  C   UNL A   1      32.289  20.159  24.442  1.00  0.00    -0.006 A 
ATOM     23  C   UNL A   1      32.569  18.856  24.872  1.00  0.00     0.008 A 
ATOM     24  C   UNL A   1      32.157  20.379  23.062  1.00  0.00     0.008 A 
ATOM     25  C   UNL A   1      32.708  17.814  23.947  1.00  0.00     0.000 A 
ATOM     26  C   UNL A   1      32.253  19.336  22.140  1.00  0.00     0.000 A 
ATOM     27  C   UNL A   1      32.536  18.050  22.584  1.00  0.00     0.000 A 
ENDBRANCH  21  22
ENDBRANCH  17  21
BRANCH  18  28
ATOM     28  C   UNL A   1      36.464  23.758  26.081  1.00  0.00     0.063 C 
BRANCH  28  29
ATOM     29  C   UNL A   1      37.711  22.899  26.044  1.00  0.00    -0.046 A 
ATOM     30  C   UNL A   1      38.833  23.263  26.807  1.00  0.00     0.007 A 
ATOM     31  C   UNL A   1      37.762  21.725  25.274  1.00  0.00     0.007 A 
ATOM     32  C   UNL A   1      39.968  22.453  26.828  1.00  0.00     0.039 A 
ATOM     33  C   UNL A   1      38.900  20.915  25.301  1.00  0.00     0.039 A 
ATOM     34  C   UNL A   1      39.989  21.283  26.081  1.00  0.00     0.123 A 
ATOM     35  F   UNL A   1      41.074  20.497  26.115  1.00  0.00    -0.207 F 
ENDBRANCH  28  29
ENDBRANCH  18  28
ENDBRANCH  12  13
ENDBRANCH   5   7
ENDBRANCH   2   3
ENDBRANCH   1   2
BRANCH   1  36
ATOM     36  C   UNL A   1      31.704  31.501  26.966  1.00  0.00     0.023 C 
BRANCH  36  37
ATOM     37  C   UNL A   1      32.853  32.497  26.881  1.00  0.00     0.116 C 
BRANCH  37  38
ATOM     38  N   UNL A   1      32.534  33.787  27.473  1.00  0.00    -0.352 N 
ATOM     39  C   UNL A   1      33.109  34.429  28.541  1.00  0.00     0.251 C 
ATOM     40  H   UNL A   1      31.793  34.271  27.043  1.00  0.00     0.163 HD
ATOM     41  O   UNL A   1      32.602  35.460  28.975  1.00  0.00    -0.269 OA
BRANCH  39  42
ATOM     42  C   UNL A   1      34.315  33.872  29.193  1.00  0.00     0.039 A 
ATOM     43  C   UNL A   1      34.154  32.825  30.105  1.00  0.00     0.014 A 
ATOM     44  C   UNL A   1      35.592  34.369  28.921  1.00  0.00     0.014 A 
ATOM     45  C   UNL A   1      35.278  32.240  30.692  1.00  0.00     0.010 A 
ATOM     46  C   UNL A   1      36.715  33.726  29.438  1.00  0.00     0.010 A 
ATOM     47  C   UNL A   1      36.570  32.658  30.335  1.00  0.00    -0.014 A 
BRANCH  47  48
ATOM     48  C   UNL A   1      37.766  31.966  30.883  1.00  0.00     0.031 A 
ATOM     49  C   UNL A   1      38.226  32.217  32.293  1.00  0.00     0.074 A 
ATOM     50  C   UNL A   1      38.459  31.122  30.092  1.00  0.00     0.049 A 
ATOM     51  N   UNL A   1      39.215  31.664  32.950  1.00  0.00    -0.248 NA
ATOM     52  C   UNL A   1      37.499  33.242  33.057  1.00  0.00     0.031 C 
ATOM     53  C   UNL A   1      38.154  30.839  28.688  1.00  0.00     0.029 A 
ATOM     54  N   UNL A   1      39.553  30.340  30.359  1.00  0.00    -0.354 N 
ATOM     55  C   UNL A   1      39.234  32.279  34.196  1.00  0.00     0.074 A 
ATOM     56  C   UNL A   1      38.198  33.288  34.182  1.00  0.00     0.031 C 
ATOM     57  C   UNL A   1      39.006  29.906  28.234  1.00  0.00     0.029 A 
ATOM     58  C   UNL A   1      39.937  29.553  29.301  1.00  0.00     0.049 A 
ATOM     59  H   UNL A   1      40.019  30.341  31.227  1.00  0.00     0.167 HD
ATOM     60  C   UNL A   1      40.027  32.012  35.263  1.00  0.00     0.037 A 
ATOM     61  C   UNL A   1      40.920  28.638  29.203  1.00  0.00     0.037 A 
ATOM     62  C   UNL A   1      41.049  30.997  35.277  1.00  0.00     0.049 A 
ATOM     63  C   UNL A   1      41.783  28.359  30.402  1.00  0.00     0.074 A 
ATOM     64  C   UNL A   1      41.856  30.601  36.330  1.00  0.00     0.029 A 
ATOM     65  N   UNL A   1      41.416  30.228  34.183  1.00  0.00    -0.354 N 
ATOM     66  N   UNL A   1      41.728  28.879  31.603  1.00  0.00    -0.248 NA
ATOM     67  C   UNL A   1      42.840  27.353  30.229  1.00  0.00     0.031 C 
ATOM     68  C   UNL A   1      42.750  29.633  35.857  1.00  0.00     0.029 A 
ATOM     69  C   UNL A   1      42.459  29.380  34.527  1.00  0.00     0.049 A 
ATOM     70  H   UNL A   1      40.997  30.275  33.294  1.00  0.00     0.167 HD
ATOM     71  C   UNL A   1      42.720  28.243  32.339  1.00  0.00     0.074 A 
ATOM     72  C   UNL A   1      43.344  27.284  31.452  1.00  0.00     0.031 C 
ATOM     73  C   UNL A   1      43.081  28.434  33.633  1.00  0.00     0.037 A 
BRANCH  60  74
ATOM     74  C   UNL A   1      39.824  32.843  36.499  1.00  0.00     0.057 A 
ATOM     75  C   UNL A   1      40.573  34.002  36.750  1.00  0.00     0.134 A 
ATOM     76  C   UNL A   1      38.852  32.491  37.444  1.00  0.00     0.134 A 
ATOM     77  F   UNL A   1      41.529  34.393  35.892  1.00  0.00    -0.206 F 
ATOM     78  C   UNL A   1      40.388  34.758  37.909  1.00  0.00     0.040 A 
ATOM     79  C   UNL A   1      38.635  33.256  38.592  1.00  0.00     0.040 A 
ATOM     80  F   UNL A   1      38.092  31.399  37.267  1.00  0.00    -0.206 F 
ATOM     81  C   UNL A   1      39.412  34.388  38.831  1.00  0.00     0.006 A 
ENDBRANCH  60  74
BRANCH  61  82
ATOM     82  C   UNL A   1      41.109  27.880  27.941  1.00  0.00     0.057 A 
ATOM     83  C   UNL A   1      40.493  26.636  27.750  1.00  0.00     0.134 A 
ATOM     84  C   UNL A   1      41.909  28.368  26.902  1.00  0.00     0.134 A 
ATOM     85  F   UNL A   1      39.730  26.106  28.718  1.00  0.00    -0.206 F 
ATOM     86  C   UNL A   1      40.684  25.896  26.583  1.00  0.00     0.040 A 
ATOM     87  C   UNL A   1      42.085  27.651  25.717  1.00  0.00     0.040 A 
ATOM     88  F   UNL A   1      42.518  29.557  27.018  1.00  0.00    -0.206 F 
ATOM     89  C   UNL A   1      41.479  26.407  25.559  1.00  0.00     0.006 A 
ENDBRANCH  61  82
BRANCH  73  90
ATOM     90  C   UNL A   1      44.181  27.561  34.168  1.00  0.00     0.057 A 
ATOM     91  C   UNL A   1      43.928  26.296  34.717  1.00  0.00     0.134 A 
ATOM     92  C   UNL A   1      45.511  27.997  34.143  1.00  0.00     0.134 A 
ATOM     93  F   UNL A   1      42.674  25.822  34.784  1.00  0.00    -0.206 F 
ATOM     94  C   UNL A   1      44.952  25.518  35.262  1.00  0.00     0.040 A 
ATOM     95  C   UNL A   1      46.548  27.214  34.652  1.00  0.00     0.040 A 
ATOM     96  F   UNL A   1      45.829  29.192  33.621  1.00  0.00    -0.206 F 
ATOM     97  C   UNL A   1      46.267  25.976  35.226  1.00  0.00     0.006 A 
ENDBRANCH  73  90
ENDBRANCH  47  48
ENDBRANCH  39  42
ENDBRANCH  37  38
ENDBRANCH  36  37
ENDBRANCH   1  36
TORSDOF 16
ENDMDL
MODEL 3
REMARK VINA RESULT:     -12.7      5.534     10.829
REMARK SMILES O=C(NCCCCNC(=O)c1ccc(-c2c3nc(c(-c4c(F)cccc4F)c4ccc([nH]4)c(-c4c(F)cccc4F)c4nc(c(-c5c(F)cccc5F)c5ccc2[nH]5)C=C4)C=C3)cc1)c1ccc(/[NH+]=C2\S[C@@H](Cc3ccc(F)cc3)C(=O)N2Cc2ccccc2)cc1
REMARK SMILES IDX 5 1 4 2 3 3 1 4 2 5 65 7 66 8 92 9 67 10 91 11 68 12 69 13
REMARK SMILES IDX 70 14 71 16 83 17 72 18 81 19 82 20 84 21 85 22 86 23 90 24
REMARK SMILES IDX 87 25 89 26 88 27 73 28 74 29 75 30 80 31 76 32 79 33 77 34
REMARK SMILES IDX 78 35 6 36 7 37 8 38 9 39 10 41 11 42 12 43 64 44 13 45
REMARK SMILES IDX 63 46 14 47 15 48 16 49 57 50 17 51 62 52 56 53 58 54 18 55
REMARK SMILES IDX 61 56 55 57 54 58 19 60 45 61 28 62 44 63 29 64 32 65 43 66
REMARK SMILES IDX 59 67 30 68 31 69 42 71 60 72 33 73 20 74 21 75 26 76 22 77
REMARK SMILES IDX 23 78 25 79 27 80 24 81 46 82 47 83 52 84 48 85 49 86 51 87
REMARK SMILES IDX 53 88 50 89 34 90 35 91 40 92 36 93 37 94 39 95 41 96 38 97
REMARK H PARENT 3 6 69 15 8 40 58 59 32 70
REMARK Flexibility Score: inf
ROOT
ATOM      1  C   UNL A   1      33.457  34.885  29.067  1.00  0.00     0.023 C 
ENDROOT
BRANCH   1   2
ATOM      2  C   UNL A   1      34.097  34.326  27.803  1.00  0.00     0.116 C 
BRANCH   2   3
ATOM      3  N   UNL A   1      35.522  34.084  27.966  1.00  0.00    -0.352 N 
ATOM      4  O   UNL A   1      37.374  32.867  28.406  1.00  0.00    -0.269 OA
ATOM      5  C   UNL A   1      36.186  32.889  28.091  1.00  0.00     0.251 C 
ATOM      6  H   UNL A   1      36.089  34.888  27.991  1.00  0.00     0.163 HD
BRANCH   5   7
ATOM      7  C   UNL A   1      35.464  31.626  27.848  1.00  0.00     0.040 A 
ATOM      8  C   UNL A   1      34.069  31.618  27.814  1.00  0.00     0.018 A 
ATOM      9  C   UNL A   1      36.184  30.448  27.627  1.00  0.00     0.018 A 
ATOM     10  C   UNL A   1      33.398  30.412  27.654  1.00  0.00     0.052 A 
ATOM     11  C   UNL A   1      35.500  29.246  27.420  1.00  0.00     0.052 A 
ATOM     12  C   UNL A   1      34.106  29.220  27.456  1.00  0.00     0.125 A 
BRANCH  12  13
ATOM     13  N   UNL A   1      33.366  28.088  27.128  1.00  0.00    -0.235 N 
ATOM     14  C   UNL A   1      32.556  28.026  26.130  1.00  0.00     0.320 C 
ATOM     15  H   UNL A   1      33.467  27.288  27.693  1.00  0.00     0.313 HD
ATOM     16  S   UNL A   1      32.033  29.322  25.094  1.00  0.00    -0.022 SA
ATOM     17  N   UNL A   1      32.003  26.836  25.747  1.00  0.00    -0.186 N 
ATOM     18  C   UNL A   1      30.666  28.323  24.414  1.00  0.00     0.178 C 
ATOM     19  C   UNL A   1      31.034  26.885  24.767  1.00  0.00     0.324 C 
ATOM     20  O   UNL A   1      30.467  25.899  24.310  1.00  0.00    -0.245 OA
BRANCH  17  21
ATOM     21  C   UNL A   1      32.384  25.565  26.363  1.00  0.00     0.283 C 
BRANCH  21  22
ATOM     22  C   UNL A   1      33.228  24.659  25.483  1.00  0.00    -0.006 A 
ATOM     23  C   UNL A   1      34.357  25.145  24.811  1.00  0.00     0.008 A 
ATOM     24  C   UNL A   1      32.863  23.320  25.267  1.00  0.00     0.008 A 
ATOM     25  C   UNL A   1      35.092  24.313  23.957  1.00  0.00     0.000 A 
ATOM     26  C   UNL A   1      33.619  22.477  24.451  1.00  0.00     0.000 A 
ATOM     27  C   UNL A   1      34.732  22.977  23.788  1.00  0.00     0.000 A 
ENDBRANCH  21  22
ENDBRANCH  17  21
BRANCH  18  28
ATOM     28  C   UNL A   1      30.474  28.585  22.919  1.00  0.00     0.063 C 
BRANCH  28  29
ATOM     29  C   UNL A   1      29.674  29.835  22.615  1.00  0.00    -0.046 A 
ATOM     30  C   UNL A   1      29.247  30.664  23.665  1.00  0.00     0.007 A 
ATOM     31  C   UNL A   1      29.368  30.198  21.293  1.00  0.00     0.007 A 
ATOM     32  C   UNL A   1      28.559  31.848  23.399  1.00  0.00     0.039 A 
ATOM     33  C   UNL A   1      28.682  31.386  21.030  1.00  0.00     0.039 A 
ATOM     34  C   UNL A   1      28.289  32.202  22.084  1.00  0.00     0.123 A 
ATOM     35  F   UNL A   1      27.643  33.348  21.828  1.00  0.00    -0.207 F 
ENDBRANCH  28  29
ENDBRANCH  18  28
ENDBRANCH  12  13
ENDBRANCH   5   7
ENDBRANCH   2   3
ENDBRANCH   1   2
BRANCH   1  36
ATOM     36  C   UNL A   1      33.195  36.388  29.044  1.00  0.00     0.023 C 
BRANCH  36  37
ATOM     37  C   UNL A   1      33.352  37.098  30.382  1.00  0.00     0.116 C 
BRANCH  37  38
ATOM     38  N   UNL A   1      32.328  36.730  31.346  1.00  0.00    -0.352 N 
ATOM     39  C   UNL A   1      32.340  35.753  32.310  1.00  0.00     0.251 C 
ATOM     40  H   UNL A   1      31.500  37.261  31.299  1.00  0.00     0.163 HD
ATOM     41  O   UNL A   1      31.314  35.508  32.940  1.00  0.00    -0.269 OA
BRANCH  39  42
ATOM     42  C   UNL A   1      33.568  34.972  32.573  1.00  0.00     0.039 A 
ATOM     43  C   UNL A   1      34.801  35.628  32.508  1.00  0.00     0.014 A 
ATOM     44  C   UNL A   1      33.520  33.608  32.876  1.00  0.00     0.014 A 
ATOM     45  C   UNL A   1      35.973  34.930  32.808  1.00  0.00     0.010 A 
ATOM     46  C   UNL A   1      34.679  32.938  33.262  1.00  0.00     0.010 A 
ATOM     47  C   UNL A   1      35.920  33.590  33.226  1.00  0.00    -0.014 A 
BRANCH  47  48
ATOM     48  C   UNL A   1      37.157  32.880  33.642  1.00  0.00     0.031 A 
ATOM     49  C   UNL A   1      37.798  31.854  32.749  1.00  0.00     0.074 A 
ATOM     50  C   UNL A   1      37.693  33.146  34.850  1.00  0.00     0.049 A 
ATOM     51  N   UNL A   1      38.905  31.176  32.930  1.00  0.00    -0.248 NA
ATOM     52  C   UNL A   1      37.091  31.523  31.502  1.00  0.00     0.031 C 
ATOM     53  C   UNL A   1      37.135  34.073  35.837  1.00  0.00     0.029 A 
ATOM     54  N   UNL A   1      38.832  32.670  35.449  1.00  0.00    -0.354 N 
ATOM     55  C   UNL A   1      39.020  30.337  31.829  1.00  0.00     0.074 A 
ATOM     56  C   UNL A   1      37.842  30.546  31.016  1.00  0.00     0.031 C 
ATOM     57  C   UNL A   1      37.962  34.140  36.893  1.00  0.00     0.029 A 
ATOM     58  C   UNL A   1      39.086  33.235  36.675  1.00  0.00     0.049 A 
ATOM     59  H   UNL A   1      39.413  31.988  35.039  1.00  0.00     0.167 HD
ATOM     60  C   UNL A   1      40.027  29.486  31.512  1.00  0.00     0.037 A 
ATOM     61  C   UNL A   1      40.115  33.057  37.523  1.00  0.00     0.037 A 
ATOM     62  C   UNL A   1      41.206  29.291  32.318  1.00  0.00     0.049 A 
ATOM     63  C   UNL A   1      41.221  32.110  37.146  1.00  0.00     0.074 A 
ATOM     64  C   UNL A   1      42.314  28.507  32.048  1.00  0.00     0.029 A 
ATOM     65  N   UNL A   1      41.422  29.873  33.558  1.00  0.00    -0.354 N 
ATOM     66  N   UNL A   1      41.365  31.395  36.058  1.00  0.00    -0.248 NA
ATOM     67  C   UNL A   1      42.313  31.957  38.117  1.00  0.00     0.031 C 
ATOM     68  C   UNL A   1      43.173  28.569  33.151  1.00  0.00     0.029 A 
ATOM     69  C   UNL A   1      42.632  29.442  34.080  1.00  0.00     0.049 A 
ATOM     70  H   UNL A   1      40.807  30.501  34.001  1.00  0.00     0.167 HD
ATOM     71  C   UNL A   1      42.577  30.731  36.197  1.00  0.00     0.074 A 
ATOM     72  C   UNL A   1      43.136  31.148  37.467  1.00  0.00     0.031 C 
ATOM     73  C   UNL A   1      43.175  29.856  35.350  1.00  0.00     0.037 A 
BRANCH  60  74
ATOM     74  C   UNL A   1      39.888  28.694  30.242  1.00  0.00     0.057 A 
ATOM     75  C   UNL A   1      39.203  27.471  30.197  1.00  0.00     0.134 A 
ATOM     76  C   UNL A   1      40.428  29.169  29.040  1.00  0.00     0.134 A 
ATOM     77  F   UNL A   1      38.668  26.949  31.313  1.00  0.00    -0.206 F 
ATOM     78  C   UNL A   1      39.093  26.735  29.016  1.00  0.00     0.040 A 
ATOM     79  C   UNL A   1      40.298  28.459  27.846  1.00  0.00     0.040 A 
ATOM     80  F   UNL A   1      41.090  30.336  29.005  1.00  0.00    -0.206 F 
ATOM     81  C   UNL A   1      39.637  27.232  27.834  1.00  0.00     0.006 A 
ENDBRANCH  60  74
BRANCH  61  82
ATOM     82  C   UNL A   1      40.179  33.830  38.790  1.00  0.00     0.057 A 
ATOM     83  C   UNL A   1      39.521  33.378  39.941  1.00  0.00     0.134 A 
ATOM     84  C   UNL A   1      40.886  35.034  38.882  1.00  0.00     0.134 A 
ATOM     85  F   UNL A   1      38.811  32.241  39.910  1.00  0.00    -0.206 F 
ATOM     86  C   UNL A   1      39.546  34.106  41.131  1.00  0.00     0.040 A 
ATOM     87  C   UNL A   1      40.943  35.758  40.074  1.00  0.00     0.040 A 
ATOM     88  F   UNL A   1      41.546  35.515  37.818  1.00  0.00    -0.206 F 
ATOM     89  C   UNL A   1      40.264  35.298  41.201  1.00  0.00     0.006 A 
ENDBRANCH  61  82
BRANCH  73  90
ATOM     90  C   UNL A   1      44.519  29.322  35.762  1.00  0.00     0.057 A 
ATOM     91  C   UNL A   1      45.715  29.958  35.403  1.00  0.00     0.134 A 
ATOM     92  C   UNL A   1      44.616  28.148  36.519  1.00  0.00     0.134 A 
ATOM     93  F   UNL A   1      45.695  31.080  34.667  1.00  0.00    -0.206 F 
ATOM     94  C   UNL A   1      46.958  29.422  35.745  1.00  0.00     0.040 A 
ATOM     95  C   UNL A   1      45.852  27.621  36.896  1.00  0.00     0.040 A 
ATOM     96  F   UNL A   1      43.512  27.492  36.908  1.00  0.00    -0.206 F 
ATOM     97  C   UNL A   1      47.028  28.251  36.497  1.00  0.00     0.006 A 
ENDBRANCH  73  90
ENDBRANCH  47  48
ENDBRANCH  39  42
ENDBRANCH  37  38
ENDBRANCH  36  37
ENDBRANCH   1  36
TORSDOF 16
ENDMDL
