MODEL 1
REMARK VINA RESULT:     -11.6      0.000      0.000
REMARK SMILES [NH3+][C@]1(C(=O)NCCCCNC(=O)c2ccc(-c3c4nc(c(-c5c(F)cccc5F)c5ccc([nH]5)c(-c5c(F)cccc5F)c5nc(c(-c6c(F)cccc6F)c6ccc3[nH]6)C=C5)C=C4)cc2)CCC[C@@H](Oc2ccc3c(c2)CCC3)C1
REMARK SMILES IDX 7 1 6 2 5 3 3 4 4 5 2 7 67 8 81 9 68 10 70 11 69 12 1 13
REMARK SMILES IDX 71 17 72 18 73 19 77 20 74 21 76 22 75 23 78 24 80 25 79 26
REMARK SMILES IDX 8 27 9 28 10 29 11 30 12 32 13 33 14 34 66 35 15 36 65 37
REMARK SMILES IDX 16 38 17 39 18 40 59 41 19 42 64 43 58 44 60 45 20 46 63 47
REMARK SMILES IDX 57 48 56 49 21 51 47 52 30 53 46 54 31 55 34 56 45 57 61 58
REMARK SMILES IDX 32 59 33 60 44 62 62 63 35 64 22 65 23 66 28 67 24 68 25 69
REMARK SMILES IDX 27 70 29 71 26 72 48 73 49 74 54 75 50 76 51 77 53 78 55 79
REMARK SMILES IDX 52 80 36 81 37 82 42 83 38 84 39 85 41 86 43 87 40 88
REMARK H PARENT 5 6 1 14 1 15 1 16 10 31 60 50 34 61
REMARK Flexibility Score: inf
ROOT
ATOM      1  C   UNL A   1      32.771  29.070  24.869  1.00  0.00     0.023 C 
ENDROOT
BRANCH   1   2
ATOM      2  C   UNL A   1      31.356  28.463  24.783  1.00  0.00     0.116 C 
BRANCH   2   3
ATOM      3  N   UNL A   1      31.007  27.374  25.687  1.00  0.00    -0.351 N 
ATOM      4  C   UNL A   1      30.753  26.029  25.538  1.00  0.00     0.281 C 
ATOM      5  O   UNL A   1      30.713  25.373  26.586  1.00  0.00    -0.268 OA
ATOM      6  H   UNL A   1      30.937  27.670  26.624  1.00  0.00     0.163 HD
BRANCH   4   7
ATOM      7  C   UNL A   1      30.634  25.330  24.140  1.00  0.00     0.177 C 
ATOM      8  C   UNL A   1      31.595  25.955  23.088  1.00  0.00     0.079 C 
ATOM      9  C   UNL A   1      30.814  23.800  24.163  1.00  0.00     0.124 C 
ATOM     10  C   UNL A   1      33.031  25.430  23.115  1.00  0.00     0.011 C 
ATOM     11  C   UNL A   1      32.259  23.242  24.134  1.00  0.00     0.180 C 
ATOM     12  C   UNL A   1      33.100  23.911  23.053  1.00  0.00     0.046 C 
BRANCH   7  13
ATOM     13  N   UNL A   1      29.275  25.701  23.644  1.00  0.00    -0.345 N 
ATOM     14  H   UNL A   1      29.174  26.716  23.659  1.00  0.00     0.345 HD
ATOM     15  H   UNL A   1      28.567  25.281  24.246  1.00  0.00     0.345 HD
ATOM     16  H   UNL A   1      29.156  25.362  22.691  1.00  0.00     0.345 HD
ENDBRANCH   7  13
BRANCH  11  17
ATOM     17  O   UNL A   1      32.901  22.980  25.400  1.00  0.00    -0.490 OA
BRANCH  17  18
ATOM     18  C   UNL A   1      34.175  22.500  25.426  1.00  0.00     0.120 A 
ATOM     19  C   UNL A   1      34.508  21.178  25.119  1.00  0.00     0.047 A 
ATOM     20  C   UNL A   1      35.161  23.345  25.903  1.00  0.00     0.050 A 
ATOM     21  C   UNL A   1      35.853  20.764  25.133  1.00  0.00     0.008 A 
ATOM     22  C   UNL A   1      36.487  22.962  25.879  1.00  0.00    -0.041 A 
ATOM     23  C   UNL A   1      36.836  21.678  25.482  1.00  0.00    -0.045 A 
ATOM     24  C   UNL A   1      37.689  23.823  26.100  1.00  0.00     0.036 C 
ATOM     25  C   UNL A   1      38.326  21.544  25.415  1.00  0.00     0.036 C 
ATOM     26  C   UNL A   1      38.794  22.773  26.217  1.00  0.00     0.010 C 
ENDBRANCH  17  18
ENDBRANCH  11  17
ENDBRANCH   4   7
ENDBRANCH   2   3
ENDBRANCH   1   2
BRANCH   1  27
ATOM     27  C   UNL A   1      33.862  28.433  25.735  1.00  0.00     0.023 C 
BRANCH  27  28
ATOM     28  C   UNL A   1      33.738  28.579  27.238  1.00  0.00     0.116 C 
BRANCH  28  29
ATOM     29  N   UNL A   1      33.721  29.967  27.654  1.00  0.00    -0.352 N 
ATOM     30  C   UNL A   1      34.674  30.714  28.305  1.00  0.00     0.251 C 
ATOM     31  H   UNL A   1      32.894  30.454  27.435  1.00  0.00     0.163 HD
ATOM     32  O   UNL A   1      34.374  31.828  28.721  1.00  0.00    -0.269 OA
BRANCH  30  33
ATOM     33  C   UNL A   1      36.043  30.191  28.535  1.00  0.00     0.039 A 
ATOM     34  C   UNL A   1      36.962  30.244  27.480  1.00  0.00     0.014 A 
ATOM     35  C   UNL A   1      36.426  29.613  29.748  1.00  0.00     0.014 A 
ATOM     36  C   UNL A   1      38.267  29.777  27.658  1.00  0.00     0.010 A 
ATOM     37  C   UNL A   1      37.750  29.221  29.951  1.00  0.00     0.010 A 
ATOM     38  C   UNL A   1      38.685  29.294  28.908  1.00  0.00    -0.014 A 
BRANCH  38  39
ATOM     39  C   UNL A   1      40.091  28.865  29.139  1.00  0.00     0.031 A 
ATOM     40  C   UNL A   1      41.082  29.804  29.770  1.00  0.00     0.074 A 
ATOM     41  C   UNL A   1      40.492  27.647  28.725  1.00  0.00     0.049 A 
ATOM     42  N   UNL A   1      42.364  29.634  29.983  1.00  0.00    -0.248 NA
ATOM     43  C   UNL A   1      40.574  31.116  30.198  1.00  0.00     0.031 C 
ATOM     44  C   UNL A   1      39.643  26.654  28.066  1.00  0.00     0.029 A 
ATOM     45  N   UNL A   1      41.723  27.041  28.787  1.00  0.00    -0.354 N 
ATOM     46  C   UNL A   1      42.814  30.818  30.555  1.00  0.00     0.074 A 
ATOM     47  C   UNL A   1      41.681  31.716  30.609  1.00  0.00     0.031 C 
ATOM     48  C   UNL A   1      40.370  25.557  27.803  1.00  0.00     0.029 A 
ATOM     49  C   UNL A   1      41.746  25.784  28.231  1.00  0.00     0.049 A 
ATOM     50  H   UNL A   1      42.514  27.466  29.190  1.00  0.00     0.167 HD
ATOM     51  C   UNL A   1      44.053  31.123  31.012  1.00  0.00     0.037 A 
ATOM     52  C   UNL A   1      42.764  24.915  28.072  1.00  0.00     0.037 A 
ATOM     53  C   UNL A   1      45.176  30.223  30.974  1.00  0.00     0.049 A 
ATOM     54  C   UNL A   1      44.136  25.287  28.564  1.00  0.00     0.074 A 
ATOM     55  C   UNL A   1      46.456  30.420  31.463  1.00  0.00     0.029 A 
ATOM     56  N   UNL A   1      45.157  28.955  30.409  1.00  0.00    -0.354 N 
ATOM     57  N   UNL A   1      44.529  26.385  29.162  1.00  0.00    -0.248 NA
ATOM     58  C   UNL A   1      45.203  24.297  28.362  1.00  0.00     0.031 C 
ATOM     59  C   UNL A   1      47.225  29.296  31.148  1.00  0.00     0.029 A 
ATOM     60  C   UNL A   1      46.409  28.373  30.513  1.00  0.00     0.049 A 
ATOM     61  H   UNL A   1      44.369  28.534  29.995  1.00  0.00     0.167 HD
ATOM     62  C   UNL A   1      45.881  26.206  29.434  1.00  0.00     0.074 A 
ATOM     63  C   UNL A   1      46.234  24.888  28.948  1.00  0.00     0.031 C 
ATOM     64  C   UNL A   1      46.748  27.057  30.033  1.00  0.00     0.037 A 
BRANCH  51  65
ATOM     65  C   UNL A   1      44.261  32.492  31.595  1.00  0.00     0.057 A 
ATOM     66  C   UNL A   1      44.076  32.751  32.960  1.00  0.00     0.134 A 
ATOM     67  C   UNL A   1      44.691  33.555  30.789  1.00  0.00     0.134 A 
ATOM     68  F   UNL A   1      43.657  31.781  33.786  1.00  0.00    -0.206 F 
ATOM     69  C   UNL A   1      44.283  34.023  33.496  1.00  0.00     0.040 A 
ATOM     70  C   UNL A   1      44.930  34.823  31.320  1.00  0.00     0.040 A 
ATOM     71  F   UNL A   1      44.896  33.374  29.476  1.00  0.00    -0.206 F 
ATOM     72  C   UNL A   1      44.719  35.062  32.676  1.00  0.00     0.006 A 
ENDBRANCH  51  65
BRANCH  52  73
ATOM     73  C   UNL A   1      42.524  23.599  27.426  1.00  0.00     0.057 A 
ATOM     74  C   UNL A   1      42.178  22.474  28.184  1.00  0.00     0.134 A 
ATOM     75  C   UNL A   1      42.646  23.430  26.042  1.00  0.00     0.134 A 
ATOM     76  F   UNL A   1      42.064  22.568  29.517  1.00  0.00    -0.206 F 
ATOM     77  C   UNL A   1      41.984  21.225  27.593  1.00  0.00     0.040 A 
ATOM     78  C   UNL A   1      42.428  22.193  25.434  1.00  0.00     0.040 A 
ATOM     79  F   UNL A   1      42.971  24.469  25.258  1.00  0.00    -0.206 F 
ATOM     80  C   UNL A   1      42.103  21.083  26.212  1.00  0.00     0.006 A 
ENDBRANCH  52  73
BRANCH  64  81
ATOM     81  C   UNL A   1      48.158  26.577  30.235  1.00  0.00     0.057 A 
ATOM     82  C   UNL A   1      48.543  25.864  31.377  1.00  0.00     0.134 A 
ATOM     83  C   UNL A   1      49.132  26.797  29.253  1.00  0.00     0.134 A 
ATOM     84  F   UNL A   1      47.663  25.631  32.363  1.00  0.00    -0.206 F 
ATOM     85  C   UNL A   1      49.852  25.407  31.545  1.00  0.00     0.040 A 
ATOM     86  C   UNL A   1      50.435  26.321  29.395  1.00  0.00     0.040 A 
ATOM     87  F   UNL A   1      48.828  27.465  28.130  1.00  0.00    -0.206 F 
ATOM     88  C   UNL A   1      50.800  25.628  30.548  1.00  0.00     0.006 A 
ENDBRANCH  64  81
ENDBRANCH  38  39
ENDBRANCH  30  33
ENDBRANCH  28  29
ENDBRANCH  27  28
ENDBRANCH   1  27
TORSDOF 14
ENDMDL
MODEL 2
REMARK VINA RESULT:     -11.5      3.983      7.335
REMARK SMILES [NH3+][C@]1(C(=O)NCCCCNC(=O)c2ccc(-c3c4nc(c(-c5c(F)cccc5F)c5ccc([nH]5)c(-c5c(F)cccc5F)c5nc(c(-c6c(F)cccc6F)c6ccc3[nH]6)C=C5)C=C4)cc2)CCC[C@@H](Oc2ccc3c(c2)CCC3)C1
REMARK SMILES IDX 7 1 6 2 5 3 3 4 4 5 2 7 67 8 81 9 68 10 70 11 69 12 1 13
REMARK SMILES IDX 71 17 72 18 73 19 77 20 74 21 76 22 75 23 78 24 80 25 79 26
REMARK SMILES IDX 8 27 9 28 10 29 11 30 12 32 13 33 14 34 66 35 15 36 65 37
REMARK SMILES IDX 16 38 17 39 18 40 59 41 19 42 64 43 58 44 60 45 20 46 63 47
REMARK SMILES IDX 57 48 56 49 21 51 47 52 30 53 46 54 31 55 34 56 45 57 61 58
REMARK SMILES IDX 32 59 33 60 44 62 62 63 35 64 22 65 23 66 28 67 24 68 25 69
REMARK SMILES IDX 27 70 29 71 26 72 48 73 49 74 54 75 50 76 51 77 53 78 55 79
REMARK SMILES IDX 52 80 36 81 37 82 42 83 38 84 39 85 41 86 43 87 40 88
REMARK H PARENT 5 6 1 14 1 15 1 16 10 31 60 50 34 61
REMARK Flexibility Score: inf
ROOT
ATOM      1  C   UNL A   1      33.652  35.498  28.695  1.00  0.00     0.023 C 
ENDROOT
BRANCH   1   2
ATOM      2  C   UNL A   1      33.289  35.105  30.142  1.00  0.00     0.116 C 
BRANCH   2   3
ATOM      3  N   UNL A   1      33.938  35.811  31.241  1.00  0.00    -0.351 N 
ATOM      4  C   UNL A   1      34.437  35.447  32.471  1.00  0.00     0.281 C 
ATOM      5  O   UNL A   1      35.129  36.300  33.040  1.00  0.00    -0.268 OA
ATOM      6  H   UNL A   1      34.042  36.774  31.060  1.00  0.00     0.163 HD
BRANCH   4   7
ATOM      7  C   UNL A   1      34.253  34.016  33.081  1.00  0.00     0.177 C 
ATOM      8  C   UNL A   1      34.596  32.894  32.058  1.00  0.00     0.079 C 
ATOM      9  C   UNL A   1      35.015  33.768  34.397  1.00  0.00     0.124 C 
ATOM     10  C   UNL A   1      36.079  32.542  31.939  1.00  0.00     0.011 C 
ATOM     11  C   UNL A   1      36.506  33.355  34.302  1.00  0.00     0.180 C 
ATOM     12  C   UNL A   1      36.717  32.237  33.287  1.00  0.00     0.046 C 
BRANCH   7  13
ATOM     13  N   UNL A   1      32.779  33.874  33.282  1.00  0.00    -0.345 N 
ATOM     14  H   UNL A   1      32.434  33.096  32.721  1.00  0.00     0.345 HD
ATOM     15  H   UNL A   1      32.313  34.734  32.993  1.00  0.00     0.345 HD
ATOM     16  H   UNL A   1      32.586  33.696  34.266  1.00  0.00     0.345 HD
ENDBRANCH   7  13
BRANCH  11  17
ATOM     17  O   UNL A   1      37.495  34.406  34.341  1.00  0.00    -0.490 OA
BRANCH  17  18
ATOM     18  C   UNL A   1      38.493  34.429  33.414  1.00  0.00     0.120 A 
ATOM     19  C   UNL A   1      39.848  34.327  33.737  1.00  0.00     0.047 A 
ATOM     20  C   UNL A   1      38.134  34.693  32.104  1.00  0.00     0.050 A 
ATOM     21  C   UNL A   1      40.821  34.324  32.720  1.00  0.00     0.008 A 
ATOM     22  C   UNL A   1      39.075  34.649  31.096  1.00  0.00    -0.041 A 
ATOM     23  C   UNL A   1      40.416  34.451  31.399  1.00  0.00    -0.045 A 
ATOM     24  C   UNL A   1      38.831  34.644  29.620  1.00  0.00     0.036 C 
ATOM     25  C   UNL A   1      41.216  34.311  30.141  1.00  0.00     0.036 C 
ATOM     26  C   UNL A   1      40.246  34.864  29.081  1.00  0.00     0.010 C 
ENDBRANCH  17  18
ENDBRANCH  11  17
ENDBRANCH   4   7
ENDBRANCH   2   3
ENDBRANCH   1   2
BRANCH   1  27
ATOM     27  C   UNL A   1      34.778  34.791  27.935  1.00  0.00     0.023 C 
BRANCH  27  28
ATOM     28  C   UNL A   1      35.202  33.421  28.424  1.00  0.00     0.116 C 
BRANCH  28  29
ATOM     29  N   UNL A   1      34.331  32.371  27.936  1.00  0.00    -0.352 N 
ATOM     30  C   UNL A   1      34.562  31.025  27.775  1.00  0.00     0.251 C 
ATOM     31  H   UNL A   1      33.429  32.668  27.678  1.00  0.00     0.163 HD
ATOM     32  O   UNL A   1      33.735  30.349  27.172  1.00  0.00    -0.269 OA
BRANCH  30  33
ATOM     33  C   UNL A   1      35.795  30.384  28.292  1.00  0.00     0.039 A 
ATOM     34  C   UNL A   1      36.947  30.420  27.498  1.00  0.00     0.014 A 
ATOM     35  C   UNL A   1      35.829  29.713  29.518  1.00  0.00     0.014 A 
ATOM     36  C   UNL A   1      38.135  29.840  27.954  1.00  0.00     0.010 A 
ATOM     37  C   UNL A   1      37.033  29.206  30.008  1.00  0.00     0.010 A 
ATOM     38  C   UNL A   1      38.199  29.260  29.230  1.00  0.00    -0.014 A 
BRANCH  38  39
ATOM     39  C   UNL A   1      39.474  28.708  29.764  1.00  0.00     0.031 A 
ATOM     40  C   UNL A   1      40.137  29.337  30.959  1.00  0.00     0.074 A 
ATOM     41  C   UNL A   1      40.069  27.675  29.134  1.00  0.00     0.049 A 
ATOM     42  N   UNL A   1      41.284  29.042  31.520  1.00  0.00    -0.248 NA
ATOM     43  C   UNL A   1      39.431  30.460  31.595  1.00  0.00     0.031 C 
ATOM     44  C   UNL A   1      39.551  26.999  27.945  1.00  0.00     0.029 A 
ATOM     45  N   UNL A   1      41.246  27.021  29.402  1.00  0.00    -0.354 N 
ATOM     46  C   UNL A   1      41.441  29.948  32.563  1.00  0.00     0.074 A 
ATOM     47  C   UNL A   1      40.298  30.834  32.524  1.00  0.00     0.031 C 
ATOM     48  C   UNL A   1      40.395  26.014  27.597  1.00  0.00     0.029 A 
ATOM     49  C   UNL A   1      41.533  26.017  28.510  1.00  0.00     0.049 A 
ATOM     50  H   UNL A   1      41.829  27.249  30.162  1.00  0.00     0.167 HD
ATOM     51  C   UNL A   1      42.436  30.022  33.479  1.00  0.00     0.037 A 
ATOM     52  C   UNL A   1      42.600  25.198  28.425  1.00  0.00     0.037 A 
ATOM     53  C   UNL A   1      43.564  29.129  33.527  1.00  0.00     0.049 A 
ATOM     54  C   UNL A   1      43.704  25.319  29.440  1.00  0.00     0.074 A 
ATOM     55  C   UNL A   1      44.594  29.090  34.452  1.00  0.00     0.029 A 
ATOM     56  N   UNL A   1      43.816  28.121  32.608  1.00  0.00    -0.354 N 
ATOM     57  N   UNL A   1      43.806  26.138  30.458  1.00  0.00    -0.248 NA
ATOM     58  C   UNL A   1      44.840  24.397  29.295  1.00  0.00     0.031 C 
ATOM     59  C   UNL A   1      45.495  28.095  34.063  1.00  0.00     0.029 A 
ATOM     60  C   UNL A   1      44.998  27.474  32.929  1.00  0.00     0.049 A 
ATOM     61  H   UNL A   1      43.239  27.899  31.841  1.00  0.00     0.167 HD
ATOM     62  C   UNL A   1      44.999  25.811  31.091  1.00  0.00     0.074 A 
ATOM     63  C   UNL A   1      45.578  24.710  30.350  1.00  0.00     0.031 C 
ATOM     64  C   UNL A   1      45.562  26.373  32.189  1.00  0.00     0.037 A 
BRANCH  51  65
ATOM     65  C   UNL A   1      42.350  31.112  34.510  1.00  0.00     0.057 A 
ATOM     66  C   UNL A   1      41.552  30.985  35.656  1.00  0.00     0.134 A 
ATOM     67  C   UNL A   1      43.105  32.284  34.378  1.00  0.00     0.134 A 
ATOM     68  F   UNL A   1      40.797  29.893  35.842  1.00  0.00    -0.206 F 
ATOM     69  C   UNL A   1      41.486  31.997  36.616  1.00  0.00     0.040 A 
ATOM     70  C   UNL A   1      43.070  33.289  35.345  1.00  0.00     0.040 A 
ATOM     71  F   UNL A   1      43.896  32.467  33.311  1.00  0.00    -0.206 F 
ATOM     72  C   UNL A   1      42.254  33.150  36.466  1.00  0.00     0.006 A 
ENDBRANCH  51  65
BRANCH  52  73
ATOM     73  C   UNL A   1      42.674  24.182  27.345  1.00  0.00     0.057 A 
ATOM     74  C   UNL A   1      42.222  22.873  27.552  1.00  0.00     0.134 A 
ATOM     75  C   UNL A   1      43.208  24.487  26.087  1.00  0.00     0.134 A 
ATOM     76  F   UNL A   1      41.718  22.513  28.741  1.00  0.00    -0.206 F 
ATOM     77  C   UNL A   1      42.318  21.900  26.557  1.00  0.00     0.040 A 
ATOM     78  C   UNL A   1      43.285  23.531  25.073  1.00  0.00     0.040 A 
ATOM     79  F   UNL A   1      43.654  25.724  25.823  1.00  0.00    -0.206 F 
ATOM     80  C   UNL A   1      42.846  22.230  25.310  1.00  0.00     0.006 A 
ENDBRANCH  52  73
BRANCH  64  81
ATOM     81  C   UNL A   1      46.853  25.783  32.681  1.00  0.00     0.057 A 
ATOM     82  C   UNL A   1      48.094  26.196  32.183  1.00  0.00     0.134 A 
ATOM     83  C   UNL A   1      46.852  24.817  33.696  1.00  0.00     0.134 A 
ATOM     84  F   UNL A   1      48.166  27.107  31.201  1.00  0.00    -0.206 F 
ATOM     85  C   UNL A   1      49.289  25.653  32.663  1.00  0.00     0.040 A 
ATOM     86  C   UNL A   1      48.039  24.289  34.203  1.00  0.00     0.040 A 
ATOM     87  F   UNL A   1      45.697  24.384  34.223  1.00  0.00    -0.206 F 
ATOM     88  C   UNL A   1      49.263  24.703  33.681  1.00  0.00     0.006 A 
ENDBRANCH  64  81
ENDBRANCH  38  39
ENDBRANCH  30  33
ENDBRANCH  28  29
ENDBRANCH  27  28
ENDBRANCH   1  27
TORSDOF 14
ENDMDL
MODEL 3
REMARK VINA RESULT:     -11.4      2.319      7.613
REMARK SMILES [NH3+][C@]1(C(=O)NCCCCNC(=O)c2ccc(-c3c4nc(c(-c5c(F)cccc5F)c5ccc([nH]5)c(-c5c(F)cccc5F)c5nc(c(-c6c(F)cccc6F)c6ccc3[nH]6)C=C5)C=C4)cc2)CCC[C@@H](Oc2ccc3c(c2)CCC3)C1
REMARK SMILES IDX 7 1 6 2 5 3 3 4 4 5 2 7 67 8 81 9 68 10 70 11 69 12 1 13
REMARK SMILES IDX 71 17 72 18 73 19 77 20 74 21 76 22 75 23 78 24 80 25 79 26
REMARK SMILES IDX 8 27 9 28 10 29 11 30 12 32 13 33 14 34 66 35 15 36 65 37
REMARK SMILES IDX 16 38 17 39 18 40 59 41 19 42 64 43 58 44 60 45 20 46 63 47
REMARK SMILES IDX 57 48 56 49 21 51 47 52 30 53 46 54 31 55 34 56 45 57 61 58
REMARK SMILES IDX 32 59 33 60 44 62 62 63 35 64 22 65 23 66 28 67 24 68 25 69
REMARK SMILES IDX 27 70 29 71 26 72 48 73 49 74 54 75 50 76 51 77 53 78 55 79
REMARK SMILES IDX 52 80 36 81 37 82 42 83 38 84 39 85 41 86 43 87 40 88
REMARK H PARENT 5 6 1 14 1 15 1 16 10 31 60 50 34 61
REMARK Flexibility Score: inf
ROOT
ATOM      1  C   UNL A   1      36.425  20.034  24.986  1.00  0.00     0.023 C 
ENDROOT
BRANCH   1   2
ATOM      2  C   UNL A   1      36.216  21.478  25.485  1.00  0.00     0.116 C 
BRANCH   2   3
ATOM      3  N   UNL A   1      35.249  21.716  26.550  1.00  0.00    -0.351 N 
ATOM      4  C   UNL A   1      33.875  21.730  26.631  1.00  0.00     0.281 C 
ATOM      5  O   UNL A   1      33.407  21.749  27.776  1.00  0.00    -0.268 OA
ATOM      6  H   UNL A   1      35.681  21.913  27.413  1.00  0.00     0.163 HD
BRANCH   4   7
ATOM      7  C   UNL A   1      32.942  21.614  25.377  1.00  0.00     0.177 C 
ATOM      8  C   UNL A   1      31.473  22.012  25.699  1.00  0.00     0.079 C 
ATOM      9  C   UNL A   1      33.428  22.386  24.134  1.00  0.00     0.124 C 
ATOM     10  C   UNL A   1      31.172  23.510  25.658  1.00  0.00     0.011 C 
ATOM     11  C   UNL A   1      33.087  23.895  24.042  1.00  0.00     0.180 C 
ATOM     12  C   UNL A   1      31.619  24.161  24.357  1.00  0.00     0.046 C 
BRANCH   7  13
ATOM     13  N   UNL A   1      32.860  20.149  25.097  1.00  0.00    -0.345 N 
ATOM     14  H   UNL A   1      32.530  19.663  25.931  1.00  0.00     0.345 HD
ATOM     15  H   UNL A   1      33.784  19.799  24.844  1.00  0.00     0.345 HD
ATOM     16  H   UNL A   1      32.212  19.985  24.329  1.00  0.00     0.345 HD
ENDBRANCH   7  13
BRANCH  11  17
ATOM     17  O   UNL A   1      34.053  24.832  24.564  1.00  0.00    -0.490 OA
BRANCH  17  18
ATOM     18  C   UNL A   1      33.713  26.143  24.707  1.00  0.00     0.120 A 
ATOM     19  C   UNL A   1      33.655  27.046  23.643  1.00  0.00     0.047 A 
ATOM     20  C   UNL A   1      33.542  26.615  25.997  1.00  0.00     0.050 A 
ATOM     21  C   UNL A   1      33.261  28.379  23.865  1.00  0.00     0.008 A 
ATOM     22  C   UNL A   1      33.114  27.908  26.220  1.00  0.00    -0.041 A 
ATOM     23  C   UNL A   1      32.960  28.787  25.157  1.00  0.00    -0.045 A 
ATOM     24  C   UNL A   1      32.628  28.498  27.505  1.00  0.00     0.036 C 
ATOM     25  C   UNL A   1      32.366  30.077  25.632  1.00  0.00     0.036 C 
ATOM     26  C   UNL A   1      32.582  29.987  27.154  1.00  0.00     0.010 C 
ENDBRANCH  17  18
ENDBRANCH  11  17
ENDBRANCH   4   7
ENDBRANCH   2   3
ENDBRANCH   1   2
BRANCH   1  27
ATOM     27  C   UNL A   1      37.825  19.422  24.873  1.00  0.00     0.023 C 
BRANCH  27  28
ATOM     28  C   UNL A   1      38.926  20.031  25.718  1.00  0.00     0.116 C 
BRANCH  28  29
ATOM     29  N   UNL A   1      40.112  19.199  25.755  1.00  0.00    -0.352 N 
ATOM     30  C   UNL A   1      41.414  19.516  26.059  1.00  0.00     0.251 C 
ATOM     31  H   UNL A   1      39.961  18.253  25.526  1.00  0.00     0.163 HD
ATOM     32  O   UNL A   1      42.293  18.686  25.850  1.00  0.00    -0.269 OA
BRANCH  30  33
ATOM     33  C   UNL A   1      41.779  20.846  26.608  1.00  0.00     0.039 A 
ATOM     34  C   UNL A   1      42.252  21.823  25.725  1.00  0.00     0.014 A 
ATOM     35  C   UNL A   1      41.707  21.133  27.974  1.00  0.00     0.014 A 
ATOM     36  C   UNL A   1      42.592  23.094  26.199  1.00  0.00     0.010 A 
ATOM     37  C   UNL A   1      41.969  22.423  28.434  1.00  0.00     0.010 A 
ATOM     38  C   UNL A   1      42.419  23.418  27.553  1.00  0.00    -0.014 A 
BRANCH  38  39
ATOM     39  C   UNL A   1      42.702  24.788  28.061  1.00  0.00     0.031 A 
ATOM     40  C   UNL A   1      44.092  25.171  28.490  1.00  0.00     0.074 A 
ATOM     41  C   UNL A   1      41.692  25.671  28.195  1.00  0.00     0.049 A 
ATOM     42  N   UNL A   1      44.514  26.289  29.026  1.00  0.00    -0.248 NA
ATOM     43  C   UNL A   1      45.143  24.157  28.316  1.00  0.00     0.031 C 
ATOM     44  C   UNL A   1      40.293  25.415  27.852  1.00  0.00     0.029 A 
ATOM     45  N   UNL A   1      41.688  26.961  28.667  1.00  0.00    -0.354 N 
ATOM     46  C   UNL A   1      45.872  26.109  29.263  1.00  0.00     0.074 A 
ATOM     47  C   UNL A   1      46.192  24.756  28.860  1.00  0.00     0.031 C 
ATOM     48  C   UNL A   1      39.569  26.517  28.106  1.00  0.00     0.029 A 
ATOM     49  C   UNL A   1      40.442  27.541  28.670  1.00  0.00     0.049 A 
ATOM     50  H   UNL A   1      42.499  27.426  28.974  1.00  0.00     0.167 HD
ATOM     51  C   UNL A   1      46.773  26.993  29.752  1.00  0.00     0.037 A 
ATOM     52  C   UNL A   1      40.044  28.757  29.092  1.00  0.00     0.037 A 
ATOM     53  C   UNL A   1      46.458  28.345  30.136  1.00  0.00     0.049 A 
ATOM     54  C   UNL A   1      41.060  29.712  29.656  1.00  0.00     0.074 A 
ATOM     55  C   UNL A   1      47.314  29.334  30.590  1.00  0.00     0.029 A 
ATOM     56  N   UNL A   1      45.185  28.897  30.118  1.00  0.00    -0.354 N 
ATOM     57  N   UNL A   1      42.350  29.548  29.812  1.00  0.00    -0.248 NA
ATOM     58  C   UNL A   1      40.562  31.023  30.098  1.00  0.00     0.031 C 
ATOM     59  C   UNL A   1      46.553  30.466  30.897  1.00  0.00     0.029 A 
ATOM     60  C   UNL A   1      45.230  30.203  30.580  1.00  0.00     0.049 A 
ATOM     61  H   UNL A   1      44.371  28.429  29.822  1.00  0.00     0.167 HD
ATOM     62  C   UNL A   1      42.824  30.743  30.342  1.00  0.00     0.074 A 
ATOM     63  C   UNL A   1      41.683  31.626  30.466  1.00  0.00     0.031 C 
ATOM     64  C   UNL A   1      44.090  31.076  30.692  1.00  0.00     0.037 A 
BRANCH  51  65
ATOM     65  C   UNL A   1      48.194  26.527  29.901  1.00  0.00     0.057 A 
ATOM     66  C   UNL A   1      48.639  25.866  31.055  1.00  0.00     0.134 A 
ATOM     67  C   UNL A   1      49.118  26.704  28.864  1.00  0.00     0.134 A 
ATOM     68  F   UNL A   1      47.808  25.671  32.090  1.00  0.00    -0.206 F 
ATOM     69  C   UNL A   1      49.957  25.425  31.182  1.00  0.00     0.040 A 
ATOM     70  C   UNL A   1      50.431  26.241  28.967  1.00  0.00     0.040 A 
ATOM     71  F   UNL A   1      48.758  27.321  27.728  1.00  0.00    -0.206 F 
ATOM     72  C   UNL A   1      50.856  25.605  30.132  1.00  0.00     0.006 A 
ENDBRANCH  51  65
BRANCH  52  73
ATOM     73  C   UNL A   1      38.615  29.148  28.989  1.00  0.00     0.057 A 
ATOM     74  C   UNL A   1      38.078  29.612  27.782  1.00  0.00     0.134 A 
ATOM     75  C   UNL A   1      37.755  29.081  30.092  1.00  0.00     0.134 A 
ATOM     76  F   UNL A   1      38.855  29.718  26.694  1.00  0.00    -0.206 F 
ATOM     77  C   UNL A   1      36.745  30.016  27.681  1.00  0.00     0.040 A 
ATOM     78  C   UNL A   1      36.414  29.454  29.998  1.00  0.00     0.040 A 
ATOM     79  F   UNL A   1      38.205  28.640  31.276  1.00  0.00    -0.206 F 
ATOM     80  C   UNL A   1      35.907  29.932  28.791  1.00  0.00     0.006 A 
ENDBRANCH  52  73
BRANCH  64  81
ATOM     81  C   UNL A   1      44.320  32.469  31.207  1.00  0.00     0.057 A 
ATOM     82  C   UNL A   1      44.302  32.766  32.575  1.00  0.00     0.134 A 
ATOM     83  C   UNL A   1      44.602  33.517  30.322  1.00  0.00     0.134 A 
ATOM     84  F   UNL A   1      44.025  31.811  33.476  1.00  0.00    -0.206 F 
ATOM     85  C   UNL A   1      44.536  34.061  33.043  1.00  0.00     0.040 A 
ATOM     86  C   UNL A   1      44.866  34.809  30.778  1.00  0.00     0.040 A 
ATOM     87  F   UNL A   1      44.643  33.300  28.999  1.00  0.00    -0.206 F 
ATOM     88  C   UNL A   1      44.826  35.085  32.144  1.00  0.00     0.006 A 
ENDBRANCH  64  81
ENDBRANCH  38  39
ENDBRANCH  30  33
ENDBRANCH  28  29
ENDBRANCH  27  28
ENDBRANCH   1  27
TORSDOF 14
ENDMDL
