MODEL 1
REMARK VINA RESULT:     -11.5      0.000      0.000
REMARK SMILES C=CCc1cccc(-c2ccc([C@@H](C)C(=O)NCCCCNC(=O)c3ccc(-c4c5nc(c(-c6c(F)cccc6F)c6ccc([nH]6)c(-c6c(F)cccc6F)c6nc(c(-c7c(F)cccc7F)c7ccc4[nH]7)C=C6)C=C5)cc3)cc2)c1
REMARK SMILES IDX 18 1 17 2 15 3 16 4 13 6 14 7 12 8 9 9 10 10 80 11 11 12
REMARK SMILES IDX 79 13 8 14 4 15 5 16 81 17 6 18 7 19 3 20 2 21 1 22 19 23
REMARK SMILES IDX 20 24 21 25 22 26 23 27 24 29 25 30 26 31 78 32 27 33 77 34
REMARK SMILES IDX 28 35 29 36 30 37 71 38 31 39 76 40 70 41 72 42 32 43 75 44
REMARK SMILES IDX 69 45 68 46 33 48 59 49 42 50 58 51 43 52 46 53 57 54 73 55
REMARK SMILES IDX 44 56 45 57 56 59 74 60 47 61 34 62 35 63 40 64 36 65 37 66
REMARK SMILES IDX 39 67 41 68 38 69 60 70 61 71 66 72 62 73 63 74 65 75 67 76
REMARK SMILES IDX 64 77 48 78 49 79 54 80 50 81 51 82 53 83 55 84 52 85
REMARK H PARENT 17 5 22 28 72 47 46 58
REMARK Flexibility Score: inf
ROOT
ATOM      1  C   UNL A   1      30.969  29.764  24.879  1.00  0.00     0.116 C 
ENDROOT
BRANCH   1   2
ATOM      2  N   UNL A   1      30.716  30.016  23.476  1.00  0.00    -0.356 N 
ATOM      3  C   UNL A   1      30.043  29.291  22.541  1.00  0.00     0.227 C 
ATOM      4  O   UNL A   1      30.060  29.735  21.386  1.00  0.00    -0.274 OA
ATOM      5  H   UNL A   1      31.099  30.859  23.139  1.00  0.00     0.163 HD
BRANCH   3   6
ATOM      6  C   UNL A   1      29.274  27.996  22.853  1.00  0.00     0.105 C 
ATOM      7  C   UNL A   1      27.879  28.232  23.433  1.00  0.00     0.023 C 
BRANCH   6   8
ATOM      8  C   UNL A   1      30.126  26.944  23.547  1.00  0.00    -0.036 A 
ATOM      9  C   UNL A   1      31.907  25.143  24.887  1.00  0.00    -0.018 A 
ATOM     10  C   UNL A   1      30.654  25.483  25.423  1.00  0.00     0.009 A 
ATOM     11  C   UNL A   1      32.217  25.687  23.629  1.00  0.00     0.009 A 
ATOM     12  C   UNL A   1      29.766  26.336  24.752  1.00  0.00     0.005 A 
ATOM     13  C   UNL A   1      31.358  26.585  22.983  1.00  0.00     0.005 A 
BRANCH   9  14
ATOM     14  C   UNL A   1      32.860  24.274  25.625  1.00  0.00    -0.018 A 
ATOM     15  C   UNL A   1      35.174  23.544  26.097  1.00  0.00    -0.044 A 
ATOM     16  C   UNL A   1      34.682  22.650  27.058  1.00  0.00     0.004 A 
ATOM     17  C   UNL A   1      34.251  24.342  25.395  1.00  0.00     0.012 A 
ATOM     18  C   UNL A   1      33.316  22.562  27.310  1.00  0.00     0.001 A 
ATOM     19  C   UNL A   1      32.418  23.357  26.595  1.00  0.00     0.009 A 
BRANCH  15  20
ATOM     20  C   UNL A   1      36.661  23.539  25.798  1.00  0.00     0.062 C 
BRANCH  20  21
ATOM     21  C   UNL A   1      37.112  22.618  24.699  1.00  0.00    -0.030 C 
ATOM     22  C   UNL A   1      36.691  22.686  23.429  1.00  0.00     0.004 C 
ENDBRANCH  20  21
ENDBRANCH  15  20
ENDBRANCH   9  14
ENDBRANCH   6   8
ENDBRANCH   3   6
ENDBRANCH   1   2
BRANCH   1  23
ATOM     23  C   UNL A   1      32.425  29.385  25.145  1.00  0.00     0.023 C 
BRANCH  23  24
ATOM     24  C   UNL A   1      32.639  28.404  26.297  1.00  0.00     0.023 C 
BRANCH  24  25
ATOM     25  C   UNL A   1      33.818  28.719  27.212  1.00  0.00     0.116 C 
BRANCH  25  26
ATOM     26  N   UNL A   1      33.793  30.060  27.778  1.00  0.00    -0.352 N 
ATOM     27  C   UNL A   1      34.816  30.738  28.402  1.00  0.00     0.251 C 
ATOM     28  H   UNL A   1      32.938  30.543  27.704  1.00  0.00     0.163 HD
ATOM     29  O   UNL A   1      34.628  31.843  28.893  1.00  0.00    -0.269 OA
BRANCH  27  30
ATOM     30  C   UNL A   1      36.137  30.086  28.521  1.00  0.00     0.039 A 
ATOM     31  C   UNL A   1      37.037  30.188  27.457  1.00  0.00     0.014 A 
ATOM     32  C   UNL A   1      36.508  29.440  29.702  1.00  0.00     0.014 A 
ATOM     33  C   UNL A   1      38.340  29.714  27.610  1.00  0.00     0.010 A 
ATOM     34  C   UNL A   1      37.826  29.037  29.880  1.00  0.00     0.010 A 
ATOM     35  C   UNL A   1      38.757  29.176  28.840  1.00  0.00    -0.014 A 
BRANCH  35  36
ATOM     36  C   UNL A   1      40.164  28.762  29.065  1.00  0.00     0.031 A 
ATOM     37  C   UNL A   1      41.139  29.720  29.688  1.00  0.00     0.074 A 
ATOM     38  C   UNL A   1      40.582  27.557  28.632  1.00  0.00     0.049 A 
ATOM     39  N   UNL A   1      42.425  29.582  29.882  1.00  0.00    -0.248 NA
ATOM     40  C   UNL A   1      40.601  31.021  30.120  1.00  0.00     0.031 C 
ATOM     41  C   UNL A   1      39.748  26.559  27.958  1.00  0.00     0.029 A 
ATOM     42  N   UNL A   1      41.823  26.972  28.680  1.00  0.00    -0.354 N 
ATOM     43  C   UNL A   1      42.854  30.782  30.433  1.00  0.00     0.074 A 
ATOM     44  C   UNL A   1      41.701  31.654  30.500  1.00  0.00     0.031 C 
ATOM     45  C   UNL A   1      40.494  25.479  27.678  1.00  0.00     0.029 A 
ATOM     46  C   UNL A   1      41.863  25.718  28.121  1.00  0.00     0.049 A 
ATOM     47  H   UNL A   1      42.609  27.409  29.079  1.00  0.00     0.167 HD
ATOM     48  C   UNL A   1      44.090  31.119  30.867  1.00  0.00     0.037 A 
ATOM     49  C   UNL A   1      42.891  24.860  27.979  1.00  0.00     0.037 A 
ATOM     50  C   UNL A   1      45.226  30.237  30.839  1.00  0.00     0.049 A 
ATOM     51  C   UNL A   1      44.249  25.249  28.492  1.00  0.00     0.074 A 
ATOM     52  C   UNL A   1      46.503  30.458  31.325  1.00  0.00     0.029 A 
ATOM     53  N   UNL A   1      45.218  28.960  30.299  1.00  0.00    -0.354 N 
ATOM     54  N   UNL A   1      44.625  26.360  29.075  1.00  0.00    -0.248 NA
ATOM     55  C   UNL A   1      45.325  24.260  28.331  1.00  0.00     0.031 C 
ATOM     56  C   UNL A   1      47.277  29.326  31.049  1.00  0.00     0.029 A 
ATOM     57  C   UNL A   1      46.472  28.386  30.426  1.00  0.00     0.049 A 
ATOM     58  H   UNL A   1      44.437  28.526  29.886  1.00  0.00     0.167 HD
ATOM     59  C   UNL A   1      45.970  26.197  29.376  1.00  0.00     0.074 A 
ATOM     60  C   UNL A   1      46.343  24.873  28.920  1.00  0.00     0.031 C 
ATOM     61  C   UNL A   1      46.821  27.064  29.975  1.00  0.00     0.037 A 
BRANCH  48  62
ATOM     62  C   UNL A   1      44.274  32.501  31.421  1.00  0.00     0.057 A 
ATOM     63  C   UNL A   1      44.087  32.782  32.781  1.00  0.00     0.134 A 
ATOM     64  C   UNL A   1      44.662  33.559  30.589  1.00  0.00     0.134 A 
ATOM     65  F   UNL A   1      43.701  31.815  33.627  1.00  0.00    -0.206 F 
ATOM     66  C   UNL A   1      44.254  34.070  33.290  1.00  0.00     0.040 A 
ATOM     67  C   UNL A   1      44.857  34.847  31.093  1.00  0.00     0.040 A 
ATOM     68  F   UNL A   1      44.861  33.359  29.279  1.00  0.00    -0.206 F 
ATOM     69  C   UNL A   1      44.646  35.106  32.445  1.00  0.00     0.006 A 
ENDBRANCH  48  62
BRANCH  49  70
ATOM     70  C   UNL A   1      42.671  23.533  27.353  1.00  0.00     0.057 A 
ATOM     71  C   UNL A   1      42.266  22.435  28.121  1.00  0.00     0.134 A 
ATOM     72  C   UNL A   1      42.864  23.326  25.982  1.00  0.00     0.134 A 
ATOM     73  F   UNL A   1      42.083  22.568  29.443  1.00  0.00    -0.206 F 
ATOM     74  C   UNL A   1      42.080  21.174  27.553  1.00  0.00     0.040 A 
ATOM     75  C   UNL A   1      42.661  22.075  25.397  1.00  0.00     0.040 A 
ATOM     76  F   UNL A   1      43.246  24.340  25.191  1.00  0.00    -0.206 F 
ATOM     77  C   UNL A   1      42.273  20.993  26.184  1.00  0.00     0.006 A 
ENDBRANCH  49  70
BRANCH  61  78
ATOM     78  C   UNL A   1      48.227  26.596  30.204  1.00  0.00     0.057 A 
ATOM     79  C   UNL A   1      48.587  25.882  31.353  1.00  0.00     0.134 A 
ATOM     80  C   UNL A   1      49.219  26.827  29.244  1.00  0.00     0.134 A 
ATOM     81  F   UNL A   1      47.684  25.641  32.315  1.00  0.00    -0.206 F 
ATOM     82  C   UNL A   1      49.892  25.428  31.547  1.00  0.00     0.040 A 
ATOM     83  C   UNL A   1      50.522  26.360  29.416  1.00  0.00     0.040 A 
ATOM     84  F   UNL A   1      48.935  27.500  28.118  1.00  0.00    -0.206 F 
ATOM     85  C   UNL A   1      50.863  25.662  30.574  1.00  0.00     0.006 A 
ENDBRANCH  61  78
ENDBRANCH  35  36
ENDBRANCH  27  30
ENDBRANCH  25  26
ENDBRANCH  24  25
ENDBRANCH  23  24
ENDBRANCH   1  23
TORSDOF 15
ENDMDL
MODEL 2
REMARK VINA RESULT:     -11.4      4.755     10.488
REMARK SMILES C=CCc1cccc(-c2ccc([C@@H](C)C(=O)NCCCCNC(=O)c3ccc(-c4c5nc(c(-c6c(F)cccc6F)c6ccc([nH]6)c(-c6c(F)cccc6F)c6nc(c(-c7c(F)cccc7F)c7ccc4[nH]7)C=C6)C=C5)cc3)cc2)c1
REMARK SMILES IDX 18 1 17 2 15 3 16 4 13 6 14 7 12 8 9 9 10 10 80 11 11 12
REMARK SMILES IDX 79 13 8 14 4 15 5 16 81 17 6 18 7 19 3 20 2 21 1 22 19 23
REMARK SMILES IDX 20 24 21 25 22 26 23 27 24 29 25 30 26 31 78 32 27 33 77 34
REMARK SMILES IDX 28 35 29 36 30 37 71 38 31 39 76 40 70 41 72 42 32 43 75 44
REMARK SMILES IDX 69 45 68 46 33 48 59 49 42 50 58 51 43 52 46 53 57 54 73 55
REMARK SMILES IDX 44 56 45 57 56 59 74 60 47 61 34 62 35 63 40 64 36 65 37 66
REMARK SMILES IDX 39 67 41 68 38 69 60 70 61 71 66 72 62 73 63 74 65 75 67 76
REMARK SMILES IDX 64 77 48 78 49 79 54 80 50 81 51 82 53 83 55 84 52 85
REMARK H PARENT 17 5 22 28 72 47 46 58
REMARK Flexibility Score: inf
ROOT
ATOM      1  C   UNL A   1      46.202  20.600  25.214  1.00  0.00     0.116 C 
ENDROOT
BRANCH   1   2
ATOM      2  N   UNL A   1      46.755  21.703  24.457  1.00  0.00    -0.356 N 
ATOM      3  C   UNL A   1      46.276  22.955  24.216  1.00  0.00     0.227 C 
ATOM      4  O   UNL A   1      46.950  23.664  23.458  1.00  0.00    -0.274 OA
ATOM      5  H   UNL A   1      47.629  21.516  24.045  1.00  0.00     0.163 HD
BRANCH   3   6
ATOM      6  C   UNL A   1      44.984  23.511  24.838  1.00  0.00     0.105 C 
ATOM      7  C   UNL A   1      43.709  23.026  24.149  1.00  0.00     0.023 C 
BRANCH   6   8
ATOM      8  C   UNL A   1      45.059  24.997  25.153  1.00  0.00    -0.036 A 
ATOM      9  C   UNL A   1      45.070  27.746  25.961  1.00  0.00    -0.018 A 
ATOM     10  C   UNL A   1      46.257  27.003  25.843  1.00  0.00     0.009 A 
ATOM     11  C   UNL A   1      43.882  27.088  25.605  1.00  0.00     0.009 A 
ATOM     12  C   UNL A   1      46.256  25.668  25.414  1.00  0.00     0.005 A 
ATOM     13  C   UNL A   1      43.872  25.738  25.232  1.00  0.00     0.005 A 
BRANCH   9  14
ATOM     14  C   UNL A   1      45.075  29.146  26.459  1.00  0.00    -0.018 A 
ATOM     15  C   UNL A   1      46.304  31.203  27.066  1.00  0.00    -0.044 A 
ATOM     16  C   UNL A   1      45.086  31.827  27.366  1.00  0.00     0.004 A 
ATOM     17  C   UNL A   1      46.277  29.869  26.617  1.00  0.00     0.012 A 
ATOM     18  C   UNL A   1      43.884  31.143  27.216  1.00  0.00     0.001 A 
ATOM     19  C   UNL A   1      43.882  29.817  26.778  1.00  0.00     0.009 A 
BRANCH  15  20
ATOM     20  C   UNL A   1      47.591  31.963  27.328  1.00  0.00     0.062 C 
BRANCH  20  21
ATOM     21  C   UNL A   1      47.755  32.531  28.711  1.00  0.00    -0.030 C 
ATOM     22  C   UNL A   1      48.077  33.804  28.976  1.00  0.00     0.004 C 
ENDBRANCH  20  21
ENDBRANCH  15  20
ENDBRANCH   9  14
ENDBRANCH   6   8
ENDBRANCH   3   6
ENDBRANCH   1   2
BRANCH   1  23
ATOM     23  C   UNL A   1      45.885  19.394  24.330  1.00  0.00     0.023 C 
BRANCH  23  24
ATOM     24  C   UNL A   1      44.484  18.812  24.505  1.00  0.00     0.023 C 
BRANCH  24  25
ATOM     25  C   UNL A   1      43.552  19.617  25.405  1.00  0.00     0.116 C 
BRANCH  25  26
ATOM     26  N   UNL A   1      42.169  19.160  25.395  1.00  0.00    -0.352 N 
ATOM     27  C   UNL A   1      41.068  19.768  25.954  1.00  0.00     0.251 C 
ATOM     28  H   UNL A   1      42.001  18.309  24.928  1.00  0.00     0.163 HD
ATOM     29  O   UNL A   1      39.971  19.228  25.924  1.00  0.00    -0.269 OA
BRANCH  27  30
ATOM     30  C   UNL A   1      41.242  21.064  26.644  1.00  0.00     0.039 A 
ATOM     31  C   UNL A   1      41.761  21.072  27.941  1.00  0.00     0.014 A 
ATOM     32  C   UNL A   1      40.960  22.263  25.986  1.00  0.00     0.014 A 
ATOM     33  C   UNL A   1      42.077  22.289  28.547  1.00  0.00     0.010 A 
ATOM     34  C   UNL A   1      41.345  23.469  26.560  1.00  0.00     0.010 A 
ATOM     35  C   UNL A   1      41.913  23.494  27.843  1.00  0.00    -0.014 A 
BRANCH  35  36
ATOM     36  C   UNL A   1      42.339  24.792  28.422  1.00  0.00     0.031 A 
ATOM     37  C   UNL A   1      41.331  25.886  28.635  1.00  0.00     0.074 A 
ATOM     38  C   UNL A   1      43.643  25.014  28.675  1.00  0.00     0.049 A 
ATOM     39  N   UNL A   1      41.519  27.116  29.040  1.00  0.00    -0.248 NA
ATOM     40  C   UNL A   1      39.930  25.563  28.319  1.00  0.00     0.031 C 
ATOM     41  C   UNL A   1      44.727  24.054  28.456  1.00  0.00     0.029 A 
ATOM     42  N   UNL A   1      44.282  26.128  29.161  1.00  0.00    -0.354 N 
ATOM     43  C   UNL A   1      40.269  27.718  29.003  1.00  0.00     0.074 A 
ATOM     44  C   UNL A   1      39.338  26.735  28.493  1.00  0.00     0.031 C 
ATOM     45  C   UNL A   1      45.891  24.613  28.827  1.00  0.00     0.029 A 
ATOM     46  C   UNL A   1      45.641  25.976  29.278  1.00  0.00     0.049 A 
ATOM     47  H   UNL A   1      43.809  26.957  29.403  1.00  0.00     0.167 HD
ATOM     48  C   UNL A   1      39.922  28.970  29.383  1.00  0.00     0.037 A 
ATOM     49  C   UNL A   1      46.581  26.844  29.700  1.00  0.00     0.037 A 
ATOM     50  C   UNL A   1      40.841  29.933  29.929  1.00  0.00     0.049 A 
ATOM     51  C   UNL A   1      46.167  28.220  30.140  1.00  0.00     0.074 A 
ATOM     52  C   UNL A   1      40.574  31.202  30.414  1.00  0.00     0.029 A 
ATOM     53  N   UNL A   1      42.205  29.730  30.068  1.00  0.00    -0.354 N 
ATOM     54  N   UNL A   1      44.971  28.754  30.166  1.00  0.00    -0.248 NA
ATOM     55  C   UNL A   1      47.235  29.113  30.614  1.00  0.00     0.031 C 
ATOM     56  C   UNL A   1      41.783  31.778  30.817  1.00  0.00     0.029 A 
ATOM     57  C   UNL A   1      42.797  30.855  30.618  1.00  0.00     0.049 A 
ATOM     58  H   UNL A   1      42.682  28.907  29.813  1.00  0.00     0.167 HD
ATOM     59  C   UNL A   1      45.135  30.031  30.683  1.00  0.00     0.074 A 
ATOM     60  C   UNL A   1      46.547  30.189  30.968  1.00  0.00     0.031 C 
ATOM     61  C   UNL A   1      44.202  30.989  30.903  1.00  0.00     0.037 A 
BRANCH  48  62
ATOM     62  C   UNL A   1      38.484  29.365  29.228  1.00  0.00     0.057 A 
ATOM     63  C   UNL A   1      37.601  29.374  30.317  1.00  0.00     0.134 A 
ATOM     64  C   UNL A   1      37.979  29.759  27.983  1.00  0.00     0.134 A 
ATOM     65  F   UNL A   1      38.018  28.994  31.534  1.00  0.00    -0.206 F 
ATOM     66  C   UNL A   1      36.262  29.737  30.168  1.00  0.00     0.040 A 
ATOM     67  C   UNL A   1      36.647  30.148  27.827  1.00  0.00     0.040 A 
ATOM     68  F   UNL A   1      38.770  29.776  26.901  1.00  0.00    -0.206 F 
ATOM     69  C   UNL A   1      35.783  30.132  28.920  1.00  0.00     0.006 A 
ENDBRANCH  48  62
BRANCH  49  70
ATOM     70  C   UNL A   1      48.004  26.428  29.760  1.00  0.00     0.057 A 
ATOM     71  C   UNL A   1      48.877  26.705  28.701  1.00  0.00     0.134 A 
ATOM     72  C   UNL A   1      48.524  25.742  30.864  1.00  0.00     0.134 A 
ATOM     73  F   UNL A   1      48.432  27.343  27.609  1.00  0.00    -0.206 F 
ATOM     74  C   UNL A   1      50.212  26.298  28.729  1.00  0.00     0.040 A 
ATOM     75  C   UNL A   1      49.862  25.348  30.914  1.00  0.00     0.040 A 
ATOM     76  F   UNL A   1      47.740  25.453  31.912  1.00  0.00    -0.206 F 
ATOM     77  C   UNL A   1      50.709  25.620  29.841  1.00  0.00     0.006 A 
ENDBRANCH  49  70
BRANCH  61  78
ATOM     78  C   UNL A   1      44.671  32.276  31.511  1.00  0.00     0.057 A 
ATOM     79  C   UNL A   1      44.792  33.447  30.752  1.00  0.00     0.134 A 
ATOM     80  C   UNL A   1      44.965  32.353  32.877  1.00  0.00     0.134 A 
ATOM     81  F   UNL A   1      44.538  33.434  29.436  1.00  0.00    -0.206 F 
ATOM     82  C   UNL A   1      45.206  34.648  31.330  1.00  0.00     0.040 A 
ATOM     83  C   UNL A   1      45.358  33.552  33.471  1.00  0.00     0.040 A 
ATOM     84  F   UNL A   1      44.862  31.268  33.659  1.00  0.00    -0.206 F 
ATOM     85  C   UNL A   1      45.484  34.704  32.695  1.00  0.00     0.006 A 
ENDBRANCH  61  78
ENDBRANCH  35  36
ENDBRANCH  27  30
ENDBRANCH  25  26
ENDBRANCH  24  25
ENDBRANCH  23  24
ENDBRANCH   1  23
TORSDOF 15
ENDMDL
MODEL 3
REMARK VINA RESULT:     -11.1      2.916      8.008
REMARK SMILES C=CCc1cccc(-c2ccc([C@@H](C)C(=O)NCCCCNC(=O)c3ccc(-c4c5nc(c(-c6c(F)cccc6F)c6ccc([nH]6)c(-c6c(F)cccc6F)c6nc(c(-c7c(F)cccc7F)c7ccc4[nH]7)C=C6)C=C5)cc3)cc2)c1
REMARK SMILES IDX 18 1 17 2 15 3 16 4 13 6 14 7 12 8 9 9 10 10 80 11 11 12
REMARK SMILES IDX 79 13 8 14 4 15 5 16 81 17 6 18 7 19 3 20 2 21 1 22 19 23
REMARK SMILES IDX 20 24 21 25 22 26 23 27 24 29 25 30 26 31 78 32 27 33 77 34
REMARK SMILES IDX 28 35 29 36 30 37 71 38 31 39 76 40 70 41 72 42 32 43 75 44
REMARK SMILES IDX 69 45 68 46 33 48 59 49 42 50 58 51 43 52 46 53 57 54 73 55
REMARK SMILES IDX 44 56 45 57 56 59 74 60 47 61 34 62 35 63 40 64 36 65 37 66
REMARK SMILES IDX 39 67 41 68 38 69 60 70 61 71 66 72 62 73 63 74 65 75 67 76
REMARK SMILES IDX 64 77 48 78 49 79 54 80 50 81 51 82 53 83 55 84 52 85
REMARK H PARENT 17 5 22 28 72 47 46 58
REMARK Flexibility Score: inf
ROOT
ATOM      1  C   UNL A   1      35.528  21.732  24.427  1.00  0.00     0.116 C 
ENDROOT
BRANCH   1   2
ATOM      2  N   UNL A   1      35.072  21.487  25.779  1.00  0.00    -0.356 N 
ATOM      3  C   UNL A   1      33.823  21.283  26.281  1.00  0.00     0.227 C 
ATOM      4  O   UNL A   1      33.738  21.173  27.511  1.00  0.00    -0.274 OA
ATOM      5  H   UNL A   1      35.790  21.464  26.453  1.00  0.00     0.163 HD
BRANCH   3   6
ATOM      6  C   UNL A   1      32.560  21.170  25.413  1.00  0.00     0.105 C 
ATOM      7  C   UNL A   1      32.634  20.067  24.357  1.00  0.00     0.023 C 
BRANCH   6   8
ATOM      8  C   UNL A   1      32.028  22.517  24.947  1.00  0.00    -0.036 A 
ATOM      9  C   UNL A   1      31.267  25.142  24.085  1.00  0.00    -0.018 A 
ATOM     10  C   UNL A   1      31.137  24.019  23.249  1.00  0.00     0.009 A 
ATOM     11  C   UNL A   1      31.734  24.900  25.387  1.00  0.00     0.009 A 
ATOM     12  C   UNL A   1      31.476  22.730  23.681  1.00  0.00     0.005 A 
ATOM     13  C   UNL A   1      32.128  23.622  25.803  1.00  0.00     0.005 A 
BRANCH   9  14
ATOM     14  C   UNL A   1      30.947  26.511  23.604  1.00  0.00    -0.018 A 
ATOM     15  C   UNL A   1      29.297  28.295  23.151  1.00  0.00    -0.044 A 
ATOM     16  C   UNL A   1      30.338  29.133  22.731  1.00  0.00     0.004 A 
ATOM     17  C   UNL A   1      29.621  26.994  23.581  1.00  0.00     0.012 A 
ATOM     18  C   UNL A   1      31.656  28.688  22.746  1.00  0.00     0.001 A 
ATOM     19  C   UNL A   1      31.953  27.390  23.168  1.00  0.00     0.009 A 
BRANCH  15  20
ATOM     20  C   UNL A   1      27.870  28.797  23.034  1.00  0.00     0.062 C 
BRANCH  20  21
ATOM     21  C   UNL A   1      27.706  30.251  22.687  1.00  0.00    -0.030 C 
ATOM     22  C   UNL A   1      27.598  31.239  23.585  1.00  0.00     0.004 C 
ENDBRANCH  20  21
ENDBRANCH  15  20
ENDBRANCH   9  14
ENDBRANCH   6   8
ENDBRANCH   3   6
ENDBRANCH   1   2
BRANCH   1  23
ATOM     23  C   UNL A   1      37.052  21.689  24.314  1.00  0.00     0.023 C 
BRANCH  23  24
ATOM     24  C   UNL A   1      37.702  20.398  24.809  1.00  0.00     0.023 C 
BRANCH  24  25
ATOM     25  C   UNL A   1      38.856  20.582  25.788  1.00  0.00     0.116 C 
BRANCH  25  26
ATOM     26  N   UNL A   1      39.851  19.520  25.745  1.00  0.00    -0.352 N 
ATOM     27  C   UNL A   1      41.179  19.583  26.104  1.00  0.00     0.251 C 
ATOM     28  H   UNL A   1      39.534  18.647  25.420  1.00  0.00     0.163 HD
ATOM     29  O   UNL A   1      41.917  18.620  25.948  1.00  0.00    -0.269 OA
BRANCH  27  30
ATOM     30  C   UNL A   1      41.716  20.856  26.631  1.00  0.00     0.039 A 
ATOM     31  C   UNL A   1      42.246  21.786  25.733  1.00  0.00     0.014 A 
ATOM     32  C   UNL A   1      41.630  21.154  27.992  1.00  0.00     0.014 A 
ATOM     33  C   UNL A   1      42.614  23.052  26.192  1.00  0.00     0.010 A 
ATOM     34  C   UNL A   1      41.926  22.439  28.434  1.00  0.00     0.010 A 
ATOM     35  C   UNL A   1      42.413  23.402  27.538  1.00  0.00    -0.014 A 
BRANCH  35  36
ATOM     36  C   UNL A   1      42.696  24.773  28.030  1.00  0.00     0.031 A 
ATOM     37  C   UNL A   1      44.094  25.155  28.427  1.00  0.00     0.074 A 
ATOM     38  C   UNL A   1      41.682  25.643  28.201  1.00  0.00     0.049 A 
ATOM     39  N   UNL A   1      44.526  26.267  28.964  1.00  0.00    -0.248 NA
ATOM     40  C   UNL A   1      45.139  24.140  28.220  1.00  0.00     0.031 C 
ATOM     41  C   UNL A   1      40.272  25.373  27.910  1.00  0.00     0.029 A 
ATOM     42  N   UNL A   1      41.680  26.931  28.677  1.00  0.00    -0.354 N 
ATOM     43  C   UNL A   1      45.884  26.075  29.184  1.00  0.00     0.074 A 
ATOM     44  C   UNL A   1      46.195  24.726  28.764  1.00  0.00     0.031 C 
ATOM     45  C   UNL A   1      39.547  26.469  28.192  1.00  0.00     0.029 A 
ATOM     46  C   UNL A   1      40.433  27.504  28.712  1.00  0.00     0.049 A 
ATOM     47  H   UNL A   1      42.497  27.400  28.964  1.00  0.00     0.167 HD
ATOM     48  C   UNL A   1      46.794  26.952  29.668  1.00  0.00     0.037 A 
ATOM     49  C   UNL A   1      40.048  28.728  29.121  1.00  0.00     0.037 A 
ATOM     50  C   UNL A   1      46.491  28.307  30.044  1.00  0.00     0.049 A 
ATOM     51  C   UNL A   1      41.082  29.691  29.632  1.00  0.00     0.074 A 
ATOM     52  C   UNL A   1      47.357  29.297  30.475  1.00  0.00     0.029 A 
ATOM     53  N   UNL A   1      45.222  28.864  30.030  1.00  0.00    -0.354 N 
ATOM     54  N   UNL A   1      42.374  29.521  29.768  1.00  0.00    -0.248 NA
ATOM     55  C   UNL A   1      40.603  31.021  30.040  1.00  0.00     0.031 C 
ATOM     56  C   UNL A   1      46.606  30.445  30.752  1.00  0.00     0.029 A 
ATOM     57  C   UNL A   1      45.278  30.179  30.459  1.00  0.00     0.049 A 
ATOM     58  H   UNL A   1      44.401  28.392  29.757  1.00  0.00     0.167 HD
ATOM     59  C   UNL A   1      42.867  30.725  30.250  1.00  0.00     0.074 A 
ATOM     60  C   UNL A   1      41.737  31.623  30.373  1.00  0.00     0.031 C 
ATOM     61  C   UNL A   1      44.143  31.059  30.564  1.00  0.00     0.037 A 
BRANCH  48  62
ATOM     62  C   UNL A   1      48.208  26.472  29.806  1.00  0.00     0.057 A 
ATOM     63  C   UNL A   1      48.654  25.817  30.961  1.00  0.00     0.134 A 
ATOM     64  C   UNL A   1      49.129  26.648  28.765  1.00  0.00     0.134 A 
ATOM     65  F   UNL A   1      47.826  25.630  32.000  1.00  0.00    -0.206 F 
ATOM     66  C   UNL A   1      49.972  25.376  31.087  1.00  0.00     0.040 A 
ATOM     67  C   UNL A   1      50.443  26.189  28.870  1.00  0.00     0.040 A 
ATOM     68  F   UNL A   1      48.766  27.264  27.631  1.00  0.00    -0.206 F 
ATOM     69  C   UNL A   1      50.870  25.557  30.037  1.00  0.00     0.006 A 
ENDBRANCH  48  62
BRANCH  49  70
ATOM     70  C   UNL A   1      38.621  29.125  29.036  1.00  0.00     0.057 A 
ATOM     71  C   UNL A   1      38.086  29.626  27.843  1.00  0.00     0.134 A 
ATOM     72  C   UNL A   1      37.762  29.022  30.136  1.00  0.00     0.134 A 
ATOM     73  F   UNL A   1      38.865  29.765  26.760  1.00  0.00    -0.206 F 
ATOM     74  C   UNL A   1      36.753  30.030  27.753  1.00  0.00     0.040 A 
ATOM     75  C   UNL A   1      36.421  29.402  30.053  1.00  0.00     0.040 A 
ATOM     76  F   UNL A   1      38.213  28.543  31.305  1.00  0.00    -0.206 F 
ATOM     77  C   UNL A   1      35.915  29.913  28.860  1.00  0.00     0.006 A 
ENDBRANCH  49  70
BRANCH  61  78
ATOM     78  C   UNL A   1      44.387  32.461  31.036  1.00  0.00     0.057 A 
ATOM     79  C   UNL A   1      44.380  32.791  32.397  1.00  0.00     0.134 A 
ATOM     80  C   UNL A   1      44.675  33.480  30.121  1.00  0.00     0.134 A 
ATOM     81  F   UNL A   1      44.098  31.861  33.321  1.00  0.00    -0.206 F 
ATOM     82  C   UNL A   1      44.633  34.094  32.830  1.00  0.00     0.040 A 
ATOM     83  C   UNL A   1      44.951  34.781  30.542  1.00  0.00     0.040 A 
ATOM     84  F   UNL A   1      44.704  33.226  28.804  1.00  0.00    -0.206 F 
ATOM     85  C   UNL A   1      44.926  35.091  31.901  1.00  0.00     0.006 A 
ENDBRANCH  61  78
ENDBRANCH  35  36
ENDBRANCH  27  30
ENDBRANCH  25  26
ENDBRANCH  24  25
ENDBRANCH  23  24
ENDBRANCH   1  23
TORSDOF 15
ENDMDL
