MODEL 1
REMARK VINA RESULT:     -11.6      0.000      0.000
REMARK SMILES C[C@](NC(=O)Cc1cccc(F)c1F)(C(=O)NCCCCNC(=O)c1ccc(-c2c3nc(c(-c4c(F)cccc4F)c4ccc([nH]4)c(-c4c(F)cccc4F)c4nc(c(-c5c(F)cccc5F)c5ccc2[nH]5)C=C4)C=C3)cc1)C1CC1
REMARK SMILES IDX 19 1 18 2 17 3 15 4 16 5 2 7 1 8 79 9 80 10 81 11 3 12 4 13
REMARK SMILES IDX 5 15 6 16 7 17 8 18 13 19 9 20 11 21 14 22 10 23 12 24 20 25
REMARK SMILES IDX 21 26 22 27 23 28 24 30 25 31 26 32 78 33 27 34 77 35 28 36
REMARK SMILES IDX 29 37 30 38 71 39 31 40 76 41 70 42 72 43 32 44 75 45 69 46
REMARK SMILES IDX 68 47 33 49 59 50 42 51 58 52 43 53 46 54 57 55 73 56 44 57
REMARK SMILES IDX 45 58 56 60 74 61 47 62 34 63 35 64 40 65 36 66 37 67 39 68
REMARK SMILES IDX 41 69 38 70 60 71 61 72 66 73 62 74 63 75 65 76 67 77 64 78
REMARK SMILES IDX 48 79 49 80 54 81 50 82 51 83 53 84 55 85 52 86
REMARK H PARENT 17 6 3 14 22 29 72 48 46 59
REMARK Flexibility Score: inf
ROOT
ATOM      1  C   UNL A   1      36.433  20.382  25.006  1.00  0.00     0.023 C 
ENDROOT
BRANCH   1   2
ATOM      2  C   UNL A   1      36.458  21.778  25.619  1.00  0.00     0.116 C 
BRANCH   2   3
ATOM      3  N   UNL A   1      35.539  21.878  26.746  1.00  0.00    -0.354 N 
ATOM      4  C   UNL A   1      34.358  22.558  26.906  1.00  0.00     0.245 C 
ATOM      5  O   UNL A   1      33.716  22.287  27.925  1.00  0.00    -0.272 OA
ATOM      6  H   UNL A   1      35.816  21.364  27.539  1.00  0.00     0.163 HD
BRANCH   4   7
ATOM      7  C   UNL A   1      33.803  23.503  25.774  1.00  0.00     0.119 C 
ATOM      8  C   UNL A   1      34.991  24.415  25.431  1.00  0.00     0.046 C 
BRANCH   7   9
ATOM      9  C   UNL A   1      33.256  22.697  24.598  1.00  0.00     0.024 C 
ATOM     10  C   UNL A   1      32.682  23.321  23.339  1.00  0.00     0.007 C 
ATOM     11  C   UNL A   1      33.979  22.576  23.272  1.00  0.00     0.007 C 
ENDBRANCH   7   9
BRANCH   7  12
ATOM     12  N   UNL A   1      32.647  24.210  26.381  1.00  0.00    -0.341 N 
ATOM     13  C   UNL A   1      31.994  25.380  26.169  1.00  0.00     0.225 C 
ATOM     14  H   UNL A   1      32.255  23.700  27.127  1.00  0.00     0.164 HD
ATOM     15  O   UNL A   1      30.995  25.580  26.869  1.00  0.00    -0.275 OA
BRANCH  13  16
ATOM     16  C   UNL A   1      32.396  26.387  25.101  1.00  0.00     0.138 C 
BRANCH  16  17
ATOM     17  C   UNL A   1      32.683  27.768  25.626  1.00  0.00     0.000 A 
ATOM     18  C   UNL A   1      33.750  27.983  26.515  1.00  0.00     0.007 A 
ATOM     19  C   UNL A   1      31.852  28.847  25.308  1.00  0.00     0.162 A 
ATOM     20  C   UNL A   1      33.876  29.201  27.190  1.00  0.00     0.004 A 
ATOM     21  C   UNL A   1      31.993  30.065  25.964  1.00  0.00     0.159 A 
ATOM     22  F   UNL A   1      30.873  28.697  24.406  1.00  0.00    -0.203 F 
ATOM     23  C   UNL A   1      32.979  30.237  26.930  1.00  0.00     0.042 A 
ATOM     24  F   UNL A   1      31.147  31.070  25.703  1.00  0.00    -0.204 F 
ENDBRANCH  16  17
ENDBRANCH  13  16
ENDBRANCH   7  12
ENDBRANCH   4   7
ENDBRANCH   2   3
ENDBRANCH   1   2
BRANCH   1  25
ATOM     25  C   UNL A   1      37.817  19.816  24.681  1.00  0.00     0.023 C 
BRANCH  25  26
ATOM     26  C   UNL A   1      38.908  20.173  25.686  1.00  0.00     0.116 C 
BRANCH  26  27
ATOM     27  N   UNL A   1      39.915  19.130  25.814  1.00  0.00    -0.352 N 
ATOM     28  C   UNL A   1      41.261  19.251  26.056  1.00  0.00     0.251 C 
ATOM     29  H   UNL A   1      39.584  18.208  25.712  1.00  0.00     0.163 HD
ATOM     30  O   UNL A   1      42.000  18.274  25.963  1.00  0.00    -0.269 OA
BRANCH  28  31
ATOM     31  C   UNL A   1      41.824  20.571  26.402  1.00  0.00     0.039 A 
ATOM     32  C   UNL A   1      42.217  21.431  25.374  1.00  0.00     0.014 A 
ATOM     33  C   UNL A   1      41.942  20.969  27.737  1.00  0.00     0.014 A 
ATOM     34  C   UNL A   1      42.660  22.717  25.683  1.00  0.00     0.010 A 
ATOM     35  C   UNL A   1      42.305  22.278  28.038  1.00  0.00     0.010 A 
ATOM     36  C   UNL A   1      42.668  23.166  27.014  1.00  0.00    -0.014 A 
BRANCH  36  37
ATOM     37  C   UNL A   1      43.046  24.562  27.355  1.00  0.00     0.031 A 
ATOM     38  C   UNL A   1      44.488  24.986  27.316  1.00  0.00     0.074 A 
ATOM     39  C   UNL A   1      42.099  25.430  27.761  1.00  0.00     0.049 A 
ATOM     40  N   UNL A   1      45.021  26.137  27.641  1.00  0.00    -0.248 NA
ATOM     41  C   UNL A   1      45.465  23.976  26.879  1.00  0.00     0.031 C 
ATOM     42  C   UNL A   1      40.672  25.128  27.888  1.00  0.00     0.029 A 
ATOM     43  N   UNL A   1      42.196  26.742  28.152  1.00  0.00    -0.354 N 
ATOM     44  C   UNL A   1      46.390  25.985  27.459  1.00  0.00     0.074 A 
ATOM     45  C   UNL A   1      46.612  24.614  27.053  1.00  0.00     0.031 C 
ATOM     46  C   UNL A   1      40.025  26.229  28.303  1.00  0.00     0.029 A 
ATOM     47  C   UNL A   1      40.992  27.301  28.512  1.00  0.00     0.049 A 
ATOM     48  H   UNL A   1      43.046  27.237  28.173  1.00  0.00     0.167 HD
ATOM     49  C   UNL A   1      47.370  26.909  27.594  1.00  0.00     0.037 A 
ATOM     50  C   UNL A   1      40.703  28.535  28.967  1.00  0.00     0.037 A 
ATOM     51  C   UNL A   1      47.145  28.277  27.981  1.00  0.00     0.049 A 
ATOM     52  C   UNL A   1      41.813  29.538  29.127  1.00  0.00     0.074 A 
ATOM     53  C   UNL A   1      48.065  29.305  28.092  1.00  0.00     0.029 A 
ATOM     54  N   UNL A   1      45.910  28.808  28.325  1.00  0.00    -0.354 N 
ATOM     55  N   UNL A   1      43.094  29.400  28.882  1.00  0.00    -0.248 NA
ATOM     56  C   UNL A   1      41.436  30.871  29.619  1.00  0.00     0.031 C 
ATOM     57  C   UNL A   1      47.397  30.443  28.554  1.00  0.00     0.029 A 
ATOM     58  C   UNL A   1      46.050  30.141  28.674  1.00  0.00     0.049 A 
ATOM     59  H   UNL A   1      45.060  28.310  28.322  1.00  0.00     0.167 HD
ATOM     60  C   UNL A   1      43.670  30.634  29.161  1.00  0.00     0.074 A 
ATOM     61  C   UNL A   1      42.596  31.511  29.577  1.00  0.00     0.031 C 
ATOM     62  C   UNL A   1      44.971  31.006  29.078  1.00  0.00     0.037 A 
BRANCH  49  63
ATOM     63  C   UNL A   1      48.780  26.471  27.319  1.00  0.00     0.057 A 
ATOM     64  C   UNL A   1      49.615  25.982  28.333  1.00  0.00     0.134 A 
ATOM     65  C   UNL A   1      49.298  26.503  26.017  1.00  0.00     0.134 A 
ATOM     66  F   UNL A   1      49.186  25.935  29.603  1.00  0.00    -0.206 F 
ATOM     67  C   UNL A   1      50.922  25.568  28.068  1.00  0.00     0.040 A 
ATOM     68  C   UNL A   1      50.592  26.062  25.736  1.00  0.00     0.040 A 
ATOM     69  F   UNL A   1      48.553  26.952  24.997  1.00  0.00    -0.206 F 
ATOM     70  C   UNL A   1      51.411  25.600  26.764  1.00  0.00     0.006 A 
ENDBRANCH  49  63
BRANCH  50  71
ATOM     71  C   UNL A   1      39.300  28.900  29.293  1.00  0.00     0.057 A 
ATOM     72  C   UNL A   1      38.460  29.469  28.329  1.00  0.00     0.134 A 
ATOM     73  C   UNL A   1      38.773  28.709  30.576  1.00  0.00     0.134 A 
ATOM     74  F   UNL A   1      38.912  29.695  27.088  1.00  0.00    -0.206 F 
ATOM     75  C   UNL A   1      37.153  29.856  28.634  1.00  0.00     0.040 A 
ATOM     76  C   UNL A   1      37.460  29.065  30.887  1.00  0.00     0.040 A 
ATOM     77  F   UNL A   1      39.524  28.162  31.543  1.00  0.00    -0.206 F 
ATOM     78  C   UNL A   1      36.649  29.650  29.917  1.00  0.00     0.006 A 
ENDBRANCH  50  71
BRANCH  62  79
ATOM     79  C   UNL A   1      45.300  32.434  29.404  1.00  0.00     0.057 A 
ATOM     80  C   UNL A   1      45.690  32.833  30.689  1.00  0.00     0.134 A 
ATOM     81  C   UNL A   1      45.265  33.417  28.406  1.00  0.00     0.134 A 
ATOM     82  F   UNL A   1      45.733  31.944  31.693  1.00  0.00    -0.206 F 
ATOM     83  C   UNL A   1      46.008  34.161  30.975  1.00  0.00     0.040 A 
ATOM     84  C   UNL A   1      45.609  34.742  28.673  1.00  0.00     0.040 A 
ATOM     85  F   UNL A   1      44.909  33.103  27.151  1.00  0.00    -0.206 F 
ATOM     86  C   UNL A   1      45.975  35.119  29.964  1.00  0.00     0.006 A 
ENDBRANCH  62  79
ENDBRANCH  36  37
ENDBRANCH  28  31
ENDBRANCH  26  27
ENDBRANCH  25  26
ENDBRANCH   1  25
TORSDOF 15
ENDMDL
MODEL 2
REMARK VINA RESULT:     -11.5      4.939     10.073
REMARK SMILES C[C@](NC(=O)Cc1cccc(F)c1F)(C(=O)NCCCCNC(=O)c1ccc(-c2c3nc(c(-c4c(F)cccc4F)c4ccc([nH]4)c(-c4c(F)cccc4F)c4nc(c(-c5c(F)cccc5F)c5ccc2[nH]5)C=C4)C=C3)cc1)C1CC1
REMARK SMILES IDX 19 1 18 2 17 3 15 4 16 5 2 7 1 8 79 9 80 10 81 11 3 12 4 13
REMARK SMILES IDX 5 15 6 16 7 17 8 18 13 19 9 20 11 21 14 22 10 23 12 24 20 25
REMARK SMILES IDX 21 26 22 27 23 28 24 30 25 31 26 32 78 33 27 34 77 35 28 36
REMARK SMILES IDX 29 37 30 38 71 39 31 40 76 41 70 42 72 43 32 44 75 45 69 46
REMARK SMILES IDX 68 47 33 49 59 50 42 51 58 52 43 53 46 54 57 55 73 56 44 57
REMARK SMILES IDX 45 58 56 60 74 61 47 62 34 63 35 64 40 65 36 66 37 67 39 68
REMARK SMILES IDX 41 69 38 70 60 71 61 72 66 73 62 74 63 75 65 76 67 77 64 78
REMARK SMILES IDX 48 79 49 80 54 81 50 82 51 83 53 84 55 85 52 86
REMARK H PARENT 17 6 3 14 22 29 72 48 46 59
REMARK Flexibility Score: inf
ROOT
ATOM      1  C   UNL A   1      31.429  30.860  25.772  1.00  0.00     0.023 C 
ENDROOT
BRANCH   1   2
ATOM      2  C   UNL A   1      32.645  29.951  25.917  1.00  0.00     0.116 C 
BRANCH   2   3
ATOM      3  N   UNL A   1      33.277  29.703  24.626  1.00  0.00    -0.354 N 
ATOM      4  C   UNL A   1      33.442  28.555  23.894  1.00  0.00     0.245 C 
ATOM      5  O   UNL A   1      33.859  28.708  22.742  1.00  0.00    -0.272 OA
ATOM      6  H   UNL A   1      33.655  30.507  24.202  1.00  0.00     0.163 HD
BRANCH   4   7
ATOM      7  C   UNL A   1      32.978  27.157  24.455  1.00  0.00     0.119 C 
ATOM      8  C   UNL A   1      33.669  27.055  25.824  1.00  0.00     0.046 C 
BRANCH   7   9
ATOM      9  C   UNL A   1      31.455  27.056  24.499  1.00  0.00     0.024 C 
ATOM     10  C   UNL A   1      30.527  27.904  23.648  1.00  0.00     0.007 C 
ATOM     11  C   UNL A   1      30.637  26.434  23.386  1.00  0.00     0.007 C 
ENDBRANCH   7   9
BRANCH   7  12
ATOM     12  N   UNL A   1      33.444  26.158  23.461  1.00  0.00    -0.341 N 
ATOM     13  C   UNL A   1      33.725  24.831  23.465  1.00  0.00     0.225 C 
ATOM     14  H   UNL A   1      33.585  26.562  22.573  1.00  0.00     0.164 HD
ATOM     15  O   UNL A   1      34.027  24.336  22.373  1.00  0.00    -0.275 OA
BRANCH  13  16
ATOM     16  C   UNL A   1      33.625  23.953  24.704  1.00  0.00     0.138 C 
BRANCH  16  17
ATOM     17  C   UNL A   1      34.909  23.267  25.083  1.00  0.00     0.000 A 
ATOM     18  C   UNL A   1      36.022  24.017  25.500  1.00  0.00     0.007 A 
ATOM     19  C   UNL A   1      35.051  21.881  24.952  1.00  0.00     0.162 A 
ATOM     20  C   UNL A   1      37.278  23.417  25.620  1.00  0.00     0.004 A 
ATOM     21  C   UNL A   1      36.298  21.282  25.095  1.00  0.00     0.159 A 
ATOM     22  F   UNL A   1      33.993  21.125  24.632  1.00  0.00    -0.203 F 
ATOM     23  C   UNL A   1      37.420  22.048  25.393  1.00  0.00     0.042 A 
ATOM     24  F   UNL A   1      36.437  19.964  24.898  1.00  0.00    -0.204 F 
ENDBRANCH  16  17
ENDBRANCH  13  16
ENDBRANCH   7  12
ENDBRANCH   4   7
ENDBRANCH   2   3
ENDBRANCH   1   2
BRANCH   1  25
ATOM     25  C   UNL A   1      31.301  31.913  26.875  1.00  0.00     0.023 C 
BRANCH  25  26
ATOM     26  C   UNL A   1      32.588  32.664  27.198  1.00  0.00     0.116 C 
BRANCH  26  27
ATOM     27  N   UNL A   1      32.350  34.050  27.573  1.00  0.00    -0.352 N 
ATOM     28  C   UNL A   1      32.970  34.804  28.538  1.00  0.00     0.251 C 
ATOM     29  H   UNL A   1      31.644  34.511  27.064  1.00  0.00     0.163 HD
ATOM     30  O   UNL A   1      32.528  35.910  28.843  1.00  0.00    -0.269 OA
BRANCH  28  31
ATOM     31  C   UNL A   1      34.158  34.268  29.233  1.00  0.00     0.039 A 
ATOM     32  C   UNL A   1      33.980  33.516  30.397  1.00  0.00     0.014 A 
ATOM     33  C   UNL A   1      35.441  34.487  28.724  1.00  0.00     0.014 A 
ATOM     34  C   UNL A   1      35.085  32.923  31.009  1.00  0.00     0.010 A 
ATOM     35  C   UNL A   1      36.529  33.827  29.287  1.00  0.00     0.010 A 
ATOM     36  C   UNL A   1      36.362  33.038  30.436  1.00  0.00    -0.014 A 
BRANCH  36  37
ATOM     37  C   UNL A   1      37.535  32.336  31.019  1.00  0.00     0.031 A 
ATOM     38  C   UNL A   1      38.180  32.855  32.274  1.00  0.00     0.074 A 
ATOM     39  C   UNL A   1      38.058  31.269  30.384  1.00  0.00     0.049 A 
ATOM     40  N   UNL A   1      39.246  32.420  32.897  1.00  0.00    -0.248 NA
ATOM     41  C   UNL A   1      37.560  34.035  32.899  1.00  0.00     0.031 C 
ATOM     42  C   UNL A   1      37.554  30.697  29.134  1.00  0.00     0.029 A 
ATOM     43  N   UNL A   1      39.136  30.481  30.698  1.00  0.00    -0.354 N 
ATOM     44  C   UNL A   1      39.430  33.278  33.974  1.00  0.00     0.074 A 
ATOM     45  C   UNL A   1      38.402  34.292  33.889  1.00  0.00     0.031 C 
ATOM     46  C   UNL A   1      38.307  29.636  28.801  1.00  0.00     0.029 A 
ATOM     47  C   UNL A   1      39.370  29.477  29.788  1.00  0.00     0.049 A 
ATOM     48  H   UNL A   1      39.691  30.620  31.499  1.00  0.00     0.167 HD
ATOM     49  C   UNL A   1      40.357  33.212  34.960  1.00  0.00     0.037 A 
ATOM     50  C   UNL A   1      40.338  28.542  29.749  1.00  0.00     0.037 A 
ATOM     51  C   UNL A   1      41.367  32.191  35.054  1.00  0.00     0.049 A 
ATOM     52  C   UNL A   1      41.366  28.502  30.846  1.00  0.00     0.074 A 
ATOM     53  C   UNL A   1      42.316  32.006  36.044  1.00  0.00     0.029 A 
ATOM     54  N   UNL A   1      41.564  31.186  34.119  1.00  0.00    -0.354 N 
ATOM     55  N   UNL A   1      41.484  29.276  31.897  1.00  0.00    -0.248 NA
ATOM     56  C   UNL A   1      42.392  27.452  30.754  1.00  0.00     0.031 C 
ATOM     57  C   UNL A   1      43.120  30.921  35.682  1.00  0.00     0.029 A 
ATOM     58  C   UNL A   1      42.635  30.393  34.497  1.00  0.00     0.049 A 
ATOM     59  H   UNL A   1      41.023  31.055  33.307  1.00  0.00     0.167 HD
ATOM     60  C   UNL A   1      42.576  28.790  32.607  1.00  0.00     0.074 A 
ATOM     61  C   UNL A   1      43.073  27.644  31.874  1.00  0.00     0.031 C 
ATOM     62  C   UNL A   1      43.115  29.250  33.762  1.00  0.00     0.037 A 
BRANCH  49  63
ATOM     63  C   UNL A   1      40.318  34.275  36.021  1.00  0.00     0.057 A 
ATOM     64  C   UNL A   1      41.050  35.464  35.904  1.00  0.00     0.134 A 
ATOM     65  C   UNL A   1      39.511  34.123  37.157  1.00  0.00     0.134 A 
ATOM     66  F   UNL A   1      41.851  35.669  34.848  1.00  0.00    -0.206 F 
ATOM     67  C   UNL A   1      41.002  36.451  36.890  1.00  0.00     0.040 A 
ATOM     68  C   UNL A   1      39.431  35.117  38.133  1.00  0.00     0.040 A 
ATOM     69  F   UNL A   1      38.779  33.013  37.330  1.00  0.00    -0.206 F 
ATOM     70  C   UNL A   1      40.184  36.283  38.005  1.00  0.00     0.006 A 
ENDBRANCH  49  63
BRANCH  50  71
ATOM     71  C   UNL A   1      40.375  27.553  28.639  1.00  0.00     0.057 A 
ATOM     72  C   UNL A   1      41.133  27.791  27.486  1.00  0.00     0.134 A 
ATOM     73  C   UNL A   1      39.643  26.361  28.696  1.00  0.00     0.134 A 
ATOM     74  F   UNL A   1      41.840  28.923  27.364  1.00  0.00    -0.206 F 
ATOM     75  C   UNL A   1      41.143  26.890  26.419  1.00  0.00     0.040 A 
ATOM     76  C   UNL A   1      39.667  25.439  27.649  1.00  0.00     0.040 A 
ATOM     77  F   UNL A   1      38.903  26.071  29.776  1.00  0.00    -0.206 F 
ATOM     78  C   UNL A   1      40.411  25.707  26.501  1.00  0.00     0.006 A 
ENDBRANCH  50  71
BRANCH  62  79
ATOM     79  C   UNL A   1      44.281  28.491  34.328  1.00  0.00     0.057 A 
ATOM     80  C   UNL A   1      44.109  27.396  35.185  1.00  0.00     0.134 A 
ATOM     81  C   UNL A   1      45.593  28.838  33.978  1.00  0.00     0.134 A 
ATOM     82  F   UNL A   1      42.880  27.019  35.569  1.00  0.00    -0.206 F 
ATOM     83  C   UNL A   1      45.201  26.690  35.693  1.00  0.00     0.040 A 
ATOM     84  C   UNL A   1      46.690  28.120  34.456  1.00  0.00     0.040 A 
ATOM     85  F   UNL A   1      45.829  29.870  33.154  1.00  0.00    -0.206 F 
ATOM     86  C   UNL A   1      46.496  27.047  35.323  1.00  0.00     0.006 A 
ENDBRANCH  62  79
ENDBRANCH  36  37
ENDBRANCH  28  31
ENDBRANCH  26  27
ENDBRANCH  25  26
ENDBRANCH   1  25
TORSDOF 15
ENDMDL
MODEL 3
REMARK VINA RESULT:     -11.5      1.236      1.687
REMARK SMILES C[C@](NC(=O)Cc1cccc(F)c1F)(C(=O)NCCCCNC(=O)c1ccc(-c2c3nc(c(-c4c(F)cccc4F)c4ccc([nH]4)c(-c4c(F)cccc4F)c4nc(c(-c5c(F)cccc5F)c5ccc2[nH]5)C=C4)C=C3)cc1)C1CC1
REMARK SMILES IDX 19 1 18 2 17 3 15 4 16 5 2 7 1 8 79 9 80 10 81 11 3 12 4 13
REMARK SMILES IDX 5 15 6 16 7 17 8 18 13 19 9 20 11 21 14 22 10 23 12 24 20 25
REMARK SMILES IDX 21 26 22 27 23 28 24 30 25 31 26 32 78 33 27 34 77 35 28 36
REMARK SMILES IDX 29 37 30 38 71 39 31 40 76 41 70 42 72 43 32 44 75 45 69 46
REMARK SMILES IDX 68 47 33 49 59 50 42 51 58 52 43 53 46 54 57 55 73 56 44 57
REMARK SMILES IDX 45 58 56 60 74 61 47 62 34 63 35 64 40 65 36 66 37 67 39 68
REMARK SMILES IDX 41 69 38 70 60 71 61 72 66 73 62 74 63 75 65 76 67 77 64 78
REMARK SMILES IDX 48 79 49 80 54 81 50 82 51 83 53 84 55 85 52 86
REMARK H PARENT 17 6 3 14 22 29 72 48 46 59
REMARK Flexibility Score: inf
ROOT
ATOM      1  C   UNL A   1      36.978  20.787  24.454  1.00  0.00     0.023 C 
ENDROOT
BRANCH   1   2
ATOM      2  C   UNL A   1      36.810  21.955  25.419  1.00  0.00     0.116 C 
BRANCH   2   3
ATOM      3  N   UNL A   1      35.892  21.620  26.501  1.00  0.00    -0.354 N 
ATOM      4  C   UNL A   1      34.577  21.948  26.720  1.00  0.00     0.245 C 
ATOM      5  O   UNL A   1      34.021  21.347  27.644  1.00  0.00    -0.272 OA
ATOM      6  H   UNL A   1      36.286  21.054  27.204  1.00  0.00     0.163 HD
BRANCH   4   7
ATOM      7  C   UNL A   1      33.807  22.917  25.746  1.00  0.00     0.119 C 
ATOM      8  C   UNL A   1      34.654  24.199  25.744  1.00  0.00     0.046 C 
BRANCH   7   9
ATOM      9  C   UNL A   1      33.610  22.280  24.372  1.00  0.00     0.024 C 
ATOM     10  C   UNL A   1      32.564  22.735  23.371  1.00  0.00     0.007 C 
ATOM     11  C   UNL A   1      34.016  22.959  23.080  1.00  0.00     0.007 C 
ENDBRANCH   7   9
BRANCH   7  12
ATOM     12  N   UNL A   1      32.456  23.080  26.339  1.00  0.00    -0.341 N 
ATOM     13  C   UNL A   1      31.615  24.115  26.589  1.00  0.00     0.225 C 
ATOM     14  H   UNL A   1      32.072  22.218  26.621  1.00  0.00     0.164 HD
ATOM     15  O   UNL A   1      30.506  23.816  27.045  1.00  0.00    -0.275 OA
BRANCH  13  16
ATOM     16  C   UNL A   1      31.954  25.567  26.284  1.00  0.00     0.138 C 
BRANCH  16  17
ATOM     17  C   UNL A   1      31.484  26.043  24.936  1.00  0.00     0.000 A 
ATOM     18  C   UNL A   1      32.411  26.333  23.920  1.00  0.00     0.007 A 
ATOM     19  C   UNL A   1      30.129  26.286  24.690  1.00  0.00     0.162 A 
ATOM     20  C   UNL A   1      32.007  26.999  22.760  1.00  0.00     0.004 A 
ATOM     21  C   UNL A   1      29.726  26.928  23.523  1.00  0.00     0.159 A 
ATOM     22  F   UNL A   1      29.210  25.951  25.604  1.00  0.00    -0.203 F 
ATOM     23  C   UNL A   1      30.662  27.318  22.573  1.00  0.00     0.042 A 
ATOM     24  F   UNL A   1      28.433  27.219  23.329  1.00  0.00    -0.204 F 
ENDBRANCH  16  17
ENDBRANCH  13  16
ENDBRANCH   7  12
ENDBRANCH   4   7
ENDBRANCH   2   3
ENDBRANCH   1   2
BRANCH   1  25
ATOM     25  C   UNL A   1      37.859  19.655  24.989  1.00  0.00     0.023 C 
BRANCH  25  26
ATOM     26  C   UNL A   1      39.091  20.112  25.764  1.00  0.00     0.116 C 
BRANCH  26  27
ATOM     27  N   UNL A   1      40.115  19.082  25.846  1.00  0.00    -0.352 N 
ATOM     28  C   UNL A   1      41.466  19.219  26.051  1.00  0.00     0.251 C 
ATOM     29  H   UNL A   1      39.795  18.157  25.740  1.00  0.00     0.163 HD
ATOM     30  O   UNL A   1      42.215  18.254  25.921  1.00  0.00    -0.269 OA
BRANCH  28  31
ATOM     31  C   UNL A   1      42.021  20.543  26.399  1.00  0.00     0.039 A 
ATOM     32  C   UNL A   1      42.464  21.382  25.375  1.00  0.00     0.014 A 
ATOM     33  C   UNL A   1      42.081  20.962  27.731  1.00  0.00     0.014 A 
ATOM     34  C   UNL A   1      42.901  22.672  25.682  1.00  0.00     0.010 A 
ATOM     35  C   UNL A   1      42.437  22.274  28.026  1.00  0.00     0.010 A 
ATOM     36  C   UNL A   1      42.851  23.143  27.004  1.00  0.00    -0.014 A 
BRANCH  36  37
ATOM     37  C   UNL A   1      43.221  24.543  27.338  1.00  0.00     0.031 A 
ATOM     38  C   UNL A   1      44.661  24.974  27.299  1.00  0.00     0.074 A 
ATOM     39  C   UNL A   1      42.269  25.409  27.738  1.00  0.00     0.049 A 
ATOM     40  N   UNL A   1      45.188  26.130  27.618  1.00  0.00    -0.248 NA
ATOM     41  C   UNL A   1      45.644  23.967  26.868  1.00  0.00     0.031 C 
ATOM     42  C   UNL A   1      40.843  25.100  27.866  1.00  0.00     0.029 A 
ATOM     43  N   UNL A   1      42.359  26.723  28.123  1.00  0.00    -0.354 N 
ATOM     44  C   UNL A   1      46.558  25.983  27.439  1.00  0.00     0.074 A 
ATOM     45  C   UNL A   1      46.788  24.612  27.040  1.00  0.00     0.031 C 
ATOM     46  C   UNL A   1      40.190  26.200  28.273  1.00  0.00     0.029 A 
ATOM     47  C   UNL A   1      41.152  27.277  28.478  1.00  0.00     0.049 A 
ATOM     48  H   UNL A   1      43.207  27.222  28.143  1.00  0.00     0.167 HD
ATOM     49  C   UNL A   1      47.533  26.913  27.571  1.00  0.00     0.037 A 
ATOM     50  C   UNL A   1      40.856  28.512  28.926  1.00  0.00     0.037 A 
ATOM     51  C   UNL A   1      47.300  28.283  27.950  1.00  0.00     0.049 A 
ATOM     52  C   UNL A   1      41.960  29.521  29.082  1.00  0.00     0.074 A 
ATOM     53  C   UNL A   1      48.215  29.316  28.056  1.00  0.00     0.029 A 
ATOM     54  N   UNL A   1      46.062  28.809  28.290  1.00  0.00    -0.354 N 
ATOM     55  N   UNL A   1      43.242  29.389  28.840  1.00  0.00    -0.248 NA
ATOM     56  C   UNL A   1      41.576  30.855  29.566  1.00  0.00     0.031 C 
ATOM     57  C   UNL A   1      47.540  30.452  28.511  1.00  0.00     0.029 A 
ATOM     58  C   UNL A   1      46.194  30.145  28.631  1.00  0.00     0.049 A 
ATOM     59  H   UNL A   1      45.215  28.307  28.289  1.00  0.00     0.167 HD
ATOM     60  C   UNL A   1      43.811  30.627  29.113  1.00  0.00     0.074 A 
ATOM     61  C   UNL A   1      42.732  31.501  29.522  1.00  0.00     0.031 C 
ATOM     62  C   UNL A   1      45.110  31.006  29.030  1.00  0.00     0.037 A 
BRANCH  49  63
ATOM     63  C   UNL A   1      48.946  26.481  27.299  1.00  0.00     0.057 A 
ATOM     64  C   UNL A   1      49.785  26.013  28.320  1.00  0.00     0.134 A 
ATOM     65  C   UNL A   1      49.462  26.499  25.997  1.00  0.00     0.134 A 
ATOM     66  F   UNL A   1      49.359  25.982  29.590  1.00  0.00    -0.206 F 
ATOM     67  C   UNL A   1      51.094  25.605  28.059  1.00  0.00     0.040 A 
ATOM     68  C   UNL A   1      50.758  26.063  25.720  1.00  0.00     0.040 A 
ATOM     69  F   UNL A   1      48.711  26.928  24.971  1.00  0.00    -0.206 F 
ATOM     70  C   UNL A   1      51.582  25.621  26.754  1.00  0.00     0.006 A 
ENDBRANCH  49  63
BRANCH  50  71
ATOM     71  C   UNL A   1      39.451  28.872  29.249  1.00  0.00     0.057 A 
ATOM     72  C   UNL A   1      38.924  28.653  30.527  1.00  0.00     0.134 A 
ATOM     73  C   UNL A   1      38.597  29.424  28.286  1.00  0.00     0.134 A 
ATOM     74  F   UNL A   1      39.685  28.110  31.487  1.00  0.00    -0.206 F 
ATOM     75  C   UNL A   1      37.593  28.948  30.831  1.00  0.00     0.040 A 
ATOM     76  C   UNL A   1      37.273  29.749  28.583  1.00  0.00     0.040 A 
ATOM     77  F   UNL A   1      39.042  29.664  27.044  1.00  0.00    -0.206 F 
ATOM     78  C   UNL A   1      36.764  29.501  29.857  1.00  0.00     0.006 A 
ENDBRANCH  50  71
BRANCH  62  79
ATOM     79  C   UNL A   1      45.432  32.438  29.349  1.00  0.00     0.057 A 
ATOM     80  C   UNL A   1      45.816  32.845  30.632  1.00  0.00     0.134 A 
ATOM     81  C   UNL A   1      45.394  33.415  28.345  1.00  0.00     0.134 A 
ATOM     82  F   UNL A   1      45.862  31.962  31.641  1.00  0.00    -0.206 F 
ATOM     83  C   UNL A   1      46.127  34.177  30.912  1.00  0.00     0.040 A 
ATOM     84  C   UNL A   1      45.732  34.743  28.606  1.00  0.00     0.040 A 
ATOM     85  F   UNL A   1      45.043  33.092  27.091  1.00  0.00    -0.206 F 
ATOM     86  C   UNL A   1      46.092  35.129  29.895  1.00  0.00     0.006 A 
ENDBRANCH  62  79
ENDBRANCH  36  37
ENDBRANCH  28  31
ENDBRANCH  26  27
ENDBRANCH  25  26
ENDBRANCH   1  25
TORSDOF 15
ENDMDL
