MODEL 1
REMARK VINA RESULT:      -8.8      0.000      0.000
REMARK SMILES CCCCCC(=O)N1CCC[C@H](C(=O)NCCCCNC(=O)c2ccc(-c3c4nc(c(-c5c(F)cccc5F)c5ccc([nH]5)c(-c5c(F)cccc5F)c5nc(c(-c6c(F)cccc6F)c6ccc3[nH]6)C=C5)C=C4)cc2)C1
REMARK SMILES IDX 16 1 15 2 13 3 14 4 12 6 8 7 9 8 77 9 10 10 11 11 6 12 7 13
REMARK SMILES IDX 5 14 4 15 3 16 2 17 1 18 17 19 18 20 19 21 20 22 21 23 22 25
REMARK SMILES IDX 23 26 24 27 76 28 25 29 75 30 26 31 27 32 28 33 69 34 29 35
REMARK SMILES IDX 74 36 68 37 70 38 30 39 73 40 67 41 66 42 31 44 57 45 40 46
REMARK SMILES IDX 56 47 41 48 44 49 55 50 71 51 42 52 43 53 54 55 72 56 45 57
REMARK SMILES IDX 32 58 33 59 38 60 34 61 35 62 37 63 39 64 36 65 58 66 59 67
REMARK SMILES IDX 64 68 60 69 61 70 63 71 65 72 62 73 46 74 47 75 52 76 48 77
REMARK SMILES IDX 49 78 51 79 53 80 50 81
REMARK H PARENT 15 5 20 24 70 43 44 54
REMARK Flexibility Score: inf
ROOT
ATOM      1  C   UNL A   1      45.465  22.553  24.011  1.00  0.00     0.116 C 
ENDROOT
BRANCH   1   2
ATOM      2  N   UNL A   1      44.669  23.704  24.362  1.00  0.00    -0.356 N 
ATOM      3  C   UNL A   1      45.016  24.869  24.960  1.00  0.00     0.224 C 
ATOM      4  O   UNL A   1      44.129  25.725  25.055  1.00  0.00    -0.275 OA
ATOM      5  H   UNL A   1      43.716  23.630  24.128  1.00  0.00     0.163 HD
BRANCH   3   6
ATOM      6  C   UNL A   1      46.415  25.169  25.509  1.00  0.00     0.098 C 
ATOM      7  N   UNL A   1      47.102  27.595  25.711  1.00  0.00    -0.342 N 
ATOM      8  C   UNL A   1      48.308  27.339  24.923  1.00  0.00     0.119 C 
ATOM      9  C   UNL A   1      46.502  26.440  26.359  1.00  0.00     0.132 C 
ATOM     10  C   UNL A   1      48.135  26.220  23.903  1.00  0.00     0.022 C 
ATOM     11  C   UNL A   1      47.557  24.953  24.515  1.00  0.00     0.017 C 
BRANCH   7  12
ATOM     12  C   UNL A   1      46.568  28.867  25.705  1.00  0.00     0.222 C 
ATOM     13  O   UNL A   1      46.528  29.505  24.644  1.00  0.00    -0.275 OA
BRANCH  12  14
ATOM     14  C   UNL A   1      46.180  29.616  26.987  1.00  0.00     0.100 C 
BRANCH  14  15
ATOM     15  C   UNL A   1      44.782  30.055  27.412  1.00  0.00     0.010 C 
BRANCH  15  16
ATOM     16  C   UNL A   1      43.616  29.055  27.361  1.00  0.00     0.000 C 
BRANCH  16  17
ATOM     17  C   UNL A   1      42.366  29.470  26.585  1.00  0.00    -0.003 C 
ATOM     18  C   UNL A   1      41.961  28.440  25.546  1.00  0.00     0.004 C 
ENDBRANCH  16  17
ENDBRANCH  15  16
ENDBRANCH  14  15
ENDBRANCH  12  14
ENDBRANCH   7  12
ENDBRANCH   3   6
ENDBRANCH   1   2
BRANCH   1  19
ATOM     19  C   UNL A   1      45.500  21.503  25.117  1.00  0.00     0.023 C 
BRANCH  19  20
ATOM     20  C   UNL A   1      44.811  20.197  24.750  1.00  0.00     0.023 C 
BRANCH  20  21
ATOM     21  C   UNL A   1      44.123  19.484  25.910  1.00  0.00     0.116 C 
BRANCH  21  22
ATOM     22  N   UNL A   1      42.780  19.006  25.614  1.00  0.00    -0.352 N 
ATOM     23  C   UNL A   1      41.579  19.608  25.926  1.00  0.00     0.251 C 
ATOM     24  H   UNL A   1      42.722  18.148  25.132  1.00  0.00     0.163 HD
ATOM     25  O   UNL A   1      40.510  19.057  25.705  1.00  0.00    -0.269 OA
BRANCH  23  26
ATOM     26  C   UNL A   1      41.613  20.930  26.581  1.00  0.00     0.039 A 
ATOM     27  C   UNL A   1      41.627  20.995  27.975  1.00  0.00     0.014 A 
ATOM     28  C   UNL A   1      41.737  22.089  25.811  1.00  0.00     0.014 A 
ATOM     29  C   UNL A   1      41.857  22.222  28.598  1.00  0.00     0.010 A 
ATOM     30  C   UNL A   1      42.056  23.290  26.430  1.00  0.00     0.010 A 
ATOM     31  C   UNL A   1      42.123  23.368  27.830  1.00  0.00    -0.014 A 
BRANCH  31  32
ATOM     32  C   UNL A   1      42.478  24.659  28.471  1.00  0.00     0.031 A 
ATOM     33  C   UNL A   1      41.437  25.733  28.619  1.00  0.00     0.074 A 
ATOM     34  C   UNL A   1      43.750  24.891  28.852  1.00  0.00     0.049 A 
ATOM     35  N   UNL A   1      41.562  26.945  29.096  1.00  0.00    -0.248 NA
ATOM     36  C   UNL A   1      40.084  25.417  28.134  1.00  0.00     0.031 C 
ATOM     37  C   UNL A   1      44.867  23.957  28.698  1.00  0.00     0.029 A 
ATOM     38  N   UNL A   1      44.319  25.992  29.442  1.00  0.00    -0.354 N 
ATOM     39  C   UNL A   1      40.317  27.540  28.944  1.00  0.00     0.074 A 
ATOM     40  C   UNL A   1      39.464  26.578  28.282  1.00  0.00     0.031 C 
ATOM     41  C   UNL A   1      45.978  24.510  29.213  1.00  0.00     0.029 A 
ATOM     42  C   UNL A   1      45.660  25.847  29.705  1.00  0.00     0.049 A 
ATOM     43  H   UNL A   1      43.813  26.809  29.656  1.00  0.00     0.167 HD
ATOM     44  C   UNL A   1      39.910  28.766  29.348  1.00  0.00     0.037 A 
ATOM     45  C   UNL A   1      46.530  26.695  30.284  1.00  0.00     0.037 A 
ATOM     46  C   UNL A   1      40.743  29.701  30.053  1.00  0.00     0.049 A 
ATOM     47  C   UNL A   1      46.043  28.037  30.756  1.00  0.00     0.074 A 
ATOM     48  C   UNL A   1      40.401  30.934  30.580  1.00  0.00     0.029 A 
ATOM     49  N   UNL A   1      42.086  29.502  30.335  1.00  0.00    -0.354 N 
ATOM     50  N   UNL A   1      44.841  28.553  30.682  1.00  0.00    -0.248 NA
ATOM     51  C   UNL A   1      47.035  28.912  31.397  1.00  0.00     0.031 C 
ATOM     52  C   UNL A   1      41.546  31.495  31.155  1.00  0.00     0.029 A 
ATOM     53  C   UNL A   1      42.591  30.595  31.016  1.00  0.00     0.049 A 
ATOM     54  H   UNL A   1      42.603  28.701  30.087  1.00  0.00     0.167 HD
ATOM     55  C   UNL A   1      44.922  29.796  31.293  1.00  0.00     0.074 A 
ATOM     56  C   UNL A   1      46.291  29.954  31.743  1.00  0.00     0.031 C 
ATOM     57  C   UNL A   1      43.951  30.725  31.469  1.00  0.00     0.037 A 
BRANCH  44  58
ATOM     58  C   UNL A   1      38.493  29.155  29.049  1.00  0.00     0.057 A 
ATOM     59  C   UNL A   1      37.495  29.117  30.032  1.00  0.00     0.134 A 
ATOM     60  C   UNL A   1      38.127  29.599  27.772  1.00  0.00     0.134 A 
ATOM     61  F   UNL A   1      37.778  28.687  31.271  1.00  0.00    -0.206 F 
ATOM     62  C   UNL A   1      36.177  29.479  29.748  1.00  0.00     0.040 A 
ATOM     63  C   UNL A   1      36.818  29.989  27.483  1.00  0.00     0.040 A 
ATOM     64  F   UNL A   1      39.035  29.663  26.786  1.00  0.00    -0.206 F 
ATOM     65  C   UNL A   1      35.838  29.923  28.471  1.00  0.00     0.006 A 
ENDBRANCH  44  58
BRANCH  45  66
ATOM     66  C   UNL A   1      47.942  26.289  30.495  1.00  0.00     0.057 A 
ATOM     67  C   UNL A   1      48.925  26.590  29.544  1.00  0.00     0.134 A 
ATOM     68  C   UNL A   1      48.341  25.578  31.632  1.00  0.00     0.134 A 
ATOM     69  F   UNL A   1      48.599  27.254  28.425  1.00  0.00    -0.206 F 
ATOM     70  C   UNL A   1      50.248  26.180  29.705  1.00  0.00     0.040 A 
ATOM     71  C   UNL A   1      49.666  25.180  31.816  1.00  0.00     0.040 A 
ATOM     72  F   UNL A   1      47.448  25.264  32.582  1.00  0.00    -0.206 F 
ATOM     73  C   UNL A   1      50.623  25.474  30.847  1.00  0.00     0.006 A 
ENDBRANCH  45  66
BRANCH  57  74
ATOM     74  C   UNL A   1      44.324  31.975  32.207  1.00  0.00     0.057 A 
ATOM     75  C   UNL A   1      44.229  32.065  33.601  1.00  0.00     0.134 A 
ATOM     76  C   UNL A   1      44.827  33.085  31.516  1.00  0.00     0.134 A 
ATOM     77  F   UNL A   1      43.742  31.040  34.316  1.00  0.00    -0.206 F 
ATOM     78  C   UNL A   1      44.605  33.223  34.282  1.00  0.00     0.040 A 
ATOM     79  C   UNL A   1      45.228  34.240  32.189  1.00  0.00     0.040 A 
ATOM     80  F   UNL A   1      44.951  33.059  30.181  1.00  0.00    -0.206 F 
ATOM     81  C   UNL A   1      45.113  34.312  33.575  1.00  0.00     0.006 A 
ENDBRANCH  57  74
ENDBRANCH  31  32
ENDBRANCH  23  26
ENDBRANCH  21  22
ENDBRANCH  20  21
ENDBRANCH  19  20
ENDBRANCH   1  19
TORSDOF 16
ENDMDL
MODEL 2
REMARK VINA RESULT:      -8.6      4.367      9.641
REMARK SMILES CCCCCC(=O)N1CCC[C@H](C(=O)NCCCCNC(=O)c2ccc(-c3c4nc(c(-c5c(F)cccc5F)c5ccc([nH]5)c(-c5c(F)cccc5F)c5nc(c(-c6c(F)cccc6F)c6ccc3[nH]6)C=C5)C=C4)cc2)C1
REMARK SMILES IDX 16 1 15 2 13 3 14 4 12 6 8 7 9 8 77 9 10 10 11 11 6 12 7 13
REMARK SMILES IDX 5 14 4 15 3 16 2 17 1 18 17 19 18 20 19 21 20 22 21 23 22 25
REMARK SMILES IDX 23 26 24 27 76 28 25 29 75 30 26 31 27 32 28 33 69 34 29 35
REMARK SMILES IDX 74 36 68 37 70 38 30 39 73 40 67 41 66 42 31 44 57 45 40 46
REMARK SMILES IDX 56 47 41 48 44 49 55 50 71 51 42 52 43 53 54 55 72 56 45 57
REMARK SMILES IDX 32 58 33 59 38 60 34 61 35 62 37 63 39 64 36 65 58 66 59 67
REMARK SMILES IDX 64 68 60 69 61 70 63 71 65 72 62 73 46 74 47 75 52 76 48 77
REMARK SMILES IDX 49 78 51 79 53 80 50 81
REMARK H PARENT 15 5 20 24 70 43 44 54
REMARK Flexibility Score: inf
ROOT
ATOM      1  C   UNL A   1      35.723  20.921  25.346  1.00  0.00     0.116 C 
ENDROOT
BRANCH   1   2
ATOM      2  N   UNL A   1      35.395  21.685  26.525  1.00  0.00    -0.356 N 
ATOM      3  C   UNL A   1      34.313  22.450  26.809  1.00  0.00     0.224 C 
ATOM      4  O   UNL A   1      34.257  22.922  27.950  1.00  0.00    -0.275 OA
ATOM      5  H   UNL A   1      36.068  21.644  27.241  1.00  0.00     0.163 HD
BRANCH   3   6
ATOM      6  C   UNL A   1      33.188  22.750  25.813  1.00  0.00     0.098 C 
ATOM      7  N   UNL A   1      32.311  20.831  24.418  1.00  0.00    -0.342 N 
ATOM      8  C   UNL A   1      32.555  21.587  23.190  1.00  0.00     0.119 C 
ATOM      9  C   UNL A   1      32.178  21.612  25.637  1.00  0.00     0.132 C 
ATOM     10  C   UNL A   1      33.725  22.555  23.300  1.00  0.00     0.022 C 
ATOM     11  C   UNL A   1      33.634  23.449  24.528  1.00  0.00     0.017 C 
BRANCH   7  12
ATOM     12  C   UNL A   1      32.326  19.452  24.358  1.00  0.00     0.222 C 
ATOM     13  O   UNL A   1      32.130  18.795  25.390  1.00  0.00    -0.275 OA
BRANCH  12  14
ATOM     14  C   UNL A   1      32.755  18.676  23.106  1.00  0.00     0.100 C 
BRANCH  14  15
ATOM     15  C   UNL A   1      33.538  17.368  23.053  1.00  0.00     0.010 C 
BRANCH  15  16
ATOM     16  C   UNL A   1      34.506  17.008  24.192  1.00  0.00     0.000 C 
BRANCH  16  17
ATOM     17  C   UNL A   1      34.333  15.644  24.858  1.00  0.00    -0.003 C 
ATOM     18  C   UNL A   1      32.992  15.507  25.558  1.00  0.00     0.004 C 
ENDBRANCH  16  17
ENDBRANCH  15  16
ENDBRANCH  14  15
ENDBRANCH  12  14
ENDBRANCH   7  12
ENDBRANCH   3   6
ENDBRANCH   1   2
BRANCH   1  19
ATOM     19  C   UNL A   1      37.151  21.159  24.868  1.00  0.00     0.023 C 
BRANCH  19  20
ATOM     20  C   UNL A   1      38.058  19.944  25.001  1.00  0.00     0.023 C 
BRANCH  20  21
ATOM     21  C   UNL A   1      39.340  20.181  25.794  1.00  0.00     0.116 C 
BRANCH  21  22
ATOM     22  N   UNL A   1      40.250  19.044  25.823  1.00  0.00    -0.352 N 
ATOM     23  C   UNL A   1      41.602  19.050  26.091  1.00  0.00     0.251 C 
ATOM     24  H   UNL A   1      39.851  18.166  25.626  1.00  0.00     0.163 HD
ATOM     25  O   UNL A   1      42.279  18.037  25.991  1.00  0.00    -0.269 OA
BRANCH  23  26
ATOM     26  C   UNL A   1      42.233  20.331  26.465  1.00  0.00     0.039 A 
ATOM     27  C   UNL A   1      42.757  21.147  25.461  1.00  0.00     0.014 A 
ATOM     28  C   UNL A   1      42.205  20.762  27.793  1.00  0.00     0.014 A 
ATOM     29  C   UNL A   1      43.173  22.439  25.781  1.00  0.00     0.010 A 
ATOM     30  C   UNL A   1      42.535  22.078  28.092  1.00  0.00     0.010 A 
ATOM     31  C   UNL A   1      43.019  22.931  27.088  1.00  0.00    -0.014 A 
BRANCH  31  32
ATOM     32  C   UNL A   1      43.354  24.337  27.426  1.00  0.00     0.031 A 
ATOM     33  C   UNL A   1      44.784  24.798  27.379  1.00  0.00     0.074 A 
ATOM     34  C   UNL A   1      42.385  25.174  27.845  1.00  0.00     0.049 A 
ATOM     35  N   UNL A   1      45.286  25.965  27.693  1.00  0.00    -0.248 NA
ATOM     36  C   UNL A   1      45.787  23.808  26.957  1.00  0.00     0.031 C 
ATOM     37  C   UNL A   1      40.971  24.827  28.002  1.00  0.00     0.029 A 
ATOM     38  N   UNL A   1      42.446  26.492  28.224  1.00  0.00    -0.354 N 
ATOM     39  C   UNL A   1      46.659  25.839  27.532  1.00  0.00     0.074 A 
ATOM     40  C   UNL A   1      46.918  24.470  27.146  1.00  0.00     0.031 C 
ATOM     41  C   UNL A   1      40.293  25.914  28.409  1.00  0.00     0.029 A 
ATOM     42  C   UNL A   1      41.227  27.024  28.572  1.00  0.00     0.049 A 
ATOM     43  H   UNL A   1      43.284  27.007  28.244  1.00  0.00     0.167 HD
ATOM     44  C   UNL A   1      47.617  26.787  27.664  1.00  0.00     0.037 A 
ATOM     45  C   UNL A   1      40.901  28.268  28.970  1.00  0.00     0.037 A 
ATOM     46  C   UNL A   1      47.353  28.160  27.996  1.00  0.00     0.049 A 
ATOM     47  C   UNL A   1      41.980  29.310  29.072  1.00  0.00     0.074 A 
ATOM     48  C   UNL A   1      48.244  29.216  28.069  1.00  0.00     0.029 A 
ATOM     49  N   UNL A   1      46.100  28.669  28.304  1.00  0.00    -0.354 N 
ATOM     50  N   UNL A   1      43.263  29.198  28.835  1.00  0.00    -0.248 NA
ATOM     51  C   UNL A   1      41.561  30.656  29.494  1.00  0.00     0.031 C 
ATOM     52  C   UNL A   1      47.534  30.359  28.453  1.00  0.00     0.029 A 
ATOM     53  C   UNL A   1      46.197  30.021  28.582  1.00  0.00     0.049 A 
ATOM     54  H   UNL A   1      45.266  28.145  28.322  1.00  0.00     0.167 HD
ATOM     55  C   UNL A   1      43.801  30.461  29.046  1.00  0.00     0.074 A 
ATOM     56  C   UNL A   1      42.702  31.327  29.421  1.00  0.00     0.031 C 
ATOM     57  C   UNL A   1      45.089  30.868  28.938  1.00  0.00     0.037 A 
BRANCH  44  58
ATOM     58  C   UNL A   1      49.038  26.368  27.430  1.00  0.00     0.057 A 
ATOM     59  C   UNL A   1      49.860  25.935  28.478  1.00  0.00     0.134 A 
ATOM     60  C   UNL A   1      49.580  26.370  26.139  1.00  0.00     0.134 A 
ATOM     61  F   UNL A   1      49.404  25.923  29.740  1.00  0.00    -0.206 F 
ATOM     62  C   UNL A   1      51.182  25.546  28.255  1.00  0.00     0.040 A 
ATOM     63  C   UNL A   1      50.893  25.959  25.900  1.00  0.00     0.040 A 
ATOM     64  F   UNL A   1      48.845  26.770  25.091  1.00  0.00    -0.206 F 
ATOM     65  C   UNL A   1      51.699  25.551  26.961  1.00  0.00     0.006 A 
ENDBRANCH  44  58
BRANCH  45  66
ATOM     66  C   UNL A   1      39.487  28.615  29.257  1.00  0.00     0.057 A 
ATOM     67  C   UNL A   1      38.662  29.147  28.258  1.00  0.00     0.134 A 
ATOM     68  C   UNL A   1      38.932  28.445  30.530  1.00  0.00     0.134 A 
ATOM     69  F   UNL A   1      39.144  29.350  27.023  1.00  0.00    -0.206 F 
ATOM     70  C   UNL A   1      37.343  29.518  28.520  1.00  0.00     0.040 A 
ATOM     71  C   UNL A   1      37.608  28.791  30.800  1.00  0.00     0.040 A 
ATOM     72  F   UNL A   1      39.669  27.934  31.527  1.00  0.00    -0.206 F 
ATOM     73  C   UNL A   1      36.811  29.338  29.795  1.00  0.00     0.006 A 
ENDBRANCH  45  66
BRANCH  57  74
ATOM     74  C   UNL A   1      45.373  32.318  29.193  1.00  0.00     0.057 A 
ATOM     75  C   UNL A   1      45.749  32.785  30.458  1.00  0.00     0.134 A 
ATOM     76  C   UNL A   1      45.312  33.248  28.147  1.00  0.00     0.134 A 
ATOM     77  F   UNL A   1      45.811  31.944  31.502  1.00  0.00    -0.206 F 
ATOM     78  C   UNL A   1      46.038  34.131  30.679  1.00  0.00     0.040 A 
ATOM     79  C   UNL A   1      45.622  34.593  28.351  1.00  0.00     0.040 A 
ATOM     80  F   UNL A   1      44.966  32.862  26.910  1.00  0.00    -0.206 F 
ATOM     81  C   UNL A   1      45.981  35.038  29.621  1.00  0.00     0.006 A 
ENDBRANCH  57  74
ENDBRANCH  31  32
ENDBRANCH  23  26
ENDBRANCH  21  22
ENDBRANCH  20  21
ENDBRANCH  19  20
ENDBRANCH   1  19
TORSDOF 16
ENDMDL
MODEL 3
REMARK VINA RESULT:      -8.5      5.589     11.108
REMARK SMILES CCCCCC(=O)N1CCC[C@H](C(=O)NCCCCNC(=O)c2ccc(-c3c4nc(c(-c5c(F)cccc5F)c5ccc([nH]5)c(-c5c(F)cccc5F)c5nc(c(-c6c(F)cccc6F)c6ccc3[nH]6)C=C5)C=C4)cc2)C1
REMARK SMILES IDX 16 1 15 2 13 3 14 4 12 6 8 7 9 8 77 9 10 10 11 11 6 12 7 13
REMARK SMILES IDX 5 14 4 15 3 16 2 17 1 18 17 19 18 20 19 21 20 22 21 23 22 25
REMARK SMILES IDX 23 26 24 27 76 28 25 29 75 30 26 31 27 32 28 33 69 34 29 35
REMARK SMILES IDX 74 36 68 37 70 38 30 39 73 40 67 41 66 42 31 44 57 45 40 46
REMARK SMILES IDX 56 47 41 48 44 49 55 50 71 51 42 52 43 53 54 55 72 56 45 57
REMARK SMILES IDX 32 58 33 59 38 60 34 61 35 62 37 63 39 64 36 65 58 66 59 67
REMARK SMILES IDX 64 68 60 69 61 70 63 71 65 72 62 73 46 74 47 75 52 76 48 77
REMARK SMILES IDX 49 78 51 79 53 80 50 81
REMARK H PARENT 15 5 20 24 70 43 44 54
REMARK Flexibility Score: inf
ROOT
ATOM      1  C   UNL A   1      33.262  29.922  26.706  1.00  0.00     0.116 C 
ENDROOT
BRANCH   1   2
ATOM      2  N   UNL A   1      33.605  29.693  25.323  1.00  0.00    -0.356 N 
ATOM      3  C   UNL A   1      33.265  28.685  24.484  1.00  0.00     0.224 C 
ATOM      4  O   UNL A   1      33.636  28.795  23.310  1.00  0.00    -0.275 OA
ATOM      5  H   UNL A   1      34.183  30.381  24.924  1.00  0.00     0.163 HD
BRANCH   3   6
ATOM      6  C   UNL A   1      32.464  27.449  24.908  1.00  0.00     0.098 C 
ATOM      7  N   UNL A   1      32.498  25.442  23.369  1.00  0.00    -0.342 N 
ATOM      8  C   UNL A   1      31.036  25.424  23.329  1.00  0.00     0.119 C 
ATOM      9  C   UNL A   1      33.101  26.114  24.508  1.00  0.00     0.132 C 
ATOM     10  C   UNL A   1      30.411  26.803  23.490  1.00  0.00     0.022 C 
ATOM     11  C   UNL A   1      30.953  27.556  24.696  1.00  0.00     0.017 C 
BRANCH   7  12
ATOM     12  C   UNL A   1      33.194  24.922  22.296  1.00  0.00     0.222 C 
ATOM     13  O   UNL A   1      33.654  25.690  21.440  1.00  0.00    -0.275 OA
BRANCH  12  14
ATOM     14  C   UNL A   1      33.277  23.418  22.004  1.00  0.00     0.100 C 
BRANCH  14  15
ATOM     15  C   UNL A   1      32.772  22.278  22.883  1.00  0.00     0.010 C 
BRANCH  15  16
ATOM     16  C   UNL A   1      33.617  21.794  24.072  1.00  0.00     0.000 C 
BRANCH  16  17
ATOM     17  C   UNL A   1      34.999  22.421  24.255  1.00  0.00    -0.003 C 
ATOM     18  C   UNL A   1      36.003  21.448  24.847  1.00  0.00     0.004 C 
ENDBRANCH  16  17
ENDBRANCH  15  16
ENDBRANCH  14  15
ENDBRANCH  12  14
ENDBRANCH   7  12
ENDBRANCH   3   6
ENDBRANCH   1   2
BRANCH   1  19
ATOM     19  C   UNL A   1      31.829  30.416  26.882  1.00  0.00     0.023 C 
BRANCH  19  20
ATOM     20  C   UNL A   1      31.667  31.918  26.703  1.00  0.00     0.023 C 
BRANCH  20  21
ATOM     21  C   UNL A   1      32.767  32.765  27.337  1.00  0.00     0.116 C 
BRANCH  21  22
ATOM     22  N   UNL A   1      32.378  34.138  27.628  1.00  0.00    -0.352 N 
ATOM     23  C   UNL A   1      32.955  35.008  28.528  1.00  0.00     0.251 C 
ATOM     24  H   UNL A   1      31.610  34.487  27.119  1.00  0.00     0.163 HD
ATOM     25  O   UNL A   1      32.476  36.110  28.751  1.00  0.00    -0.269 OA
BRANCH  23  26
ATOM     26  C   UNL A   1      34.155  34.557  29.261  1.00  0.00     0.039 A 
ATOM     27  C   UNL A   1      34.002  33.987  30.526  1.00  0.00     0.014 A 
ATOM     28  C   UNL A   1      35.409  34.607  28.647  1.00  0.00     0.014 A 
ATOM     29  C   UNL A   1      35.100  33.381  31.138  1.00  0.00     0.010 A 
ATOM     30  C   UNL A   1      36.476  33.925  29.217  1.00  0.00     0.010 A 
ATOM     31  C   UNL A   1      36.331  33.303  30.467  1.00  0.00    -0.014 A 
BRANCH  31  32
ATOM     32  C   UNL A   1      37.482  32.569  31.052  1.00  0.00     0.031 A 
ATOM     33  C   UNL A   1      38.084  33.032  32.349  1.00  0.00     0.074 A 
ATOM     34  C   UNL A   1      38.029  31.536  30.381  1.00  0.00     0.049 A 
ATOM     35  N   UNL A   1      39.123  32.563  32.991  1.00  0.00    -0.248 NA
ATOM     36  C   UNL A   1      37.457  34.197  32.993  1.00  0.00     0.031 C 
ATOM     37  C   UNL A   1      37.581  31.035  29.079  1.00  0.00     0.029 A 
ATOM     38  N   UNL A   1      39.088  30.724  30.701  1.00  0.00    -0.354 N 
ATOM     39  C   UNL A   1      39.288  33.390  34.094  1.00  0.00     0.074 A 
ATOM     40  C   UNL A   1      38.278  34.421  34.007  1.00  0.00     0.031 C 
ATOM     41  C   UNL A   1      38.337  29.980  28.730  1.00  0.00     0.029 A 
ATOM     42  C   UNL A   1      39.340  29.750  29.765  1.00  0.00     0.049 A 
ATOM     43  H   UNL A   1      39.617  30.831  31.524  1.00  0.00     0.167 HD
ATOM     44  C   UNL A   1      40.181  33.283  35.106  1.00  0.00     0.037 A 
ATOM     45  C   UNL A   1      40.271  28.777  29.750  1.00  0.00     0.037 A 
ATOM     46  C   UNL A   1      41.150  32.227  35.219  1.00  0.00     0.049 A 
ATOM     47  C   UNL A   1      41.227  28.659  30.904  1.00  0.00     0.074 A 
ATOM     48  C   UNL A   1      42.041  31.982  36.247  1.00  0.00     0.029 A 
ATOM     49  N   UNL A   1      41.349  31.237  34.268  1.00  0.00    -0.354 N 
ATOM     50  N   UNL A   1      41.316  29.397  31.983  1.00  0.00    -0.248 NA
ATOM     51  C   UNL A   1      42.209  27.566  30.840  1.00  0.00     0.031 C 
ATOM     52  C   UNL A   1      42.802  30.858  35.906  1.00  0.00     0.029 A 
ATOM     53  C   UNL A   1      42.359  30.386  34.681  1.00  0.00     0.049 A 
ATOM     54  H   UNL A   1      40.846  31.152  33.426  1.00  0.00     0.167 HD
ATOM     55  C   UNL A   1      42.339  28.843  32.740  1.00  0.00     0.074 A 
ATOM     56  C   UNL A   1      42.834  27.698  32.002  1.00  0.00     0.031 C 
ATOM     57  C   UNL A   1      42.825  29.243  33.940  1.00  0.00     0.037 A 
BRANCH  44  58
ATOM     58  C   UNL A   1      40.135  34.329  36.179  1.00  0.00     0.057 A 
ATOM     59  C   UNL A   1      39.319  34.189  37.310  1.00  0.00     0.134 A 
ATOM     60  C   UNL A   1      40.934  35.475  36.095  1.00  0.00     0.134 A 
ATOM     61  F   UNL A   1      38.519  33.119  37.442  1.00  0.00    -0.206 F 
ATOM     62  C   UNL A   1      39.279  35.165  38.306  1.00  0.00     0.040 A 
ATOM     63  C   UNL A   1      40.922  36.447  37.098  1.00  0.00     0.040 A 
ATOM     64  F   UNL A   1      41.740  35.669  35.041  1.00  0.00    -0.206 F 
ATOM     65  C   UNL A   1      40.088  36.296  38.204  1.00  0.00     0.006 A 
ENDBRANCH  44  58
BRANCH  45  66
ATOM     66  C   UNL A   1      40.320  27.807  28.628  1.00  0.00     0.057 A 
ATOM     67  C   UNL A   1      39.631  26.589  28.702  1.00  0.00     0.134 A 
ATOM     68  C   UNL A   1      41.063  28.057  27.470  1.00  0.00     0.134 A 
ATOM     69  F   UNL A   1      38.917  26.285  29.796  1.00  0.00    -0.206 F 
ATOM     70  C   UNL A   1      39.699  25.647  27.677  1.00  0.00     0.040 A 
ATOM     71  C   UNL A   1      41.122  27.133  26.426  1.00  0.00     0.040 A 
ATOM     72  F   UNL A   1      41.739  29.208  27.335  1.00  0.00    -0.206 F 
ATOM     73  C   UNL A   1      40.445  25.919  26.532  1.00  0.00     0.006 A 
ENDBRANCH  45  66
BRANCH  57  74
ATOM     74  C   UNL A   1      43.921  28.419  34.544  1.00  0.00     0.057 A 
ATOM     75  C   UNL A   1      43.650  27.295  35.334  1.00  0.00     0.134 A 
ATOM     76  C   UNL A   1      45.264  28.730  34.295  1.00  0.00     0.134 A 
ATOM     77  F   UNL A   1      42.384  26.955  35.619  1.00  0.00    -0.206 F 
ATOM     78  C   UNL A   1      44.677  26.518  35.870  1.00  0.00     0.040 A 
ATOM     79  C   UNL A   1      46.300  27.947  34.807  1.00  0.00     0.040 A 
ATOM     80  F   UNL A   1      45.590  29.789  33.539  1.00  0.00    -0.206 F 
ATOM     81  C   UNL A   1      46.006  26.840  35.600  1.00  0.00     0.006 A 
ENDBRANCH  57  74
ENDBRANCH  31  32
ENDBRANCH  23  26
ENDBRANCH  21  22
ENDBRANCH  20  21
ENDBRANCH  19  20
ENDBRANCH   1  19
TORSDOF 16
ENDMDL
