MODEL 1
REMARK VINA RESULT:     -12.2      0.000      0.000
REMARK SMILES CS(=O)(=O)c1ccc(/C=C(/C(=O)NCCCCNC(=O)c2ccc(-c3c4nc(c(-c5c(F)cccc5F)c5ccc([nH]5)c(-c5c(F)cccc5F)c5nc(c(-c6c(F)cccc6F)c6ccc3[nH]6)C=C5)C=C4)cc2)c2ccccc2)cc1
REMARK SMILES IDX 15 1 14 2 13 3 11 4 12 5 10 7 9 8 8 9 5 10 6 11 82 12 7 13
REMARK SMILES IDX 81 14 2 15 1 16 3 17 4 18 75 19 76 20 80 21 77 22 79 23
REMARK SMILES IDX 78 24 16 25 17 26 18 27 19 28 20 30 21 31 22 32 74 33 23 34
REMARK SMILES IDX 73 35 24 36 25 37 26 38 67 39 27 40 72 41 66 42 68 43 28 44
REMARK SMILES IDX 71 45 65 46 64 47 29 49 55 50 38 51 54 52 39 53 42 54 53 55
REMARK SMILES IDX 69 56 40 57 41 58 52 60 70 61 43 62 30 63 31 64 36 65 32 66
REMARK SMILES IDX 33 67 35 68 37 69 34 70 56 71 57 72 62 73 58 74 59 75 61 76
REMARK SMILES IDX 63 77 60 78 44 79 45 80 50 81 46 82 47 83 49 84 51 85 48 86
REMARK H PARENT 13 6 18 29 68 48 42 59
REMARK Flexibility Score: inf
ROOT
ATOM      1  C   UNL A   1      34.883  24.080  25.035  1.00  0.00     0.023 C 
ENDROOT
BRANCH   1   2
ATOM      2  C   UNL A   1      33.610  23.298  24.698  1.00  0.00     0.116 C 
BRANCH   2   3
ATOM      3  N   UNL A   1      32.739  23.246  25.856  1.00  0.00    -0.352 N 
ATOM      4  C   UNL A   1      31.860  24.122  26.411  1.00  0.00     0.251 C 
ATOM      5  O   UNL A   1      31.325  23.753  27.460  1.00  0.00    -0.269 OA
ATOM      6  H   UNL A   1      32.797  22.393  26.344  1.00  0.00     0.163 HD
BRANCH   4   7
ATOM      7  C   UNL A   1      31.468  25.432  25.763  1.00  0.00     0.047 C 
ATOM      8  C   UNL A   1      30.733  25.471  24.627  1.00  0.00     0.022 C 
BRANCH   8   9
ATOM      9  C   UNL A   1      30.141  26.634  23.931  1.00  0.00    -0.025 A 
ATOM     10  C   UNL A   1      28.865  28.878  22.827  1.00  0.00     0.067 A 
ATOM     11  C   UNL A   1      30.258  28.775  22.787  1.00  0.00     0.021 A 
ATOM     12  C   UNL A   1      28.098  27.847  23.366  1.00  0.00     0.021 A 
ATOM     13  C   UNL A   1      30.888  27.646  23.319  1.00  0.00     0.009 A 
ATOM     14  C   UNL A   1      28.739  26.730  23.911  1.00  0.00     0.009 A 
BRANCH  10  15
ATOM     15  S   UNL A   1      28.091  30.355  22.211  1.00  0.00     0.175 S 
ATOM     16  C   UNL A   1      29.279  31.652  22.418  1.00  0.00     0.163 C 
ATOM     17  O   UNL A   1      26.980  30.658  23.099  1.00  0.00    -0.224 OA
ATOM     18  O   UNL A   1      27.882  30.153  20.793  1.00  0.00    -0.224 OA
ENDBRANCH  10  15
ENDBRANCH   8   9
BRANCH   7  19
ATOM     19  C   UNL A   1      32.070  26.668  26.328  1.00  0.00    -0.013 A 
ATOM     20  C   UNL A   1      33.389  26.997  25.970  1.00  0.00     0.009 A 
ATOM     21  C   UNL A   1      31.351  27.554  27.139  1.00  0.00     0.009 A 
ATOM     22  C   UNL A   1      33.968  28.195  26.390  1.00  0.00     0.001 A 
ATOM     23  C   UNL A   1      31.927  28.763  27.543  1.00  0.00     0.001 A 
ATOM     24  C   UNL A   1      33.232  29.083  27.166  1.00  0.00     0.000 A 
ENDBRANCH   7  19
ENDBRANCH   4   7
ENDBRANCH   2   3
ENDBRANCH   1   2
BRANCH   1  25
ATOM     25  C   UNL A   1      36.043  23.209  25.532  1.00  0.00     0.023 C 
BRANCH  25  26
ATOM     26  C   UNL A   1      37.406  23.542  24.934  1.00  0.00     0.116 C 
BRANCH  26  27
ATOM     27  N   UNL A   1      38.456  22.633  25.369  1.00  0.00    -0.352 N 
ATOM     28  C   UNL A   1      39.531  22.892  26.184  1.00  0.00     0.251 C 
ATOM     29  H   UNL A   1      38.387  21.710  25.035  1.00  0.00     0.163 HD
ATOM     30  O   UNL A   1      40.396  22.042  26.365  1.00  0.00    -0.269 OA
BRANCH  28  31
ATOM     31  C   UNL A   1      39.654  24.224  26.807  1.00  0.00     0.039 A 
ATOM     32  C   UNL A   1      39.098  24.432  28.071  1.00  0.00     0.014 A 
ATOM     33  C   UNL A   1      40.361  25.244  26.164  1.00  0.00     0.014 A 
ATOM     34  C   UNL A   1      39.322  25.642  28.730  1.00  0.00     0.010 A 
ATOM     35  C   UNL A   1      40.635  26.424  26.847  1.00  0.00     0.010 A 
ATOM     36  C   UNL A   1      40.130  26.628  28.142  1.00  0.00    -0.014 A 
BRANCH  36  37
ATOM     37  C   UNL A   1      40.488  27.871  28.870  1.00  0.00     0.031 A 
ATOM     38  C   UNL A   1      41.823  27.989  29.547  1.00  0.00     0.074 A 
ATOM     39  C   UNL A   1      39.575  28.854  28.992  1.00  0.00     0.049 A 
ATOM     40  N   UNL A   1      42.275  28.942  30.322  1.00  0.00    -0.248 NA
ATOM     41  C   UNL A   1      42.766  26.878  29.348  1.00  0.00     0.031 C 
ATOM     42  C   UNL A   1      38.230  28.838  28.413  1.00  0.00     0.029 A 
ATOM     43  N   UNL A   1      39.635  30.052  29.660  1.00  0.00    -0.354 N 
ATOM     44  C   UNL A   1      43.546  28.542  30.710  1.00  0.00     0.074 A 
ATOM     45  C   UNL A   1      43.776  27.236  30.128  1.00  0.00     0.031 C 
ATOM     46  C   UNL A   1      37.599  29.979  28.737  1.00  0.00     0.029 A 
ATOM     47  C   UNL A   1      38.475  30.784  29.581  1.00  0.00     0.049 A 
ATOM     48  H   UNL A   1      40.433  30.356  30.149  1.00  0.00     0.167 HD
ATOM     49  C   UNL A   1      44.448  29.210  31.467  1.00  0.00     0.037 A 
ATOM     50  C   UNL A   1      38.149  31.964  30.142  1.00  0.00     0.037 A 
ATOM     51  C   UNL A   1      44.223  30.516  32.027  1.00  0.00     0.049 A 
ATOM     52  C   UNL A   1      39.157  32.670  31.006  1.00  0.00     0.074 A 
ATOM     53  C   UNL A   1      45.097  31.302  32.758  1.00  0.00     0.029 A 
ATOM     54  N   UNL A   1      43.038  31.227  31.922  1.00  0.00    -0.354 N 
ATOM     55  N   UNL A   1      40.380  32.309  31.313  1.00  0.00    -0.248 NA
ATOM     56  C   UNL A   1      38.739  33.945  31.606  1.00  0.00     0.031 C 
ATOM     57  C   UNL A   1      44.426  32.470  33.133  1.00  0.00     0.029 A 
ATOM     58  C   UNL A   1      43.148  32.431  32.598  1.00  0.00     0.049 A 
ATOM     59  H   UNL A   1      42.236  30.922  31.439  1.00  0.00     0.167 HD
ATOM     60  C   UNL A   1      40.884  33.321  32.118  1.00  0.00     0.074 A 
ATOM     61  C   UNL A   1      39.841  34.318  32.242  1.00  0.00     0.031 C 
ATOM     62  C   UNL A   1      42.103  33.416  32.704  1.00  0.00     0.037 A 
BRANCH  49  63
ATOM     63  C   UNL A   1      45.765  28.542  31.725  1.00  0.00     0.057 A 
ATOM     64  C   UNL A   1      45.954  27.683  32.815  1.00  0.00     0.134 A 
ATOM     65  C   UNL A   1      46.846  28.725  30.854  1.00  0.00     0.134 A 
ATOM     66  F   UNL A   1      44.963  27.474  33.695  1.00  0.00    -0.206 F 
ATOM     67  C   UNL A   1      47.177  27.049  33.043  1.00  0.00     0.040 A 
ATOM     68  C   UNL A   1      48.065  28.077  31.056  1.00  0.00     0.040 A 
ATOM     69  F   UNL A   1      46.731  29.531  29.786  1.00  0.00    -0.206 F 
ATOM     70  C   UNL A   1      48.234  27.239  32.157  1.00  0.00     0.006 A 
ENDBRANCH  49  63
BRANCH  50  71
ATOM     71  C   UNL A   1      36.810  32.561  29.902  1.00  0.00     0.057 A 
ATOM     72  C   UNL A   1      35.716  32.221  30.706  1.00  0.00     0.134 A 
ATOM     73  C   UNL A   1      36.588  33.470  28.860  1.00  0.00     0.134 A 
ATOM     74  F   UNL A   1      35.863  31.341  31.707  1.00  0.00    -0.206 F 
ATOM     75  C   UNL A   1      34.444  32.745  30.470  1.00  0.00     0.040 A 
ATOM     76  C   UNL A   1      35.326  34.021  28.628  1.00  0.00     0.040 A 
ATOM     77  F   UNL A   1      37.597  33.841  28.059  1.00  0.00    -0.206 F 
ATOM     78  C   UNL A   1      34.248  33.651  29.430  1.00  0.00     0.006 A 
ENDBRANCH  50  71
BRANCH  62  79
ATOM     79  C   UNL A   1      42.385  34.649  33.509  1.00  0.00     0.057 A 
ATOM     80  C   UNL A   1      42.945  35.794  32.929  1.00  0.00     0.134 A 
ATOM     81  C   UNL A   1      42.041  34.711  34.865  1.00  0.00     0.134 A 
ATOM     82  F   UNL A   1      43.309  35.795  31.638  1.00  0.00    -0.206 F 
ATOM     83  C   UNL A   1      43.164  36.954  33.674  1.00  0.00     0.040 A 
ATOM     84  C   UNL A   1      42.233  35.872  35.614  1.00  0.00     0.040 A 
ATOM     85  F   UNL A   1      41.494  33.649  35.478  1.00  0.00    -0.206 F 
ATOM     86  C   UNL A   1      42.800  36.997  35.019  1.00  0.00     0.006 A 
ENDBRANCH  62  79
ENDBRANCH  36  37
ENDBRANCH  28  31
ENDBRANCH  26  27
ENDBRANCH  25  26
ENDBRANCH   1  25
TORSDOF 14
ENDMDL
MODEL 2
REMARK VINA RESULT:     -12.1      3.483      8.539
REMARK SMILES CS(=O)(=O)c1ccc(/C=C(/C(=O)NCCCCNC(=O)c2ccc(-c3c4nc(c(-c5c(F)cccc5F)c5ccc([nH]5)c(-c5c(F)cccc5F)c5nc(c(-c6c(F)cccc6F)c6ccc3[nH]6)C=C5)C=C4)cc2)c2ccccc2)cc1
REMARK SMILES IDX 15 1 14 2 13 3 11 4 12 5 10 7 9 8 8 9 5 10 6 11 82 12 7 13
REMARK SMILES IDX 81 14 2 15 1 16 3 17 4 18 75 19 76 20 80 21 77 22 79 23
REMARK SMILES IDX 78 24 16 25 17 26 18 27 19 28 20 30 21 31 22 32 74 33 23 34
REMARK SMILES IDX 73 35 24 36 25 37 26 38 67 39 27 40 72 41 66 42 68 43 28 44
REMARK SMILES IDX 71 45 65 46 64 47 29 49 55 50 38 51 54 52 39 53 42 54 53 55
REMARK SMILES IDX 69 56 40 57 41 58 52 60 70 61 43 62 30 63 31 64 36 65 32 66
REMARK SMILES IDX 33 67 35 68 37 69 34 70 56 71 57 72 62 73 58 74 59 75 61 76
REMARK SMILES IDX 63 77 60 78 44 79 45 80 50 81 46 82 47 83 49 84 51 85 48 86
REMARK H PARENT 13 6 18 29 68 48 42 59
REMARK Flexibility Score: inf
ROOT
ATOM      1  C   UNL A   1      32.134  26.652  26.492  1.00  0.00     0.023 C 
ENDROOT
BRANCH   1   2
ATOM      2  C   UNL A   1      31.215  26.403  25.292  1.00  0.00     0.116 C 
BRANCH   2   3
ATOM      3  N   UNL A   1      31.939  26.626  24.057  1.00  0.00    -0.352 N 
ATOM      4  C   UNL A   1      32.810  25.875  23.330  1.00  0.00     0.251 C 
ATOM      5  O   UNL A   1      33.292  26.426  22.336  1.00  0.00    -0.269 OA
ATOM      6  H   UNL A   1      31.764  27.509  23.660  1.00  0.00     0.163 HD
BRANCH   4   7
ATOM      7  C   UNL A   1      33.119  24.426  23.636  1.00  0.00     0.047 C 
ATOM      8  C   UNL A   1      32.140  23.498  23.737  1.00  0.00     0.022 C 
BRANCH   8   9
ATOM      9  C   UNL A   1      32.249  22.030  23.889  1.00  0.00    -0.025 A 
ATOM     10  C   UNL A   1      32.633  19.250  23.974  1.00  0.00     0.067 A 
ATOM     11  C   UNL A   1      32.684  20.000  25.152  1.00  0.00     0.021 A 
ATOM     12  C   UNL A   1      32.341  19.866  22.759  1.00  0.00     0.021 A 
ATOM     13  C   UNL A   1      32.471  21.382  25.108  1.00  0.00     0.009 A 
ATOM     14  C   UNL A   1      32.147  21.251  22.724  1.00  0.00     0.009 A 
BRANCH  10  15
ATOM     15  S   UNL A   1      32.981  17.508  24.045  1.00  0.00     0.175 S 
ATOM     16  C   UNL A   1      34.681  17.368  24.519  1.00  0.00     0.163 C 
ATOM     17  O   UNL A   1      32.879  16.996  22.689  1.00  0.00    -0.224 OA
ATOM     18  O   UNL A   1      32.167  16.967  25.113  1.00  0.00    -0.224 OA
ENDBRANCH  10  15
ENDBRANCH   8   9
BRANCH   7  19
ATOM     19  C   UNL A   1      34.524  24.100  23.994  1.00  0.00    -0.013 A 
ATOM     20  C   UNL A   1      34.994  24.460  25.269  1.00  0.00     0.009 A 
ATOM     21  C   UNL A   1      35.371  23.381  23.142  1.00  0.00     0.009 A 
ATOM     22  C   UNL A   1      36.270  24.089  25.694  1.00  0.00     0.001 A 
ATOM     23  C   UNL A   1      36.643  22.994  23.577  1.00  0.00     0.001 A 
ATOM     24  C   UNL A   1      37.089  23.345  24.852  1.00  0.00     0.000 A 
ENDBRANCH   7  19
ENDBRANCH   4   7
ENDBRANCH   2   3
ENDBRANCH   1   2
BRANCH   1  25
ATOM     25  C   UNL A   1      32.189  28.115  26.948  1.00  0.00     0.023 C 
BRANCH  25  26
ATOM     26  C   UNL A   1      33.579  28.629  27.310  1.00  0.00     0.116 C 
BRANCH  26  27
ATOM     27  N   UNL A   1      33.581  30.023  27.727  1.00  0.00    -0.352 N 
ATOM     28  C   UNL A   1      34.597  30.744  28.305  1.00  0.00     0.251 C 
ATOM     29  H   UNL A   1      32.742  30.515  27.574  1.00  0.00     0.163 HD
ATOM     30  O   UNL A   1      34.402  31.887  28.705  1.00  0.00    -0.269 OA
BRANCH  28  31
ATOM     31  C   UNL A   1      35.919  30.110  28.477  1.00  0.00     0.039 A 
ATOM     32  C   UNL A   1      36.830  30.153  27.421  1.00  0.00     0.014 A 
ATOM     33  C   UNL A   1      36.269  29.523  29.696  1.00  0.00     0.014 A 
ATOM     34  C   UNL A   1      38.129  29.678  27.613  1.00  0.00     0.010 A 
ATOM     35  C   UNL A   1      37.579  29.109  29.906  1.00  0.00     0.010 A 
ATOM     36  C   UNL A   1      38.525  29.196  28.871  1.00  0.00    -0.014 A 
BRANCH  36  37
ATOM     37  C   UNL A   1      39.931  28.802  29.141  1.00  0.00     0.031 A 
ATOM     38  C   UNL A   1      40.879  29.781  29.770  1.00  0.00     0.074 A 
ATOM     39  C   UNL A   1      40.369  27.593  28.738  1.00  0.00     0.049 A 
ATOM     40  N   UNL A   1      42.166  29.665  29.981  1.00  0.00    -0.248 NA
ATOM     41  C   UNL A   1      40.314  31.071  30.194  1.00  0.00     0.031 C 
ATOM     42  C   UNL A   1      39.553  26.571  28.081  1.00  0.00     0.029 A 
ATOM     43  N   UNL A   1      41.617  27.026  28.809  1.00  0.00    -0.354 N 
ATOM     44  C   UNL A   1      42.564  30.866  30.551  1.00  0.00     0.074 A 
ATOM     45  C   UNL A   1      41.394  31.717  30.607  1.00  0.00     0.031 C 
ATOM     46  C   UNL A   1      40.317  25.497  27.823  1.00  0.00     0.029 A 
ATOM     47  C   UNL A   1      41.683  25.770  28.254  1.00  0.00     0.049 A 
ATOM     48  H   UNL A   1      42.392  27.477  29.217  1.00  0.00     0.167 HD
ATOM     49  C   UNL A   1      43.789  31.221  31.006  1.00  0.00     0.037 A 
ATOM     50  C   UNL A   1      42.732  24.941  28.097  1.00  0.00     0.037 A 
ATOM     51  C   UNL A   1      44.944  30.364  30.967  1.00  0.00     0.049 A 
ATOM     52  C   UNL A   1      44.089  25.373  28.580  1.00  0.00     0.074 A 
ATOM     53  C   UNL A   1      46.215  30.610  31.457  1.00  0.00     0.029 A 
ATOM     54  N   UNL A   1      44.970  29.099  30.402  1.00  0.00    -0.354 N 
ATOM     55  N   UNL A   1      44.438  26.487  29.176  1.00  0.00    -0.248 NA
ATOM     56  C   UNL A   1      45.200  24.433  28.365  1.00  0.00     0.031 C 
ATOM     57  C   UNL A   1      47.022  29.510  31.149  1.00  0.00     0.029 A 
ATOM     58  C   UNL A   1      46.242  28.561  30.506  1.00  0.00     0.049 A 
ATOM     59  H   UNL A   1      44.199  28.648  29.988  1.00  0.00     0.167 HD
ATOM     60  C   UNL A   1      45.798  26.373  29.429  1.00  0.00     0.074 A 
ATOM     61  C   UNL A   1      46.210  25.076  28.935  1.00  0.00     0.031 C 
ATOM     62  C   UNL A   1      46.633  27.265  30.017  1.00  0.00     0.037 A 
BRANCH  49  63
ATOM     63  C   UNL A   1      43.939  32.592  31.594  1.00  0.00     0.057 A 
ATOM     64  C   UNL A   1      44.281  33.698  30.805  1.00  0.00     0.134 A 
ATOM     65  C   UNL A   1      43.700  32.820  32.955  1.00  0.00     0.134 A 
ATOM     66  F   UNL A   1      44.535  33.546  29.496  1.00  0.00    -0.206 F 
ATOM     67  C   UNL A   1      44.403  34.977  31.351  1.00  0.00     0.040 A 
ATOM     68  C   UNL A   1      43.792  34.098  33.508  1.00  0.00     0.040 A 
ATOM     69  F   UNL A   1      43.363  31.805  33.766  1.00  0.00    -0.206 F 
ATOM     70  C   UNL A   1      44.150  35.180  32.706  1.00  0.00     0.006 A 
ENDBRANCH  49  63
BRANCH  50  71
ATOM     71  C   UNL A   1      42.545  23.613  27.459  1.00  0.00     0.057 A 
ATOM     72  C   UNL A   1      42.630  23.464  26.070  1.00  0.00     0.134 A 
ATOM     73  C   UNL A   1      42.263  22.468  28.214  1.00  0.00     0.134 A 
ATOM     74  F   UNL A   1      42.879  24.527  25.292  1.00  0.00    -0.206 F 
ATOM     75  C   UNL A   1      42.420  22.230  25.452  1.00  0.00     0.040 A 
ATOM     76  C   UNL A   1      42.075  21.223  27.612  1.00  0.00     0.040 A 
ATOM     77  F   UNL A   1      42.175  22.544  29.550  1.00  0.00    -0.206 F 
ATOM     78  C   UNL A   1      42.146  21.104  26.225  1.00  0.00     0.006 A 
ENDBRANCH  50  71
BRANCH  62  79
ATOM     79  C   UNL A   1      48.067  26.859  30.184  1.00  0.00     0.057 A 
ATOM     80  C   UNL A   1      48.482  26.041  31.242  1.00  0.00     0.134 A 
ATOM     81  C   UNL A   1      49.031  27.243  29.244  1.00  0.00     0.134 A 
ATOM     82  F   UNL A   1      47.610  25.650  32.183  1.00  0.00    -0.206 F 
ATOM     83  C   UNL A   1      49.810  25.631  31.366  1.00  0.00     0.040 A 
ATOM     84  C   UNL A   1      50.356  26.819  29.344  1.00  0.00     0.040 A 
ATOM     85  F   UNL A   1      48.695  28.020  28.202  1.00  0.00    -0.206 F 
ATOM     86  C   UNL A   1      50.749  26.013  30.410  1.00  0.00     0.006 A 
ENDBRANCH  62  79
ENDBRANCH  36  37
ENDBRANCH  28  31
ENDBRANCH  26  27
ENDBRANCH  25  26
ENDBRANCH   1  25
TORSDOF 14
ENDMDL
MODEL 3
REMARK VINA RESULT:     -12.0      2.675      7.274
REMARK SMILES CS(=O)(=O)c1ccc(/C=C(/C(=O)NCCCCNC(=O)c2ccc(-c3c4nc(c(-c5c(F)cccc5F)c5ccc([nH]5)c(-c5c(F)cccc5F)c5nc(c(-c6c(F)cccc6F)c6ccc3[nH]6)C=C5)C=C4)cc2)c2ccccc2)cc1
REMARK SMILES IDX 15 1 14 2 13 3 11 4 12 5 10 7 9 8 8 9 5 10 6 11 82 12 7 13
REMARK SMILES IDX 81 14 2 15 1 16 3 17 4 18 75 19 76 20 80 21 77 22 79 23
REMARK SMILES IDX 78 24 16 25 17 26 18 27 19 28 20 30 21 31 22 32 74 33 23 34
REMARK SMILES IDX 73 35 24 36 25 37 26 38 67 39 27 40 72 41 66 42 68 43 28 44
REMARK SMILES IDX 71 45 65 46 64 47 29 49 55 50 38 51 54 52 39 53 42 54 53 55
REMARK SMILES IDX 69 56 40 57 41 58 52 60 70 61 43 62 30 63 31 64 36 65 32 66
REMARK SMILES IDX 33 67 35 68 37 69 34 70 56 71 57 72 62 73 58 74 59 75 61 76
REMARK SMILES IDX 63 77 60 78 44 79 45 80 50 81 46 82 47 83 49 84 51 85 48 86
REMARK H PARENT 13 6 18 29 68 48 42 59
REMARK Flexibility Score: inf
ROOT
ATOM      1  C   UNL A   1      36.822  22.035  24.314  1.00  0.00     0.023 C 
ENDROOT
BRANCH   1   2
ATOM      2  C   UNL A   1      36.679  23.150  25.354  1.00  0.00     0.116 C 
BRANCH   2   3
ATOM      3  N   UNL A   1      35.853  22.698  26.456  1.00  0.00    -0.352 N 
ATOM      4  C   UNL A   1      34.561  22.923  26.816  1.00  0.00     0.251 C 
ATOM      5  O   UNL A   1      34.203  22.410  27.879  1.00  0.00    -0.269 OA
ATOM      6  H   UNL A   1      36.330  22.102  27.078  1.00  0.00     0.163 HD
BRANCH   4   7
ATOM      7  C   UNL A   1      33.571  23.668  25.946  1.00  0.00     0.047 C 
ATOM      8  C   UNL A   1      32.876  24.731  26.412  1.00  0.00     0.022 C 
BRANCH   8   9
ATOM      9  C   UNL A   1      31.983  25.660  25.686  1.00  0.00    -0.025 A 
ATOM     10  C   UNL A   1      30.466  27.418  24.108  1.00  0.00     0.067 A 
ATOM     11  C   UNL A   1      29.854  26.320  24.719  1.00  0.00     0.021 A 
ATOM     12  C   UNL A   1      31.818  27.677  24.318  1.00  0.00     0.021 A 
ATOM     13  C   UNL A   1      30.609  25.459  25.521  1.00  0.00     0.009 A 
ATOM     14  C   UNL A   1      32.568  26.800  25.109  1.00  0.00     0.009 A 
BRANCH  10  15
ATOM     15  S   UNL A   1      29.502  28.455  23.033  1.00  0.00     0.175 S 
ATOM     16  C   UNL A   1      29.681  30.103  23.656  1.00  0.00     0.163 C 
ATOM     17  O   UNL A   1      28.109  28.085  23.217  1.00  0.00    -0.224 OA
ATOM     18  O   UNL A   1      30.128  28.394  21.728  1.00  0.00    -0.224 OA
ENDBRANCH  10  15
ENDBRANCH   8   9
BRANCH   7  19
ATOM     19  C   UNL A   1      33.267  23.076  24.617  1.00  0.00    -0.013 A 
ATOM     20  C   UNL A   1      32.528  21.882  24.566  1.00  0.00     0.009 A 
ATOM     21  C   UNL A   1      33.621  23.702  23.415  1.00  0.00     0.009 A 
ATOM     22  C   UNL A   1      32.129  21.338  23.345  1.00  0.00     0.001 A 
ATOM     23  C   UNL A   1      33.203  23.165  22.193  1.00  0.00     0.001 A 
ATOM     24  C   UNL A   1      32.455  21.986  22.159  1.00  0.00     0.000 A 
ENDBRANCH   7  19
ENDBRANCH   4   7
ENDBRANCH   2   3
ENDBRANCH   1   2
BRANCH   1  25
ATOM     25  C   UNL A   1      37.448  20.745  24.857  1.00  0.00     0.023 C 
BRANCH  25  26
ATOM     26  C   UNL A   1      38.684  20.942  25.729  1.00  0.00     0.116 C 
BRANCH  26  27
ATOM     27  N   UNL A   1      39.617  19.828  25.656  1.00  0.00    -0.352 N 
ATOM     28  C   UNL A   1      40.951  19.803  25.981  1.00  0.00     0.251 C 
ATOM     29  H   UNL A   1      39.241  18.978  25.332  1.00  0.00     0.163 HD
ATOM     30  O   UNL A   1      41.630  18.807  25.754  1.00  0.00    -0.269 OA
BRANCH  28  31
ATOM     31  C   UNL A   1      41.569  21.008  26.569  1.00  0.00     0.039 A 
ATOM     32  C   UNL A   1      42.133  21.960  25.718  1.00  0.00     0.014 A 
ATOM     33  C   UNL A   1      41.542  21.214  27.951  1.00  0.00     0.014 A 
ATOM     34  C   UNL A   1      42.599  23.165  26.247  1.00  0.00     0.010 A 
ATOM     35  C   UNL A   1      41.949  22.439  28.468  1.00  0.00     0.010 A 
ATOM     36  C   UNL A   1      42.468  23.431  27.620  1.00  0.00    -0.014 A 
BRANCH  36  37
ATOM     37  C   UNL A   1      42.839  24.750  28.191  1.00  0.00     0.031 A 
ATOM     38  C   UNL A   1      41.788  25.801  28.403  1.00  0.00     0.074 A 
ATOM     39  C   UNL A   1      44.135  25.025  28.435  1.00  0.00     0.049 A 
ATOM     40  N   UNL A   1      41.929  27.045  28.783  1.00  0.00    -0.248 NA
ATOM     41  C   UNL A   1      40.397  25.410  28.128  1.00  0.00     0.031 C 
ATOM     42  C   UNL A   1      45.251  24.100  28.232  1.00  0.00     0.029 A 
ATOM     43  N   UNL A   1      44.734  26.173  28.892  1.00  0.00    -0.354 N 
ATOM     44  C   UNL A   1      40.651  27.587  28.782  1.00  0.00     0.074 A 
ATOM     45  C   UNL A   1      39.753  26.552  28.316  1.00  0.00     0.031 C 
ATOM     46  C   UNL A   1      46.397  24.711  28.577  1.00  0.00     0.029 A 
ATOM     47  C   UNL A   1      46.102  26.081  28.983  1.00  0.00     0.049 A 
ATOM     48  H   UNL A   1      44.231  26.985  29.131  1.00  0.00     0.167 HD
ATOM     49  C   UNL A   1      40.259  28.828  29.155  1.00  0.00     0.037 A 
ATOM     50  C   UNL A   1      47.016  27.004  29.336  1.00  0.00     0.037 A 
ATOM     51  C   UNL A   1      41.154  29.847  29.637  1.00  0.00     0.049 A 
ATOM     52  C   UNL A   1      46.558  28.385  29.714  1.00  0.00     0.074 A 
ATOM     53  C   UNL A   1      40.846  31.116  30.097  1.00  0.00     0.029 A 
ATOM     54  N   UNL A   1      42.531  29.715  29.719  1.00  0.00    -0.354 N 
ATOM     55  N   UNL A   1      45.339  28.865  29.769  1.00  0.00    -0.248 NA
ATOM     56  C   UNL A   1      47.602  29.356  30.073  1.00  0.00     0.031 C 
ATOM     57  C   UNL A   1      42.042  31.767  30.414  1.00  0.00     0.029 A 
ATOM     58  C   UNL A   1      43.091  30.888  30.195  1.00  0.00     0.049 A 
ATOM     59  H   UNL A   1      43.038  28.906  29.474  1.00  0.00     0.167 HD
ATOM     60  C   UNL A   1      45.467  30.180  30.193  1.00  0.00     0.074 A 
ATOM     61  C   UNL A   1      46.881  30.421  30.394  1.00  0.00     0.031 C 
ATOM     62  C   UNL A   1      44.500  31.108  30.397  1.00  0.00     0.037 A 
BRANCH  49  63
ATOM     63  C   UNL A   1      38.798  29.149  29.065  1.00  0.00     0.057 A 
ATOM     64  C   UNL A   1      37.953  29.059  30.178  1.00  0.00     0.134 A 
ATOM     65  C   UNL A   1      38.234  29.594  27.862  1.00  0.00     0.134 A 
ATOM     66  F   UNL A   1      38.427  28.627  31.357  1.00  0.00    -0.206 F 
ATOM     67  C   UNL A   1      36.596  29.376  30.095  1.00  0.00     0.040 A 
ATOM     68  C   UNL A   1      36.885  29.939  27.772  1.00  0.00     0.040 A 
ATOM     69  F   UNL A   1      38.989  29.709  26.758  1.00  0.00    -0.206 F 
ATOM     70  C   UNL A   1      36.061  29.825  28.890  1.00  0.00     0.006 A 
ENDBRANCH  49  63
BRANCH  50  71
ATOM     71  C   UNL A   1      48.460  26.655  29.358  1.00  0.00     0.057 A 
ATOM     72  C   UNL A   1      49.041  26.067  30.487  1.00  0.00     0.134 A 
ATOM     73  C   UNL A   1      49.295  26.915  28.264  1.00  0.00     0.134 A 
ATOM     74  F   UNL A   1      48.297  25.813  31.573  1.00  0.00    -0.206 F 
ATOM     75  C   UNL A   1      50.404  25.768  30.537  1.00  0.00     0.040 A 
ATOM     76  C   UNL A   1      50.654  26.598  28.291  1.00  0.00     0.040 A 
ATOM     77  F   UNL A   1      48.797  27.471  27.150  1.00  0.00    -0.206 F 
ATOM     78  C   UNL A   1      51.213  26.030  29.434  1.00  0.00     0.006 A 
ENDBRANCH  50  71
BRANCH  62  79
ATOM     79  C   UNL A   1      44.932  32.458  30.886  1.00  0.00     0.057 A 
ATOM     80  C   UNL A   1      45.189  33.513  30.002  1.00  0.00     0.134 A 
ATOM     81  C   UNL A   1      45.039  32.720  32.257  1.00  0.00     0.134 A 
ATOM     82  F   UNL A   1      45.118  33.323  28.675  1.00  0.00    -0.206 F 
ATOM     83  C   UNL A   1      45.548  34.780  30.466  1.00  0.00     0.040 A 
ATOM     84  C   UNL A   1      45.373  33.988  32.733  1.00  0.00     0.040 A 
ATOM     85  F   UNL A   1      44.799  31.753  33.156  1.00  0.00    -0.206 F 
ATOM     86  C   UNL A   1      45.633  35.021  31.835  1.00  0.00     0.006 A 
ENDBRANCH  62  79
ENDBRANCH  36  37
ENDBRANCH  28  31
ENDBRANCH  26  27
ENDBRANCH  25  26
ENDBRANCH   1  25
TORSDOF 14
ENDMDL
