MODEL 1
REMARK VINA RESULT:     -12.7      0.000      0.000
REMARK SMILES Cc1ccc(C(=O)N2C[C@H](C(=O)NCCCCNC(=O)c3ccc(-c4c5nc(c(-c6c(F)cccc6F)c6ccc([nH]6)c(-c6c(F)cccc6F)c6nc(c(-c7c(F)cccc7F)c7ccc4[nH]7)C=C6)C=C5)cc3)Oc3ccccc32)o1
REMARK SMILES IDX 15 1 14 2 13 3 11 4 12 5 10 7 8 8 9 9 81 10 76 11 80 12
REMARK SMILES IDX 75 13 77 14 79 15 78 16 6 17 7 18 5 19 1 20 2 21 3 22 82 23
REMARK SMILES IDX 4 24 16 25 17 26 18 27 19 28 20 30 21 31 22 32 74 33 23 34
REMARK SMILES IDX 73 35 24 36 25 37 26 38 67 39 27 40 72 41 66 42 68 43 28 44
REMARK SMILES IDX 71 45 65 46 64 47 29 49 55 50 38 51 54 52 39 53 42 54 53 55
REMARK SMILES IDX 69 56 40 57 41 58 52 60 70 61 43 62 30 63 31 64 36 65 32 66
REMARK SMILES IDX 33 67 35 68 37 69 34 70 56 71 57 72 62 73 58 74 59 75 61 76
REMARK SMILES IDX 63 77 60 78 44 79 45 80 50 81 46 82 47 83 49 84 51 85 48 86
REMARK H PARENT 13 6 18 29 68 48 42 59
REMARK Flexibility Score: inf
ROOT
ATOM      1  C   UNL A   1      34.370  22.054  25.550  1.00  0.00     0.023 C 
ENDROOT
BRANCH   1   2
ATOM      2  C   UNL A   1      33.091  22.631  24.945  1.00  0.00     0.116 C 
BRANCH   2   3
ATOM      3  N   UNL A   1      32.042  22.773  25.942  1.00  0.00    -0.353 N 
ATOM      4  C   UNL A   1      31.370  23.889  26.361  1.00  0.00     0.262 C 
ATOM      5  O   UNL A   1      30.529  23.743  27.251  1.00  0.00    -0.271 OA
ATOM      6  H   UNL A   1      31.774  21.936  26.384  1.00  0.00     0.163 HD
BRANCH   4   7
ATOM      7  C   UNL A   1      31.689  25.280  25.799  1.00  0.00     0.281 C 
ATOM      8  N   UNL A   1      30.833  27.024  24.267  1.00  0.00    -0.298 N 
ATOM      9  C   UNL A   1      30.626  25.671  24.780  1.00  0.00     0.181 C 
ATOM     10  C   UNL A   1      31.360  27.963  25.208  1.00  0.00     0.087 A 
ATOM     11  C   UNL A   1      31.779  27.523  26.477  1.00  0.00     0.144 A 
ATOM     12  C   UNL A   1      31.374  29.342  24.953  1.00  0.00     0.030 A 
ATOM     13  O   UNL A   1      31.798  26.210  26.875  1.00  0.00    -0.477 OA
ATOM     14  C   UNL A   1      32.172  28.434  27.461  1.00  0.00     0.049 A 
ATOM     15  C   UNL A   1      31.776  30.252  25.936  1.00  0.00     0.002 A 
ATOM     16  C   UNL A   1      32.170  29.800  27.191  1.00  0.00     0.004 A 
BRANCH   8  17
ATOM     17  C   UNL A   1      30.524  27.370  22.941  1.00  0.00     0.294 C 
ATOM     18  O   UNL A   1      31.258  27.045  22.006  1.00  0.00    -0.265 OA
BRANCH  17  19
ATOM     19  C   UNL A   1      29.327  28.175  22.722  1.00  0.00     0.192 A 
ATOM     20  C   UNL A   1      28.176  31.160  21.108  1.00  0.00     0.087 C 
ATOM     21  C   UNL A   1      28.246  29.923  21.910  1.00  0.00     0.101 A 
ATOM     22  C   UNL A   1      27.359  29.280  22.741  1.00  0.00     0.046 A 
ATOM     23  O   UNL A   1      29.430  29.256  21.883  1.00  0.00    -0.456 OA
ATOM     24  C   UNL A   1      28.055  28.168  23.274  1.00  0.00     0.056 A 
ENDBRANCH  17  19
ENDBRANCH   8  17
ENDBRANCH   4   7
ENDBRANCH   2   3
ENDBRANCH   1   2
BRANCH   1  25
ATOM     25  C   UNL A   1      35.173  23.026  26.419  1.00  0.00     0.023 C 
BRANCH  25  26
ATOM     26  C   UNL A   1      36.500  23.495  25.829  1.00  0.00     0.116 C 
BRANCH  26  27
ATOM     27  N   UNL A   1      37.574  22.533  26.003  1.00  0.00    -0.352 N 
ATOM     28  C   UNL A   1      38.855  22.730  26.454  1.00  0.00     0.251 C 
ATOM     29  H   UNL A   1      37.351  21.605  25.763  1.00  0.00     0.163 HD
ATOM     30  O   UNL A   1      39.653  21.795  26.433  1.00  0.00    -0.269 OA
BRANCH  28  31
ATOM     31  C   UNL A   1      39.296  24.057  26.937  1.00  0.00     0.039 A 
ATOM     32  C   UNL A   1      39.906  24.923  26.024  1.00  0.00     0.014 A 
ATOM     33  C   UNL A   1      39.162  24.435  28.277  1.00  0.00     0.014 A 
ATOM     34  C   UNL A   1      40.344  26.182  26.441  1.00  0.00     0.010 A 
ATOM     35  C   UNL A   1      39.557  25.710  28.683  1.00  0.00     0.010 A 
ATOM     36  C   UNL A   1      40.158  26.588  27.770  1.00  0.00    -0.014 A 
BRANCH  36  37
ATOM     37  C   UNL A   1      40.622  27.919  28.226  1.00  0.00     0.031 A 
ATOM     38  C   UNL A   1      42.085  28.257  28.195  1.00  0.00     0.074 A 
ATOM     39  C   UNL A   1      39.734  28.808  28.707  1.00  0.00     0.049 A 
ATOM     40  N   UNL A   1      42.690  29.344  28.598  1.00  0.00    -0.248 NA
ATOM     41  C   UNL A   1      42.989  27.227  27.659  1.00  0.00     0.031 C 
ATOM     42  C   UNL A   1      38.293  28.584  28.828  1.00  0.00     0.029 A 
ATOM     43  N   UNL A   1      39.918  30.078  29.190  1.00  0.00    -0.354 N 
ATOM     44  C   UNL A   1      44.045  29.120  28.394  1.00  0.00     0.074 A 
ATOM     45  C   UNL A   1      44.176  27.786  27.846  1.00  0.00     0.031 C 
ATOM     46  C   UNL A   1      37.720  29.689  29.335  1.00  0.00     0.029 A 
ATOM     47  C   UNL A   1      38.754  30.688  29.587  1.00  0.00     0.049 A 
ATOM     48  H   UNL A   1      40.800  30.511  29.245  1.00  0.00     0.167 HD
ATOM     49  C   UNL A   1      45.086  29.952  28.632  1.00  0.00     0.037 A 
ATOM     50  C   UNL A   1      38.547  31.919  30.088  1.00  0.00     0.037 A 
ATOM     51  C   UNL A   1      44.959  31.292  29.138  1.00  0.00     0.049 A 
ATOM     52  C   UNL A   1      39.708  32.854  30.264  1.00  0.00     0.074 A 
ATOM     53  C   UNL A   1      45.954  32.222  29.389  1.00  0.00     0.029 A 
ATOM     54  N   UNL A   1      43.754  31.901  29.454  1.00  0.00    -0.354 N 
ATOM     55  N   UNL A   1      40.981  32.638  30.041  1.00  0.00    -0.248 NA
ATOM     56  C   UNL A   1      39.402  34.209  30.746  1.00  0.00     0.031 C 
ATOM     57  C   UNL A   1      45.349  33.394  29.861  1.00  0.00     0.029 A 
ATOM     58  C   UNL A   1      43.979  33.196  29.885  1.00  0.00     0.049 A 
ATOM     59  H   UNL A   1      42.870  31.474  29.381  1.00  0.00     0.167 HD
ATOM     60  C   UNL A   1      41.625  33.831  30.333  1.00  0.00     0.074 A 
ATOM     61  C   UNL A   1      40.603  34.772  30.745  1.00  0.00     0.031 C 
ATOM     62  C   UNL A   1      42.946  34.122  30.267  1.00  0.00     0.037 A 
BRANCH  49  63
ATOM     63  C   UNL A   1      46.457  29.427  28.343  1.00  0.00     0.057 A 
ATOM     64  C   UNL A   1      47.225  28.799  29.331  1.00  0.00     0.134 A 
ATOM     65  C   UNL A   1      47.010  29.540  27.062  1.00  0.00     0.134 A 
ATOM     66  F   UNL A   1      46.754  28.678  30.581  1.00  0.00    -0.206 F 
ATOM     67  C   UNL A   1      48.505  28.317  29.059  1.00  0.00     0.040 A 
ATOM     68  C   UNL A   1      48.284  29.046  26.774  1.00  0.00     0.040 A 
ATOM     69  F   UNL A   1      46.324  30.133  26.073  1.00  0.00    -0.206 F 
ATOM     70  C   UNL A   1      49.036  28.437  27.776  1.00  0.00     0.006 A 
ENDBRANCH  49  63
BRANCH  50  71
ATOM     71  C   UNL A   1      37.171  32.358  30.413  1.00  0.00     0.057 A 
ATOM     72  C   UNL A   1      36.400  33.052  29.474  1.00  0.00     0.134 A 
ATOM     73  C   UNL A   1      36.596  32.093  31.660  1.00  0.00     0.134 A 
ATOM     74  F   UNL A   1      36.910  33.346  28.269  1.00  0.00    -0.206 F 
ATOM     75  C   UNL A   1      35.105  33.480  29.768  1.00  0.00     0.040 A 
ATOM     76  C   UNL A   1      35.297  32.505  31.964  1.00  0.00     0.040 A 
ATOM     77  F   UNL A   1      37.287  31.427  32.596  1.00  0.00    -0.206 F 
ATOM     78  C   UNL A   1      34.550  33.203  31.016  1.00  0.00     0.006 A 
ENDBRANCH  50  71
BRANCH  62  79
ATOM     79  C   UNL A   1      43.352  35.521  30.609  1.00  0.00     0.057 A 
ATOM     80  C   UNL A   1      43.653  35.896  31.923  1.00  0.00     0.134 A 
ATOM     81  C   UNL A   1      43.470  36.491  29.608  1.00  0.00     0.134 A 
ATOM     82  F   UNL A   1      43.545  35.010  32.925  1.00  0.00    -0.206 F 
ATOM     83  C   UNL A   1      44.048  37.198  32.232  1.00  0.00     0.040 A 
ATOM     84  C   UNL A   1      43.874  37.793  29.903  1.00  0.00     0.040 A 
ATOM     85  F   UNL A   1      43.194  36.188  28.330  1.00  0.00    -0.206 F 
ATOM     86  C   UNL A   1      44.163  38.149  31.220  1.00  0.00     0.006 A 
ENDBRANCH  62  79
ENDBRANCH  36  37
ENDBRANCH  28  31
ENDBRANCH  26  27
ENDBRANCH  25  26
ENDBRANCH   1  25
TORSDOF 13
ENDMDL
MODEL 2
REMARK VINA RESULT:     -12.6      3.048      8.471
REMARK SMILES Cc1ccc(C(=O)N2C[C@H](C(=O)NCCCCNC(=O)c3ccc(-c4c5nc(c(-c6c(F)cccc6F)c6ccc([nH]6)c(-c6c(F)cccc6F)c6nc(c(-c7c(F)cccc7F)c7ccc4[nH]7)C=C6)C=C5)cc3)Oc3ccccc32)o1
REMARK SMILES IDX 15 1 14 2 13 3 11 4 12 5 10 7 8 8 9 9 81 10 76 11 80 12
REMARK SMILES IDX 75 13 77 14 79 15 78 16 6 17 7 18 5 19 1 20 2 21 3 22 82 23
REMARK SMILES IDX 4 24 16 25 17 26 18 27 19 28 20 30 21 31 22 32 74 33 23 34
REMARK SMILES IDX 73 35 24 36 25 37 26 38 67 39 27 40 72 41 66 42 68 43 28 44
REMARK SMILES IDX 71 45 65 46 64 47 29 49 55 50 38 51 54 52 39 53 42 54 53 55
REMARK SMILES IDX 69 56 40 57 41 58 52 60 70 61 43 62 30 63 31 64 36 65 32 66
REMARK SMILES IDX 33 67 35 68 37 69 34 70 56 71 57 72 62 73 58 74 59 75 61 76
REMARK SMILES IDX 63 77 60 78 44 79 45 80 50 81 46 82 47 83 49 84 51 85 48 86
REMARK H PARENT 13 6 18 29 68 48 42 59
REMARK Flexibility Score: inf
ROOT
ATOM      1  C   UNL A   1      32.722  28.291  24.574  1.00  0.00     0.023 C 
ENDROOT
BRANCH   1   2
ATOM      2  C   UNL A   1      32.027  26.988  24.179  1.00  0.00     0.116 C 
BRANCH   2   3
ATOM      3  N   UNL A   1      32.408  26.561  22.843  1.00  0.00    -0.353 N 
ATOM      4  C   UNL A   1      33.048  25.424  22.430  1.00  0.00     0.262 C 
ATOM      5  O   UNL A   1      33.277  25.308  21.223  1.00  0.00    -0.271 OA
ATOM      6  H   UNL A   1      32.166  27.186  22.122  1.00  0.00     0.163 HD
BRANCH   4   7
ATOM      7  C   UNL A   1      33.523  24.360  23.427  1.00  0.00     0.281 C 
ATOM      8  N   UNL A   1      33.119  22.030  24.156  1.00  0.00    -0.298 N 
ATOM      9  C   UNL A   1      32.662  23.111  23.285  1.00  0.00     0.181 C 
ATOM     10  C   UNL A   1      34.534  21.955  24.349  1.00  0.00     0.087 A 
ATOM     11  C   UNL A   1      35.365  22.970  23.840  1.00  0.00     0.144 A 
ATOM     12  C   UNL A   1      35.145  20.839  24.939  1.00  0.00     0.030 A 
ATOM     13  O   UNL A   1      34.911  24.106  23.220  1.00  0.00    -0.477 OA
ATOM     14  C   UNL A   1      36.757  22.856  23.898  1.00  0.00     0.049 A 
ATOM     15  C   UNL A   1      36.538  20.731  25.003  1.00  0.00     0.002 A 
ATOM     16  C   UNL A   1      37.344  21.735  24.478  1.00  0.00     0.004 A 
BRANCH   8  17
ATOM     17  C   UNL A   1      32.223  21.128  24.752  1.00  0.00     0.294 C 
ATOM     18  O   UNL A   1      31.419  21.494  25.610  1.00  0.00    -0.265 OA
BRANCH  17  19
ATOM     19  C   UNL A   1      32.319  19.727  24.350  1.00  0.00     0.192 A 
ATOM     20  C   UNL A   1      32.617  16.413  25.679  1.00  0.00     0.087 C 
ATOM     21  C   UNL A   1      32.528  17.567  24.763  1.00  0.00     0.101 A 
ATOM     22  C   UNL A   1      32.645  17.707  23.400  1.00  0.00     0.046 A 
ATOM     23  O   UNL A   1      32.318  18.779  25.342  1.00  0.00    -0.456 OA
ATOM     24  C   UNL A   1      32.527  19.092  23.135  1.00  0.00     0.056 A 
ENDBRANCH  17  19
ENDBRANCH   8  17
ENDBRANCH   4   7
ENDBRANCH   2   3
ENDBRANCH   1   2
BRANCH   1  25
ATOM     25  C   UNL A   1      34.027  28.120  25.356  1.00  0.00     0.023 C 
BRANCH  25  26
ATOM     26  C   UNL A   1      33.894  28.166  26.876  1.00  0.00     0.116 C 
BRANCH  26  27
ATOM     27  N   UNL A   1      33.678  29.507  27.389  1.00  0.00    -0.352 N 
ATOM     28  C   UNL A   1      34.540  30.330  28.070  1.00  0.00     0.251 C 
ATOM     29  H   UNL A   1      32.782  29.881  27.226  1.00  0.00     0.163 HD
ATOM     30  O   UNL A   1      34.130  31.401  28.513  1.00  0.00    -0.269 OA
BRANCH  28  31
ATOM     31  C   UNL A   1      35.946  29.932  28.301  1.00  0.00     0.039 A 
ATOM     32  C   UNL A   1      36.856  30.081  27.248  1.00  0.00     0.014 A 
ATOM     33  C   UNL A   1      36.365  29.374  29.513  1.00  0.00     0.014 A 
ATOM     34  C   UNL A   1      38.191  29.710  27.422  1.00  0.00     0.010 A 
ATOM     35  C   UNL A   1      37.708  29.047  29.701  1.00  0.00     0.010 A 
ATOM     36  C   UNL A   1      38.628  29.205  28.655  1.00  0.00    -0.014 A 
BRANCH  36  37
ATOM     37  C   UNL A   1      40.041  28.805  28.851  1.00  0.00     0.031 A 
ATOM     38  C   UNL A   1      41.018  29.768  29.461  1.00  0.00     0.074 A 
ATOM     39  C   UNL A   1      40.454  27.592  28.442  1.00  0.00     0.049 A 
ATOM     40  N   UNL A   1      42.302  29.623  29.666  1.00  0.00    -0.248 NA
ATOM     41  C   UNL A   1      40.485  31.076  29.876  1.00  0.00     0.031 C 
ATOM     42  C   UNL A   1      39.612  26.582  27.798  1.00  0.00     0.029 A 
ATOM     43  N   UNL A   1      41.692  27.005  28.504  1.00  0.00    -0.354 N 
ATOM     44  C   UNL A   1      42.736  30.827  30.204  1.00  0.00     0.074 A 
ATOM     45  C   UNL A   1      41.583  31.699  30.279  1.00  0.00     0.031 C 
ATOM     46  C   UNL A   1      40.356  25.493  27.540  1.00  0.00     0.029 A 
ATOM     47  C   UNL A   1      41.724  25.734  27.986  1.00  0.00     0.049 A 
ATOM     48  H   UNL A   1      42.483  27.454  28.884  1.00  0.00     0.167 HD
ATOM     49  C   UNL A   1      43.981  31.173  30.608  1.00  0.00     0.037 A 
ATOM     50  C   UNL A   1      42.743  24.860  27.894  1.00  0.00     0.037 A 
ATOM     51  C   UNL A   1      45.122  30.298  30.574  1.00  0.00     0.049 A 
ATOM     52  C   UNL A   1      44.095  25.237  28.426  1.00  0.00     0.074 A 
ATOM     53  C   UNL A   1      46.420  30.550  30.984  1.00  0.00     0.029 A 
ATOM     54  N   UNL A   1      45.094  28.991  30.115  1.00  0.00    -0.354 N 
ATOM     55  N   UNL A   1      44.485  26.370  28.958  1.00  0.00    -0.248 NA
ATOM     56  C   UNL A   1      45.144  24.209  28.360  1.00  0.00     0.031 C 
ATOM     57  C   UNL A   1      47.180  29.393  30.770  1.00  0.00     0.029 A 
ATOM     58  C   UNL A   1      46.348  28.419  30.243  1.00  0.00     0.049 A 
ATOM     59  H   UNL A   1      44.300  28.536  29.752  1.00  0.00     0.167 HD
ATOM     60  C   UNL A   1      45.814  26.185  29.309  1.00  0.00     0.074 A 
ATOM     61  C   UNL A   1      46.164  24.830  28.936  1.00  0.00     0.031 C 
ATOM     62  C   UNL A   1      46.669  27.061  29.888  1.00  0.00     0.037 A 
BRANCH  49  63
ATOM     63  C   UNL A   1      44.167  32.565  31.125  1.00  0.00     0.057 A 
ATOM     64  C   UNL A   1      44.483  33.628  30.270  1.00  0.00     0.134 A 
ATOM     65  C   UNL A   1      44.017  32.848  32.487  1.00  0.00     0.134 A 
ATOM     66  F   UNL A   1      44.656  33.414  28.957  1.00  0.00    -0.206 F 
ATOM     67  C   UNL A   1      44.661  34.923  30.757  1.00  0.00     0.040 A 
ATOM     68  C   UNL A   1      44.177  34.143  32.983  1.00  0.00     0.040 A 
ATOM     69  F   UNL A   1      43.715  31.871  33.357  1.00  0.00    -0.206 F 
ATOM     70  C   UNL A   1      44.505  35.183  32.117  1.00  0.00     0.006 A 
ENDBRANCH  49  63
BRANCH  50  71
ATOM     71  C   UNL A   1      42.509  23.518  27.314  1.00  0.00     0.057 A 
ATOM     72  C   UNL A   1      42.653  23.297  25.941  1.00  0.00     0.134 A 
ATOM     73  C   UNL A   1      42.142  22.432  28.115  1.00  0.00     0.134 A 
ATOM     74  F   UNL A   1      42.987  24.308  25.127  1.00  0.00    -0.206 F 
ATOM     75  C   UNL A   1      42.427  22.040  25.378  1.00  0.00     0.040 A 
ATOM     76  C   UNL A   1      41.925  21.166  27.568  1.00  0.00     0.040 A 
ATOM     77  F   UNL A   1      41.995  22.586  29.439  1.00  0.00    -0.206 F 
ATOM     78  C   UNL A   1      42.065  20.970  26.194  1.00  0.00     0.006 A 
ENDBRANCH  50  71
BRANCH  62  79
ATOM     79  C   UNL A   1      48.048  26.567  30.189  1.00  0.00     0.057 A 
ATOM     80  C   UNL A   1      49.101  26.739  29.285  1.00  0.00     0.134 A 
ATOM     81  C   UNL A   1      48.328  25.940  31.408  1.00  0.00     0.134 A 
ATOM     82  F   UNL A   1      48.889  27.323  28.096  1.00  0.00    -0.206 F 
ATOM     83  C   UNL A   1      50.390  26.292  29.579  1.00  0.00     0.040 A 
ATOM     84  C   UNL A   1      49.614  25.497  31.718  1.00  0.00     0.040 A 
ATOM     85  F   UNL A   1      47.357  25.748  32.314  1.00  0.00    -0.206 F 
ATOM     86  C   UNL A   1      50.649  25.672  30.801  1.00  0.00     0.006 A 
ENDBRANCH  62  79
ENDBRANCH  36  37
ENDBRANCH  28  31
ENDBRANCH  26  27
ENDBRANCH  25  26
ENDBRANCH   1  25
TORSDOF 13
ENDMDL
MODEL 3
REMARK VINA RESULT:     -12.5      3.919      8.819
REMARK SMILES Cc1ccc(C(=O)N2C[C@H](C(=O)NCCCCNC(=O)c3ccc(-c4c5nc(c(-c6c(F)cccc6F)c6ccc([nH]6)c(-c6c(F)cccc6F)c6nc(c(-c7c(F)cccc7F)c7ccc4[nH]7)C=C6)C=C5)cc3)Oc3ccccc32)o1
REMARK SMILES IDX 15 1 14 2 13 3 11 4 12 5 10 7 8 8 9 9 81 10 76 11 80 12
REMARK SMILES IDX 75 13 77 14 79 15 78 16 6 17 7 18 5 19 1 20 2 21 3 22 82 23
REMARK SMILES IDX 4 24 16 25 17 26 18 27 19 28 20 30 21 31 22 32 74 33 23 34
REMARK SMILES IDX 73 35 24 36 25 37 26 38 67 39 27 40 72 41 66 42 68 43 28 44
REMARK SMILES IDX 71 45 65 46 64 47 29 49 55 50 38 51 54 52 39 53 42 54 53 55
REMARK SMILES IDX 69 56 40 57 41 58 52 60 70 61 43 62 30 63 31 64 36 65 32 66
REMARK SMILES IDX 33 67 35 68 37 69 34 70 56 71 57 72 62 73 58 74 59 75 61 76
REMARK SMILES IDX 63 77 60 78 44 79 45 80 50 81 46 82 47 83 49 84 51 85 48 86
REMARK H PARENT 13 6 18 29 68 48 42 59
REMARK Flexibility Score: inf
ROOT
ATOM      1  C   UNL A   1      33.483  28.146  24.474  1.00  0.00     0.023 C 
ENDROOT
BRANCH   1   2
ATOM      2  C   UNL A   1      32.369  27.204  24.019  1.00  0.00     0.116 C 
BRANCH   2   3
ATOM      3  N   UNL A   1      32.620  26.681  22.686  1.00  0.00    -0.353 N 
ATOM      4  C   UNL A   1      33.142  25.478  22.295  1.00  0.00     0.262 C 
ATOM      5  O   UNL A   1      33.275  25.283  21.084  1.00  0.00    -0.271 OA
ATOM      6  H   UNL A   1      32.376  27.286  21.949  1.00  0.00     0.163 HD
BRANCH   4   7
ATOM      7  C   UNL A   1      33.606  24.431  23.316  1.00  0.00     0.281 C 
ATOM      8  N   UNL A   1      33.175  22.124  24.099  1.00  0.00    -0.298 N 
ATOM      9  C   UNL A   1      32.730  23.190  23.204  1.00  0.00     0.181 C 
ATOM     10  C   UNL A   1      34.590  22.036  24.293  1.00  0.00     0.087 A 
ATOM     11  C   UNL A   1      35.432  23.029  23.759  1.00  0.00     0.144 A 
ATOM     12  C   UNL A   1      35.188  20.928  24.907  1.00  0.00     0.030 A 
ATOM     13  O   UNL A   1      34.991  24.156  23.113  1.00  0.00    -0.477 OA
ATOM     14  C   UNL A   1      36.822  22.900  23.818  1.00  0.00     0.049 A 
ATOM     15  C   UNL A   1      36.580  20.803  24.972  1.00  0.00     0.002 A 
ATOM     16  C   UNL A   1      37.397  21.786  24.423  1.00  0.00     0.004 A 
BRANCH   8  17
ATOM     17  C   UNL A   1      32.270  21.246  24.717  1.00  0.00     0.294 C 
ATOM     18  O   UNL A   1      31.501  21.634  25.598  1.00  0.00    -0.265 OA
BRANCH  17  19
ATOM     19  C   UNL A   1      32.312  19.845  24.309  1.00  0.00     0.192 A 
ATOM     20  C   UNL A   1      32.629  16.523  25.612  1.00  0.00     0.087 C 
ATOM     21  C   UNL A   1      32.504  17.680  24.705  1.00  0.00     0.101 A 
ATOM     22  C   UNL A   1      32.537  17.821  23.337  1.00  0.00     0.046 A 
ATOM     23  O   UNL A   1      32.355  18.895  25.297  1.00  0.00    -0.456 OA
ATOM     24  C   UNL A   1      32.430  19.209  23.082  1.00  0.00     0.056 A 
ENDBRANCH  17  19
ENDBRANCH   8  17
ENDBRANCH   4   7
ENDBRANCH   2   3
ENDBRANCH   1   2
BRANCH   1  25
ATOM     25  C   UNL A   1      34.111  27.802  25.828  1.00  0.00     0.023 C 
BRANCH  25  26
ATOM     26  C   UNL A   1      33.388  28.364  27.049  1.00  0.00     0.116 C 
BRANCH  26  27
ATOM     27  N   UNL A   1      33.384  29.816  27.093  1.00  0.00    -0.352 N 
ATOM     28  C   UNL A   1      34.316  30.675  27.619  1.00  0.00     0.251 C 
ATOM     29  H   UNL A   1      32.598  30.247  26.686  1.00  0.00     0.163 HD
ATOM     30  O   UNL A   1      34.078  31.880  27.647  1.00  0.00    -0.269 OA
BRANCH  28  31
ATOM     31  C   UNL A   1      35.589  30.166  28.176  1.00  0.00     0.039 A 
ATOM     32  C   UNL A   1      36.711  30.139  27.342  1.00  0.00     0.014 A 
ATOM     33  C   UNL A   1      35.677  29.675  29.483  1.00  0.00     0.014 A 
ATOM     34  C   UNL A   1      37.929  29.659  27.826  1.00  0.00     0.010 A 
ATOM     35  C   UNL A   1      36.905  29.239  29.981  1.00  0.00     0.010 A 
ATOM     36  C   UNL A   1      38.037  29.220  29.154  1.00  0.00    -0.014 A 
BRANCH  36  37
ATOM     37  C   UNL A   1      39.323  28.705  29.679  1.00  0.00     0.031 A 
ATOM     38  C   UNL A   1      39.944  29.331  30.895  1.00  0.00     0.074 A 
ATOM     39  C   UNL A   1      39.953  27.704  29.038  1.00  0.00     0.049 A 
ATOM     40  N   UNL A   1      41.085  29.057  31.473  1.00  0.00    -0.248 NA
ATOM     41  C   UNL A   1      39.192  30.424  31.532  1.00  0.00     0.031 C 
ATOM     42  C   UNL A   1      39.474  27.041  27.825  1.00  0.00     0.029 A 
ATOM     43  N   UNL A   1      41.138  27.073  29.320  1.00  0.00    -0.354 N 
ATOM     44  C   UNL A   1      41.203  29.960  32.521  1.00  0.00     0.074 A 
ATOM     45  C   UNL A   1      40.026  30.802  32.490  1.00  0.00     0.031 C 
ATOM     46  C   UNL A   1      40.350  26.083  27.475  1.00  0.00     0.029 A 
ATOM     47  C   UNL A   1      41.454  26.077  28.430  1.00  0.00     0.049 A 
ATOM     48  H   UNL A   1      41.707  27.313  30.087  1.00  0.00     0.167 HD
ATOM     49  C   UNL A   1      42.197  30.073  33.433  1.00  0.00     0.037 A 
ATOM     50  C   UNL A   1      42.511  25.246  28.398  1.00  0.00     0.037 A 
ATOM     51  C   UNL A   1      43.348  29.213  33.494  1.00  0.00     0.049 A 
ATOM     52  C   UNL A   1      43.558  25.335  29.470  1.00  0.00     0.074 A 
ATOM     53  C   UNL A   1      44.398  29.234  34.396  1.00  0.00     0.029 A 
ATOM     54  N   UNL A   1      43.592  28.165  32.621  1.00  0.00    -0.354 N 
ATOM     55  N   UNL A   1      43.643  26.177  30.471  1.00  0.00    -0.248 NA
ATOM     56  C   UNL A   1      44.648  24.350  29.416  1.00  0.00     0.031 C 
ATOM     57  C   UNL A   1      45.279  28.196  34.067  1.00  0.00     0.029 A 
ATOM     58  C   UNL A   1      44.767  27.523  32.970  1.00  0.00     0.049 A 
ATOM     59  H   UNL A   1      43.013  27.914  31.865  1.00  0.00     0.167 HD
ATOM     60  C   UNL A   1      44.779  25.810  31.178  1.00  0.00     0.074 A 
ATOM     61  C   UNL A   1      45.350  24.667  30.496  1.00  0.00     0.031 C 
ATOM     62  C   UNL A   1      45.303  26.372  32.293  1.00  0.00     0.037 A 
BRANCH  49  63
ATOM     63  C   UNL A   1      42.074  31.171  34.441  1.00  0.00     0.057 A 
ATOM     64  C   UNL A   1      41.419  30.975  35.663  1.00  0.00     0.134 A 
ATOM     65  C   UNL A   1      42.626  32.433  34.194  1.00  0.00     0.134 A 
ATOM     66  F   UNL A   1      40.854  29.792  35.948  1.00  0.00    -0.206 F 
ATOM     67  C   UNL A   1      41.300  32.004  36.598  1.00  0.00     0.040 A 
ATOM     68  C   UNL A   1      42.528  33.466  35.129  1.00  0.00     0.040 A 
ATOM     69  F   UNL A   1      43.266  32.683  33.041  1.00  0.00    -0.206 F 
ATOM     70  C   UNL A   1      41.859  33.253  36.332  1.00  0.00     0.006 A 
ENDBRANCH  49  63
BRANCH  50  71
ATOM     71  C   UNL A   1      42.606  24.219  27.336  1.00  0.00     0.057 A 
ATOM     72  C   UNL A   1      43.196  24.517  26.103  1.00  0.00     0.134 A 
ATOM     73  C   UNL A   1      42.116  22.923  27.528  1.00  0.00     0.134 A 
ATOM     74  F   UNL A   1      43.668  25.748  25.862  1.00  0.00    -0.206 F 
ATOM     75  C   UNL A   1      43.286  23.563  25.089  1.00  0.00     0.040 A 
ATOM     76  C   UNL A   1      42.210  21.955  26.527  1.00  0.00     0.040 A 
ATOM     77  F   UNL A   1      41.545  22.581  28.692  1.00  0.00    -0.206 F 
ATOM     78  C   UNL A   1      42.794  22.276  25.302  1.00  0.00     0.006 A 
ENDBRANCH  50  71
BRANCH  62  79
ATOM     79  C   UNL A   1      46.530  25.734  32.864  1.00  0.00     0.057 A 
ATOM     80  C   UNL A   1      47.812  26.116  32.457  1.00  0.00     0.134 A 
ATOM     81  C   UNL A   1      46.424  24.747  33.851  1.00  0.00     0.134 A 
ATOM     82  F   UNL A   1      47.974  27.049  31.505  1.00  0.00    -0.206 F 
ATOM     83  C   UNL A   1      48.953  25.529  33.006  1.00  0.00     0.040 A 
ATOM     84  C   UNL A   1      47.556  24.160  34.414  1.00  0.00     0.040 A 
ATOM     85  F   UNL A   1      45.219  24.341  34.280  1.00  0.00    -0.206 F 
ATOM     86  C   UNL A   1      48.826  24.551  33.990  1.00  0.00     0.006 A 
ENDBRANCH  62  79
ENDBRANCH  36  37
ENDBRANCH  28  31
ENDBRANCH  26  27
ENDBRANCH  25  26
ENDBRANCH   1  25
TORSDOF 13
ENDMDL
