MODEL 1
REMARK VINA RESULT:     -12.4      0.000      0.000
REMARK SMILES CC(C)(C)c1cc2c(cc1Cl)C=C(C(=O)NCCCCNC(=O)c1ccc(-c3c4nc(c(-c5c(F)cccc5F)c5ccc([nH]5)c(-c5c(F)cccc5F)c5nc(c(-c6c(F)cccc6F)c6ccc3[nH]6)C=C5)C=C4)cc1)[C@@H](C(F)(F)F)O2
REMARK SMILES IDX 19 1 18 2 17 3 16 4 14 5 15 6 13 8 5 9 6 10 10 11 7 12 9 13
REMARK SMILES IDX 11 14 8 15 83 16 12 17 78 18 2 19 1 20 3 21 4 22 79 23 80 24
REMARK SMILES IDX 81 25 82 26 20 27 21 28 22 29 23 31 24 32 25 33 77 34 26 35
REMARK SMILES IDX 76 36 27 37 28 38 29 39 70 40 30 41 75 42 69 43 71 44 31 45
REMARK SMILES IDX 74 46 68 47 67 48 32 50 58 51 41 52 57 53 42 54 45 55 56 56
REMARK SMILES IDX 72 57 43 58 44 59 55 61 73 62 46 63 33 64 34 65 39 66 35 67
REMARK SMILES IDX 36 68 38 69 40 70 37 71 59 72 60 73 65 74 61 75 62 76 64 77
REMARK SMILES IDX 66 78 63 79 47 80 48 81 53 82 49 83 50 84 52 85 54 86 51 87
REMARK H PARENT 16 7 21 30 71 49 45 60
REMARK Flexibility Score: inf
ROOT
ATOM      1  C   UNL A   1      32.941  28.886  27.252  1.00  0.00     0.023 C 
ENDROOT
BRANCH   1   2
ATOM      2  C   UNL A   1      31.737  29.765  26.899  1.00  0.00     0.023 C 
BRANCH   2   3
ATOM      3  C   UNL A   1      31.729  30.280  25.462  1.00  0.00     0.116 C 
BRANCH   3   4
ATOM      4  N   UNL A   1      30.775  29.572  24.626  1.00  0.00    -0.352 N 
ATOM      5  C   UNL A   1      30.735  28.401  23.947  1.00  0.00     0.251 C 
ATOM      6  O   UNL A   1      29.680  28.179  23.344  1.00  0.00    -0.270 OA
ATOM      7  H   UNL A   1      29.936  30.077  24.525  1.00  0.00     0.163 HD
BRANCH   5   8
ATOM      8  C   UNL A   1      31.844  27.402  23.881  1.00  0.00     0.067 C 
ATOM      9  C   UNL A   1      34.975  23.480  24.798  1.00  0.00    -0.020 A 
ATOM     10  C   UNL A   1      34.707  24.348  23.710  1.00  0.00     0.053 A 
ATOM     11  C   UNL A   1      34.224  23.723  25.970  1.00  0.00     0.045 A 
ATOM     12  C   UNL A   1      33.728  25.342  23.761  1.00  0.00     0.128 A 
ATOM     13  C   UNL A   1      33.223  24.717  26.007  1.00  0.00     0.032 A 
ATOM     14  Cl  UNL A   1      34.445  22.904  27.476  1.00  0.00    -0.084 Cl
ATOM     15  C   UNL A   1      32.964  25.522  24.901  1.00  0.00     0.019 A 
ATOM     16  O   UNL A   1      33.548  26.078  22.627  1.00  0.00    -0.475 OA
ATOM     17  C   UNL A   1      31.901  26.520  24.898  1.00  0.00     0.025 C 
ATOM     18  C   UNL A   1      32.886  27.362  22.798  1.00  0.00     0.314 C 
BRANCH   9  19
ATOM     19  C   UNL A   1      36.081  22.412  24.592  1.00  0.00    -0.012 C 
ATOM     20  C   UNL A   1      37.266  22.437  25.581  1.00  0.00     0.016 C 
ATOM     21  C   UNL A   1      36.650  22.580  23.167  1.00  0.00     0.016 C 
ATOM     22  C   UNL A   1      35.495  20.974  24.720  1.00  0.00     0.016 C 
ENDBRANCH   9  19
BRANCH  18  23
ATOM     23  C   UNL A   1      33.951  28.463  22.963  1.00  0.00     0.429 C 
ATOM     24  F   UNL A   1      33.410  29.684  22.726  1.00  0.00    -0.167 F 
ATOM     25  F   UNL A   1      34.461  28.507  24.217  1.00  0.00    -0.167 F 
ATOM     26  F   UNL A   1      34.995  28.312  22.118  1.00  0.00    -0.167 F 
ENDBRANCH  18  23
ENDBRANCH   5   8
ENDBRANCH   3   4
ENDBRANCH   2   3
ENDBRANCH   1   2
BRANCH   1  27
ATOM     27  C   UNL A   1      34.294  29.594  27.254  1.00  0.00     0.116 C 
BRANCH  27  28
ATOM     28  N   UNL A   1      34.472  30.564  28.326  1.00  0.00    -0.352 N 
ATOM     29  C   UNL A   1      35.585  30.739  29.122  1.00  0.00     0.251 C 
ATOM     30  H   UNL A   1      33.710  31.162  28.504  1.00  0.00     0.163 HD
ATOM     31  O   UNL A   1      35.584  31.545  30.045  1.00  0.00    -0.269 OA
BRANCH  29  32
ATOM     32  C   UNL A   1      36.759  29.877  28.879  1.00  0.00     0.039 A 
ATOM     33  C   UNL A   1      37.296  29.122  29.922  1.00  0.00     0.014 A 
ATOM     34  C   UNL A   1      37.400  29.937  27.639  1.00  0.00     0.014 A 
ATOM     35  C   UNL A   1      38.576  28.599  29.792  1.00  0.00     0.010 A 
ATOM     36  C   UNL A   1      38.654  29.342  27.486  1.00  0.00     0.010 A 
ATOM     37  C   UNL A   1      39.285  28.739  28.586  1.00  0.00    -0.014 A 
BRANCH  37  38
ATOM     38  C   UNL A   1      40.709  28.320  28.539  1.00  0.00     0.031 A 
ATOM     39  C   UNL A   1      41.078  26.909  28.156  1.00  0.00     0.074 A 
ATOM     40  C   UNL A   1      41.675  29.234  28.741  1.00  0.00     0.049 A 
ATOM     41  N   UNL A   1      42.265  26.385  27.977  1.00  0.00    -0.248 NA
ATOM     42  C   UNL A   1      39.972  25.961  27.948  1.00  0.00     0.031 C 
ATOM     43  C   UNL A   1      41.448  30.633  29.106  1.00  0.00     0.029 A 
ATOM     44  N   UNL A   1      43.037  29.134  28.624  1.00  0.00    -0.354 N 
ATOM     45  C   UNL A   1      42.050  25.048  27.663  1.00  0.00     0.074 A 
ATOM     46  C   UNL A   1      40.621  24.833  27.698  1.00  0.00     0.031 C 
ATOM     47  C   UNL A   1      42.625  31.277  29.122  1.00  0.00     0.029 A 
ATOM     48  C   UNL A   1      43.689  30.329  28.809  1.00  0.00     0.049 A 
ATOM     49  H   UNL A   1      43.502  28.290  28.427  1.00  0.00     0.167 HD
ATOM     50  C   UNL A   1      42.958  24.088  27.363  1.00  0.00     0.037 A 
ATOM     51  C   UNL A   1      44.998  30.628  28.727  1.00  0.00     0.037 A 
ATOM     52  C   UNL A   1      44.379  24.302  27.296  1.00  0.00     0.049 A 
ATOM     53  C   UNL A   1      45.982  29.548  28.381  1.00  0.00     0.074 A 
ATOM     54  C   UNL A   1      45.379  23.394  26.992  1.00  0.00     0.029 A 
ATOM     55  N   UNL A   1      45.003  25.519  27.524  1.00  0.00    -0.354 N 
ATOM     56  N   UNL A   1      45.760  28.290  28.092  1.00  0.00    -0.248 NA
ATOM     57  C   UNL A   1      47.399  29.935  28.353  1.00  0.00     0.031 C 
ATOM     58  C   UNL A   1      46.611  24.057  27.058  1.00  0.00     0.029 A 
ATOM     59  C   UNL A   1      46.373  25.384  27.374  1.00  0.00     0.049 A 
ATOM     60  H   UNL A   1      44.540  26.356  27.760  1.00  0.00     0.167 HD
ATOM     61  C   UNL A   1      47.007  27.735  27.841  1.00  0.00     0.074 A 
ATOM     62  C   UNL A   1      47.978  28.801  27.987  1.00  0.00     0.031 C 
ATOM     63  C   UNL A   1      47.323  26.456  27.525  1.00  0.00     0.037 A 
BRANCH  50  64
ATOM     64  C   UNL A   1      42.434  22.707  27.099  1.00  0.00     0.057 A 
ATOM     65  C   UNL A   1      42.039  21.879  28.157  1.00  0.00     0.134 A 
ATOM     66  C   UNL A   1      42.339  22.189  25.801  1.00  0.00     0.134 A 
ATOM     67  F   UNL A   1      42.109  22.314  29.424  1.00  0.00    -0.206 F 
ATOM     68  C   UNL A   1      41.564  20.586  27.934  1.00  0.00     0.040 A 
ATOM     69  C   UNL A   1      41.847  20.903  25.564  1.00  0.00     0.040 A 
ATOM     70  F   UNL A   1      42.685  22.938  24.743  1.00  0.00    -0.206 F 
ATOM     71  C   UNL A   1      41.463  20.096  26.633  1.00  0.00     0.006 A 
ENDBRANCH  50  64
BRANCH  51  72
ATOM     72  C   UNL A   1      45.450  32.020  28.958  1.00  0.00     0.057 A 
ATOM     73  C   UNL A   1      45.849  32.454  30.226  1.00  0.00     0.134 A 
ATOM     74  C   UNL A   1      45.492  32.947  27.911  1.00  0.00     0.134 A 
ATOM     75  F   UNL A   1      45.825  31.611  31.270  1.00  0.00    -0.206 F 
ATOM     76  C   UNL A   1      46.265  33.767  30.450  1.00  0.00     0.040 A 
ATOM     77  C   UNL A   1      45.926  34.257  28.115  1.00  0.00     0.040 A 
ATOM     78  F   UNL A   1      45.138  32.581  26.670  1.00  0.00    -0.206 F 
ATOM     79  C   UNL A   1      46.308  34.671  29.390  1.00  0.00     0.006 A 
ENDBRANCH  51  72
BRANCH  63  80
ATOM     80  C   UNL A   1      48.773  26.157  27.303  1.00  0.00     0.057 A 
ATOM     81  C   UNL A   1      49.328  26.216  26.019  1.00  0.00     0.134 A 
ATOM     82  C   UNL A   1      49.622  25.813  28.363  1.00  0.00     0.134 A 
ATOM     83  F   UNL A   1      48.566  26.536  24.962  1.00  0.00    -0.206 F 
ATOM     84  C   UNL A   1      50.681  25.954  25.798  1.00  0.00     0.040 A 
ATOM     85  C   UNL A   1      50.980  25.567  28.157  1.00  0.00     0.040 A 
ATOM     86  F   UNL A   1      49.152  25.754  29.618  1.00  0.00    -0.206 F 
ATOM     87  C   UNL A   1      51.512  25.635  26.871  1.00  0.00     0.006 A 
ENDBRANCH  63  80
ENDBRANCH  37  38
ENDBRANCH  29  32
ENDBRANCH  27  28
ENDBRANCH   1  27
TORSDOF 13
ENDMDL
MODEL 2
REMARK VINA RESULT:     -12.3      4.957      9.650
REMARK SMILES CC(C)(C)c1cc2c(cc1Cl)C=C(C(=O)NCCCCNC(=O)c1ccc(-c3c4nc(c(-c5c(F)cccc5F)c5ccc([nH]5)c(-c5c(F)cccc5F)c5nc(c(-c6c(F)cccc6F)c6ccc3[nH]6)C=C5)C=C4)cc1)[C@@H](C(F)(F)F)O2
REMARK SMILES IDX 19 1 18 2 17 3 16 4 14 5 15 6 13 8 5 9 6 10 10 11 7 12 9 13
REMARK SMILES IDX 11 14 8 15 83 16 12 17 78 18 2 19 1 20 3 21 4 22 79 23 80 24
REMARK SMILES IDX 81 25 82 26 20 27 21 28 22 29 23 31 24 32 25 33 77 34 26 35
REMARK SMILES IDX 76 36 27 37 28 38 29 39 70 40 30 41 75 42 69 43 71 44 31 45
REMARK SMILES IDX 74 46 68 47 67 48 32 50 58 51 41 52 57 53 42 54 45 55 56 56
REMARK SMILES IDX 72 57 43 58 44 59 55 61 73 62 46 63 33 64 34 65 39 66 35 67
REMARK SMILES IDX 36 68 38 69 40 70 37 71 59 72 60 73 65 74 61 75 62 76 64 77
REMARK SMILES IDX 66 78 63 79 47 80 48 81 53 82 49 83 50 84 52 85 54 86 51 87
REMARK H PARENT 16 7 21 30 71 49 45 60
REMARK Flexibility Score: inf
ROOT
ATOM      1  C   UNL A   1      37.124  22.988  24.673  1.00  0.00     0.023 C 
ENDROOT
BRANCH   1   2
ATOM      2  C   UNL A   1      36.978  21.520  24.263  1.00  0.00     0.023 C 
BRANCH   2   3
ATOM      3  C   UNL A   1      36.080  20.693  25.180  1.00  0.00     0.116 C 
BRANCH   3   4
ATOM      4  N   UNL A   1      34.775  20.439  24.594  1.00  0.00    -0.352 N 
ATOM      5  C   UNL A   1      33.591  21.090  24.500  1.00  0.00     0.251 C 
ATOM      6  O   UNL A   1      32.708  20.485  23.884  1.00  0.00    -0.270 OA
ATOM      7  H   UNL A   1      34.743  19.562  24.148  1.00  0.00     0.163 HD
BRANCH   5   8
ATOM      8  C   UNL A   1      33.297  22.436  25.076  1.00  0.00     0.067 C 
ATOM      9  C   UNL A   1      32.713  27.458  25.761  1.00  0.00    -0.020 A 
ATOM     10  C   UNL A   1      32.271  26.275  26.405  1.00  0.00     0.053 A 
ATOM     11  C   UNL A   1      33.551  27.264  24.641  1.00  0.00     0.045 A 
ATOM     12  C   UNL A   1      32.588  24.998  25.937  1.00  0.00     0.128 A 
ATOM     13  C   UNL A   1      33.851  25.970  24.164  1.00  0.00     0.032 A 
ATOM     14  Cl  UNL A   1      34.335  28.528  23.759  1.00  0.00    -0.084 Cl
ATOM     15  C   UNL A   1      33.362  24.834  24.803  1.00  0.00     0.019 A 
ATOM     16  O   UNL A   1      32.061  23.948  26.631  1.00  0.00    -0.475 OA
ATOM     17  C   UNL A   1      33.616  23.490  24.299  1.00  0.00     0.025 C 
ATOM     18  C   UNL A   1      32.723  22.666  26.447  1.00  0.00     0.314 C 
BRANCH   9  19
ATOM     19  C   UNL A   1      32.270  28.807  26.385  1.00  0.00    -0.012 C 
ATOM     20  C   UNL A   1      33.391  29.775  26.819  1.00  0.00     0.016 C 
ATOM     21  C   UNL A   1      31.403  28.501  27.625  1.00  0.00     0.016 C 
ATOM     22  C   UNL A   1      31.413  29.629  25.377  1.00  0.00     0.016 C 
ENDBRANCH   9  19
BRANCH  18  23
ATOM     23  C   UNL A   1      33.765  22.468  27.564  1.00  0.00     0.429 C 
ATOM     24  F   UNL A   1      33.278  22.909  28.750  1.00  0.00    -0.167 F 
ATOM     25  F   UNL A   1      34.090  21.165  27.744  1.00  0.00    -0.167 F 
ATOM     26  F   UNL A   1      34.918  23.132  27.327  1.00  0.00    -0.167 F 
ENDBRANCH  18  23
ENDBRANCH   5   8
ENDBRANCH   3   4
ENDBRANCH   2   3
ENDBRANCH   1   2
BRANCH   1  27
ATOM     27  C   UNL A   1      37.847  23.233  25.995  1.00  0.00     0.116 C 
BRANCH  27  28
ATOM     28  N   UNL A   1      39.268  22.909  25.981  1.00  0.00    -0.352 N 
ATOM     29  C   UNL A   1      40.304  23.658  26.501  1.00  0.00     0.251 C 
ATOM     30  H   UNL A   1      39.518  22.060  25.551  1.00  0.00     0.163 HD
ATOM     31  O   UNL A   1      41.471  23.311  26.359  1.00  0.00    -0.269 OA
BRANCH  29  32
ATOM     32  C   UNL A   1      39.976  24.932  27.172  1.00  0.00     0.039 A 
ATOM     33  C   UNL A   1      40.503  26.130  26.690  1.00  0.00     0.014 A 
ATOM     34  C   UNL A   1      39.252  24.902  28.367  1.00  0.00     0.014 A 
ATOM     35  C   UNL A   1      40.487  27.255  27.504  1.00  0.00     0.010 A 
ATOM     36  C   UNL A   1      39.168  26.057  29.148  1.00  0.00     0.010 A 
ATOM     37  C   UNL A   1      39.854  27.219  28.759  1.00  0.00    -0.014 A 
BRANCH  37  38
ATOM     38  C   UNL A   1      40.003  28.382  29.671  1.00  0.00     0.031 A 
ATOM     39  C   UNL A   1      38.980  29.489  29.670  1.00  0.00     0.074 A 
ATOM     40  C   UNL A   1      41.003  28.393  30.571  1.00  0.00     0.049 A 
ATOM     41  N   UNL A   1      38.895  30.537  30.452  1.00  0.00    -0.248 NA
ATOM     42  C   UNL A   1      37.912  29.413  28.660  1.00  0.00     0.031 C 
ATOM     43  C   UNL A   1      42.050  27.377  30.680  1.00  0.00     0.029 A 
ATOM     44  N   UNL A   1      41.275  29.268  31.591  1.00  0.00    -0.354 N 
ATOM     45  C   UNL A   1      37.788  31.254  30.013  1.00  0.00     0.074 A 
ATOM     46  C   UNL A   1      37.244  30.535  28.882  1.00  0.00     0.031 C 
ATOM     47  C   UNL A   1      42.814  27.650  31.749  1.00  0.00     0.029 A 
ATOM     48  C   UNL A   1      42.336  28.880  32.372  1.00  0.00     0.049 A 
ATOM     49  H   UNL A   1      40.762  30.092  31.748  1.00  0.00     0.167 HD
ATOM     50  C   UNL A   1      37.265  32.400  30.511  1.00  0.00     0.037 A 
ATOM     51  C   UNL A   1      42.860  29.448  33.473  1.00  0.00     0.037 A 
ATOM     52  C   UNL A   1      37.782  33.103  31.655  1.00  0.00     0.049 A 
ATOM     53  C   UNL A   1      42.254  30.711  34.012  1.00  0.00     0.074 A 
ATOM     54  C   UNL A   1      37.315  34.267  32.240  1.00  0.00     0.029 A 
ATOM     55  N   UNL A   1      38.880  32.696  32.398  1.00  0.00    -0.354 N 
ATOM     56  N   UNL A   1      41.210  31.376  33.581  1.00  0.00    -0.248 NA
ATOM     57  C   UNL A   1      42.904  31.301  35.189  1.00  0.00     0.031 C 
ATOM     58  C   UNL A   1      38.145  34.578  33.325  1.00  0.00     0.029 A 
ATOM     59  C   UNL A   1      39.109  33.589  33.432  1.00  0.00     0.049 A 
ATOM     60  H   UNL A   1      39.418  31.891  32.217  1.00  0.00     0.167 HD
ATOM     61  C   UNL A   1      41.073  32.459  34.438  1.00  0.00     0.074 A 
ATOM     62  C   UNL A   1      42.124  32.347  35.428  1.00  0.00     0.031 C 
ATOM     63  C   UNL A   1      40.162  33.462  34.405  1.00  0.00     0.037 A 
BRANCH  50  64
ATOM     64  C   UNL A   1      36.072  32.974  29.804  1.00  0.00     0.057 A 
ATOM     65  C   UNL A   1      36.230  33.727  28.635  1.00  0.00     0.134 A 
ATOM     66  C   UNL A   1      34.770  32.797  30.290  1.00  0.00     0.134 A 
ATOM     67  F   UNL A   1      37.451  33.936  28.120  1.00  0.00    -0.206 F 
ATOM     68  C   UNL A   1      35.136  34.283  27.971  1.00  0.00     0.040 A 
ATOM     69  C   UNL A   1      33.665  33.332  29.623  1.00  0.00     0.040 A 
ATOM     70  F   UNL A   1      34.550  32.070  31.395  1.00  0.00    -0.206 F 
ATOM     71  C   UNL A   1      33.847  34.082  28.463  1.00  0.00     0.006 A 
ENDBRANCH  50  64
BRANCH  51  72
ATOM     72  C   UNL A   1      44.013  28.811  34.152  1.00  0.00     0.057 A 
ATOM     73  C   UNL A   1      45.329  29.115  33.789  1.00  0.00     0.134 A 
ATOM     74  C   UNL A   1      43.821  27.882  35.181  1.00  0.00     0.134 A 
ATOM     75  F   UNL A   1      45.575  29.994  32.806  1.00  0.00    -0.206 F 
ATOM     76  C   UNL A   1      46.417  28.509  34.418  1.00  0.00     0.040 A 
ATOM     77  C   UNL A   1      44.899  27.285  35.833  1.00  0.00     0.040 A 
ATOM     78  F   UNL A   1      42.580  27.567  35.582  1.00  0.00    -0.206 F 
ATOM     79  C   UNL A   1      46.202  27.594  35.447  1.00  0.00     0.006 A 
ENDBRANCH  51  72
BRANCH  63  80
ATOM     80  C   UNL A   1      40.264  34.497  35.482  1.00  0.00     0.057 A 
ATOM     81  C   UNL A   1      39.551  34.357  36.679  1.00  0.00     0.134 A 
ATOM     82  C   UNL A   1      41.071  35.632  35.334  1.00  0.00     0.134 A 
ATOM     83  F   UNL A   1      38.758  33.295  36.879  1.00  0.00    -0.206 F 
ATOM     84  C   UNL A   1      39.647  35.307  37.697  1.00  0.00     0.040 A 
ATOM     85  C   UNL A   1      41.188  36.579  36.352  1.00  0.00     0.040 A 
ATOM     86  F   UNL A   1      41.789  35.814  34.216  1.00  0.00    -0.206 F 
ATOM     87  C   UNL A   1      40.473  36.418  37.537  1.00  0.00     0.006 A 
ENDBRANCH  63  80
ENDBRANCH  37  38
ENDBRANCH  29  32
ENDBRANCH  27  28
ENDBRANCH   1  27
TORSDOF 13
ENDMDL
MODEL 3
REMARK VINA RESULT:     -12.3      5.001      9.664
REMARK SMILES CC(C)(C)c1cc2c(cc1Cl)C=C(C(=O)NCCCCNC(=O)c1ccc(-c3c4nc(c(-c5c(F)cccc5F)c5ccc([nH]5)c(-c5c(F)cccc5F)c5nc(c(-c6c(F)cccc6F)c6ccc3[nH]6)C=C5)C=C4)cc1)[C@@H](C(F)(F)F)O2
REMARK SMILES IDX 19 1 18 2 17 3 16 4 14 5 15 6 13 8 5 9 6 10 10 11 7 12 9 13
REMARK SMILES IDX 11 14 8 15 83 16 12 17 78 18 2 19 1 20 3 21 4 22 79 23 80 24
REMARK SMILES IDX 81 25 82 26 20 27 21 28 22 29 23 31 24 32 25 33 77 34 26 35
REMARK SMILES IDX 76 36 27 37 28 38 29 39 70 40 30 41 75 42 69 43 71 44 31 45
REMARK SMILES IDX 74 46 68 47 67 48 32 50 58 51 41 52 57 53 42 54 45 55 56 56
REMARK SMILES IDX 72 57 43 58 44 59 55 61 73 62 46 63 33 64 34 65 39 66 35 67
REMARK SMILES IDX 36 68 38 69 40 70 37 71 59 72 60 73 65 74 61 75 62 76 64 77
REMARK SMILES IDX 66 78 63 79 47 80 48 81 53 82 49 83 50 84 52 85 54 86 51 87
REMARK H PARENT 16 7 21 30 71 49 45 60
REMARK Flexibility Score: inf
ROOT
ATOM      1  C   UNL A   1      37.164  23.060  24.710  1.00  0.00     0.023 C 
ENDROOT
BRANCH   1   2
ATOM      2  C   UNL A   1      37.052  21.598  24.267  1.00  0.00     0.023 C 
BRANCH   2   3
ATOM      3  C   UNL A   1      36.201  20.722  25.183  1.00  0.00     0.116 C 
BRANCH   3   4
ATOM      4  N   UNL A   1      34.891  20.442  24.621  1.00  0.00    -0.352 N 
ATOM      5  C   UNL A   1      33.695  21.074  24.541  1.00  0.00     0.251 C 
ATOM      6  O   UNL A   1      32.812  20.450  23.945  1.00  0.00    -0.270 OA
ATOM      7  H   UNL A   1      34.865  19.560  24.184  1.00  0.00     0.163 HD
BRANCH   5   8
ATOM      8  C   UNL A   1      33.390  22.421  25.109  1.00  0.00     0.067 C 
ATOM      9  C   UNL A   1      32.757  27.441  25.763  1.00  0.00    -0.020 A 
ATOM     10  C   UNL A   1      32.331  26.258  26.417  1.00  0.00     0.053 A 
ATOM     11  C   UNL A   1      33.591  27.249  24.639  1.00  0.00     0.045 A 
ATOM     12  C   UNL A   1      32.659  24.981  25.957  1.00  0.00     0.128 A 
ATOM     13  C   UNL A   1      33.902  25.954  24.169  1.00  0.00     0.032 A 
ATOM     14  Cl  UNL A   1      34.356  28.514  23.744  1.00  0.00    -0.084 Cl
ATOM     15  C   UNL A   1      33.429  24.817  24.819  1.00  0.00     0.019 A 
ATOM     16  O   UNL A   1      32.147  23.930  26.660  1.00  0.00    -0.475 OA
ATOM     17  C   UNL A   1      33.694  23.472  24.323  1.00  0.00     0.025 C 
ATOM     18  C   UNL A   1      32.821  22.654  26.481  1.00  0.00     0.314 C 
BRANCH   9  19
ATOM     19  C   UNL A   1      32.302  28.790  26.379  1.00  0.00    -0.012 C 
ATOM     20  C   UNL A   1      31.488  29.733  25.467  1.00  0.00     0.016 C 
ATOM     21  C   UNL A   1      33.560  29.552  26.846  1.00  0.00     0.016 C 
ATOM     22  C   UNL A   1      31.385  28.554  27.615  1.00  0.00     0.016 C 
ENDBRANCH   9  19
BRANCH  18  23
ATOM     23  C   UNL A   1      33.872  22.476  27.594  1.00  0.00     0.429 C 
ATOM     24  F   UNL A   1      34.183  21.164  27.745  1.00  0.00    -0.167 F 
ATOM     25  F   UNL A   1      35.034  23.116  27.316  1.00  0.00    -0.167 F 
ATOM     26  F   UNL A   1      33.447  22.932  28.792  1.00  0.00    -0.167 F 
ENDBRANCH  18  23
ENDBRANCH   5   8
ENDBRANCH   3   4
ENDBRANCH   2   3
ENDBRANCH   1   2
BRANCH   1  27
ATOM     27  C   UNL A   1      37.932  23.296  26.009  1.00  0.00     0.116 C 
BRANCH  27  28
ATOM     28  N   UNL A   1      39.363  23.032  25.926  1.00  0.00    -0.352 N 
ATOM     29  C   UNL A   1      40.389  23.819  26.405  1.00  0.00     0.251 C 
ATOM     30  H   UNL A   1      39.627  22.197  25.477  1.00  0.00     0.163 HD
ATOM     31  O   UNL A   1      41.562  23.522  26.206  1.00  0.00    -0.269 OA
BRANCH  29  32
ATOM     32  C   UNL A   1      40.040  25.073  27.102  1.00  0.00     0.039 A 
ATOM     33  C   UNL A   1      40.554  26.289  26.650  1.00  0.00     0.014 A 
ATOM     34  C   UNL A   1      39.311  25.006  28.293  1.00  0.00     0.014 A 
ATOM     35  C   UNL A   1      40.517  27.394  27.488  1.00  0.00     0.010 A 
ATOM     36  C   UNL A   1      39.207  26.142  29.099  1.00  0.00     0.010 A 
ATOM     37  C   UNL A   1      39.879  27.322  28.739  1.00  0.00    -0.014 A 
BRANCH  37  38
ATOM     38  C   UNL A   1      40.008  28.466  29.677  1.00  0.00     0.031 A 
ATOM     39  C   UNL A   1      38.980  29.569  29.681  1.00  0.00     0.074 A 
ATOM     40  C   UNL A   1      40.991  28.463  30.595  1.00  0.00     0.049 A 
ATOM     41  N   UNL A   1      38.878  30.601  30.482  1.00  0.00    -0.248 NA
ATOM     42  C   UNL A   1      37.931  29.511  28.650  1.00  0.00     0.031 C 
ATOM     43  C   UNL A   1      42.040  27.448  30.702  1.00  0.00     0.029 A 
ATOM     44  N   UNL A   1      41.242  29.316  31.637  1.00  0.00    -0.354 N 
ATOM     45  C   UNL A   1      37.776  31.323  30.039  1.00  0.00     0.074 A 
ATOM     46  C   UNL A   1      37.254  30.626  28.884  1.00  0.00     0.031 C 
ATOM     47  C   UNL A   1      42.784  27.701  31.790  1.00  0.00     0.029 A 
ATOM     48  C   UNL A   1      42.291  28.916  32.430  1.00  0.00     0.049 A 
ATOM     49  H   UNL A   1      40.723  30.135  31.802  1.00  0.00     0.167 HD
ATOM     50  C   UNL A   1      37.239  32.456  30.551  1.00  0.00     0.037 A 
ATOM     51  C   UNL A   1      42.792  29.463  33.551  1.00  0.00     0.037 A 
ATOM     52  C   UNL A   1      37.734  33.137  31.719  1.00  0.00     0.049 A 
ATOM     53  C   UNL A   1      42.172  30.713  34.105  1.00  0.00     0.074 A 
ATOM     54  C   UNL A   1      37.252  34.288  32.319  1.00  0.00     0.029 A 
ATOM     55  N   UNL A   1      38.819  32.719  32.473  1.00  0.00    -0.354 N 
ATOM     56  N   UNL A   1      41.134  31.383  33.670  1.00  0.00    -0.248 NA
ATOM     57  C   UNL A   1      42.799  31.281  35.306  1.00  0.00     0.031 C 
ATOM     58  C   UNL A   1      38.061  34.579  33.425  1.00  0.00     0.029 A 
ATOM     59  C   UNL A   1      39.027  33.591  33.528  1.00  0.00     0.049 A 
ATOM     60  H   UNL A   1      39.364  31.920  32.284  1.00  0.00     0.167 HD
ATOM     61  C   UNL A   1      40.977  32.447  34.546  1.00  0.00     0.074 A 
ATOM     62  C   UNL A   1      42.011  32.319  35.552  1.00  0.00     0.031 C 
ATOM     63  C   UNL A   1      40.063  33.447  34.518  1.00  0.00     0.037 A 
BRANCH  50  64
ATOM     64  C   UNL A   1      36.057  33.040  29.835  1.00  0.00     0.057 A 
ATOM     65  C   UNL A   1      36.222  33.719  28.622  1.00  0.00     0.134 A 
ATOM     66  C   UNL A   1      34.759  32.948  30.355  1.00  0.00     0.134 A 
ATOM     67  F   UNL A   1      37.439  33.846  28.073  1.00  0.00    -0.206 F 
ATOM     68  C   UNL A   1      35.138  34.284  27.948  1.00  0.00     0.040 A 
ATOM     69  C   UNL A   1      33.664  33.492  29.680  1.00  0.00     0.040 A 
ATOM     70  F   UNL A   1      34.532  32.295  31.504  1.00  0.00    -0.206 F 
ATOM     71  C   UNL A   1      33.853  34.167  28.475  1.00  0.00     0.006 A 
ENDBRANCH  50  64
BRANCH  51  72
ATOM     72  C   UNL A   1      43.936  28.817  34.237  1.00  0.00     0.057 A 
ATOM     73  C   UNL A   1      43.738  27.856  35.233  1.00  0.00     0.134 A 
ATOM     74  C   UNL A   1      45.254  29.150  33.908  1.00  0.00     0.134 A 
ATOM     75  F   UNL A   1      42.496  27.500  35.595  1.00  0.00    -0.206 F 
ATOM     76  C   UNL A   1      44.813  27.254  35.888  1.00  0.00     0.040 A 
ATOM     77  C   UNL A   1      46.339  28.540  34.539  1.00  0.00     0.040 A 
ATOM     78  F   UNL A   1      45.503  30.052  32.947  1.00  0.00    -0.206 F 
ATOM     79  C   UNL A   1      46.118  27.593  35.538  1.00  0.00     0.006 A 
ENDBRANCH  51  72
BRANCH  63  80
ATOM     80  C   UNL A   1      40.141  34.461  35.617  1.00  0.00     0.057 A 
ATOM     81  C   UNL A   1      40.921  35.615  35.472  1.00  0.00     0.134 A 
ATOM     82  C   UNL A   1      39.441  34.295  36.819  1.00  0.00     0.134 A 
ATOM     83  F   UNL A   1      41.617  35.829  34.347  1.00  0.00    -0.206 F 
ATOM     84  C   UNL A   1      40.993  36.575  36.483  1.00  0.00     0.040 A 
ATOM     85  C   UNL A   1      39.492  35.257  37.829  1.00  0.00     0.040 A 
ATOM     86  F   UNL A   1      38.666  33.217  37.011  1.00  0.00    -0.206 F 
ATOM     87  C   UNL A   1      40.271  36.399  37.662  1.00  0.00     0.006 A 
ENDBRANCH  63  80
ENDBRANCH  37  38
ENDBRANCH  29  32
ENDBRANCH  27  28
ENDBRANCH   1  27
TORSDOF 13
ENDMDL
