MODEL 1
REMARK VINA RESULT:     -12.6      0.000      0.000
REMARK SMILES O=C(CC1CC[NH+](C[C@H]2Cc3ccccc3O2)CC1)NCCCCNC(=O)c1ccc(-c2c3nc(c(-c4c(F)cccc4F)c4ccc([nH]4)c(-c4c(F)cccc4F)c4nc(c(-c5c(F)cccc5F)c5ccc2[nH]5)C=C4)C=C3)cc1
REMARK SMILES IDX 22 1 21 2 20 3 1 4 2 5 3 7 4 8 5 9 19 10 6 11 18 12 7 13
REMARK SMILES IDX 8 15 9 16 10 17 17 18 11 19 16 20 12 21 15 22 13 23 14 24
REMARK SMILES IDX 23 25 24 26 25 27 26 28 27 30 28 31 29 32 81 33 30 34 80 35
REMARK SMILES IDX 31 36 32 37 33 38 74 39 34 40 79 41 73 42 75 43 35 44 78 45
REMARK SMILES IDX 72 46 71 47 36 49 62 50 45 51 61 52 46 53 49 54 60 55 76 56
REMARK SMILES IDX 47 57 48 58 59 60 77 61 50 62 37 63 38 64 43 65 39 66 40 67
REMARK SMILES IDX 42 68 44 69 41 70 63 71 64 72 69 73 65 74 66 75 68 76 70 77
REMARK SMILES IDX 67 78 51 79 52 80 57 81 53 82 54 83 56 84 58 85 55 86
REMARK H PARENT 20 6 7 14 25 29 75 48 49 59
REMARK Flexibility Score: inf
ROOT
ATOM      1  C   UNL A   1      41.716  20.647  26.697  1.00  0.00     0.023 C 
ENDROOT
BRANCH   1   2
ATOM      2  C   UNL A   1      40.798  21.665  27.374  1.00  0.00     0.116 C 
BRANCH   2   3
ATOM      3  N   UNL A   1      39.527  21.834  26.694  1.00  0.00    -0.356 N 
ATOM      4  O   UNL A   1      39.390  24.038  27.211  1.00  0.00    -0.275 OA
ATOM      5  C   UNL A   1      38.948  23.068  26.593  1.00  0.00     0.220 C 
ATOM      6  H   UNL A   1      39.078  21.052  26.300  1.00  0.00     0.163 HD
BRANCH   5   7
ATOM      7  C   UNL A   1      37.711  23.230  25.723  1.00  0.00     0.104 C 
BRANCH   7   8
ATOM      8  C   UNL A   1      37.403  22.362  24.486  1.00  0.00     0.009 C 
ATOM      9  C   UNL A   1      36.373  22.870  23.466  1.00  0.00     0.066 C 
ATOM     10  C   UNL A   1      36.944  20.965  24.961  1.00  0.00     0.066 C 
ATOM     11  C   UNL A   1      34.900  22.661  23.828  1.00  0.00     0.262 C 
ATOM     12  C   UNL A   1      35.503  20.971  25.490  1.00  0.00     0.262 C 
ATOM     13  N   UNL A   1      34.566  21.389  24.458  1.00  0.00    -0.332 N 
ATOM     14  H   UNL A   1      34.695  20.693  23.724  1.00  0.00     0.348 HD
BRANCH  13  15
ATOM     15  C   UNL A   1      33.136  21.264  24.829  1.00  0.00     0.308 C 
BRANCH  15  16
ATOM     16  C   UNL A   1      32.168  20.134  24.333  1.00  0.00     0.232 C 
ATOM     17  C   UNL A   1      32.555  19.407  23.038  1.00  0.00     0.090 C 
ATOM     18  O   UNL A   1      31.920  19.138  25.364  1.00  0.00    -0.484 OA
ATOM     19  C   UNL A   1      33.075  18.152  23.623  1.00  0.00    -0.002 A 
ATOM     20  C   UNL A   1      32.619  18.038  24.927  1.00  0.00     0.123 A 
ATOM     21  C   UNL A   1      33.920  17.201  23.083  1.00  0.00     0.007 A 
ATOM     22  C   UNL A   1      32.988  16.989  25.748  1.00  0.00     0.047 A 
ATOM     23  C   UNL A   1      34.342  16.156  23.909  1.00  0.00     0.001 A 
ATOM     24  C   UNL A   1      33.885  16.053  25.235  1.00  0.00     0.004 A 
ENDBRANCH  15  16
ENDBRANCH  13  15
ENDBRANCH   7   8
ENDBRANCH   5   7
ENDBRANCH   2   3
ENDBRANCH   1   2
BRANCH   1  25
ATOM     25  C   UNL A   1      42.926  21.254  25.988  1.00  0.00     0.023 C 
BRANCH  25  26
ATOM     26  C   UNL A   1      42.700  22.634  25.387  1.00  0.00     0.116 C 
BRANCH  26  27
ATOM     27  N   UNL A   1      43.922  23.258  24.907  1.00  0.00    -0.352 N 
ATOM     28  C   UNL A   1      44.428  24.505  25.197  1.00  0.00     0.251 C 
ATOM     29  H   UNL A   1      44.462  22.713  24.290  1.00  0.00     0.163 HD
ATOM     30  O   UNL A   1      45.411  24.927  24.606  1.00  0.00    -0.269 OA
BRANCH  28  31
ATOM     31  C   UNL A   1      43.751  25.352  26.206  1.00  0.00     0.039 A 
ATOM     32  C   UNL A   1      42.960  24.736  27.179  1.00  0.00     0.014 A 
ATOM     33  C   UNL A   1      43.913  26.739  26.207  1.00  0.00     0.014 A 
ATOM     34  C   UNL A   1      42.390  25.505  28.196  1.00  0.00     0.010 A 
ATOM     35  C   UNL A   1      43.410  27.494  27.265  1.00  0.00     0.010 A 
ATOM     36  C   UNL A   1      42.644  26.885  28.271  1.00  0.00    -0.014 A 
BRANCH  36  37
ATOM     37  C   UNL A   1      42.124  27.703  29.397  1.00  0.00     0.031 A 
ATOM     38  C   UNL A   1      42.783  27.640  30.748  1.00  0.00     0.074 A 
ATOM     39  C   UNL A   1      41.021  28.457  29.222  1.00  0.00     0.049 A 
ATOM     40  N   UNL A   1      42.435  28.226  31.866  1.00  0.00    -0.248 NA
ATOM     41  C   UNL A   1      43.973  26.783  30.864  1.00  0.00     0.031 C 
ATOM     42  C   UNL A   1      40.261  28.568  27.976  1.00  0.00     0.029 A 
ATOM     43  N   UNL A   1      40.339  29.264  30.099  1.00  0.00    -0.354 N 
ATOM     44  C   UNL A   1      43.357  27.805  32.816  1.00  0.00     0.074 A 
ATOM     45  C   UNL A   1      44.241  26.867  32.159  1.00  0.00     0.031 C 
ATOM     46  C   UNL A   1      39.232  29.412  28.162  1.00  0.00     0.029 A 
ATOM     47  C   UNL A   1      39.234  29.868  29.548  1.00  0.00     0.049 A 
ATOM     48  H   UNL A   1      40.617  29.399  31.034  1.00  0.00     0.167 HD
ATOM     49  C   UNL A   1      43.474  28.183  34.111  1.00  0.00     0.037 A 
ATOM     50  C   UNL A   1      38.319  30.688  30.100  1.00  0.00     0.037 A 
ATOM     51  C   UNL A   1      42.602  29.128  34.760  1.00  0.00     0.049 A 
ATOM     52  C   UNL A   1      38.458  31.079  31.546  1.00  0.00     0.074 A 
ATOM     53  C   UNL A   1      42.668  29.613  36.054  1.00  0.00     0.029 A 
ATOM     54  N   UNL A   1      41.502  29.728  34.164  1.00  0.00    -0.354 N 
ATOM     55  N   UNL A   1      39.374  30.724  32.414  1.00  0.00    -0.248 NA
ATOM     56  C   UNL A   1      37.440  31.989  32.088  1.00  0.00     0.031 C 
ATOM     57  C   UNL A   1      41.579  30.467  36.258  1.00  0.00     0.029 A 
ATOM     58  C   UNL A   1      40.868  30.559  35.073  1.00  0.00     0.049 A 
ATOM     59  H   UNL A   1      41.215  29.583  33.233  1.00  0.00     0.167 HD
ATOM     60  C   UNL A   1      39.060  31.389  33.593  1.00  0.00     0.074 A 
ATOM     61  C   UNL A   1      37.879  32.181  33.323  1.00  0.00     0.031 C 
ATOM     62  C   UNL A   1      39.695  31.348  34.789  1.00  0.00     0.037 A 
BRANCH  49  63
ATOM     63  C   UNL A   1      44.590  27.576  34.912  1.00  0.00     0.057 A 
ATOM     64  C   UNL A   1      44.405  26.415  35.676  1.00  0.00     0.134 A 
ATOM     65  C   UNL A   1      45.873  28.136  34.894  1.00  0.00     0.134 A 
ATOM     66  F   UNL A   1      43.198  25.833  35.748  1.00  0.00    -0.206 F 
ATOM     67  C   UNL A   1      45.446  25.852  36.416  1.00  0.00     0.040 A 
ATOM     68  C   UNL A   1      46.930  27.565  35.605  1.00  0.00     0.040 A 
ATOM     69  F   UNL A   1      46.124  29.243  34.178  1.00  0.00    -0.206 F 
ATOM     70  C   UNL A   1      46.716  26.424  36.375  1.00  0.00     0.006 A 
ENDBRANCH  49  63
BRANCH  50  71
ATOM     71  C   UNL A   1      37.194  31.208  29.280  1.00  0.00     0.057 A 
ATOM     72  C   UNL A   1      37.216  32.508  28.763  1.00  0.00     0.134 A 
ATOM     73  C   UNL A   1      36.067  30.424  29.004  1.00  0.00     0.134 A 
ATOM     74  F   UNL A   1      38.258  33.315  29.008  1.00  0.00    -0.206 F 
ATOM     75  C   UNL A   1      36.149  33.019  28.021  1.00  0.00     0.040 A 
ATOM     76  C   UNL A   1      35.006  30.912  28.240  1.00  0.00     0.040 A 
ATOM     77  F   UNL A   1      35.988  29.166  29.465  1.00  0.00    -0.206 F 
ATOM     78  C   UNL A   1      35.041  32.216  27.754  1.00  0.00     0.006 A 
ENDBRANCH  50  71
BRANCH  62  79
ATOM     79  C   UNL A   1      39.149  32.212  35.889  1.00  0.00     0.057 A 
ATOM     80  C   UNL A   1      38.261  31.716  36.853  1.00  0.00     0.134 A 
ATOM     81  C   UNL A   1      39.547  33.550  36.008  1.00  0.00     0.134 A 
ATOM     82  F   UNL A   1      37.829  30.448  36.790  1.00  0.00    -0.206 F 
ATOM     83  C   UNL A   1      37.771  32.526  37.879  1.00  0.00     0.040 A 
ATOM     84  C   UNL A   1      39.087  34.361  37.046  1.00  0.00     0.040 A 
ATOM     85  F   UNL A   1      40.403  34.087  35.124  1.00  0.00    -0.206 F 
ATOM     86  C   UNL A   1      38.191  33.851  37.981  1.00  0.00     0.006 A 
ENDBRANCH  62  79
ENDBRANCH  36  37
ENDBRANCH  28  31
ENDBRANCH  26  27
ENDBRANCH  25  26
ENDBRANCH   1  25
TORSDOF 14
ENDMDL
MODEL 2
REMARK VINA RESULT:     -12.6      3.004      7.906
REMARK SMILES O=C(CC1CC[NH+](C[C@H]2Cc3ccccc3O2)CC1)NCCCCNC(=O)c1ccc(-c2c3nc(c(-c4c(F)cccc4F)c4ccc([nH]4)c(-c4c(F)cccc4F)c4nc(c(-c5c(F)cccc5F)c5ccc2[nH]5)C=C4)C=C3)cc1
REMARK SMILES IDX 22 1 21 2 20 3 1 4 2 5 3 7 4 8 5 9 19 10 6 11 18 12 7 13
REMARK SMILES IDX 8 15 9 16 10 17 17 18 11 19 16 20 12 21 15 22 13 23 14 24
REMARK SMILES IDX 23 25 24 26 25 27 26 28 27 30 28 31 29 32 81 33 30 34 80 35
REMARK SMILES IDX 31 36 32 37 33 38 74 39 34 40 79 41 73 42 75 43 35 44 78 45
REMARK SMILES IDX 72 46 71 47 36 49 62 50 45 51 61 52 46 53 49 54 60 55 76 56
REMARK SMILES IDX 47 57 48 58 59 60 77 61 50 62 37 63 38 64 43 65 39 66 40 67
REMARK SMILES IDX 42 68 44 69 41 70 63 71 64 72 69 73 65 74 66 75 68 76 70 77
REMARK SMILES IDX 67 78 51 79 52 80 57 81 53 82 54 83 56 84 58 85 55 86
REMARK H PARENT 20 6 7 14 25 29 75 48 49 59
REMARK Flexibility Score: inf
ROOT
ATOM      1  C   UNL A   1      31.652  30.767  26.101  1.00  0.00     0.023 C 
ENDROOT
BRANCH   1   2
ATOM      2  C   UNL A   1      31.984  29.722  27.166  1.00  0.00     0.116 C 
BRANCH   2   3
ATOM      3  N   UNL A   1      31.972  28.362  26.659  1.00  0.00    -0.356 N 
ATOM      4  O   UNL A   1      34.234  28.229  26.576  1.00  0.00    -0.275 OA
ATOM      5  C   UNL A   1      33.139  27.673  26.478  1.00  0.00     0.220 C 
ATOM      6  H   UNL A   1      31.114  27.930  26.444  1.00  0.00     0.163 HD
BRANCH   5   7
ATOM      7  C   UNL A   1      33.072  26.197  26.116  1.00  0.00     0.104 C 
BRANCH   7   8
ATOM      8  C   UNL A   1      33.761  25.576  24.883  1.00  0.00     0.009 C 
ATOM      9  C   UNL A   1      32.927  24.700  23.937  1.00  0.00     0.066 C 
ATOM     10  C   UNL A   1      34.969  24.739  25.358  1.00  0.00     0.066 C 
ATOM     11  C   UNL A   1      32.692  23.254  24.382  1.00  0.00     0.262 C 
ATOM     12  C   UNL A   1      34.545  23.398  25.972  1.00  0.00     0.262 C 
ATOM     13  N   UNL A   1      33.826  22.581  25.006  1.00  0.00    -0.332 N 
ATOM     14  H   UNL A   1      34.501  22.453  24.252  1.00  0.00     0.348 HD
BRANCH  13  15
ATOM     15  C   UNL A   1      33.525  21.202  25.459  1.00  0.00     0.308 C 
BRANCH  15  16
ATOM     16  C   UNL A   1      32.391  20.286  24.880  1.00  0.00     0.232 C 
ATOM     17  C   UNL A   1      32.591  19.750  23.456  1.00  0.00     0.090 C 
ATOM     18  O   UNL A   1      32.096  19.163  25.757  1.00  0.00    -0.484 OA
ATOM     19  C   UNL A   1      32.992  18.364  23.783  1.00  0.00    -0.002 A 
ATOM     20  C   UNL A   1      32.620  18.082  25.089  1.00  0.00     0.123 A 
ATOM     21  C   UNL A   1      33.672  17.431  23.023  1.00  0.00     0.007 A 
ATOM     22  C   UNL A   1      32.914  16.876  25.694  1.00  0.00     0.047 A 
ATOM     23  C   UNL A   1      34.019  16.221  23.631  1.00  0.00     0.001 A 
ATOM     24  C   UNL A   1      33.649  15.947  24.959  1.00  0.00     0.004 A 
ENDBRANCH  15  16
ENDBRANCH  13  15
ENDBRANCH   7   8
ENDBRANCH   5   7
ENDBRANCH   2   3
ENDBRANCH   1   2
BRANCH   1  25
ATOM     25  C   UNL A   1      31.388  32.170  26.647  1.00  0.00     0.023 C 
BRANCH  25  26
ATOM     26  C   UNL A   1      32.614  32.897  27.184  1.00  0.00     0.116 C 
BRANCH  26  27
ATOM     27  N   UNL A   1      32.333  34.256  27.612  1.00  0.00    -0.352 N 
ATOM     28  C   UNL A   1      32.967  35.008  28.576  1.00  0.00     0.251 C 
ATOM     29  H   UNL A   1      31.586  34.701  27.150  1.00  0.00     0.163 HD
ATOM     30  O   UNL A   1      32.521  36.098  28.904  1.00  0.00    -0.269 OA
BRANCH  28  31
ATOM     31  C   UNL A   1      34.175  34.471  29.244  1.00  0.00     0.039 A 
ATOM     32  C   UNL A   1      34.036  33.855  30.490  1.00  0.00     0.014 A 
ATOM     33  C   UNL A   1      35.430  34.553  28.637  1.00  0.00     0.014 A 
ATOM     34  C   UNL A   1      35.145  33.257  31.093  1.00  0.00     0.010 A 
ATOM     35  C   UNL A   1      36.517  33.890  29.202  1.00  0.00     0.010 A 
ATOM     36  C   UNL A   1      36.387  33.234  30.436  1.00  0.00    -0.014 A 
BRANCH  36  37
ATOM     37  C   UNL A   1      37.554  32.522  31.018  1.00  0.00     0.031 A 
ATOM     38  C   UNL A   1      38.176  33.008  32.299  1.00  0.00     0.074 A 
ATOM     39  C   UNL A   1      38.094  31.476  30.363  1.00  0.00     0.049 A 
ATOM     40  N   UNL A   1      39.236  32.560  32.924  1.00  0.00    -0.248 NA
ATOM     41  C   UNL A   1      37.539  34.164  32.948  1.00  0.00     0.031 C 
ATOM     42  C   UNL A   1      37.615  30.937  29.089  1.00  0.00     0.029 A 
ATOM     43  N   UNL A   1      39.173  30.685  30.673  1.00  0.00    -0.354 N 
ATOM     44  C   UNL A   1      39.395  33.384  34.032  1.00  0.00     0.074 A 
ATOM     45  C   UNL A   1      38.362  34.393  33.961  1.00  0.00     0.031 C 
ATOM     46  C   UNL A   1      38.382  29.891  28.738  1.00  0.00     0.029 A 
ATOM     47  C   UNL A   1      39.430  29.712  29.736  1.00  0.00     0.049 A 
ATOM     48  H   UNL A   1      39.710  30.804  31.489  1.00  0.00     0.167 HD
ATOM     49  C   UNL A   1      40.304  33.293  35.033  1.00  0.00     0.037 A 
ATOM     50  C   UNL A   1      40.407  28.786  29.683  1.00  0.00     0.037 A 
ATOM     51  C   UNL A   1      41.323  32.279  35.110  1.00  0.00     0.049 A 
ATOM     52  C   UNL A   1      41.416  28.717  30.796  1.00  0.00     0.074 A 
ATOM     53  C   UNL A   1      42.259  32.072  36.109  1.00  0.00     0.029 A 
ATOM     54  N   UNL A   1      41.543  31.302  34.150  1.00  0.00    -0.354 N 
ATOM     55  N   UNL A   1      41.515  29.461  31.872  1.00  0.00    -0.248 NA
ATOM     56  C   UNL A   1      42.448  27.676  30.692  1.00  0.00     0.031 C 
ATOM     57  C   UNL A   1      43.078  31.004  35.729  1.00  0.00     0.029 A 
ATOM     58  C   UNL A   1      42.615  30.508  34.521  1.00  0.00     0.049 A 
ATOM     59  H   UNL A   1      41.015  31.192  33.326  1.00  0.00     0.167 HD
ATOM     60  C   UNL A   1      42.596  28.960  32.584  1.00  0.00     0.074 A 
ATOM     61  C   UNL A   1      43.111  27.839  31.827  1.00  0.00     0.031 C 
ATOM     62  C   UNL A   1      43.115  29.389  33.760  1.00  0.00     0.037 A 
BRANCH  49  63
ATOM     63  C   UNL A   1      40.232  34.318  36.129  1.00  0.00     0.057 A 
ATOM     64  C   UNL A   1      39.417  34.140  37.255  1.00  0.00     0.134 A 
ATOM     65  C   UNL A   1      41.012  35.480  36.076  1.00  0.00     0.134 A 
ATOM     66  F   UNL A   1      38.636  33.055  37.364  1.00  0.00    -0.206 F 
ATOM     67  C   UNL A   1      39.357  35.094  38.273  1.00  0.00     0.040 A 
ATOM     68  C   UNL A   1      40.984  36.427  37.101  1.00  0.00     0.040 A 
ATOM     69  F   UNL A   1      41.821  35.711  35.030  1.00  0.00    -0.206 F 
ATOM     70  C   UNL A   1      40.148  36.238  38.200  1.00  0.00     0.006 A 
ENDBRANCH  49  63
BRANCH  50  71
ATOM     71  C   UNL A   1      40.473  27.839  28.541  1.00  0.00     0.057 A 
ATOM     72  C   UNL A   1      41.213  28.139  27.392  1.00  0.00     0.134 A 
ATOM     73  C   UNL A   1      39.788  26.617  28.565  1.00  0.00     0.134 A 
ATOM     74  F   UNL A   1      41.875  29.301  27.300  1.00  0.00    -0.206 F 
ATOM     75  C   UNL A   1      41.252  27.271  26.298  1.00  0.00     0.040 A 
ATOM     76  C   UNL A   1      39.841  25.728  27.491  1.00  0.00     0.040 A 
ATOM     77  F   UNL A   1      39.066  26.266  29.640  1.00  0.00    -0.206 F 
ATOM     78  C   UNL A   1      40.568  26.059  26.349  1.00  0.00     0.006 A 
ENDBRANCH  50  71
BRANCH  62  79
ATOM     79  C   UNL A   1      44.277  28.622  34.323  1.00  0.00     0.057 A 
ATOM     80  C   UNL A   1      45.604  28.985  34.061  1.00  0.00     0.134 A 
ATOM     81  C   UNL A   1      44.063  27.526  35.170  1.00  0.00     0.134 A 
ATOM     82  F   UNL A   1      45.879  30.016  33.247  1.00  0.00    -0.206 F 
ATOM     83  C   UNL A   1      46.676  28.272  34.600  1.00  0.00     0.040 A 
ATOM     84  C   UNL A   1      45.126  26.825  35.739  1.00  0.00     0.040 A 
ATOM     85  F   UNL A   1      42.816  27.130  35.470  1.00  0.00    -0.206 F 
ATOM     86  C   UNL A   1      46.437  27.193  35.449  1.00  0.00     0.006 A 
ENDBRANCH  62  79
ENDBRANCH  36  37
ENDBRANCH  28  31
ENDBRANCH  26  27
ENDBRANCH  25  26
ENDBRANCH   1  25
TORSDOF 14
ENDMDL
MODEL 3
REMARK VINA RESULT:     -12.6      3.208      8.306
REMARK SMILES O=C(CC1CC[NH+](C[C@H]2Cc3ccccc3O2)CC1)NCCCCNC(=O)c1ccc(-c2c3nc(c(-c4c(F)cccc4F)c4ccc([nH]4)c(-c4c(F)cccc4F)c4nc(c(-c5c(F)cccc5F)c5ccc2[nH]5)C=C4)C=C3)cc1
REMARK SMILES IDX 22 1 21 2 20 3 1 4 2 5 3 7 4 8 5 9 19 10 6 11 18 12 7 13
REMARK SMILES IDX 8 15 9 16 10 17 17 18 11 19 16 20 12 21 15 22 13 23 14 24
REMARK SMILES IDX 23 25 24 26 25 27 26 28 27 30 28 31 29 32 81 33 30 34 80 35
REMARK SMILES IDX 31 36 32 37 33 38 74 39 34 40 79 41 73 42 75 43 35 44 78 45
REMARK SMILES IDX 72 46 71 47 36 49 62 50 45 51 61 52 46 53 49 54 60 55 76 56
REMARK SMILES IDX 47 57 48 58 59 60 77 61 50 62 37 63 38 64 43 65 39 66 40 67
REMARK SMILES IDX 42 68 44 69 41 70 63 71 64 72 69 73 65 74 66 75 68 76 70 77
REMARK SMILES IDX 67 78 51 79 52 80 57 81 53 82 54 83 56 84 58 85 55 86
REMARK H PARENT 20 6 7 14 25 29 75 48 49 59
REMARK Flexibility Score: inf
ROOT
ATOM      1  C   UNL A   1      31.768  30.611  26.145  1.00  0.00     0.023 C 
ENDROOT
BRANCH   1   2
ATOM      2  C   UNL A   1      32.776  29.885  27.036  1.00  0.00     0.116 C 
BRANCH   2   3
ATOM      3  N   UNL A   1      33.015  28.512  26.633  1.00  0.00    -0.356 N 
ATOM      4  O   UNL A   1      31.235  27.719  27.793  1.00  0.00    -0.275 OA
ATOM      5  C   UNL A   1      32.146  27.518  26.988  1.00  0.00     0.220 C 
ATOM      6  H   UNL A   1      33.811  28.294  26.097  1.00  0.00     0.163 HD
BRANCH   5   7
ATOM      7  C   UNL A   1      32.338  26.129  26.398  1.00  0.00     0.104 C 
BRANCH   7   8
ATOM      8  C   UNL A   1      33.138  25.838  25.112  1.00  0.00     0.009 C 
ATOM      9  C   UNL A   1      32.473  25.009  24.002  1.00  0.00     0.066 C 
ATOM     10  C   UNL A   1      34.459  25.135  25.496  1.00  0.00     0.066 C 
ATOM     11  C   UNL A   1      32.471  23.490  24.199  1.00  0.00     0.262 C 
ATOM     12  C   UNL A   1      34.250  23.661  25.869  1.00  0.00     0.262 C 
ATOM     13  N   UNL A   1      33.689  22.912  24.754  1.00  0.00    -0.332 N 
ATOM     14  H   UNL A   1      34.387  23.019  24.019  1.00  0.00     0.348 HD
BRANCH  13  15
ATOM     15  C   UNL A   1      33.609  21.447  24.967  1.00  0.00     0.308 C 
BRANCH  15  16
ATOM     16  C   UNL A   1      32.393  20.539  24.572  1.00  0.00     0.232 C 
ATOM     17  C   UNL A   1      32.455  19.854  23.200  1.00  0.00     0.090 C 
ATOM     18  O   UNL A   1      32.118  19.527  25.580  1.00  0.00    -0.484 OA
ATOM     19  C   UNL A   1      32.817  18.488  23.639  1.00  0.00    -0.002 A 
ATOM     20  C   UNL A   1      32.537  18.359  24.991  1.00  0.00     0.123 A 
ATOM     21  C   UNL A   1      33.391  17.449  22.932  1.00  0.00     0.007 A 
ATOM     22  C   UNL A   1      32.823  17.205  25.695  1.00  0.00     0.047 A 
ATOM     23  C   UNL A   1      33.730  16.289  23.634  1.00  0.00     0.001 A 
ATOM     24  C   UNL A   1      33.455  16.169  25.008  1.00  0.00     0.004 A 
ENDBRANCH  15  16
ENDBRANCH  13  15
ENDBRANCH   7   8
ENDBRANCH   5   7
ENDBRANCH   2   3
ENDBRANCH   1   2
BRANCH   1  25
ATOM     25  C   UNL A   1      31.453  32.044  26.575  1.00  0.00     0.023 C 
BRANCH  25  26
ATOM     26  C   UNL A   1      32.557  32.742  27.358  1.00  0.00     0.116 C 
BRANCH  26  27
ATOM     27  N   UNL A   1      32.280  34.146  27.611  1.00  0.00    -0.352 N 
ATOM     28  C   UNL A   1      32.901  35.005  28.490  1.00  0.00     0.251 C 
ATOM     29  H   UNL A   1      31.548  34.537  27.080  1.00  0.00     0.163 HD
ATOM     30  O   UNL A   1      32.459  36.131  28.671  1.00  0.00    -0.269 OA
BRANCH  28  31
ATOM     31  C   UNL A   1      34.088  34.546  29.246  1.00  0.00     0.039 A 
ATOM     32  C   UNL A   1      33.896  33.905  30.473  1.00  0.00     0.014 A 
ATOM     33  C   UNL A   1      35.377  34.722  28.739  1.00  0.00     0.014 A 
ATOM     34  C   UNL A   1      34.994  33.379  31.157  1.00  0.00     0.010 A 
ATOM     35  C   UNL A   1      36.461  34.129  29.383  1.00  0.00     0.010 A 
ATOM     36  C   UNL A   1      36.282  33.450  30.598  1.00  0.00    -0.014 A 
BRANCH  36  37
ATOM     37  C   UNL A   1      37.447  32.814  31.265  1.00  0.00     0.031 A 
ATOM     38  C   UNL A   1      38.101  31.603  30.657  1.00  0.00     0.074 A 
ATOM     39  C   UNL A   1      37.880  33.287  32.450  1.00  0.00     0.049 A 
ATOM     40  N   UNL A   1      39.082  30.872  31.123  1.00  0.00    -0.248 NA
ATOM     41  C   UNL A   1      37.564  31.136  29.370  1.00  0.00     0.031 C 
ATOM     42  C   UNL A   1      37.301  34.425  33.169  1.00  0.00     0.029 A 
ATOM     43  N   UNL A   1      38.899  32.863  33.267  1.00  0.00    -0.354 N 
ATOM     44  C   UNL A   1      39.273  29.859  30.193  1.00  0.00     0.074 A 
ATOM     45  C   UNL A   1      38.268  30.032  29.167  1.00  0.00     0.031 C 
ATOM     46  C   UNL A   1      37.989  34.621  34.307  1.00  0.00     0.029 A 
ATOM     47  C   UNL A   1      39.026  33.601  34.419  1.00  0.00     0.049 A 
ATOM     48  H   UNL A   1      39.484  32.102  33.047  1.00  0.00     0.167 HD
ATOM     49  C   UNL A   1      40.216  28.886  30.178  1.00  0.00     0.037 A 
ATOM     50  C   UNL A   1      39.876  33.465  35.456  1.00  0.00     0.037 A 
ATOM     51  C   UNL A   1      41.225  28.723  31.192  1.00  0.00     0.049 A 
ATOM     52  C   UNL A   1      40.902  32.365  35.426  1.00  0.00     0.074 A 
ATOM     53  C   UNL A   1      42.255  27.799  31.241  1.00  0.00     0.029 A 
ATOM     54  N   UNL A   1      41.330  29.499  32.337  1.00  0.00    -0.354 N 
ATOM     55  N   UNL A   1      41.113  31.455  34.507  1.00  0.00    -0.248 NA
ATOM     56  C   UNL A   1      41.812  32.277  36.577  1.00  0.00     0.031 C 
ATOM     57  C   UNL A   1      42.951  27.983  32.441  1.00  0.00     0.029 A 
ATOM     58  C   UNL A   1      42.391  29.059  33.110  1.00  0.00     0.049 A 
ATOM     59  H   UNL A   1      40.737  30.251  32.565  1.00  0.00     0.167 HD
ATOM     60  C   UNL A   1      42.195  30.707  34.952  1.00  0.00     0.074 A 
ATOM     61  C   UNL A   1      42.607  31.281  36.215  1.00  0.00     0.031 C 
ATOM     62  C   UNL A   1      42.795  29.643  34.365  1.00  0.00     0.037 A 
BRANCH  49  63
ATOM     63  C   UNL A   1      40.202  27.925  29.024  1.00  0.00     0.057 A 
ATOM     64  C   UNL A   1      40.914  28.176  27.843  1.00  0.00     0.134 A 
ATOM     65  C   UNL A   1      39.497  26.717  29.106  1.00  0.00     0.134 A 
ATOM     66  F   UNL A   1      41.600  29.319  27.694  1.00  0.00    -0.206 F 
ATOM     67  C   UNL A   1      40.900  27.277  26.775  1.00  0.00     0.040 A 
ATOM     68  C   UNL A   1      39.501  25.796  28.056  1.00  0.00     0.040 A 
ATOM     69  F   UNL A   1      38.800  26.407  30.210  1.00  0.00    -0.206 F 
ATOM     70  C   UNL A   1      40.198  26.079  26.883  1.00  0.00     0.006 A 
ENDBRANCH  49  63
BRANCH  50  71
ATOM     71  C   UNL A   1      39.803  34.403  36.606  1.00  0.00     0.057 A 
ATOM     72  C   UNL A   1      40.544  35.590  36.620  1.00  0.00     0.134 A 
ATOM     73  C   UNL A   1      39.003  34.130  37.722  1.00  0.00     0.134 A 
ATOM     74  F   UNL A   1      41.343  35.899  35.588  1.00  0.00    -0.206 F 
ATOM     75  C   UNL A   1      40.510  36.461  37.711  1.00  0.00     0.040 A 
ATOM     76  C   UNL A   1      38.939  35.005  38.808  1.00  0.00     0.040 A 
ATOM     77  F   UNL A   1      38.263  33.012  37.769  1.00  0.00    -0.206 F 
ATOM     78  C   UNL A   1      39.701  36.171  38.807  1.00  0.00     0.006 A 
ENDBRANCH  50  71
BRANCH  62  79
ATOM     79  C   UNL A   1      43.985  29.050  35.064  1.00  0.00     0.057 A 
ATOM     80  C   UNL A   1      43.862  27.992  35.973  1.00  0.00     0.134 A 
ATOM     81  C   UNL A   1      45.277  29.522  34.793  1.00  0.00     0.134 A 
ATOM     82  F   UNL A   1      42.653  27.502  36.286  1.00  0.00    -0.206 F 
ATOM     83  C   UNL A   1      44.978  27.441  36.605  1.00  0.00     0.040 A 
ATOM     84  C   UNL A   1      46.402  28.959  35.397  1.00  0.00     0.040 A 
ATOM     85  F   UNL A   1      45.467  30.528  33.925  1.00  0.00    -0.206 F 
ATOM     86  C   UNL A   1      46.253  27.919  36.311  1.00  0.00     0.006 A 
ENDBRANCH  62  79
ENDBRANCH  36  37
ENDBRANCH  28  31
ENDBRANCH  26  27
ENDBRANCH  25  26
ENDBRANCH   1  25
TORSDOF 14
ENDMDL
