MODEL 1
REMARK VINA RESULT:     -12.1      0.000      0.000
REMARK SMILES O=C(NCCCCNC(=O)c1ccc(S(=O)(=O)NCc2ccn[nH]2)c(F)c1)c1ccc(-c2c3nc(c(-c4c(F)cccc4F)c4ccc([nH]4)c(-c4c(F)cccc4F)c4nc(c(-c5c(F)cccc5F)c5ccc2[nH]5)C=C4)C=C3)cc1
REMARK SMILES IDX 6 1 5 2 4 3 3 4 1 5 2 6 28 8 29 9 81 10 30 11 80 12 31 13
REMARK SMILES IDX 32 14 33 15 74 16 34 17 79 18 73 19 75 20 35 21 78 22 72 23
REMARK SMILES IDX 71 24 36 26 62 27 45 28 61 29 46 30 49 31 60 32 76 33 47 34
REMARK SMILES IDX 48 35 59 37 77 38 50 39 37 40 38 41 43 42 39 43 40 44 42 45
REMARK SMILES IDX 44 46 41 47 63 48 64 49 69 50 65 51 66 52 68 53 70 54 67 55
REMARK SMILES IDX 51 56 52 57 57 58 53 59 54 60 56 61 58 62 55 63 7 64 8 65
REMARK SMILES IDX 9 66 10 68 11 69 12 70 27 71 13 72 25 73 14 74 26 75 15 76
REMARK SMILES IDX 16 77 17 78 18 79 19 81 20 82 21 83 24 84 22 85 23 86
REMARK H PARENT 3 7 75 25 49 36 8 67 18 80 24 87
REMARK Flexibility Score: inf
ROOT
ATOM      1  C   UNL A   1      36.504  20.442  24.934  1.00  0.00     0.023 C 
ENDROOT
BRANCH   1   2
ATOM      2  C   UNL A   1      37.764  19.580  24.910  1.00  0.00     0.023 C 
BRANCH   2   3
ATOM      3  C   UNL A   1      38.948  20.120  25.703  1.00  0.00     0.116 C 
BRANCH   3   4
ATOM      4  N   UNL A   1      40.099  19.230  25.692  1.00  0.00    -0.352 N 
ATOM      5  O   UNL A   1      42.268  18.637  25.842  1.00  0.00    -0.269 OA
ATOM      6  C   UNL A   1      41.405  19.491  26.028  1.00  0.00     0.251 C 
ATOM      7  H   UNL A   1      39.914  18.308  25.402  1.00  0.00     0.163 HD
BRANCH   6   8
ATOM      8  C   UNL A   1      41.784  20.808  26.586  1.00  0.00     0.039 A 
ATOM      9  C   UNL A   1      41.740  21.048  27.961  1.00  0.00     0.014 A 
ATOM     10  C   UNL A   1      42.207  21.817  25.713  1.00  0.00     0.014 A 
ATOM     11  C   UNL A   1      41.987  22.328  28.448  1.00  0.00     0.010 A 
ATOM     12  C   UNL A   1      42.526  23.083  26.212  1.00  0.00     0.010 A 
ATOM     13  C   UNL A   1      42.391  23.356  27.581  1.00  0.00    -0.014 A 
BRANCH  13  14
ATOM     14  C   UNL A   1      42.725  24.689  28.141  1.00  0.00     0.031 A 
ATOM     15  C   UNL A   1      44.147  25.079  28.433  1.00  0.00     0.074 A 
ATOM     16  C   UNL A   1      41.727  25.569  28.350  1.00  0.00     0.049 A 
ATOM     17  N   UNL A   1      44.608  26.213  28.896  1.00  0.00    -0.248 NA
ATOM     18  C   UNL A   1      45.186  24.069  28.176  1.00  0.00     0.031 C 
ATOM     19  C   UNL A   1      40.307  25.302  28.111  1.00  0.00     0.029 A 
ATOM     20  N   UNL A   1      41.753  26.869  28.786  1.00  0.00    -0.354 N 
ATOM     21  C   UNL A   1      45.983  26.052  29.001  1.00  0.00     0.074 A 
ATOM     22  C   UNL A   1      46.284  24.704  28.569  1.00  0.00     0.031 C 
ATOM     23  C   UNL A   1      39.604  26.417  28.355  1.00  0.00     0.029 A 
ATOM     24  C   UNL A   1      40.514  27.461  28.815  1.00  0.00     0.049 A 
ATOM     25  H   UNL A   1      42.579  27.332  29.053  1.00  0.00     0.167 HD
ATOM     26  C   UNL A   1      46.908  26.952  29.411  1.00  0.00     0.037 A 
ATOM     27  C   UNL A   1      40.146  28.703  29.179  1.00  0.00     0.037 A 
ATOM     28  C   UNL A   1      46.610  28.300  29.818  1.00  0.00     0.049 A 
ATOM     29  C   UNL A   1      41.191  29.673  29.641  1.00  0.00     0.074 A 
ATOM     30  C   UNL A   1      47.490  29.292  30.220  1.00  0.00     0.029 A 
ATOM     31  N   UNL A   1      45.338  28.847  29.874  1.00  0.00    -0.354 N 
ATOM     32  N   UNL A   1      42.488  29.506  29.722  1.00  0.00    -0.248 NA
ATOM     33  C   UNL A   1      40.722  30.996  30.075  1.00  0.00     0.031 C 
ATOM     34  C   UNL A   1      46.746  30.431  30.547  1.00  0.00     0.029 A 
ATOM     35  C   UNL A   1      45.408  30.157  30.318  1.00  0.00     0.049 A 
ATOM     36  H   UNL A   1      44.508  28.376  29.632  1.00  0.00     0.167 HD
ATOM     37  C   UNL A   1      42.992  30.701  30.215  1.00  0.00     0.074 A 
ATOM     38  C   UNL A   1      41.863  31.592  30.393  1.00  0.00     0.031 C 
ATOM     39  C   UNL A   1      44.275  31.026  30.499  1.00  0.00     0.037 A 
BRANCH  26  40
ATOM     40  C   UNL A   1      48.342  26.517  29.448  1.00  0.00     0.057 A 
ATOM     41  C   UNL A   1      49.173  26.704  28.336  1.00  0.00     0.134 A 
ATOM     42  C   UNL A   1      48.872  25.832  30.546  1.00  0.00     0.134 A 
ATOM     43  F   UNL A   1      48.721  27.348  27.249  1.00  0.00    -0.206 F 
ATOM     44  C   UNL A   1      50.478  26.211  28.310  1.00  0.00     0.040 A 
ATOM     45  C   UNL A   1      50.182  25.347  30.539  1.00  0.00     0.040 A 
ATOM     46  F   UNL A   1      48.129  25.629  31.644  1.00  0.00    -0.206 F 
ATOM     47  C   UNL A   1      50.985  25.529  29.415  1.00  0.00     0.006 A 
ENDBRANCH  26  40
BRANCH  27  48
ATOM     48  C   UNL A   1      38.717  29.089  29.111  1.00  0.00     0.057 A 
ATOM     49  C   UNL A   1      38.152  29.581  27.929  1.00  0.00     0.134 A 
ATOM     50  C   UNL A   1      37.894  29.008  30.240  1.00  0.00     0.134 A 
ATOM     51  F   UNL A   1      38.895  29.687  26.817  1.00  0.00    -0.206 F 
ATOM     52  C   UNL A   1      36.822  29.999  27.875  1.00  0.00     0.040 A 
ATOM     53  C   UNL A   1      36.556  29.403  30.194  1.00  0.00     0.040 A 
ATOM     54  F   UNL A   1      38.378  28.531  31.396  1.00  0.00    -0.206 F 
ATOM     55  C   UNL A   1      36.020  29.909  29.011  1.00  0.00     0.006 A 
ENDBRANCH  27  48
BRANCH  39  56
ATOM     56  C   UNL A   1      44.529  32.400  31.036  1.00  0.00     0.057 A 
ATOM     57  C   UNL A   1      44.511  32.648  32.414  1.00  0.00     0.134 A 
ATOM     58  C   UNL A   1      44.741  33.489  30.182  1.00  0.00     0.134 A 
ATOM     59  F   UNL A   1      44.306  31.646  33.283  1.00  0.00    -0.206 F 
ATOM     60  C   UNL A   1      44.686  33.933  32.925  1.00  0.00     0.040 A 
ATOM     61  C   UNL A   1      44.935  34.777  30.681  1.00  0.00     0.040 A 
ATOM     62  F   UNL A   1      44.780  33.312  28.853  1.00  0.00    -0.206 F 
ATOM     63  C   UNL A   1      44.901  35.003  32.056  1.00  0.00     0.006 A 
ENDBRANCH  39  56
ENDBRANCH  13  14
ENDBRANCH   6   8
ENDBRANCH   3   4
ENDBRANCH   2   3
ENDBRANCH   1   2
BRANCH   1  64
ATOM     64  C   UNL A   1      36.626  21.777  25.666  1.00  0.00     0.116 C 
BRANCH  64  65
ATOM     65  N   UNL A   1      35.569  21.992  26.646  1.00  0.00    -0.352 N 
ATOM     66  C   UNL A   1      34.466  22.808  26.592  1.00  0.00     0.251 C 
ATOM     67  H   UNL A   1      35.661  21.470  27.475  1.00  0.00     0.163 HD
ATOM     68  O   UNL A   1      33.745  22.939  27.576  1.00  0.00    -0.269 OA
BRANCH  66  69
ATOM     69  C   UNL A   1      34.167  23.574  25.366  1.00  0.00     0.042 A 
ATOM     70  C   UNL A   1      34.380  24.952  25.303  1.00  0.00     0.015 A 
ATOM     71  C   UNL A   1      33.650  22.889  24.261  1.00  0.00     0.054 A 
ATOM     72  C   UNL A   1      33.932  25.666  24.192  1.00  0.00     0.026 A 
ATOM     73  C   UNL A   1      33.240  23.603  23.138  1.00  0.00     0.144 A 
ATOM     74  C   UNL A   1      33.327  24.989  23.124  1.00  0.00     0.118 A 
ATOM     75  F   UNL A   1      32.720  22.919  22.111  1.00  0.00    -0.205 F 
BRANCH  74  76
ATOM     76  S   UNL A   1      32.572  25.978  21.873  1.00  0.00     0.243 S 
ATOM     77  O   UNL A   1      33.284  25.670  20.653  1.00  0.00    -0.207 OA
ATOM     78  O   UNL A   1      31.146  25.769  21.990  1.00  0.00    -0.207 OA
BRANCH  76  79
ATOM     79  N   UNL A   1      32.847  27.573  22.226  1.00  0.00    -0.205 NA
ATOM     80  H   UNL A   1      32.696  28.077  21.353  1.00  0.00     0.141 HD
BRANCH  79  81
ATOM     81  C   UNL A   1      32.132  28.320  23.237  1.00  0.00     0.154 C 
BRANCH  81  82
ATOM     82  C   UNL A   1      30.859  28.852  22.714  1.00  0.00     0.050 A 
ATOM     83  C   UNL A   1      29.540  28.661  23.066  1.00  0.00     0.046 A 
ATOM     84  N   UNL A   1      30.830  29.748  21.676  1.00  0.00    -0.281 N 
ATOM     85  C   UNL A   1      28.814  29.521  22.223  1.00  0.00     0.135 A 
ATOM     86  N   UNL A   1      29.604  30.214  21.400  1.00  0.00    -0.184 NA
ATOM     87  H   UNL A   1      31.635  30.022  21.180  1.00  0.00     0.190 HD
ENDBRANCH  81  82
ENDBRANCH  79  81
ENDBRANCH  76  79
ENDBRANCH  74  76
ENDBRANCH  66  69
ENDBRANCH  64  65
ENDBRANCH   1  64
TORSDOF 15
ENDMDL
MODEL 2
REMARK VINA RESULT:     -11.9      0.743      6.293
REMARK SMILES O=C(NCCCCNC(=O)c1ccc(S(=O)(=O)NCc2ccn[nH]2)c(F)c1)c1ccc(-c2c3nc(c(-c4c(F)cccc4F)c4ccc([nH]4)c(-c4c(F)cccc4F)c4nc(c(-c5c(F)cccc5F)c5ccc2[nH]5)C=C4)C=C3)cc1
REMARK SMILES IDX 6 1 5 2 4 3 3 4 1 5 2 6 28 8 29 9 81 10 30 11 80 12 31 13
REMARK SMILES IDX 32 14 33 15 74 16 34 17 79 18 73 19 75 20 35 21 78 22 72 23
REMARK SMILES IDX 71 24 36 26 62 27 45 28 61 29 46 30 49 31 60 32 76 33 47 34
REMARK SMILES IDX 48 35 59 37 77 38 50 39 37 40 38 41 43 42 39 43 40 44 42 45
REMARK SMILES IDX 44 46 41 47 63 48 64 49 69 50 65 51 66 52 68 53 70 54 67 55
REMARK SMILES IDX 51 56 52 57 57 58 53 59 54 60 56 61 58 62 55 63 7 64 8 65
REMARK SMILES IDX 9 66 10 68 11 69 12 70 27 71 13 72 25 73 14 74 26 75 15 76
REMARK SMILES IDX 16 77 17 78 18 79 19 81 20 82 21 83 24 84 22 85 23 86
REMARK H PARENT 3 7 75 25 49 36 8 67 18 80 24 87
REMARK Flexibility Score: inf
ROOT
ATOM      1  C   UNL A   1      36.492  20.627  24.762  1.00  0.00     0.023 C 
ENDROOT
BRANCH   1   2
ATOM      2  C   UNL A   1      37.869  19.973  24.654  1.00  0.00     0.023 C 
BRANCH   2   3
ATOM      3  C   UNL A   1      38.802  20.200  25.835  1.00  0.00     0.116 C 
BRANCH   3   4
ATOM      4  N   UNL A   1      39.936  19.290  25.855  1.00  0.00    -0.352 N 
ATOM      5  O   UNL A   1      42.094  18.661  26.012  1.00  0.00    -0.269 OA
ATOM      6  C   UNL A   1      41.250  19.540  26.167  1.00  0.00     0.251 C 
ATOM      7  H   UNL A   1      39.731  18.359  25.608  1.00  0.00     0.163 HD
BRANCH   6   8
ATOM      8  C   UNL A   1      41.659  20.873  26.662  1.00  0.00     0.039 A 
ATOM      9  C   UNL A   1      41.647  21.171  28.026  1.00  0.00     0.014 A 
ATOM     10  C   UNL A   1      42.078  21.838  25.739  1.00  0.00     0.014 A 
ATOM     11  C   UNL A   1      41.922  22.465  28.454  1.00  0.00     0.010 A 
ATOM     12  C   UNL A   1      42.426  23.119  26.179  1.00  0.00     0.010 A 
ATOM     13  C   UNL A   1      42.323  23.450  27.537  1.00  0.00    -0.014 A 
BRANCH  13  14
ATOM     14  C   UNL A   1      42.688  24.800  28.034  1.00  0.00     0.031 A 
ATOM     15  C   UNL A   1      41.643  25.856  28.264  1.00  0.00     0.074 A 
ATOM     16  C   UNL A   1      43.980  25.056  28.317  1.00  0.00     0.049 A 
ATOM     17  N   UNL A   1      41.794  27.073  28.721  1.00  0.00    -0.248 NA
ATOM     18  C   UNL A   1      40.252  25.506  27.937  1.00  0.00     0.031 C 
ATOM     19  C   UNL A   1      45.084  24.112  28.127  1.00  0.00     0.029 A 
ATOM     20  N   UNL A   1      44.581  26.170  28.843  1.00  0.00    -0.354 N 
ATOM     21  C   UNL A   1      40.526  27.640  28.725  1.00  0.00     0.074 A 
ATOM     22  C   UNL A   1      39.616  26.640  28.208  1.00  0.00     0.031 C 
ATOM     23  C   UNL A   1      46.218  24.668  28.578  1.00  0.00     0.029 A 
ATOM     24  C   UNL A   1      45.932  26.022  29.039  1.00  0.00     0.049 A 
ATOM     25  H   UNL A   1      44.091  26.996  29.059  1.00  0.00     0.167 HD
ATOM     26  C   UNL A   1      40.157  28.878  29.131  1.00  0.00     0.037 A 
ATOM     27  C   UNL A   1      46.844  26.882  29.528  1.00  0.00     0.037 A 
ATOM     28  C   UNL A   1      41.060  29.863  29.666  1.00  0.00     0.049 A 
ATOM     29  C   UNL A   1      46.408  28.250  29.958  1.00  0.00     0.074 A 
ATOM     30  C   UNL A   1      40.768  31.135  30.133  1.00  0.00     0.029 A 
ATOM     31  N   UNL A   1      42.428  29.689  29.809  1.00  0.00    -0.354 N 
ATOM     32  N   UNL A   1      45.203  28.764  29.965  1.00  0.00    -0.248 NA
ATOM     33  C   UNL A   1      47.458  29.162  30.433  1.00  0.00     0.031 C 
ATOM     34  C   UNL A   1      41.964  31.740  30.531  1.00  0.00     0.029 A 
ATOM     35  C   UNL A   1      42.995  30.835  30.342  1.00  0.00     0.049 A 
ATOM     36  H   UNL A   1      42.922  28.872  29.569  1.00  0.00     0.167 HD
ATOM     37  C   UNL A   1      45.346  30.057  30.446  1.00  0.00     0.074 A 
ATOM     38  C   UNL A   1      46.752  30.242  30.741  1.00  0.00     0.031 C 
ATOM     39  C   UNL A   1      44.397  31.006  30.620  1.00  0.00     0.037 A 
BRANCH  26  40
ATOM     40  C   UNL A   1      38.711  29.253  29.015  1.00  0.00     0.057 A 
ATOM     41  C   UNL A   1      37.854  29.140  30.117  1.00  0.00     0.134 A 
ATOM     42  C   UNL A   1      38.149  29.636  27.792  1.00  0.00     0.134 A 
ATOM     43  F   UNL A   1      38.331  28.771  31.315  1.00  0.00    -0.206 F 
ATOM     44  C   UNL A   1      36.484  29.381  30.003  1.00  0.00     0.040 A 
ATOM     45  C   UNL A   1      36.782  29.894  27.668  1.00  0.00     0.040 A 
ATOM     46  F   UNL A   1      38.920  29.769  26.702  1.00  0.00    -0.206 F 
ATOM     47  C   UNL A   1      35.945  29.758  28.774  1.00  0.00     0.006 A 
ENDBRANCH  26  40
BRANCH  27  48
ATOM     48  C   UNL A   1      48.260  26.459  29.636  1.00  0.00     0.057 A 
ATOM     49  C   UNL A   1      49.172  26.701  28.603  1.00  0.00     0.134 A 
ATOM     50  C   UNL A   1      48.722  25.770  30.763  1.00  0.00     0.134 A 
ATOM     51  F   UNL A   1      48.784  27.350  27.496  1.00  0.00    -0.206 F 
ATOM     52  C   UNL A   1      50.492  26.255  28.676  1.00  0.00     0.040 A 
ATOM     53  C   UNL A   1      50.045  25.337  30.859  1.00  0.00     0.040 A 
ATOM     54  F   UNL A   1      47.896  25.524  31.790  1.00  0.00    -0.206 F 
ATOM     55  C   UNL A   1      50.932  25.571  29.809  1.00  0.00     0.006 A 
ENDBRANCH  27  48
BRANCH  39  56
ATOM     56  C   UNL A   1      44.846  32.332  31.150  1.00  0.00     0.057 A 
ATOM     57  C   UNL A   1      45.266  33.348  30.282  1.00  0.00     0.134 A 
ATOM     58  C   UNL A   1      44.909  32.583  32.525  1.00  0.00     0.134 A 
ATOM     59  F   UNL A   1      45.234  33.164  28.954  1.00  0.00    -0.206 F 
ATOM     60  C   UNL A   1      45.743  34.566  30.766  1.00  0.00     0.040 A 
ATOM     61  C   UNL A   1      45.368  33.804  33.021  1.00  0.00     0.040 A 
ATOM     62  F   UNL A   1      44.509  31.653  33.405  1.00  0.00    -0.206 F 
ATOM     63  C   UNL A   1      45.793  34.797  32.140  1.00  0.00     0.006 A 
ENDBRANCH  39  56
ENDBRANCH  13  14
ENDBRANCH   6   8
ENDBRANCH   3   4
ENDBRANCH   2   3
ENDBRANCH   1   2
BRANCH   1  64
ATOM     64  C   UNL A   1      36.459  21.999  25.431  1.00  0.00     0.116 C 
BRANCH  64  65
ATOM     65  N   UNL A   1      35.509  22.077  26.533  1.00  0.00    -0.352 N 
ATOM     66  C   UNL A   1      34.381  22.848  26.674  1.00  0.00     0.251 C 
ATOM     67  H   UNL A   1      35.706  21.485  27.293  1.00  0.00     0.163 HD
ATOM     68  O   UNL A   1      33.767  22.857  27.736  1.00  0.00    -0.269 OA
BRANCH  66  69
ATOM     69  C   UNL A   1      33.927  23.712  25.566  1.00  0.00     0.042 A 
ATOM     70  C   UNL A   1      33.347  23.171  24.417  1.00  0.00     0.015 A 
ATOM     71  C   UNL A   1      34.101  25.095  25.684  1.00  0.00     0.054 A 
ATOM     72  C   UNL A   1      33.085  23.998  23.326  1.00  0.00     0.026 A 
ATOM     73  C   UNL A   1      33.800  25.921  24.605  1.00  0.00     0.144 A 
ATOM     74  C   UNL A   1      33.348  25.372  23.412  1.00  0.00     0.118 A 
ATOM     75  F   UNL A   1      34.008  27.237  24.741  1.00  0.00    -0.205 F 
BRANCH  74  76
ATOM     76  S   UNL A   1      33.221  26.307  21.921  1.00  0.00     0.243 S 
ATOM     77  O   UNL A   1      34.280  27.289  21.989  1.00  0.00    -0.207 OA
ATOM     78  O   UNL A   1      33.146  25.349  20.840  1.00  0.00    -0.207 OA
BRANCH  76  79
ATOM     79  N   UNL A   1      31.778  27.122  21.932  1.00  0.00    -0.205 NA
ATOM     80  H   UNL A   1      31.064  26.413  22.096  1.00  0.00     0.141 HD
BRANCH  79  81
ATOM     81  C   UNL A   1      31.463  28.210  22.831  1.00  0.00     0.154 C 
BRANCH  81  82
ATOM     82  C   UNL A   1      30.257  28.937  22.392  1.00  0.00     0.050 A 
ATOM     83  C   UNL A   1      28.918  28.814  22.695  1.00  0.00     0.046 A 
ATOM     84  N   UNL A   1      30.333  29.992  21.520  1.00  0.00    -0.281 N 
ATOM     85  C   UNL A   1      28.292  29.865  22.003  1.00  0.00     0.135 A 
ATOM     86  N   UNL A   1      29.161  30.609  21.315  1.00  0.00    -0.184 NA
ATOM     87  H   UNL A   1      31.172  30.269  21.084  1.00  0.00     0.190 HD
ENDBRANCH  81  82
ENDBRANCH  79  81
ENDBRANCH  76  79
ENDBRANCH  74  76
ENDBRANCH  66  69
ENDBRANCH  64  65
ENDBRANCH   1  64
TORSDOF 15
ENDMDL
MODEL 3
REMARK VINA RESULT:     -11.8      0.916      1.942
REMARK SMILES O=C(NCCCCNC(=O)c1ccc(S(=O)(=O)NCc2ccn[nH]2)c(F)c1)c1ccc(-c2c3nc(c(-c4c(F)cccc4F)c4ccc([nH]4)c(-c4c(F)cccc4F)c4nc(c(-c5c(F)cccc5F)c5ccc2[nH]5)C=C4)C=C3)cc1
REMARK SMILES IDX 6 1 5 2 4 3 3 4 1 5 2 6 28 8 29 9 81 10 30 11 80 12 31 13
REMARK SMILES IDX 32 14 33 15 74 16 34 17 79 18 73 19 75 20 35 21 78 22 72 23
REMARK SMILES IDX 71 24 36 26 62 27 45 28 61 29 46 30 49 31 60 32 76 33 47 34
REMARK SMILES IDX 48 35 59 37 77 38 50 39 37 40 38 41 43 42 39 43 40 44 42 45
REMARK SMILES IDX 44 46 41 47 63 48 64 49 69 50 65 51 66 52 68 53 70 54 67 55
REMARK SMILES IDX 51 56 52 57 57 58 53 59 54 60 56 61 58 62 55 63 7 64 8 65
REMARK SMILES IDX 9 66 10 68 11 69 12 70 27 71 13 72 25 73 14 74 26 75 15 76
REMARK SMILES IDX 16 77 17 78 18 79 19 81 20 82 21 83 24 84 22 85 23 86
REMARK H PARENT 3 7 75 25 49 36 8 67 18 80 24 87
REMARK Flexibility Score: inf
ROOT
ATOM      1  C   UNL A   1      36.491  20.344  25.000  1.00  0.00     0.023 C 
ENDROOT
BRANCH   1   2
ATOM      2  C   UNL A   1      37.850  19.678  24.796  1.00  0.00     0.023 C 
BRANCH   2   3
ATOM      3  C   UNL A   1      38.949  20.118  25.755  1.00  0.00     0.116 C 
BRANCH   3   4
ATOM      4  N   UNL A   1      40.092  19.218  25.768  1.00  0.00    -0.352 N 
ATOM      5  O   UNL A   1      42.255  18.608  25.941  1.00  0.00    -0.269 OA
ATOM      6  C   UNL A   1      41.399  19.474  26.106  1.00  0.00     0.251 C 
ATOM      7  H   UNL A   1      39.901  18.292  25.495  1.00  0.00     0.163 HD
BRANCH   6   8
ATOM      8  C   UNL A   1      41.787  20.798  26.640  1.00  0.00     0.039 A 
ATOM      9  C   UNL A   1      41.834  21.036  28.015  1.00  0.00     0.014 A 
ATOM     10  C   UNL A   1      42.126  21.818  25.742  1.00  0.00     0.014 A 
ATOM     11  C   UNL A   1      42.086  22.320  28.487  1.00  0.00     0.010 A 
ATOM     12  C   UNL A   1      42.451  23.090  26.222  1.00  0.00     0.010 A 
ATOM     13  C   UNL A   1      42.405  23.358  27.597  1.00  0.00    -0.014 A 
BRANCH  13  14
ATOM     14  C   UNL A   1      42.748  24.697  28.136  1.00  0.00     0.031 A 
ATOM     15  C   UNL A   1      44.173  25.085  28.417  1.00  0.00     0.074 A 
ATOM     16  C   UNL A   1      41.756  25.586  28.336  1.00  0.00     0.049 A 
ATOM     17  N   UNL A   1      44.642  26.223  28.861  1.00  0.00    -0.248 NA
ATOM     18  C   UNL A   1      45.206  24.066  28.171  1.00  0.00     0.031 C 
ATOM     19  C   UNL A   1      40.333  25.322  28.107  1.00  0.00     0.029 A 
ATOM     20  N   UNL A   1      41.789  26.891  28.753  1.00  0.00    -0.354 N 
ATOM     21  C   UNL A   1      46.016  26.057  28.963  1.00  0.00     0.074 A 
ATOM     22  C   UNL A   1      46.309  24.701  28.549  1.00  0.00     0.031 C 
ATOM     23  C   UNL A   1      39.636  26.444  28.337  1.00  0.00     0.029 A 
ATOM     24  C   UNL A   1      40.553  27.490  28.778  1.00  0.00     0.049 A 
ATOM     25  H   UNL A   1      42.619  27.355  29.009  1.00  0.00     0.167 HD
ATOM     26  C   UNL A   1      46.948  26.958  29.356  1.00  0.00     0.037 A 
ATOM     27  C   UNL A   1      40.193  28.738  29.125  1.00  0.00     0.037 A 
ATOM     28  C   UNL A   1      46.658  28.313  29.745  1.00  0.00     0.049 A 
ATOM     29  C   UNL A   1      41.244  29.710  29.569  1.00  0.00     0.074 A 
ATOM     30  C   UNL A   1      47.544  29.307  30.129  1.00  0.00     0.029 A 
ATOM     31  N   UNL A   1      45.389  28.868  29.797  1.00  0.00    -0.354 N 
ATOM     32  N   UNL A   1      42.541  29.539  29.647  1.00  0.00    -0.248 NA
ATOM     33  C   UNL A   1      40.784  31.042  29.985  1.00  0.00     0.031 C 
ATOM     34  C   UNL A   1      46.807  30.454  30.441  1.00  0.00     0.029 A 
ATOM     35  C   UNL A   1      45.467  30.184  30.222  1.00  0.00     0.049 A 
ATOM     36  H   UNL A   1      44.556  28.397  29.565  1.00  0.00     0.167 HD
ATOM     37  C   UNL A   1      43.053  30.738  30.120  1.00  0.00     0.074 A 
ATOM     38  C   UNL A   1      41.929  31.637  30.289  1.00  0.00     0.031 C 
ATOM     39  C   UNL A   1      44.339  31.061  30.394  1.00  0.00     0.037 A 
BRANCH  26  40
ATOM     40  C   UNL A   1      48.379  26.517  29.394  1.00  0.00     0.057 A 
ATOM     41  C   UNL A   1      48.911  25.917  30.542  1.00  0.00     0.134 A 
ATOM     42  C   UNL A   1      49.252  26.769  28.330  1.00  0.00     0.134 A 
ATOM     43  F   UNL A   1      48.127  25.655  31.599  1.00  0.00    -0.206 F 
ATOM     44  C   UNL A   1      50.266  25.597  30.637  1.00  0.00     0.040 A 
ATOM     45  C   UNL A   1      50.607  26.440  28.406  1.00  0.00     0.040 A 
ATOM     46  F   UNL A   1      48.800  27.333  27.199  1.00  0.00    -0.206 F 
ATOM     47  C   UNL A   1      51.119  25.860  29.566  1.00  0.00     0.006 A 
ENDBRANCH  26  40
BRANCH  27  48
ATOM     48  C   UNL A   1      38.766  29.131  29.057  1.00  0.00     0.057 A 
ATOM     49  C   UNL A   1      37.931  29.036  30.176  1.00  0.00     0.134 A 
ATOM     50  C   UNL A   1      38.197  29.577  27.859  1.00  0.00     0.134 A 
ATOM     51  F   UNL A   1      38.420  28.608  31.350  1.00  0.00    -0.206 F 
ATOM     52  C   UNL A   1      36.574  29.350  30.104  1.00  0.00     0.040 A 
ATOM     53  C   UNL A   1      36.845  29.915  27.777  1.00  0.00     0.040 A 
ATOM     54  F   UNL A   1      38.952  29.702  26.758  1.00  0.00    -0.206 F 
ATOM     55  C   UNL A   1      36.028  29.793  28.900  1.00  0.00     0.006 A 
ENDBRANCH  27  48
BRANCH  39  56
ATOM     56  C   UNL A   1      44.601  32.441  30.910  1.00  0.00     0.057 A 
ATOM     57  C   UNL A   1      44.860  33.500  30.031  1.00  0.00     0.134 A 
ATOM     58  C   UNL A   1      44.647  32.709  32.283  1.00  0.00     0.134 A 
ATOM     59  F   UNL A   1      44.836  33.303  28.705  1.00  0.00    -0.206 F 
ATOM     60  C   UNL A   1      45.165  34.777  30.501  1.00  0.00     0.040 A 
ATOM     61  C   UNL A   1      44.935  33.987  32.765  1.00  0.00     0.040 A 
ATOM     62  F   UNL A   1      44.396  31.738  33.174  1.00  0.00    -0.206 F 
ATOM     63  C   UNL A   1      45.201  35.023  31.873  1.00  0.00     0.006 A 
ENDBRANCH  39  56
ENDBRANCH  13  14
ENDBRANCH   6   8
ENDBRANCH   3   4
ENDBRANCH   2   3
ENDBRANCH   1   2
BRANCH   1  64
ATOM     64  C   UNL A   1      36.509  21.685  25.728  1.00  0.00     0.116 C 
BRANCH  64  65
ATOM     65  N   UNL A   1      35.428  21.829  26.694  1.00  0.00    -0.352 N 
ATOM     66  C   UNL A   1      34.346  22.674  26.691  1.00  0.00     0.251 C 
ATOM     67  H   UNL A   1      35.483  21.225  27.469  1.00  0.00     0.163 HD
ATOM     68  O   UNL A   1      33.598  22.725  27.662  1.00  0.00    -0.269 OA
BRANCH  66  69
ATOM     69  C   UNL A   1      34.102  23.565  25.539  1.00  0.00     0.042 A 
ATOM     70  C   UNL A   1      34.497  24.904  25.563  1.00  0.00     0.015 A 
ATOM     71  C   UNL A   1      33.450  23.042  24.416  1.00  0.00     0.054 A 
ATOM     72  C   UNL A   1      34.103  25.754  24.530  1.00  0.00     0.026 A 
ATOM     73  C   UNL A   1      33.094  23.888  23.370  1.00  0.00     0.144 A 
ATOM     74  C   UNL A   1      33.368  25.248  23.450  1.00  0.00     0.118 A 
ATOM     75  F   UNL A   1      32.444  23.360  22.326  1.00  0.00    -0.205 F 
BRANCH  74  76
ATOM     76  S   UNL A   1      32.702  26.421  22.313  1.00  0.00     0.243 S 
ATOM     77  O   UNL A   1      33.492  26.286  21.109  1.00  0.00    -0.207 OA
ATOM     78  O   UNL A   1      31.270  26.217  22.305  1.00  0.00    -0.207 OA
BRANCH  76  79
ATOM     79  N   UNL A   1      32.960  27.943  22.916  1.00  0.00    -0.205 NA
ATOM     80  H   UNL A   1      33.527  28.422  22.217  1.00  0.00     0.141 HD
BRANCH  79  81
ATOM     81  C   UNL A   1      31.907  28.870  23.269  1.00  0.00     0.154 C 
BRANCH  81  82
ATOM     82  C   UNL A   1      31.842  29.079  24.727  1.00  0.00     0.050 A 
ATOM     83  C   UNL A   1      31.924  28.227  25.808  1.00  0.00     0.046 A 
ATOM     84  N   UNL A   1      31.693  30.332  25.265  1.00  0.00    -0.281 N 
ATOM     85  C   UNL A   1      31.869  29.067  26.935  1.00  0.00     0.135 A 
ATOM     86  N   UNL A   1      31.766  30.356  26.604  1.00  0.00    -0.184 NA
ATOM     87  H   UNL A   1      31.544  31.137  24.719  1.00  0.00     0.190 HD
ENDBRANCH  81  82
ENDBRANCH  79  81
ENDBRANCH  76  79
ENDBRANCH  74  76
ENDBRANCH  66  69
ENDBRANCH  64  65
ENDBRANCH   1  64
TORSDOF 15
ENDMDL
