MODEL 1
REMARK VINA RESULT:     -12.5      0.000      0.000
REMARK SMILES Cc1nsc(NC(=O)[C@H]2Cc3[nH]cnc3C[NH2+]2)c1C(=O)NCCCCNC(=O)c1ccc(-c2c3nc(c(-c4c(F)cccc4F)c4ccc([nH]4)c(-c4c(F)cccc4F)c4nc(c(-c5c(F)cccc5F)c5ccc2[nH]5)C=C4)C=C3)cc1
REMARK SMILES IDX 23 1 22 2 21 3 19 4 20 5 18 7 1 8 2 9 3 10 4 11 5 12 6 13
REMARK SMILES IDX 7 14 8 16 9 17 10 18 17 19 11 20 16 21 12 24 15 25 13 26
REMARK SMILES IDX 14 28 24 29 25 30 26 31 27 32 28 34 29 35 30 36 82 37 31 38
REMARK SMILES IDX 81 39 32 40 33 41 34 42 75 43 35 44 80 45 74 46 76 47 36 48
REMARK SMILES IDX 79 49 73 50 72 51 37 53 63 54 46 55 62 56 47 57 50 58 61 59
REMARK SMILES IDX 77 60 48 61 49 62 60 64 78 65 51 66 38 67 39 68 44 69 40 70
REMARK SMILES IDX 41 71 43 72 45 73 42 74 64 75 65 76 70 77 66 78 67 79 69 80
REMARK SMILES IDX 71 81 68 82 52 83 53 84 58 85 54 86 55 87 57 88 59 89 56 90
REMARK H PARENT 21 6 6 15 17 22 17 23 12 27 26 33 76 52 50 63
REMARK Flexibility Score: inf
ROOT
ATOM      1  C   UNL A   1      32.846  29.757  25.937  1.00  0.00     0.023 C 
ENDROOT
BRANCH   1   2
ATOM      2  C   UNL A   1      31.508  29.229  25.443  1.00  0.00     0.116 C 
BRANCH   2   3
ATOM      3  N   UNL A   1      31.051  29.683  24.148  1.00  0.00    -0.352 N 
ATOM      4  C   UNL A   1      31.056  29.052  22.922  1.00  0.00     0.256 C 
ATOM      5  O   UNL A   1      30.444  29.602  22.006  1.00  0.00    -0.269 OA
ATOM      6  H   UNL A   1      30.673  30.591  24.140  1.00  0.00     0.163 HD
BRANCH   4   7
ATOM      7  C   UNL A   1      31.886  27.879  22.671  1.00  0.00     0.097 A 
ATOM      8  C   UNL A   1      34.433  28.570  22.840  1.00  0.00     0.069 C 
ATOM      9  C   UNL A   1      33.298  27.691  22.413  1.00  0.00     0.066 A 
ATOM     10  N   UNL A   1      33.616  26.536  21.806  1.00  0.00    -0.195 NA
ATOM     11  S   UNL A   1      32.256  25.557  21.865  1.00  0.00    -0.017 S 
ATOM     12  C   UNL A   1      31.444  26.592  22.955  1.00  0.00     0.129 A 
BRANCH  12  13
ATOM     13  N   UNL A   1      30.436  26.168  23.785  1.00  0.00    -0.311 N 
ATOM     14  C   UNL A   1      30.589  25.570  25.017  1.00  0.00     0.283 C 
ATOM     15  H   UNL A   1      29.514  26.306  23.470  1.00  0.00     0.171 HD
ATOM     16  O   UNL A   1      29.593  25.604  25.754  1.00  0.00    -0.268 OA
BRANCH  14  17
ATOM     17  C   UNL A   1      31.879  24.831  25.463  1.00  0.00     0.279 C 
ATOM     18  C   UNL A   1      33.152  25.655  25.832  1.00  0.00     0.131 C 
ATOM     19  N   UNL A   1      31.588  23.894  26.624  1.00  0.00    -0.331 N 
ATOM     20  C   UNL A   1      34.217  24.620  25.746  1.00  0.00     0.050 A 
ATOM     21  C   UNL A   1      32.767  23.105  27.113  1.00  0.00     0.320 C 
ATOM     22  H   UNL A   1      30.869  23.236  26.327  1.00  0.00     0.347 HD
ATOM     23  H   UNL A   1      31.300  24.487  27.402  1.00  0.00     0.347 HD
ATOM     24  N   UNL A   1      35.181  24.444  24.795  1.00  0.00    -0.348 N 
ATOM     25  C   UNL A   1      33.995  23.379  26.298  1.00  0.00     0.116 A 
ATOM     26  C   UNL A   1      35.454  23.098  24.774  1.00  0.00     0.197 A 
ATOM     27  H   UNL A   1      35.597  25.142  24.238  1.00  0.00     0.167 HD
ATOM     28  N   UNL A   1      34.792  22.440  25.705  1.00  0.00    -0.236 NA
ENDBRANCH  14  17
ENDBRANCH  12  13
ENDBRANCH   4   7
ENDBRANCH   2   3
ENDBRANCH   1   2
BRANCH   1  29
ATOM     29  C   UNL A   1      33.518  28.997  27.079  1.00  0.00     0.023 C 
BRANCH  29  30
ATOM     30  C   UNL A   1      34.987  29.325  27.317  1.00  0.00     0.116 C 
BRANCH  30  31
ATOM     31  N   UNL A   1      35.219  30.211  28.452  1.00  0.00    -0.352 N 
ATOM     32  C   UNL A   1      36.257  30.130  29.367  1.00  0.00     0.251 C 
ATOM     33  H   UNL A   1      34.572  30.942  28.582  1.00  0.00     0.163 HD
ATOM     34  O   UNL A   1      36.167  30.629  30.473  1.00  0.00    -0.269 OA
BRANCH  32  35
ATOM     35  C   UNL A   1      37.487  29.419  28.963  1.00  0.00     0.039 A 
ATOM     36  C   UNL A   1      38.179  29.796  27.813  1.00  0.00     0.014 A 
ATOM     37  C   UNL A   1      37.966  28.396  29.785  1.00  0.00     0.014 A 
ATOM     38  C   UNL A   1      39.411  29.201  27.554  1.00  0.00     0.010 A 
ATOM     39  C   UNL A   1      39.229  27.881  29.584  1.00  0.00     0.010 A 
ATOM     40  C   UNL A   1      39.954  28.273  28.464  1.00  0.00    -0.014 A 
BRANCH  40  41
ATOM     41  C   UNL A   1      41.368  27.903  28.350  1.00  0.00     0.031 A 
ATOM     42  C   UNL A   1      41.563  26.647  27.577  1.00  0.00     0.074 A 
ATOM     43  C   UNL A   1      42.419  28.673  28.713  1.00  0.00     0.049 A 
ATOM     44  N   UNL A   1      41.861  25.486  28.054  1.00  0.00    -0.248 NA
ATOM     45  C   UNL A   1      41.204  26.621  26.147  1.00  0.00     0.031 C 
ATOM     46  C   UNL A   1      42.379  30.064  29.173  1.00  0.00     0.029 A 
ATOM     47  N   UNL A   1      43.764  28.414  28.663  1.00  0.00    -0.354 N 
ATOM     48  C   UNL A   1      42.031  24.662  26.946  1.00  0.00     0.074 A 
ATOM     49  C   UNL A   1      41.387  25.331  25.850  1.00  0.00     0.031 C 
ATOM     50  C   UNL A   1      43.621  30.594  29.133  1.00  0.00     0.029 A 
ATOM     51  C   UNL A   1      44.571  29.542  28.819  1.00  0.00     0.049 A 
ATOM     52  H   UNL A   1      44.130  27.509  28.530  1.00  0.00     0.167 HD
ATOM     53  C   UNL A   1      43.012  23.716  26.967  1.00  0.00     0.037 A 
ATOM     54  C   UNL A   1      45.923  29.615  28.716  1.00  0.00     0.037 A 
ATOM     55  C   UNL A   1      43.483  23.523  28.318  1.00  0.00     0.049 A 
ATOM     56  C   UNL A   1      46.466  28.261  28.947  1.00  0.00     0.074 A 
ATOM     57  C   UNL A   1      43.040  22.938  29.484  1.00  0.00     0.029 A 
ATOM     58  N   UNL A   1      44.472  24.402  28.660  1.00  0.00    -0.354 N 
ATOM     59  N   UNL A   1      46.444  27.670  30.106  1.00  0.00    -0.248 NA
ATOM     60  C   UNL A   1      46.769  27.402  27.807  1.00  0.00     0.031 C 
ATOM     61  C   UNL A   1      43.751  23.573  30.550  1.00  0.00     0.029 A 
ATOM     62  C   UNL A   1      44.646  24.490  30.011  1.00  0.00     0.049 A 
ATOM     63  H   UNL A   1      44.998  24.915  28.006  1.00  0.00     0.167 HD
ATOM     64  C   UNL A   1      46.260  26.341  29.794  1.00  0.00     0.074 A 
ATOM     65  C   UNL A   1      46.670  26.210  28.401  1.00  0.00     0.031 C 
ATOM     66  C   UNL A   1      45.444  25.561  30.559  1.00  0.00     0.037 A 
BRANCH  53  67
ATOM     67  C   UNL A   1      43.945  23.413  25.801  1.00  0.00     0.057 A 
ATOM     68  C   UNL A   1      44.129  22.066  25.426  1.00  0.00     0.134 A 
ATOM     69  C   UNL A   1      44.903  24.304  25.275  1.00  0.00     0.134 A 
ATOM     70  F   UNL A   1      43.295  21.110  25.864  1.00  0.00    -0.206 F 
ATOM     71  C   UNL A   1      45.225  21.634  24.665  1.00  0.00     0.040 A 
ATOM     72  C   UNL A   1      45.975  23.889  24.477  1.00  0.00     0.040 A 
ATOM     73  F   UNL A   1      44.924  25.606  25.575  1.00  0.00    -0.206 F 
ATOM     74  C   UNL A   1      46.159  22.547  24.196  1.00  0.00     0.006 A 
ENDBRANCH  53  67
BRANCH  54  75
ATOM     75  C   UNL A   1      46.812  30.724  28.297  1.00  0.00     0.057 A 
ATOM     76  C   UNL A   1      46.733  31.266  27.004  1.00  0.00     0.134 A 
ATOM     77  C   UNL A   1      47.521  31.483  29.242  1.00  0.00     0.134 A 
ATOM     78  F   UNL A   1      46.063  30.628  26.034  1.00  0.00    -0.206 F 
ATOM     79  C   UNL A   1      47.271  32.519  26.683  1.00  0.00     0.040 A 
ATOM     80  C   UNL A   1      48.068  32.734  28.932  1.00  0.00     0.040 A 
ATOM     81  F   UNL A   1      47.621  31.079  30.516  1.00  0.00    -0.206 F 
ATOM     82  C   UNL A   1      47.924  33.267  27.656  1.00  0.00     0.006 A 
ENDBRANCH  54  75
BRANCH  66  83
ATOM     83  C   UNL A   1      45.284  25.935  31.997  1.00  0.00     0.057 A 
ATOM     84  C   UNL A   1      46.213  25.667  33.011  1.00  0.00     0.134 A 
ATOM     85  C   UNL A   1      44.123  26.627  32.362  1.00  0.00     0.134 A 
ATOM     86  F   UNL A   1      47.387  25.077  32.743  1.00  0.00    -0.206 F 
ATOM     87  C   UNL A   1      45.965  26.025  34.341  1.00  0.00     0.040 A 
ATOM     88  C   UNL A   1      43.882  27.022  33.677  1.00  0.00     0.040 A 
ATOM     89  F   UNL A   1      43.206  26.946  31.435  1.00  0.00    -0.206 F 
ATOM     90  C   UNL A   1      44.797  26.706  34.675  1.00  0.00     0.006 A 
ENDBRANCH  66  83
ENDBRANCH  40  41
ENDBRANCH  32  35
ENDBRANCH  30  31
ENDBRANCH  29  30
ENDBRANCH   1  29
TORSDOF 13
ENDMDL
MODEL 2
REMARK VINA RESULT:     -12.5      1.167      1.712
REMARK SMILES Cc1nsc(NC(=O)[C@H]2Cc3[nH]cnc3C[NH2+]2)c1C(=O)NCCCCNC(=O)c1ccc(-c2c3nc(c(-c4c(F)cccc4F)c4ccc([nH]4)c(-c4c(F)cccc4F)c4nc(c(-c5c(F)cccc5F)c5ccc2[nH]5)C=C4)C=C3)cc1
REMARK SMILES IDX 23 1 22 2 21 3 19 4 20 5 18 7 1 8 2 9 3 10 4 11 5 12 6 13
REMARK SMILES IDX 7 14 8 16 9 17 10 18 17 19 11 20 16 21 12 24 15 25 13 26
REMARK SMILES IDX 14 28 24 29 25 30 26 31 27 32 28 34 29 35 30 36 82 37 31 38
REMARK SMILES IDX 81 39 32 40 33 41 34 42 75 43 35 44 80 45 74 46 76 47 36 48
REMARK SMILES IDX 79 49 73 50 72 51 37 53 63 54 46 55 62 56 47 57 50 58 61 59
REMARK SMILES IDX 77 60 48 61 49 62 60 64 78 65 51 66 38 67 39 68 44 69 40 70
REMARK SMILES IDX 41 71 43 72 45 73 42 74 64 75 65 76 70 77 66 78 67 79 69 80
REMARK SMILES IDX 71 81 68 82 52 83 53 84 58 85 54 86 55 87 57 88 59 89 56 90
REMARK H PARENT 21 6 6 15 17 22 17 23 12 27 26 33 76 52 50 63
REMARK Flexibility Score: inf
ROOT
ATOM      1  C   UNL A   1      32.564  29.642  27.147  1.00  0.00     0.023 C 
ENDROOT
BRANCH   1   2
ATOM      2  C   UNL A   1      32.184  30.099  25.747  1.00  0.00     0.116 C 
BRANCH   2   3
ATOM      3  N   UNL A   1      33.028  29.667  24.654  1.00  0.00    -0.352 N 
ATOM      4  C   UNL A   1      32.710  29.049  23.464  1.00  0.00     0.256 C 
ATOM      5  O   UNL A   1      33.609  28.947  22.628  1.00  0.00    -0.269 OA
ATOM      6  H   UNL A   1      33.987  29.844  24.781  1.00  0.00     0.163 HD
BRANCH   4   7
ATOM      7  C   UNL A   1      31.421  28.394  23.264  1.00  0.00     0.097 A 
ATOM      8  C   UNL A   1      29.501  30.208  23.389  1.00  0.00     0.069 C 
ATOM      9  C   UNL A   1      30.048  28.815  23.445  1.00  0.00     0.066 A 
ATOM     10  N   UNL A   1      29.161  27.816  23.577  1.00  0.00    -0.195 NA
ATOM     11  S   UNL A   1      29.945  26.399  23.142  1.00  0.00    -0.017 S 
ATOM     12  C   UNL A   1      31.298  27.231  22.513  1.00  0.00     0.129 A 
BRANCH  12  13
ATOM     13  N   UNL A   1      32.144  26.691  21.576  1.00  0.00    -0.311 N 
ATOM     14  C   UNL A   1      32.868  25.525  21.705  1.00  0.00     0.283 C 
ATOM     15  H   UNL A   1      32.242  27.184  20.730  1.00  0.00     0.171 HD
ATOM     16  O   UNL A   1      33.266  25.025  20.643  1.00  0.00    -0.268 OA
BRANCH  14  17
ATOM     17  C   UNL A   1      33.243  24.888  23.070  1.00  0.00     0.279 C 
ATOM     18  C   UNL A   1      34.018  23.536  23.103  1.00  0.00     0.131 C 
ATOM     19  N   UNL A   1      34.010  25.877  23.932  1.00  0.00    -0.331 N 
ATOM     20  C   UNL A   1      33.770  23.078  24.497  1.00  0.00     0.050 A 
ATOM     21  C   UNL A   1      34.393  25.370  25.291  1.00  0.00     0.320 C 
ATOM     22  H   UNL A   1      33.428  26.705  24.057  1.00  0.00     0.347 HD
ATOM     23  H   UNL A   1      34.884  26.065  23.441  1.00  0.00     0.347 HD
ATOM     24  N   UNL A   1      32.955  22.082  24.951  1.00  0.00    -0.348 N 
ATOM     25  C   UNL A   1      33.880  23.982  25.530  1.00  0.00     0.116 A 
ATOM     26  C   UNL A   1      32.563  22.456  26.213  1.00  0.00     0.197 A 
ATOM     27  H   UNL A   1      32.702  21.260  24.470  1.00  0.00     0.167 HD
ATOM     28  N   UNL A   1      33.146  23.570  26.607  1.00  0.00    -0.236 NA
ENDBRANCH  14  17
ENDBRANCH  12  13
ENDBRANCH   4   7
ENDBRANCH   2   3
ENDBRANCH   1   2
BRANCH   1  29
ATOM     29  C   UNL A   1      33.701  28.628  27.266  1.00  0.00     0.023 C 
BRANCH  29  30
ATOM     30  C   UNL A   1      35.105  29.217  27.339  1.00  0.00     0.116 C 
BRANCH  30  31
ATOM     31  N   UNL A   1      35.327  30.075  28.497  1.00  0.00    -0.352 N 
ATOM     32  C   UNL A   1      36.363  29.977  29.413  1.00  0.00     0.251 C 
ATOM     33  H   UNL A   1      34.675  30.797  28.644  1.00  0.00     0.163 HD
ATOM     34  O   UNL A   1      36.266  30.447  30.531  1.00  0.00    -0.269 OA
BRANCH  32  35
ATOM     35  C   UNL A   1      37.599  29.285  28.996  1.00  0.00     0.039 A 
ATOM     36  C   UNL A   1      38.299  29.703  27.864  1.00  0.00     0.014 A 
ATOM     37  C   UNL A   1      38.076  28.237  29.787  1.00  0.00     0.014 A 
ATOM     38  C   UNL A   1      39.535  29.122  27.595  1.00  0.00     0.010 A 
ATOM     39  C   UNL A   1      39.342  27.734  29.579  1.00  0.00     0.010 A 
ATOM     40  C   UNL A   1      40.075  28.166  28.478  1.00  0.00    -0.014 A 
BRANCH  40  41
ATOM     41  C   UNL A   1      41.491  27.805  28.363  1.00  0.00     0.031 A 
ATOM     42  C   UNL A   1      41.693  26.548  27.594  1.00  0.00     0.074 A 
ATOM     43  C   UNL A   1      42.537  28.584  28.721  1.00  0.00     0.049 A 
ATOM     44  N   UNL A   1      42.001  25.391  28.075  1.00  0.00    -0.248 NA
ATOM     45  C   UNL A   1      41.333  26.515  26.165  1.00  0.00     0.031 C 
ATOM     46  C   UNL A   1      42.488  29.976  29.176  1.00  0.00     0.029 A 
ATOM     47  N   UNL A   1      43.884  28.335  28.671  1.00  0.00    -0.354 N 
ATOM     48  C   UNL A   1      42.175  24.564  26.969  1.00  0.00     0.074 A 
ATOM     49  C   UNL A   1      41.524  25.225  25.872  1.00  0.00     0.031 C 
ATOM     50  C   UNL A   1      43.727  30.516  29.133  1.00  0.00     0.029 A 
ATOM     51  C   UNL A   1      44.683  29.469  28.821  1.00  0.00     0.049 A 
ATOM     52  H   UNL A   1      44.256  27.432  28.540  1.00  0.00     0.167 HD
ATOM     53  C   UNL A   1      43.163  23.626  26.992  1.00  0.00     0.037 A 
ATOM     54  C   UNL A   1      46.034  29.551  28.715  1.00  0.00     0.037 A 
ATOM     55  C   UNL A   1      43.637  23.441  28.343  1.00  0.00     0.049 A 
ATOM     56  C   UNL A   1      46.588  28.202  28.950  1.00  0.00     0.074 A 
ATOM     57  C   UNL A   1      43.200  22.857  29.511  1.00  0.00     0.029 A 
ATOM     58  N   UNL A   1      44.620  24.328  28.680  1.00  0.00    -0.354 N 
ATOM     59  N   UNL A   1      46.572  27.615  30.111  1.00  0.00    -0.248 NA
ATOM     60  C   UNL A   1      46.895  27.342  27.813  1.00  0.00     0.031 C 
ATOM     61  C   UNL A   1      43.908  23.500  30.574  1.00  0.00     0.029 A 
ATOM     62  C   UNL A   1      44.796  24.422  30.030  1.00  0.00     0.049 A 
ATOM     63  H   UNL A   1      45.142  24.843  28.024  1.00  0.00     0.167 HD
ATOM     64  C   UNL A   1      46.397  26.284  29.804  1.00  0.00     0.074 A 
ATOM     65  C   UNL A   1      46.805  26.151  28.411  1.00  0.00     0.031 C 
ATOM     66  C   UNL A   1      45.587  25.501  30.573  1.00  0.00     0.037 A 
BRANCH  53  67
ATOM     67  C   UNL A   1      44.095  23.325  25.825  1.00  0.00     0.057 A 
ATOM     68  C   UNL A   1      44.303  21.978  25.466  1.00  0.00     0.134 A 
ATOM     69  C   UNL A   1      45.034  24.227  25.283  1.00  0.00     0.134 A 
ATOM     70  F   UNL A   1      43.488  21.012  25.920  1.00  0.00    -0.206 F 
ATOM     71  C   UNL A   1      45.403  21.556  24.705  1.00  0.00     0.040 A 
ATOM     72  C   UNL A   1      46.110  23.822  24.486  1.00  0.00     0.040 A 
ATOM     73  F   UNL A   1      45.033  25.533  25.567  1.00  0.00    -0.206 F 
ATOM     74  C   UNL A   1      46.318  22.480  24.221  1.00  0.00     0.006 A 
ENDBRANCH  53  67
BRANCH  54  75
ATOM     75  C   UNL A   1      46.914  30.665  28.291  1.00  0.00     0.057 A 
ATOM     76  C   UNL A   1      46.812  31.220  27.004  1.00  0.00     0.134 A 
ATOM     77  C   UNL A   1      47.640  31.416  29.229  1.00  0.00     0.134 A 
ATOM     78  F   UNL A   1      46.124  30.590  26.041  1.00  0.00    -0.206 F 
ATOM     79  C   UNL A   1      47.343  32.476  26.686  1.00  0.00     0.040 A 
ATOM     80  C   UNL A   1      48.181  32.671  28.922  1.00  0.00     0.040 A 
ATOM     81  F   UNL A   1      47.763  31.000  30.498  1.00  0.00    -0.206 F 
ATOM     82  C   UNL A   1      48.013  33.215  27.654  1.00  0.00     0.006 A 
ENDBRANCH  54  75
BRANCH  66  83
ATOM     83  C   UNL A   1      45.427  25.879  32.010  1.00  0.00     0.057 A 
ATOM     84  C   UNL A   1      46.360  25.622  33.024  1.00  0.00     0.134 A 
ATOM     85  C   UNL A   1      44.261  26.562  32.375  1.00  0.00     0.134 A 
ATOM     86  F   UNL A   1      47.538  25.041  32.755  1.00  0.00    -0.206 F 
ATOM     87  C   UNL A   1      46.113  25.983  34.352  1.00  0.00     0.040 A 
ATOM     88  C   UNL A   1      44.019  26.960  33.689  1.00  0.00     0.040 A 
ATOM     89  F   UNL A   1      43.339  26.870  31.448  1.00  0.00    -0.206 F 
ATOM     90  C   UNL A   1      44.940  26.655  34.686  1.00  0.00     0.006 A 
ENDBRANCH  66  83
ENDBRANCH  40  41
ENDBRANCH  32  35
ENDBRANCH  30  31
ENDBRANCH  29  30
ENDBRANCH   1  29
TORSDOF 13
ENDMDL
MODEL 3
REMARK VINA RESULT:     -12.2      4.078      8.874
REMARK SMILES Cc1nsc(NC(=O)[C@H]2Cc3[nH]cnc3C[NH2+]2)c1C(=O)NCCCCNC(=O)c1ccc(-c2c3nc(c(-c4c(F)cccc4F)c4ccc([nH]4)c(-c4c(F)cccc4F)c4nc(c(-c5c(F)cccc5F)c5ccc2[nH]5)C=C4)C=C3)cc1
REMARK SMILES IDX 23 1 22 2 21 3 19 4 20 5 18 7 1 8 2 9 3 10 4 11 5 12 6 13
REMARK SMILES IDX 7 14 8 16 9 17 10 18 17 19 11 20 16 21 12 24 15 25 13 26
REMARK SMILES IDX 14 28 24 29 25 30 26 31 27 32 28 34 29 35 30 36 82 37 31 38
REMARK SMILES IDX 81 39 32 40 33 41 34 42 75 43 35 44 80 45 74 46 76 47 36 48
REMARK SMILES IDX 79 49 73 50 72 51 37 53 63 54 46 55 62 56 47 57 50 58 61 59
REMARK SMILES IDX 77 60 48 61 49 62 60 64 78 65 51 66 38 67 39 68 44 69 40 70
REMARK SMILES IDX 41 71 43 72 45 73 42 74 64 75 65 76 70 77 66 78 67 79 69 80
REMARK SMILES IDX 71 81 68 82 52 83 53 84 58 85 54 86 55 87 57 88 59 89 56 90
REMARK H PARENT 21 6 6 15 17 22 17 23 12 27 26 33 76 52 50 63
REMARK Flexibility Score: inf
ROOT
ATOM      1  C   UNL A   1      37.379  22.239  24.825  1.00  0.00     0.023 C 
ENDROOT
BRANCH   1   2
ATOM      2  C   UNL A   1      36.451  21.164  25.369  1.00  0.00     0.116 C 
BRANCH   2   3
ATOM      3  N   UNL A   1      35.600  21.521  26.483  1.00  0.00    -0.352 N 
ATOM      4  C   UNL A   1      34.240  21.374  26.659  1.00  0.00     0.256 C 
ATOM      5  O   UNL A   1      33.792  21.607  27.782  1.00  0.00    -0.269 OA
ATOM      6  H   UNL A   1      36.069  21.937  27.241  1.00  0.00     0.163 HD
BRANCH   4   7
ATOM      7  C   UNL A   1      33.348  21.122  25.532  1.00  0.00     0.097 A 
ATOM      8  C   UNL A   1      33.850  18.718  24.553  1.00  0.00     0.069 C 
ATOM      9  C   UNL A   1      33.309  20.114  24.495  1.00  0.00     0.066 A 
ATOM     10  N   UNL A   1      32.613  20.454  23.398  1.00  0.00    -0.195 NA
ATOM     11  S   UNL A   1      31.742  21.836  23.775  1.00  0.00    -0.017 S 
ATOM     12  C   UNL A   1      32.094  21.716  25.442  1.00  0.00     0.129 A 
BRANCH  12  13
ATOM     13  N   UNL A   1      31.315  22.287  26.418  1.00  0.00    -0.311 N 
ATOM     14  C   UNL A   1      30.927  23.608  26.484  1.00  0.00     0.283 C 
ATOM     15  H   UNL A   1      31.004  21.696  27.141  1.00  0.00     0.171 HD
ATOM     16  O   UNL A   1      29.949  23.840  27.209  1.00  0.00    -0.268 OA
BRANCH  14  17
ATOM     17  C   UNL A   1      31.677  24.765  25.772  1.00  0.00     0.279 C 
ATOM     18  C   UNL A   1      31.049  26.192  25.746  1.00  0.00     0.131 C 
ATOM     19  N   UNL A   1      33.093  24.897  26.307  1.00  0.00    -0.331 N 
ATOM     20  C   UNL A   1      31.803  26.836  24.637  1.00  0.00     0.050 A 
ATOM     21  C   UNL A   1      33.919  25.970  25.660  1.00  0.00     0.320 C 
ATOM     22  H   UNL A   1      33.569  24.007  26.168  1.00  0.00     0.347 HD
ATOM     23  H   UNL A   1      33.003  25.161  27.288  1.00  0.00     0.347 HD
ATOM     24  N   UNL A   1      31.392  27.144  23.373  1.00  0.00    -0.348 N 
ATOM     25  C   UNL A   1      33.167  26.662  24.564  1.00  0.00     0.116 A 
ATOM     26  C   UNL A   1      32.513  27.086  22.582  1.00  0.00     0.197 A 
ATOM     27  H   UNL A   1      30.475  27.366  23.087  1.00  0.00     0.167 HD
ATOM     28  N   UNL A   1      33.605  26.849  23.282  1.00  0.00    -0.236 NA
ENDBRANCH  14  17
ENDBRANCH  12  13
ENDBRANCH   4   7
ENDBRANCH   2   3
ENDBRANCH   1   2
BRANCH   1  29
ATOM     29  C   UNL A   1      37.157  23.668  25.319  1.00  0.00     0.023 C 
BRANCH  29  30
ATOM     30  C   UNL A   1      38.043  24.112  26.477  1.00  0.00     0.116 C 
BRANCH  30  31
ATOM     31  N   UNL A   1      39.470  24.065  26.182  1.00  0.00    -0.352 N 
ATOM     32  C   UNL A   1      40.383  25.096  26.342  1.00  0.00     0.251 C 
ATOM     33  H   UNL A   1      39.822  23.214  25.832  1.00  0.00     0.163 HD
ATOM     34  O   UNL A   1      41.430  25.117  25.723  1.00  0.00    -0.269 OA
BRANCH  32  35
ATOM     35  C   UNL A   1      40.053  26.176  27.293  1.00  0.00     0.039 A 
ATOM     36  C   UNL A   1      39.658  25.878  28.597  1.00  0.00     0.014 A 
ATOM     37  C   UNL A   1      40.193  27.500  26.873  1.00  0.00     0.014 A 
ATOM     38  C   UNL A   1      39.504  26.925  29.501  1.00  0.00     0.010 A 
ATOM     39  C   UNL A   1      40.139  28.527  27.790  1.00  0.00     0.010 A 
ATOM     40  C   UNL A   1      39.786  28.248  29.106  1.00  0.00    -0.014 A 
BRANCH  40  41
ATOM     41  C   UNL A   1      39.931  29.285  30.132  1.00  0.00     0.031 A 
ATOM     42  C   UNL A   1      38.668  30.036  30.359  1.00  0.00     0.074 A 
ATOM     43  C   UNL A   1      41.001  29.451  30.943  1.00  0.00     0.049 A 
ATOM     44  N   UNL A   1      38.402  31.235  29.962  1.00  0.00    -0.248 NA
ATOM     45  C   UNL A   1      37.501  29.328  30.915  1.00  0.00     0.031 C 
ATOM     46  C   UNL A   1      42.169  28.573  31.056  1.00  0.00     0.029 A 
ATOM     47  N   UNL A   1      41.239  30.390  31.912  1.00  0.00    -0.354 N 
ATOM     48  C   UNL A   1      37.151  31.533  30.494  1.00  0.00     0.074 A 
ATOM     49  C   UNL A   1      36.557  30.272  30.844  1.00  0.00     0.031 C 
ATOM     50  C   UNL A   1      42.863  28.877  32.176  1.00  0.00     0.029 A 
ATOM     51  C   UNL A   1      42.299  30.078  32.765  1.00  0.00     0.049 A 
ATOM     52  H   UNL A   1      40.708  31.215  31.998  1.00  0.00     0.167 HD
ATOM     53  C   UNL A   1      36.905  32.795  30.943  1.00  0.00     0.037 A 
ATOM     54  C   UNL A   1      42.702  30.758  33.869  1.00  0.00     0.037 A 
ATOM     55  C   UNL A   1      37.917  33.700  30.453  1.00  0.00     0.049 A 
ATOM     56  C   UNL A   1      42.219  32.148  33.745  1.00  0.00     0.074 A 
ATOM     57  C   UNL A   1      38.263  34.304  29.264  1.00  0.00     0.029 A 
ATOM     58  N   UNL A   1      39.019  33.743  31.261  1.00  0.00    -0.354 N 
ATOM     59  N   UNL A   1      42.692  32.994  32.876  1.00  0.00    -0.248 NA
ATOM     60  C   UNL A   1      40.967  32.535  34.385  1.00  0.00     0.031 C 
ATOM     61  C   UNL A   1      39.652  34.633  29.367  1.00  0.00     0.029 A 
ATOM     62  C   UNL A   1      40.107  34.272  30.630  1.00  0.00     0.049 A 
ATOM     63  H   UNL A   1      39.026  33.427  32.193  1.00  0.00     0.167 HD
ATOM     64  C   UNL A   1      41.596  33.752  32.526  1.00  0.00     0.074 A 
ATOM     65  C   UNL A   1      40.639  33.572  33.610  1.00  0.00     0.031 C 
ATOM     66  C   UNL A   1      41.413  34.139  31.231  1.00  0.00     0.037 A 
BRANCH  53  67
ATOM     67  C   UNL A   1      36.174  33.124  32.239  1.00  0.00     0.057 A 
ATOM     68  C   UNL A   1      35.179  34.123  32.210  1.00  0.00     0.134 A 
ATOM     69  C   UNL A   1      36.617  32.775  33.531  1.00  0.00     0.134 A 
ATOM     70  F   UNL A   1      34.674  34.557  31.045  1.00  0.00    -0.206 F 
ATOM     71  C   UNL A   1      34.730  34.780  33.365  1.00  0.00     0.040 A 
ATOM     72  C   UNL A   1      36.143  33.393  34.694  1.00  0.00     0.040 A 
ATOM     73  F   UNL A   1      37.600  31.895  33.749  1.00  0.00    -0.206 F 
ATOM     74  C   UNL A   1      35.221  34.422  34.613  1.00  0.00     0.006 A 
ENDBRANCH  53  67
BRANCH  54  75
ATOM     75  C   UNL A   1      43.360  30.296  35.114  1.00  0.00     0.057 A 
ATOM     76  C   UNL A   1      42.788  29.283  35.903  1.00  0.00     0.134 A 
ATOM     77  C   UNL A   1      44.704  30.601  35.382  1.00  0.00     0.134 A 
ATOM     78  F   UNL A   1      41.516  28.905  35.713  1.00  0.00    -0.206 F 
ATOM     79  C   UNL A   1      43.526  28.572  36.857  1.00  0.00     0.040 A 
ATOM     80  C   UNL A   1      45.451  29.900  36.337  1.00  0.00     0.040 A 
ATOM     81  F   UNL A   1      45.359  31.520  34.659  1.00  0.00    -0.206 F 
ATOM     82  C   UNL A   1      44.868  28.866  37.062  1.00  0.00     0.006 A 
ENDBRANCH  54  75
BRANCH  66  83
ATOM     83  C   UNL A   1      42.632  34.299  30.382  1.00  0.00     0.057 A 
ATOM     84  C   UNL A   1      43.477  35.417  30.380  1.00  0.00     0.134 A 
ATOM     85  C   UNL A   1      42.974  33.242  29.531  1.00  0.00     0.134 A 
ATOM     86  F   UNL A   1      43.273  36.446  31.216  1.00  0.00    -0.206 F 
ATOM     87  C   UNL A   1      44.582  35.497  29.525  1.00  0.00     0.040 A 
ATOM     88  C   UNL A   1      44.093  33.293  28.701  1.00  0.00     0.040 A 
ATOM     89  F   UNL A   1      42.227  32.126  29.506  1.00  0.00    -0.206 F 
ATOM     90  C   UNL A   1      44.892  34.431  28.684  1.00  0.00     0.006 A 
ENDBRANCH  66  83
ENDBRANCH  40  41
ENDBRANCH  32  35
ENDBRANCH  30  31
ENDBRANCH  29  30
ENDBRANCH   1  29
TORSDOF 13
ENDMDL
