MODEL 1
REMARK VINA RESULT:     -11.5      0.000      0.000
REMARK SMILES C[C@H]1[C@@H](C(=O)NCCCCNC(=O)c2ccc(-c3c4nc(c(-c5c(F)cccc5F)c5ccc([nH]5)c(-c5c(F)cccc5F)c5nc(c(-c6c(F)cccc6F)c6ccc3[nH]6)C=C5)C=C4)cc2)CC[N@@H+]1CC1(O)CCCC1
REMARK SMILES IDX 8 1 7 2 6 3 4 4 5 5 3 7 1 8 2 9 70 10 68 11 69 12 71 14
REMARK SMILES IDX 72 15 74 16 77 17 75 18 76 19 73 20 9 22 10 23 11 24 12 25
REMARK SMILES IDX 13 27 14 28 15 29 67 30 16 31 66 32 17 33 18 34 19 35 60 36
REMARK SMILES IDX 20 37 65 38 59 39 61 40 21 41 64 42 58 43 57 44 22 46 48 47
REMARK SMILES IDX 31 48 47 49 32 50 35 51 46 52 62 53 33 54 34 55 45 57 63 58
REMARK SMILES IDX 36 59 23 60 24 61 29 62 25 63 26 64 28 65 30 66 27 67 49 68
REMARK SMILES IDX 50 69 55 70 51 71 52 72 54 73 56 74 53 75 37 76 38 77 43 78
REMARK SMILES IDX 39 79 40 80 42 81 44 82 41 83
REMARK H PARENT 6 6 70 13 73 21 11 26 61 45 35 56
REMARK Flexibility Score: inf
ROOT
ATOM      1  C   UNL A   1      31.952  30.409  26.878  1.00  0.00     0.023 C 
ENDROOT
BRANCH   1   2
ATOM      2  C   UNL A   1      32.895  29.855  25.806  1.00  0.00     0.116 C 
BRANCH   2   3
ATOM      3  N   UNL A   1      32.145  29.660  24.588  1.00  0.00    -0.356 N 
ATOM      4  C   UNL A   1      31.615  28.506  24.093  1.00  0.00     0.229 C 
ATOM      5  O   UNL A   1      31.422  28.471  22.875  1.00  0.00    -0.275 OA
ATOM      6  H   UNL A   1      31.998  30.468  24.043  1.00  0.00     0.163 HD
BRANCH   4   7
ATOM      7  C   UNL A   1      31.140  27.404  25.043  1.00  0.00     0.142 C 
ATOM      8  C   UNL A   1      33.543  26.268  25.084  1.00  0.00     0.076 C 
ATOM      9  C   UNL A   1      32.094  26.295  25.540  1.00  0.00     0.193 C 
ATOM     10  N   UNL A   1      31.539  25.020  25.084  1.00  0.00    -0.330 N 
ATOM     11  C   UNL A   1      29.969  26.629  24.411  1.00  0.00     0.081 C 
ATOM     12  C   UNL A   1      30.562  25.288  24.043  1.00  0.00     0.263 C 
ATOM     13  H   UNL A   1      32.288  24.471  24.660  1.00  0.00     0.348 HD
BRANCH  10  14
ATOM     14  C   UNL A   1      31.185  24.047  26.120  1.00  0.00     0.297 C 
BRANCH  14  15
ATOM     15  C   UNL A   1      31.966  22.718  26.276  1.00  0.00     0.113 C 
ATOM     16  C   UNL A   1      32.790  22.564  27.559  1.00  0.00     0.041 C 
ATOM     17  C   UNL A   1      33.061  22.609  25.206  1.00  0.00     0.041 C 
ATOM     18  C   UNL A   1      33.835  21.495  27.228  1.00  0.00     0.003 C 
ATOM     19  C   UNL A   1      33.969  21.490  25.707  1.00  0.00     0.003 C 
BRANCH  15  20
ATOM     20  O   UNL A   1      31.071  21.615  26.099  1.00  0.00    -0.384 OA
ATOM     21  H   UNL A   1      30.780  21.580  25.174  1.00  0.00     0.211 HD
ENDBRANCH  15  20
ENDBRANCH  14  15
ENDBRANCH  10  14
ENDBRANCH   4   7
ENDBRANCH   2   3
ENDBRANCH   1   2
BRANCH   1  22
ATOM     22  C   UNL A   1      31.690  31.903  26.793  1.00  0.00     0.023 C 
BRANCH  22  23
ATOM     23  C   UNL A   1      32.819  32.752  27.336  1.00  0.00     0.116 C 
BRANCH  23  24
ATOM     24  N   UNL A   1      32.419  34.122  27.642  1.00  0.00    -0.352 N 
ATOM     25  C   UNL A   1      32.968  34.984  28.560  1.00  0.00     0.251 C 
ATOM     26  H   UNL A   1      31.659  34.472  27.124  1.00  0.00     0.163 HD
ATOM     27  O   UNL A   1      32.465  36.078  28.785  1.00  0.00    -0.269 OA
BRANCH  25  28
ATOM     28  C   UNL A   1      34.157  34.533  29.302  1.00  0.00     0.039 A 
ATOM     29  C   UNL A   1      33.989  33.878  30.522  1.00  0.00     0.014 A 
ATOM     30  C   UNL A   1      35.416  34.639  28.708  1.00  0.00     0.014 A 
ATOM     31  C   UNL A   1      35.084  33.248  31.109  1.00  0.00     0.010 A 
ATOM     32  C   UNL A   1      36.474  33.917  29.234  1.00  0.00     0.010 A 
ATOM     33  C   UNL A   1      36.321  33.222  30.444  1.00  0.00    -0.014 A 
BRANCH  33  34
ATOM     34  C   UNL A   1      37.489  32.500  31.000  1.00  0.00     0.031 A 
ATOM     35  C   UNL A   1      38.099  32.972  32.289  1.00  0.00     0.074 A 
ATOM     36  C   UNL A   1      38.049  31.488  30.309  1.00  0.00     0.049 A 
ATOM     37  N   UNL A   1      39.186  32.564  32.890  1.00  0.00    -0.248 NA
ATOM     38  C   UNL A   1      37.422  34.091  32.970  1.00  0.00     0.031 C 
ATOM     39  C   UNL A   1      37.592  30.987  29.010  1.00  0.00     0.029 A 
ATOM     40  N   UNL A   1      39.136  30.705  30.601  1.00  0.00    -0.354 N 
ATOM     41  C   UNL A   1      39.340  33.397  33.990  1.00  0.00     0.074 A 
ATOM     42  C   UNL A   1      38.274  34.371  33.942  1.00  0.00     0.031 C 
ATOM     43  C   UNL A   1      38.372  29.960  28.636  1.00  0.00     0.029 A 
ATOM     44  C   UNL A   1      39.402  29.752  29.649  1.00  0.00     0.049 A 
ATOM     45  H   UNL A   1      39.676  30.817  31.417  1.00  0.00     0.167 HD
ATOM     46  C   UNL A   1      40.267  33.335  34.974  1.00  0.00     0.037 A 
ATOM     47  C   UNL A   1      40.366  28.814  29.606  1.00  0.00     0.037 A 
ATOM     48  C   UNL A   1      41.283  32.323  35.053  1.00  0.00     0.049 A 
ATOM     49  C   UNL A   1      41.347  28.725  30.741  1.00  0.00     0.074 A 
ATOM     50  C   UNL A   1      42.219  32.114  36.049  1.00  0.00     0.029 A 
ATOM     51  N   UNL A   1      41.483  31.336  34.098  1.00  0.00    -0.354 N 
ATOM     52  N   UNL A   1      41.441  29.477  31.812  1.00  0.00    -0.248 NA
ATOM     53  C   UNL A   1      42.352  27.655  30.666  1.00  0.00     0.031 C 
ATOM     54  C   UNL A   1      43.001  31.013  35.686  1.00  0.00     0.029 A 
ATOM     55  C   UNL A   1      42.531  30.518  34.480  1.00  0.00     0.049 A 
ATOM     56  H   UNL A   1      40.956  31.233  33.273  1.00  0.00     0.167 HD
ATOM     57  C   UNL A   1      42.497  28.957  32.549  1.00  0.00     0.074 A 
ATOM     58  C   UNL A   1      43.003  27.818  31.809  1.00  0.00     0.031 C 
ATOM     59  C   UNL A   1      43.005  29.383  33.730  1.00  0.00     0.037 A 
BRANCH  46  60
ATOM     60  C   UNL A   1      40.200  34.379  36.047  1.00  0.00     0.057 A 
ATOM     61  C   UNL A   1      40.928  35.574  35.960  1.00  0.00     0.134 A 
ATOM     62  C   UNL A   1      39.402  34.190  37.181  1.00  0.00     0.134 A 
ATOM     63  F   UNL A   1      41.728  35.807  34.908  1.00  0.00    -0.206 F 
ATOM     64  C   UNL A   1      40.889  36.529  36.976  1.00  0.00     0.040 A 
ATOM     65  C   UNL A   1      39.332  35.150  38.191  1.00  0.00     0.040 A 
ATOM     66  F   UNL A   1      38.680  33.069  37.327  1.00  0.00    -0.206 F 
ATOM     67  C   UNL A   1      40.084  36.320  38.094  1.00  0.00     0.006 A 
ENDBRANCH  46  60
BRANCH  47  68
ATOM     68  C   UNL A   1      40.422  27.854  28.476  1.00  0.00     0.057 A 
ATOM     69  C   UNL A   1      39.745  26.631  28.540  1.00  0.00     0.134 A 
ATOM     70  C   UNL A   1      41.152  28.129  27.314  1.00  0.00     0.134 A 
ATOM     71  F   UNL A   1      39.042  26.306  29.635  1.00  0.00    -0.206 F 
ATOM     72  C   UNL A   1      39.804  25.706  27.497  1.00  0.00     0.040 A 
ATOM     73  C   UNL A   1      41.204  27.222  26.254  1.00  0.00     0.040 A 
ATOM     74  F   UNL A   1      41.815  29.288  27.189  1.00  0.00    -0.206 F 
ATOM     75  C   UNL A   1      40.533  26.003  26.347  1.00  0.00     0.006 A 
ENDBRANCH  47  68
BRANCH  59  76
ATOM     76  C   UNL A   1      44.142  28.598  34.308  1.00  0.00     0.057 A 
ATOM     77  C   UNL A   1      45.475  28.945  34.060  1.00  0.00     0.134 A 
ATOM     78  C   UNL A   1      43.898  27.514  35.160  1.00  0.00     0.134 A 
ATOM     79  F   UNL A   1      45.771  29.966  33.243  1.00  0.00    -0.206 F 
ATOM     80  C   UNL A   1      46.529  28.229  34.627  1.00  0.00     0.040 A 
ATOM     81  C   UNL A   1      44.942  26.804  35.750  1.00  0.00     0.040 A 
ATOM     82  F   UNL A   1      42.642  27.139  35.442  1.00  0.00    -0.206 F 
ATOM     83  C   UNL A   1      46.263  27.159  35.481  1.00  0.00     0.006 A 
ENDBRANCH  59  76
ENDBRANCH  33  34
ENDBRANCH  25  28
ENDBRANCH  23  24
ENDBRANCH  22  23
ENDBRANCH   1  22
TORSDOF 14
ENDMDL
MODEL 2
REMARK VINA RESULT:     -11.4      0.864      6.379
REMARK SMILES C[C@H]1[C@@H](C(=O)NCCCCNC(=O)c2ccc(-c3c4nc(c(-c5c(F)cccc5F)c5ccc([nH]5)c(-c5c(F)cccc5F)c5nc(c(-c6c(F)cccc6F)c6ccc3[nH]6)C=C5)C=C4)cc2)CC[N@@H+]1CC1(O)CCCC1
REMARK SMILES IDX 8 1 7 2 6 3 4 4 5 5 3 7 1 8 2 9 70 10 68 11 69 12 71 14
REMARK SMILES IDX 72 15 74 16 77 17 75 18 76 19 73 20 9 22 10 23 11 24 12 25
REMARK SMILES IDX 13 27 14 28 15 29 67 30 16 31 66 32 17 33 18 34 19 35 60 36
REMARK SMILES IDX 20 37 65 38 59 39 61 40 21 41 64 42 58 43 57 44 22 46 48 47
REMARK SMILES IDX 31 48 47 49 32 50 35 51 46 52 62 53 33 54 34 55 45 57 63 58
REMARK SMILES IDX 36 59 23 60 24 61 29 62 25 63 26 64 28 65 30 66 27 67 49 68
REMARK SMILES IDX 50 69 55 70 51 71 52 72 54 73 56 74 53 75 37 76 38 77 43 78
REMARK SMILES IDX 39 79 40 80 42 81 44 82 41 83
REMARK H PARENT 6 6 70 13 73 21 11 26 61 45 35 56
REMARK Flexibility Score: inf
ROOT
ATOM      1  C   UNL A   1      31.779  30.558  26.884  1.00  0.00     0.023 C 
ENDROOT
BRANCH   1   2
ATOM      2  C   UNL A   1      32.726  29.977  25.830  1.00  0.00     0.116 C 
BRANCH   2   3
ATOM      3  N   UNL A   1      31.949  29.586  24.677  1.00  0.00    -0.356 N 
ATOM      4  C   UNL A   1      31.539  28.338  24.314  1.00  0.00     0.229 C 
ATOM      5  O   UNL A   1      31.296  28.170  23.117  1.00  0.00    -0.275 OA
ATOM      6  H   UNL A   1      31.681  30.318  24.075  1.00  0.00     0.163 HD
BRANCH   4   7
ATOM      7  C   UNL A   1      31.244  27.281  25.380  1.00  0.00     0.142 C 
ATOM      8  C   UNL A   1      33.770  26.450  25.396  1.00  0.00     0.076 C 
ATOM      9  C   UNL A   1      32.348  26.345  25.923  1.00  0.00     0.193 C 
ATOM     10  N   UNL A   1      31.939  24.976  25.610  1.00  0.00    -0.330 N 
ATOM     11  C   UNL A   1      30.154  26.315  24.881  1.00  0.00     0.081 C 
ATOM     12  C   UNL A   1      30.894  25.027  24.602  1.00  0.00     0.263 C 
ATOM     13  H   UNL A   1      32.732  24.484  25.198  1.00  0.00     0.348 HD
BRANCH  10  14
ATOM     14  C   UNL A   1      31.751  24.069  26.744  1.00  0.00     0.297 C 
BRANCH  14  15
ATOM     15  C   UNL A   1      32.675  22.843  26.956  1.00  0.00     0.113 C 
ATOM     16  C   UNL A   1      34.180  23.099  26.825  1.00  0.00     0.041 C 
ATOM     17  C   UNL A   1      32.453  21.806  25.846  1.00  0.00     0.041 C 
ATOM     18  C   UNL A   1      34.788  21.725  26.533  1.00  0.00     0.003 C 
ATOM     19  C   UNL A   1      33.659  20.877  25.951  1.00  0.00     0.003 C 
BRANCH  15  20
ATOM     20  O   UNL A   1      32.361  22.219  28.206  1.00  0.00    -0.384 OA
ATOM     21  H   UNL A   1      31.702  21.522  28.062  1.00  0.00     0.211 HD
ENDBRANCH  15  20
ENDBRANCH  14  15
ENDBRANCH  10  14
ENDBRANCH   4   7
ENDBRANCH   2   3
ENDBRANCH   1   2
BRANCH   1  22
ATOM     22  C   UNL A   1      31.429  32.024  26.697  1.00  0.00     0.023 C 
BRANCH  22  23
ATOM     23  C   UNL A   1      32.626  32.949  26.759  1.00  0.00     0.116 C 
BRANCH  23  24
ATOM     24  N   UNL A   1      32.399  34.136  27.577  1.00  0.00    -0.352 N 
ATOM     25  C   UNL A   1      33.118  34.572  28.663  1.00  0.00     0.251 C 
ATOM     26  H   UNL A   1      31.632  34.695  27.317  1.00  0.00     0.163 HD
ATOM     27  O   UNL A   1      32.754  35.538  29.321  1.00  0.00    -0.269 OA
BRANCH  25  28
ATOM     28  C   UNL A   1      34.322  33.812  29.040  1.00  0.00     0.039 A 
ATOM     29  C   UNL A   1      35.578  34.375  28.816  1.00  0.00     0.014 A 
ATOM     30  C   UNL A   1      34.183  32.614  29.742  1.00  0.00     0.014 A 
ATOM     31  C   UNL A   1      36.701  33.770  29.377  1.00  0.00     0.010 A 
ATOM     32  C   UNL A   1      35.283  32.080  30.392  1.00  0.00     0.010 A 
ATOM     33  C   UNL A   1      36.554  32.648  30.209  1.00  0.00    -0.014 A 
BRANCH  33  34
ATOM     34  C   UNL A   1      37.715  32.022  30.884  1.00  0.00     0.031 A 
ATOM     35  C   UNL A   1      38.494  30.956  30.167  1.00  0.00     0.074 A 
ATOM     36  C   UNL A   1      38.008  32.343  32.159  1.00  0.00     0.049 A 
ATOM     37  N   UNL A   1      39.464  30.200  30.610  1.00  0.00    -0.248 NA
ATOM     38  C   UNL A   1      38.094  30.666  28.779  1.00  0.00     0.031 C 
ATOM     39  C   UNL A   1      37.279  33.308  32.985  1.00  0.00     0.029 A 
ATOM     40  N   UNL A   1      38.998  31.880  32.988  1.00  0.00    -0.354 N 
ATOM     41  C   UNL A   1      39.760  29.327  29.572  1.00  0.00     0.074 A 
ATOM     42  C   UNL A   1      38.829  29.602  28.502  1.00  0.00     0.031 C 
ATOM     43  C   UNL A   1      37.867  33.390  34.190  1.00  0.00     0.029 A 
ATOM     44  C   UNL A   1      38.991  32.461  34.232  1.00  0.00     0.049 A 
ATOM     45  H   UNL A   1      39.650  31.194  32.717  1.00  0.00     0.167 HD
ATOM     46  C   UNL A   1      40.744  28.399  29.502  1.00  0.00     0.037 A 
ATOM     47  C   UNL A   1      39.807  32.265  35.284  1.00  0.00     0.037 A 
ATOM     48  C   UNL A   1      41.709  28.177  30.542  1.00  0.00     0.049 A 
ATOM     49  C   UNL A   1      40.931  31.274  35.162  1.00  0.00     0.074 A 
ATOM     50  C   UNL A   1      42.798  27.325  30.543  1.00  0.00     0.029 A 
ATOM     51  N   UNL A   1      41.706  28.829  31.767  1.00  0.00    -0.354 N 
ATOM     52  N   UNL A   1      41.243  30.502  34.149  1.00  0.00    -0.248 NA
ATOM     53  C   UNL A   1      41.819  31.132  36.324  1.00  0.00     0.031 C 
ATOM     54  C   UNL A   1      43.442  27.444  31.779  1.00  0.00     0.029 A 
ATOM     55  C   UNL A   1      42.772  28.394  32.534  1.00  0.00     0.049 A 
ATOM     56  H   UNL A   1      41.044  29.501  32.048  1.00  0.00     0.167 HD
ATOM     57  C   UNL A   1      42.376  29.801  34.542  1.00  0.00     0.074 A 
ATOM     58  C   UNL A   1      42.703  30.250  35.880  1.00  0.00     0.031 C 
ATOM     59  C   UNL A   1      43.081  28.868  33.859  1.00  0.00     0.037 A 
BRANCH  46  60
ATOM     60  C   UNL A   1      40.828  27.582  28.249  1.00  0.00     0.057 A 
ATOM     61  C   UNL A   1      41.581  28.003  27.144  1.00  0.00     0.134 A 
ATOM     62  C   UNL A   1      40.150  26.363  28.143  1.00  0.00     0.134 A 
ATOM     63  F   UNL A   1      42.238  29.173  27.174  1.00  0.00    -0.206 F 
ATOM     64  C   UNL A   1      41.630  27.255  25.967  1.00  0.00     0.040 A 
ATOM     65  C   UNL A   1      40.214  25.592  26.981  1.00  0.00     0.040 A 
ATOM     66  F   UNL A   1      39.411  25.902  29.163  1.00  0.00    -0.206 F 
ATOM     67  C   UNL A   1      40.950  26.042  25.886  1.00  0.00     0.006 A 
ENDBRANCH  46  60
BRANCH  47  68
ATOM     68  C   UNL A   1      39.625  33.056  36.527  1.00  0.00     0.057 A 
ATOM     69  C   UNL A   1      40.324  34.252  36.724  1.00  0.00     0.134 A 
ATOM     70  C   UNL A   1      38.757  32.640  37.543  1.00  0.00     0.134 A 
ATOM     71  F   UNL A   1      41.181  34.694  35.792  1.00  0.00    -0.206 F 
ATOM     72  C   UNL A   1      40.181  34.998  37.895  1.00  0.00     0.040 A 
ATOM     73  C   UNL A   1      38.589  33.386  38.711  1.00  0.00     0.040 A 
ATOM     74  F   UNL A   1      38.053  31.506  37.409  1.00  0.00    -0.206 F 
ATOM     75  C   UNL A   1      39.308  34.567  38.891  1.00  0.00     0.006 A 
ENDBRANCH  47  68
BRANCH  59  76
ATOM     76  C   UNL A   1      44.290  28.296  34.533  1.00  0.00     0.057 A 
ATOM     77  C   UNL A   1      45.545  28.909  34.433  1.00  0.00     0.134 A 
ATOM     78  C   UNL A   1      44.186  27.148  35.328  1.00  0.00     0.134 A 
ATOM     79  F   UNL A   1      45.709  30.004  33.676  1.00  0.00    -0.206 F 
ATOM     80  C   UNL A   1      46.660  28.389  35.089  1.00  0.00     0.040 A 
ATOM     81  C   UNL A   1      45.289  26.632  36.006  1.00  0.00     0.040 A 
ATOM     82  F   UNL A   1      43.009  26.522  35.469  1.00  0.00    -0.206 F 
ATOM     83  C   UNL A   1      46.532  27.251  35.885  1.00  0.00     0.006 A 
ENDBRANCH  59  76
ENDBRANCH  33  34
ENDBRANCH  25  28
ENDBRANCH  23  24
ENDBRANCH  22  23
ENDBRANCH   1  22
TORSDOF 14
ENDMDL
MODEL 3
REMARK VINA RESULT:     -11.4      5.036     10.306
REMARK SMILES C[C@H]1[C@@H](C(=O)NCCCCNC(=O)c2ccc(-c3c4nc(c(-c5c(F)cccc5F)c5ccc([nH]5)c(-c5c(F)cccc5F)c5nc(c(-c6c(F)cccc6F)c6ccc3[nH]6)C=C5)C=C4)cc2)CC[N@@H+]1CC1(O)CCCC1
REMARK SMILES IDX 8 1 7 2 6 3 4 4 5 5 3 7 1 8 2 9 70 10 68 11 69 12 71 14
REMARK SMILES IDX 72 15 74 16 77 17 75 18 76 19 73 20 9 22 10 23 11 24 12 25
REMARK SMILES IDX 13 27 14 28 15 29 67 30 16 31 66 32 17 33 18 34 19 35 60 36
REMARK SMILES IDX 20 37 65 38 59 39 61 40 21 41 64 42 58 43 57 44 22 46 48 47
REMARK SMILES IDX 31 48 47 49 32 50 35 51 46 52 62 53 33 54 34 55 45 57 63 58
REMARK SMILES IDX 36 59 23 60 24 61 29 62 25 63 26 64 28 65 30 66 27 67 49 68
REMARK SMILES IDX 50 69 55 70 51 71 52 72 54 73 56 74 53 75 37 76 38 77 43 78
REMARK SMILES IDX 39 79 40 80 42 81 44 82 41 83
REMARK H PARENT 6 6 70 13 73 21 11 26 61 45 35 56
REMARK Flexibility Score: inf
ROOT
ATOM      1  C   UNL A   1      37.259  21.227  24.645  1.00  0.00     0.023 C 
ENDROOT
BRANCH   1   2
ATOM      2  C   UNL A   1      36.357  21.779  25.753  1.00  0.00     0.116 C 
BRANCH   2   3
ATOM      3  N   UNL A   1      35.125  21.026  25.762  1.00  0.00    -0.356 N 
ATOM      4  C   UNL A   1      33.922  21.359  25.213  1.00  0.00     0.229 C 
ATOM      5  O   UNL A   1      32.929  20.821  25.706  1.00  0.00    -0.275 OA
ATOM      6  H   UNL A   1      35.158  20.158  26.226  1.00  0.00     0.163 HD
BRANCH   4   7
ATOM      7  C   UNL A   1      33.862  22.222  23.951  1.00  0.00     0.142 C 
ATOM      8  C   UNL A   1      33.900  24.471  25.367  1.00  0.00     0.076 C 
ATOM      9  C   UNL A   1      33.855  23.766  24.022  1.00  0.00     0.193 C 
ATOM     10  N   UNL A   1      32.603  24.215  23.411  1.00  0.00    -0.330 N 
ATOM     11  C   UNL A   1      32.599  21.883  23.138  1.00  0.00     0.081 C 
ATOM     12  C   UNL A   1      31.697  23.082  23.330  1.00  0.00     0.263 C 
ATOM     13  H   UNL A   1      32.169  24.905  24.025  1.00  0.00     0.348 HD
BRANCH  10  14
ATOM     14  C   UNL A   1      32.718  25.083  22.237  1.00  0.00     0.297 C 
BRANCH  14  15
ATOM     15  C   UNL A   1      32.380  26.594  22.319  1.00  0.00     0.113 C 
ATOM     16  C   UNL A   1      33.569  27.558  22.258  1.00  0.00     0.041 C 
ATOM     17  C   UNL A   1      31.788  26.939  23.692  1.00  0.00     0.041 C 
ATOM     18  C   UNL A   1      33.055  28.856  22.886  1.00  0.00     0.003 C 
ATOM     19  C   UNL A   1      31.874  28.460  23.769  1.00  0.00     0.003 C 
BRANCH  15  20
ATOM     20  O   UNL A   1      31.399  26.917  21.327  1.00  0.00    -0.384 OA
ATOM     21  H   UNL A   1      31.116  27.837  21.441  1.00  0.00     0.211 HD
ENDBRANCH  15  20
ENDBRANCH  14  15
ENDBRANCH  10  14
ENDBRANCH   4   7
ENDBRANCH   2   3
ENDBRANCH   1   2
BRANCH   1  22
ATOM     22  C   UNL A   1      38.047  19.983  25.018  1.00  0.00     0.023 C 
BRANCH  22  23
ATOM     23  C   UNL A   1      39.329  20.275  25.769  1.00  0.00     0.116 C 
BRANCH  23  24
ATOM     24  N   UNL A   1      40.234  19.133  25.836  1.00  0.00    -0.352 N 
ATOM     25  C   UNL A   1      41.582  19.130  26.104  1.00  0.00     0.251 C 
ATOM     26  H   UNL A   1      39.828  18.253  25.667  1.00  0.00     0.163 HD
ATOM     27  O   UNL A   1      42.243  18.102  26.029  1.00  0.00    -0.269 OA
BRANCH  25  28
ATOM     28  C   UNL A   1      42.218  20.414  26.441  1.00  0.00     0.039 A 
ATOM     29  C   UNL A   1      42.659  21.245  25.412  1.00  0.00     0.014 A 
ATOM     30  C   UNL A   1      42.241  20.839  27.771  1.00  0.00     0.014 A 
ATOM     31  C   UNL A   1      43.045  22.550  25.713  1.00  0.00     0.010 A 
ATOM     32  C   UNL A   1      42.515  22.167  28.051  1.00  0.00     0.010 A 
ATOM     33  C   UNL A   1      42.928  23.033  27.026  1.00  0.00    -0.014 A 
BRANCH  33  34
ATOM     34  C   UNL A   1      43.257  24.436  27.372  1.00  0.00     0.031 A 
ATOM     35  C   UNL A   1      44.689  24.889  27.315  1.00  0.00     0.074 A 
ATOM     36  C   UNL A   1      42.295  25.265  27.818  1.00  0.00     0.049 A 
ATOM     37  N   UNL A   1      45.212  26.028  27.685  1.00  0.00    -0.248 NA
ATOM     38  C   UNL A   1      45.673  23.909  26.822  1.00  0.00     0.031 C 
ATOM     39  C   UNL A   1      40.881  24.918  27.988  1.00  0.00     0.029 A 
ATOM     40  N   UNL A   1      42.364  26.574  28.222  1.00  0.00    -0.354 N 
ATOM     41  C   UNL A   1      46.581  25.887  27.505  1.00  0.00     0.074 A 
ATOM     42  C   UNL A   1      46.815  24.534  27.054  1.00  0.00     0.031 C 
ATOM     43  C   UNL A   1      40.213  25.997  28.428  1.00  0.00     0.029 A 
ATOM     44  C   UNL A   1      41.154  27.099  28.603  1.00  0.00     0.049 A 
ATOM     45  H   UNL A   1      43.203  27.088  28.239  1.00  0.00     0.167 HD
ATOM     46  C   UNL A   1      47.555  26.812  27.667  1.00  0.00     0.037 A 
ATOM     47  C   UNL A   1      40.842  28.334  29.037  1.00  0.00     0.037 A 
ATOM     48  C   UNL A   1      47.309  28.174  28.050  1.00  0.00     0.049 A 
ATOM     49  C   UNL A   1      41.932  29.363  29.152  1.00  0.00     0.074 A 
ATOM     50  C   UNL A   1      48.210  29.217  28.163  1.00  0.00     0.029 A 
ATOM     51  N   UNL A   1      46.059  28.685  28.370  1.00  0.00    -0.354 N 
ATOM     52  N   UNL A   1      43.215  29.236  28.913  1.00  0.00    -0.248 NA
ATOM     53  C   UNL A   1      41.531  30.707  29.588  1.00  0.00     0.031 C 
ATOM     54  C   UNL A   1      47.509  30.355  28.573  1.00  0.00     0.029 A 
ATOM     55  C   UNL A   1      46.167  30.027  28.684  1.00  0.00     0.049 A 
ATOM     56  H   UNL A   1      45.221  28.168  28.372  1.00  0.00     0.167 HD
ATOM     57  C   UNL A   1      43.770  30.487  29.147  1.00  0.00     0.074 A 
ATOM     58  C   UNL A   1      42.682  31.362  29.533  1.00  0.00     0.031 C 
ATOM     59  C   UNL A   1      45.064  30.878  29.053  1.00  0.00     0.037 A 
BRANCH  46  60
ATOM     60  C   UNL A   1      48.966  26.376  27.406  1.00  0.00     0.057 A 
ATOM     61  C   UNL A   1      49.520  26.407  26.120  1.00  0.00     0.134 A 
ATOM     62  C   UNL A   1      49.778  25.920  28.450  1.00  0.00     0.134 A 
ATOM     63  F   UNL A   1      48.787  26.815  25.072  1.00  0.00    -0.206 F 
ATOM     64  C   UNL A   1      50.822  25.970  25.875  1.00  0.00     0.040 A 
ATOM     65  C   UNL A   1      51.091  25.506  28.223  1.00  0.00     0.040 A 
ATOM     66  F   UNL A   1      49.309  25.864  29.706  1.00  0.00    -0.206 F 
ATOM     67  C   UNL A   1      51.614  25.523  26.931  1.00  0.00     0.006 A 
ENDBRANCH  46  60
BRANCH  47  68
ATOM     68  C   UNL A   1      39.434  28.681  29.351  1.00  0.00     0.057 A 
ATOM     69  C   UNL A   1      38.589  29.206  28.366  1.00  0.00     0.134 A 
ATOM     70  C   UNL A   1      38.900  28.502  30.632  1.00  0.00     0.134 A 
ATOM     71  F   UNL A   1      39.049  29.414  27.124  1.00  0.00    -0.206 F 
ATOM     72  C   UNL A   1      37.269  29.559  28.647  1.00  0.00     0.040 A 
ATOM     73  C   UNL A   1      37.575  28.832  30.923  1.00  0.00     0.040 A 
ATOM     74  F   UNL A   1      39.657  27.995  31.616  1.00  0.00    -0.206 F 
ATOM     75  C   UNL A   1      36.757  29.368  29.929  1.00  0.00     0.006 A 
ENDBRANCH  47  68
BRANCH  59  76
ATOM     76  C   UNL A   1      45.366  32.316  29.341  1.00  0.00     0.057 A 
ATOM     77  C   UNL A   1      45.751  32.745  30.617  1.00  0.00     0.134 A 
ATOM     78  C   UNL A   1      45.316  33.273  28.320  1.00  0.00     0.134 A 
ATOM     79  F   UNL A   1      45.804  31.877  31.638  1.00  0.00    -0.206 F 
ATOM     80  C   UNL A   1      46.061  34.080  30.871  1.00  0.00     0.040 A 
ATOM     81  C   UNL A   1      45.645  34.606  28.556  1.00  0.00     0.040 A 
ATOM     82  F   UNL A   1      44.962  32.921  27.075  1.00  0.00    -0.206 F 
ATOM     83  C   UNL A   1      46.016  35.014  29.837  1.00  0.00     0.006 A 
ENDBRANCH  59  76
ENDBRANCH  33  34
ENDBRANCH  25  28
ENDBRANCH  23  24
ENDBRANCH  22  23
ENDBRANCH   1  22
TORSDOF 14
ENDMDL
