MODEL 1
REMARK VINA RESULT:     -12.1      0.000      0.000
REMARK SMILES CSc1ccc(-c2cc(C[C@H]3CCCC3=O)ccc2[C@@H](C)C(=O)NCCCCNC(=O)c2ccc(-c3c4nc(c(-c5c(F)cccc5F)c5ccc([nH]5)c(-c5c(F)cccc5F)c5nc(c(-c6c(F)cccc6F)c6ccc3[nH]6)C=C5)C=C4)cc2)cc1
REMARK SMILES IDX 26 1 25 2 24 3 22 4 23 5 20 7 21 8 19 9 7 10 8 11 9 12 18 13
REMARK SMILES IDX 17 14 6 15 3 16 4 17 87 18 5 19 86 20 2 21 1 22 10 23 11 24
REMARK SMILES IDX 12 25 15 26 13 27 14 28 16 29 27 30 28 31 29 32 30 33 31 35
REMARK SMILES IDX 32 36 33 37 85 38 34 39 84 40 35 41 36 42 37 43 78 44 38 45
REMARK SMILES IDX 83 46 77 47 79 48 39 49 82 50 76 51 75 52 40 54 66 55 49 56
REMARK SMILES IDX 65 57 50 58 53 59 64 60 80 61 51 62 52 63 63 65 81 66 54 67
REMARK SMILES IDX 41 68 42 69 47 70 43 71 44 72 46 73 48 74 45 75 67 76 68 77
REMARK SMILES IDX 73 78 69 79 70 80 72 81 74 82 71 83 55 84 56 85 61 86 57 87
REMARK SMILES IDX 58 88 60 89 62 90 59 91
REMARK H PARENT 24 6 29 34 79 53 53 64
REMARK Flexibility Score: inf
ROOT
ATOM      1  C   UNL A   1      31.028  32.051  26.304  1.00  0.00     0.023 C 
ENDROOT
BRANCH   1   2
ATOM      2  C   UNL A   1      30.888  30.990  25.210  1.00  0.00     0.116 C 
BRANCH   2   3
ATOM      3  N   UNL A   1      32.081  30.181  25.087  1.00  0.00    -0.356 N 
ATOM      4  C   UNL A   1      32.363  28.910  25.486  1.00  0.00     0.227 C 
ATOM      5  O   UNL A   1      33.533  28.545  25.316  1.00  0.00    -0.274 OA
ATOM      6  H   UNL A   1      32.828  30.633  24.633  1.00  0.00     0.163 HD
BRANCH   4   7
ATOM      7  C   UNL A   1      31.332  27.943  26.104  1.00  0.00     0.106 C 
ATOM      8  C   UNL A   1      31.403  27.830  27.626  1.00  0.00     0.023 C 
BRANCH   7   9
ATOM      9  C   UNL A   1      31.220  26.622  25.343  1.00  0.00    -0.028 A 
ATOM     10  C   UNL A   1      30.898  26.577  23.963  1.00  0.00    -0.014 A 
ATOM     11  C   UNL A   1      30.982  25.347  23.275  1.00  0.00     0.012 A 
ATOM     12  C   UNL A   1      31.279  24.152  23.938  1.00  0.00    -0.047 A 
ATOM     13  C   UNL A   1      31.454  25.403  25.999  1.00  0.00     0.005 A 
ATOM     14  C   UNL A   1      31.509  24.192  25.310  1.00  0.00     0.004 A 
BRANCH  10  15
ATOM     15  C   UNL A   1      30.240  27.697  23.272  1.00  0.00    -0.018 A 
ATOM     16  C   UNL A   1      28.846  29.854  22.083  1.00  0.00     0.007 A 
ATOM     17  C   UNL A   1      28.179  28.961  22.922  1.00  0.00     0.015 A 
ATOM     18  C   UNL A   1      30.216  29.668  21.856  1.00  0.00     0.015 A 
ATOM     19  C   UNL A   1      28.868  27.898  23.503  1.00  0.00     0.010 A 
ATOM     20  C   UNL A   1      30.908  28.594  22.434  1.00  0.00     0.010 A 
BRANCH  16  21
ATOM     21  S   UNL A   1      28.033  31.263  21.345  1.00  0.00    -0.130 SA
ATOM     22  C   UNL A   1      28.691  32.627  22.346  1.00  0.00     0.091 C 
ENDBRANCH  16  21
ENDBRANCH  10  15
BRANCH  12  23
ATOM     23  C   UNL A   1      31.220  22.827  23.220  1.00  0.00     0.047 C 
BRANCH  23  24
ATOM     24  C   UNL A   1      32.578  22.273  22.765  1.00  0.00     0.060 C 
ATOM     25  C   UNL A   1      33.653  23.297  22.376  1.00  0.00     0.012 C 
ATOM     26  C   UNL A   1      33.269  21.500  23.866  1.00  0.00     0.136 C 
ATOM     27  C   UNL A   1      34.535  23.478  23.608  1.00  0.00     0.009 C 
ATOM     28  C   UNL A   1      34.590  22.104  24.260  1.00  0.00     0.076 C 
ATOM     29  O   UNL A   1      32.816  20.477  24.368  1.00  0.00    -0.299 OA
ENDBRANCH  23  24
ENDBRANCH  12  23
ENDBRANCH   7   9
ENDBRANCH   4   7
ENDBRANCH   2   3
ENDBRANCH   1   2
BRANCH   1  30
ATOM     30  C   UNL A   1      32.207  31.859  27.253  1.00  0.00     0.023 C 
BRANCH  30  31
ATOM     31  C   UNL A   1      33.227  32.989  27.250  1.00  0.00     0.116 C 
BRANCH  31  32
ATOM     32  N   UNL A   1      32.776  34.202  27.914  1.00  0.00    -0.352 N 
ATOM     33  C   UNL A   1      33.278  34.781  29.058  1.00  0.00     0.251 C 
ATOM     34  H   UNL A   1      32.018  34.669  27.493  1.00  0.00     0.163 HD
ATOM     35  O   UNL A   1      32.745  35.767  29.546  1.00  0.00    -0.269 OA
BRANCH  33  36
ATOM     36  C   UNL A   1      34.446  34.157  29.718  1.00  0.00     0.039 A 
ATOM     37  C   UNL A   1      34.225  33.165  30.675  1.00  0.00     0.014 A 
ATOM     38  C   UNL A   1      35.745  34.506  29.345  1.00  0.00     0.014 A 
ATOM     39  C   UNL A   1      35.314  32.473  31.209  1.00  0.00     0.010 A 
ATOM     40  C   UNL A   1      36.819  33.760  29.812  1.00  0.00     0.010 A 
ATOM     41  C   UNL A   1      36.616  32.741  30.754  1.00  0.00    -0.014 A 
BRANCH  41  42
ATOM     42  C   UNL A   1      37.779  31.977  31.266  1.00  0.00     0.031 A 
ATOM     43  C   UNL A   1      38.308  32.250  32.646  1.00  0.00     0.074 A 
ATOM     44  C   UNL A   1      38.394  31.083  30.468  1.00  0.00     0.049 A 
ATOM     45  N   UNL A   1      39.335  31.717  33.258  1.00  0.00    -0.248 NA
ATOM     46  C   UNL A   1      37.612  33.283  33.430  1.00  0.00     0.031 C 
ATOM     47  C   UNL A   1      38.017  30.778  29.085  1.00  0.00     0.029 A 
ATOM     48  N   UNL A   1      39.470  30.267  30.706  1.00  0.00    -0.354 N 
ATOM     49  C   UNL A   1      39.416  32.361  34.487  1.00  0.00     0.074 A 
ATOM     50  C   UNL A   1      38.376  33.365  34.509  1.00  0.00     0.031 C 
ATOM     51  C   UNL A   1      38.830  29.821  28.610  1.00  0.00     0.029 A 
ATOM     52  C   UNL A   1      39.799  29.463  29.641  1.00  0.00     0.049 A 
ATOM     53  H   UNL A   1      39.962  30.258  31.559  1.00  0.00     0.167 HD
ATOM     54  C   UNL A   1      40.260  32.117  35.516  1.00  0.00     0.037 A 
ATOM     55  C   UNL A   1      40.769  28.539  29.516  1.00  0.00     0.037 A 
ATOM     56  C   UNL A   1      41.269  31.093  35.506  1.00  0.00     0.049 A 
ATOM     57  C   UNL A   1      41.676  28.266  30.684  1.00  0.00     0.074 A 
ATOM     58  C   UNL A   1      42.130  30.718  36.522  1.00  0.00     0.029 A 
ATOM     59  N   UNL A   1      41.552  30.278  34.420  1.00  0.00    -0.354 N 
ATOM     60  N   UNL A   1      41.690  28.827  31.869  1.00  0.00    -0.248 NA
ATOM     61  C   UNL A   1      42.694  27.222  30.501  1.00  0.00     0.031 C 
ATOM     62  C   UNL A   1      42.956  29.698  36.039  1.00  0.00     0.029 A 
ATOM     63  C   UNL A   1      42.583  29.410  34.736  1.00  0.00     0.049 A 
ATOM     64  H   UNL A   1      41.087  30.310  33.552  1.00  0.00     0.167 HD
ATOM     65  C   UNL A   1      42.700  28.191  32.578  1.00  0.00     0.074 A 
ATOM     66  C   UNL A   1      43.262  27.188  31.697  1.00  0.00     0.031 C 
ATOM     67  C   UNL A   1      43.126  28.417  33.845  1.00  0.00     0.037 A 
BRANCH  54  68
ATOM     68  C   UNL A   1      40.110  32.968  36.744  1.00  0.00     0.057 A 
ATOM     69  C   UNL A   1      39.130  32.703  37.709  1.00  0.00     0.134 A 
ATOM     70  C   UNL A   1      40.963  34.054  36.970  1.00  0.00     0.134 A 
ATOM     71  F   UNL A   1      38.270  31.685  37.543  1.00  0.00    -0.206 F 
ATOM     72  C   UNL A   1      38.983  33.505  38.841  1.00  0.00     0.040 A 
ATOM     73  C   UNL A   1      40.843  34.848  38.113  1.00  0.00     0.040 A 
ATOM     74  F   UNL A   1      41.926  34.363  36.088  1.00  0.00    -0.206 F 
ATOM     75  C   UNL A   1      39.847  34.579  39.049  1.00  0.00     0.006 A 
ENDBRANCH  54  68
BRANCH  55  76
ATOM     76  C   UNL A   1      40.908  27.771  28.253  1.00  0.00     0.057 A 
ATOM     77  C   UNL A   1      41.680  28.263  27.193  1.00  0.00     0.134 A 
ATOM     78  C   UNL A   1      40.269  26.539  28.070  1.00  0.00     0.134 A 
ATOM     79  F   UNL A   1      42.301  29.446  27.304  1.00  0.00    -0.206 F 
ATOM     80  C   UNL A   1      41.794  27.568  25.988  1.00  0.00     0.040 A 
ATOM     81  C   UNL A   1      40.395  25.823  26.878  1.00  0.00     0.040 A 
ATOM     82  F   UNL A   1      39.523  26.011  29.050  1.00  0.00    -0.206 F 
ATOM     83  C   UNL A   1      41.153  26.341  25.830  1.00  0.00     0.006 A 
ENDBRANCH  55  76
BRANCH  67  84
ATOM     84  C   UNL A   1      44.236  27.548  34.356  1.00  0.00     0.057 A 
ATOM     85  C   UNL A   1      45.579  27.937  34.263  1.00  0.00     0.134 A 
ATOM     86  C   UNL A   1      43.957  26.321  34.970  1.00  0.00     0.134 A 
ATOM     87  F   UNL A   1      45.913  29.094  33.672  1.00  0.00    -0.206 F 
ATOM     88  C   UNL A   1      46.607  27.122  34.739  1.00  0.00     0.040 A 
ATOM     89  C   UNL A   1      44.974  25.510  35.474  1.00  0.00     0.040 A 
ATOM     90  F   UNL A   1      42.691  25.895  35.098  1.00  0.00    -0.206 F 
ATOM     91  C   UNL A   1      46.304  25.907  35.353  1.00  0.00     0.006 A 
ENDBRANCH  67  84
ENDBRANCH  41  42
ENDBRANCH  33  36
ENDBRANCH  31  32
ENDBRANCH  30  31
ENDBRANCH   1  30
TORSDOF 16
ENDMDL
MODEL 2
REMARK VINA RESULT:     -12.1      0.915      6.017
REMARK SMILES CSc1ccc(-c2cc(C[C@H]3CCCC3=O)ccc2[C@@H](C)C(=O)NCCCCNC(=O)c2ccc(-c3c4nc(c(-c5c(F)cccc5F)c5ccc([nH]5)c(-c5c(F)cccc5F)c5nc(c(-c6c(F)cccc6F)c6ccc3[nH]6)C=C5)C=C4)cc2)cc1
REMARK SMILES IDX 26 1 25 2 24 3 22 4 23 5 20 7 21 8 19 9 7 10 8 11 9 12 18 13
REMARK SMILES IDX 17 14 6 15 3 16 4 17 87 18 5 19 86 20 2 21 1 22 10 23 11 24
REMARK SMILES IDX 12 25 15 26 13 27 14 28 16 29 27 30 28 31 29 32 30 33 31 35
REMARK SMILES IDX 32 36 33 37 85 38 34 39 84 40 35 41 36 42 37 43 78 44 38 45
REMARK SMILES IDX 83 46 77 47 79 48 39 49 82 50 76 51 75 52 40 54 66 55 49 56
REMARK SMILES IDX 65 57 50 58 53 59 64 60 80 61 51 62 52 63 63 65 81 66 54 67
REMARK SMILES IDX 41 68 42 69 47 70 43 71 44 72 46 73 48 74 45 75 67 76 68 77
REMARK SMILES IDX 73 78 69 79 70 80 72 81 74 82 71 83 55 84 56 85 61 86 57 87
REMARK SMILES IDX 58 88 60 89 62 90 59 91
REMARK H PARENT 24 6 29 34 79 53 53 64
REMARK Flexibility Score: inf
ROOT
ATOM      1  C   UNL A   1      30.901  32.039  26.085  1.00  0.00     0.023 C 
ENDROOT
BRANCH   1   2
ATOM      2  C   UNL A   1      30.813  30.907  25.058  1.00  0.00     0.116 C 
BRANCH   2   3
ATOM      3  N   UNL A   1      32.033  30.134  25.001  1.00  0.00    -0.356 N 
ATOM      4  C   UNL A   1      32.346  28.892  25.462  1.00  0.00     0.227 C 
ATOM      5  O   UNL A   1      33.531  28.559  25.338  1.00  0.00    -0.274 OA
ATOM      6  H   UNL A   1      32.777  30.591  24.545  1.00  0.00     0.163 HD
BRANCH   4   7
ATOM      7  C   UNL A   1      31.331  27.919  26.097  1.00  0.00     0.106 C 
ATOM      8  C   UNL A   1      31.404  27.834  27.621  1.00  0.00     0.023 C 
BRANCH   7   9
ATOM      9  C   UNL A   1      31.240  26.584  25.358  1.00  0.00    -0.028 A 
ATOM     10  C   UNL A   1      30.928  26.510  23.978  1.00  0.00    -0.014 A 
ATOM     11  C   UNL A   1      31.032  25.269  23.312  1.00  0.00     0.012 A 
ATOM     12  C   UNL A   1      31.339  24.090  23.998  1.00  0.00    -0.047 A 
ATOM     13  C   UNL A   1      31.486  25.380  26.037  1.00  0.00     0.005 A 
ATOM     14  C   UNL A   1      31.561  24.157  25.370  1.00  0.00     0.004 A 
BRANCH  10  15
ATOM     15  C   UNL A   1      30.259  27.609  23.263  1.00  0.00    -0.018 A 
ATOM     16  C   UNL A   1      28.849  29.732  22.033  1.00  0.00     0.007 A 
ATOM     17  C   UNL A   1      28.199  28.876  22.920  1.00  0.00     0.015 A 
ATOM     18  C   UNL A   1      30.212  29.527  21.777  1.00  0.00     0.015 A 
ATOM     19  C   UNL A   1      28.895  27.830  23.522  1.00  0.00     0.010 A 
ATOM     20  C   UNL A   1      30.911  28.469  22.376  1.00  0.00     0.010 A 
BRANCH  16  21
ATOM     21  S   UNL A   1      28.027  31.120  21.265  1.00  0.00    -0.130 SA
ATOM     22  C   UNL A   1      28.680  32.510  22.232  1.00  0.00     0.091 C 
ENDBRANCH  16  21
ENDBRANCH  10  15
BRANCH  12  23
ATOM     23  C   UNL A   1      31.302  22.752  23.303  1.00  0.00     0.047 C 
BRANCH  23  24
ATOM     24  C   UNL A   1      32.664  22.228  22.830  1.00  0.00     0.060 C 
ATOM     25  C   UNL A   1      33.695  23.271  22.376  1.00  0.00     0.012 C 
ATOM     26  C   UNL A   1      33.410  21.515  23.936  1.00  0.00     0.136 C 
ATOM     27  C   UNL A   1      34.602  23.523  23.577  1.00  0.00     0.009 C 
ATOM     28  C   UNL A   1      34.721  22.175  24.272  1.00  0.00     0.076 C 
ATOM     29  O   UNL A   1      33.005  20.497  24.485  1.00  0.00    -0.299 OA
ENDBRANCH  23  24
ENDBRANCH  12  23
ENDBRANCH   7   9
ENDBRANCH   4   7
ENDBRANCH   2   3
ENDBRANCH   1   2
BRANCH   1  30
ATOM     30  C   UNL A   1      31.926  31.835  27.195  1.00  0.00     0.023 C 
BRANCH  30  31
ATOM     31  C   UNL A   1      33.032  32.879  27.253  1.00  0.00     0.116 C 
BRANCH  31  32
ATOM     32  N   UNL A   1      32.581  34.204  27.653  1.00  0.00    -0.352 N 
ATOM     33  C   UNL A   1      33.063  34.992  28.674  1.00  0.00     0.251 C 
ATOM     34  H   UNL A   1      31.839  34.584  27.128  1.00  0.00     0.163 HD
ATOM     35  O   UNL A   1      32.531  36.059  28.944  1.00  0.00    -0.269 OA
BRANCH  33  36
ATOM     36  C   UNL A   1      34.205  34.500  29.475  1.00  0.00     0.039 A 
ATOM     37  C   UNL A   1      33.950  33.880  30.700  1.00  0.00     0.014 A 
ATOM     38  C   UNL A   1      35.510  34.595  28.987  1.00  0.00     0.014 A 
ATOM     39  C   UNL A   1      35.002  33.293  31.403  1.00  0.00     0.010 A 
ATOM     40  C   UNL A   1      36.540  33.936  29.644  1.00  0.00     0.010 A 
ATOM     41  C   UNL A   1      36.299  33.285  30.863  1.00  0.00    -0.014 A 
BRANCH  41  42
ATOM     42  C   UNL A   1      37.419  32.615  31.567  1.00  0.00     0.031 A 
ATOM     43  C   UNL A   1      38.131  31.462  30.917  1.00  0.00     0.074 A 
ATOM     44  C   UNL A   1      37.755  33.006  32.811  1.00  0.00     0.049 A 
ATOM     45  N   UNL A   1      39.107  30.724  31.383  1.00  0.00    -0.248 NA
ATOM     46  C   UNL A   1      37.663  31.063  29.579  1.00  0.00     0.031 C 
ATOM     47  C   UNL A   1      37.095  34.068  33.575  1.00  0.00     0.029 A 
ATOM     48  N   UNL A   1      38.737  32.552  33.655  1.00  0.00    -0.354 N 
ATOM     49  C   UNL A   1      39.354  29.767  30.406  1.00  0.00     0.074 A 
ATOM     50  C   UNL A   1      38.389  29.978  29.351  1.00  0.00     0.031 C 
ATOM     51  C   UNL A   1      37.710  34.203  34.761  1.00  0.00     0.029 A 
ATOM     52  C   UNL A   1      38.788  33.223  34.852  1.00  0.00     0.049 A 
ATOM     53  H   UNL A   1      39.346  31.814  33.424  1.00  0.00     0.167 HD
ATOM     54  C   UNL A   1      40.319  28.819  30.376  1.00  0.00     0.037 A 
ATOM     55  C   UNL A   1      39.617  33.068  35.901  1.00  0.00     0.037 A 
ATOM     56  C   UNL A   1      41.301  28.635  31.410  1.00  0.00     0.049 A 
ATOM     57  C   UNL A   1      40.699  32.025  35.832  1.00  0.00     0.074 A 
ATOM     58  C   UNL A   1      42.364  27.749  31.445  1.00  0.00     0.029 A 
ATOM     59  N   UNL A   1      41.341  29.355  32.595  1.00  0.00    -0.354 N 
ATOM     60  N   UNL A   1      40.972  31.180  34.867  1.00  0.00    -0.248 NA
ATOM     61  C   UNL A   1      41.595  31.924  36.992  1.00  0.00     0.031 C 
ATOM     62  C   UNL A   1      43.026  27.911  32.666  1.00  0.00     0.029 A 
ATOM     63  C   UNL A   1      42.401  28.924  33.374  1.00  0.00     0.049 A 
ATOM     64  H   UNL A   1      40.709  30.068  32.845  1.00  0.00     0.167 HD
ATOM     65  C   UNL A   1      42.083  30.464  35.294  1.00  0.00     0.074 A 
ATOM     66  C   UNL A   1      42.444  30.988  36.595  1.00  0.00     0.031 C 
ATOM     67  C   UNL A   1      42.745  29.461  34.666  1.00  0.00     0.037 A 
BRANCH  54  68
ATOM     68  C   UNL A   1      40.362  27.920  29.175  1.00  0.00     0.057 A 
ATOM     69  C   UNL A   1      39.639  26.721  29.124  1.00  0.00     0.134 A 
ATOM     70  C   UNL A   1      41.123  28.263  28.051  1.00  0.00     0.134 A 
ATOM     71  F   UNL A   1      38.903  26.327  30.175  1.00  0.00    -0.206 F 
ATOM     72  C   UNL A   1      39.694  25.881  28.012  1.00  0.00     0.040 A 
ATOM     73  C   UNL A   1      41.164  27.444  26.921  1.00  0.00     0.040 A 
ATOM     74  F   UNL A   1      41.837  29.399  28.031  1.00  0.00    -0.206 F 
ATOM     75  C   UNL A   1      40.455  26.245  26.903  1.00  0.00     0.006 A 
ENDBRANCH  54  68
BRANCH  55  76
ATOM     76  C   UNL A   1      39.486  33.946  37.090  1.00  0.00     0.057 A 
ATOM     77  C   UNL A   1      40.106  35.201  37.130  1.00  0.00     0.134 A 
ATOM     78  C   UNL A   1      38.753  33.551  38.216  1.00  0.00     0.134 A 
ATOM     79  F   UNL A   1      40.837  35.625  36.089  1.00  0.00    -0.206 F 
ATOM     80  C   UNL A   1      40.019  36.024  38.254  1.00  0.00     0.040 A 
ATOM     81  C   UNL A   1      38.639  34.375  39.337  1.00  0.00     0.040 A 
ATOM     82  F   UNL A   1      38.130  32.365  38.236  1.00  0.00    -0.206 F 
ATOM     83  C   UNL A   1      39.279  35.612  39.361  1.00  0.00     0.006 A 
ENDBRANCH  55  76
BRANCH  67  84
ATOM     84  C   UNL A   1      43.937  28.886  35.371  1.00  0.00     0.057 A 
ATOM     85  C   UNL A   1      43.819  27.810  36.260  1.00  0.00     0.134 A 
ATOM     86  C   UNL A   1      45.219  29.397  35.136  1.00  0.00     0.134 A 
ATOM     87  F   UNL A   1      42.616  27.285  36.537  1.00  0.00    -0.206 F 
ATOM     88  C   UNL A   1      44.933  27.280  36.913  1.00  0.00     0.040 A 
ATOM     89  C   UNL A   1      46.343  28.859  35.763  1.00  0.00     0.040 A 
ATOM     90  F   UNL A   1      45.401  30.421  34.289  1.00  0.00    -0.206 F 
ATOM     91  C   UNL A   1      46.201  27.801  36.660  1.00  0.00     0.006 A 
ENDBRANCH  67  84
ENDBRANCH  41  42
ENDBRANCH  33  36
ENDBRANCH  31  32
ENDBRANCH  30  31
ENDBRANCH   1  30
TORSDOF 16
ENDMDL
MODEL 3
REMARK VINA RESULT:     -11.8      3.102      8.195
REMARK SMILES CSc1ccc(-c2cc(C[C@H]3CCCC3=O)ccc2[C@@H](C)C(=O)NCCCCNC(=O)c2ccc(-c3c4nc(c(-c5c(F)cccc5F)c5ccc([nH]5)c(-c5c(F)cccc5F)c5nc(c(-c6c(F)cccc6F)c6ccc3[nH]6)C=C5)C=C4)cc2)cc1
REMARK SMILES IDX 26 1 25 2 24 3 22 4 23 5 20 7 21 8 19 9 7 10 8 11 9 12 18 13
REMARK SMILES IDX 17 14 6 15 3 16 4 17 87 18 5 19 86 20 2 21 1 22 10 23 11 24
REMARK SMILES IDX 12 25 15 26 13 27 14 28 16 29 27 30 28 31 29 32 30 33 31 35
REMARK SMILES IDX 32 36 33 37 85 38 34 39 84 40 35 41 36 42 37 43 78 44 38 45
REMARK SMILES IDX 83 46 77 47 79 48 39 49 82 50 76 51 75 52 40 54 66 55 49 56
REMARK SMILES IDX 65 57 50 58 53 59 64 60 80 61 51 62 52 63 63 65 81 66 54 67
REMARK SMILES IDX 41 68 42 69 47 70 43 71 44 72 46 73 48 74 45 75 67 76 68 77
REMARK SMILES IDX 73 78 69 79 70 80 72 81 74 82 71 83 55 84 56 85 61 86 57 87
REMARK SMILES IDX 58 88 60 89 62 90 59 91
REMARK H PARENT 24 6 29 34 79 53 53 64
REMARK Flexibility Score: inf
ROOT
ATOM      1  C   UNL A   1      34.575  24.220  26.108  1.00  0.00     0.023 C 
ENDROOT
BRANCH   1   2
ATOM      2  C   UNL A   1      34.578  25.353  25.078  1.00  0.00     0.116 C 
BRANCH   2   3
ATOM      3  N   UNL A   1      33.972  26.558  25.600  1.00  0.00    -0.356 N 
ATOM      4  C   UNL A   1      33.444  27.651  24.984  1.00  0.00     0.227 C 
ATOM      5  O   UNL A   1      33.093  28.570  25.736  1.00  0.00    -0.274 OA
ATOM      6  H   UNL A   1      33.934  26.595  26.583  1.00  0.00     0.163 HD
BRANCH   4   7
ATOM      7  C   UNL A   1      33.264  27.789  23.459  1.00  0.00     0.106 C 
ATOM      8  C   UNL A   1      34.371  28.576  22.759  1.00  0.00     0.023 C 
BRANCH   7   9
ATOM      9  C   UNL A   1      31.834  28.147  23.055  1.00  0.00    -0.028 A 
ATOM     10  C   UNL A   1      30.718  27.399  23.505  1.00  0.00    -0.014 A 
ATOM     11  C   UNL A   1      29.415  27.879  23.247  1.00  0.00     0.012 A 
ATOM     12  C   UNL A   1      29.193  29.021  22.472  1.00  0.00    -0.047 A 
ATOM     13  C   UNL A   1      31.587  29.254  22.228  1.00  0.00     0.005 A 
ATOM     14  C   UNL A   1      30.294  29.702  21.960  1.00  0.00     0.004 A 
BRANCH  10  15
ATOM     15  C   UNL A   1      30.846  26.022  24.009  1.00  0.00    -0.018 A 
ATOM     16  C   UNL A   1      31.225  23.345  24.846  1.00  0.00     0.007 A 
ATOM     17  C   UNL A   1      31.512  23.720  23.534  1.00  0.00     0.015 A 
ATOM     18  C   UNL A   1      30.762  24.321  25.739  1.00  0.00     0.015 A 
ATOM     19  C   UNL A   1      31.320  25.038  23.124  1.00  0.00     0.010 A 
ATOM     20  C   UNL A   1      30.561  25.646  25.325  1.00  0.00     0.010 A 
BRANCH  16  21
ATOM     21  S   UNL A   1      31.493  21.684  25.447  1.00  0.00    -0.130 SA
ATOM     22  C   UNL A   1      32.734  21.068  24.274  1.00  0.00     0.091 C 
ENDBRANCH  16  21
ENDBRANCH  10  15
BRANCH  12  23
ATOM     23  C   UNL A   1      27.798  29.438  22.081  1.00  0.00     0.047 C 
BRANCH  23  24
ATOM     24  C   UNL A   1      27.384  30.841  22.546  1.00  0.00     0.060 C 
ATOM     25  C   UNL A   1      27.765  31.242  23.977  1.00  0.00     0.012 C 
ATOM     26  C   UNL A   1      28.051  31.926  21.731  1.00  0.00     0.136 C 
ATOM     27  C   UNL A   1      29.059  32.043  23.865  1.00  0.00     0.009 C 
ATOM     28  C   UNL A   1      28.929  32.822  22.564  1.00  0.00     0.076 C 
ATOM     29  O   UNL A   1      27.880  32.077  20.527  1.00  0.00    -0.299 OA
ENDBRANCH  23  24
ENDBRANCH  12  23
ENDBRANCH   7   9
ENDBRANCH   4   7
ENDBRANCH   2   3
ENDBRANCH   1   2
BRANCH   1  30
ATOM     30  C   UNL A   1      35.700  23.200  25.958  1.00  0.00     0.023 C 
BRANCH  30  31
ATOM     31  C   UNL A   1      36.976  23.736  25.325  1.00  0.00     0.116 C 
BRANCH  31  32
ATOM     32  N   UNL A   1      38.126  22.854  25.462  1.00  0.00    -0.352 N 
ATOM     33  C   UNL A   1      39.307  23.097  26.128  1.00  0.00     0.251 C 
ATOM     34  H   UNL A   1      38.050  21.975  25.026  1.00  0.00     0.163 HD
ATOM     35  O   UNL A   1      40.221  22.286  26.095  1.00  0.00    -0.269 OA
BRANCH  33  36
ATOM     36  C   UNL A   1      39.470  24.381  26.843  1.00  0.00     0.039 A 
ATOM     37  C   UNL A   1      39.004  24.484  28.155  1.00  0.00     0.014 A 
ATOM     38  C   UNL A   1      40.134  25.451  26.240  1.00  0.00     0.014 A 
ATOM     39  C   UNL A   1      39.269  25.642  28.888  1.00  0.00     0.010 A 
ATOM     40  C   UNL A   1      40.471  26.566  26.997  1.00  0.00     0.010 A 
ATOM     41  C   UNL A   1      40.035  26.676  28.326  1.00  0.00    -0.014 A 
BRANCH  41  42
ATOM     42  C   UNL A   1      40.377  27.889  29.108  1.00  0.00     0.031 A 
ATOM     43  C   UNL A   1      41.722  28.002  29.769  1.00  0.00     0.074 A 
ATOM     44  C   UNL A   1      39.458  28.859  29.270  1.00  0.00     0.049 A 
ATOM     45  N   UNL A   1      42.195  28.961  30.523  1.00  0.00    -0.248 NA
ATOM     46  C   UNL A   1      42.647  26.871  29.587  1.00  0.00     0.031 C 
ATOM     47  C   UNL A   1      38.093  28.836  28.736  1.00  0.00     0.029 A 
ATOM     48  N   UNL A   1      39.531  30.056  29.938  1.00  0.00    -0.354 N 
ATOM     49  C   UNL A   1      43.460  28.542  30.916  1.00  0.00     0.074 A 
ATOM     50  C   UNL A   1      43.657  27.217  30.371  1.00  0.00     0.031 C 
ATOM     51  C   UNL A   1      37.471  29.977  29.070  1.00  0.00     0.029 A 
ATOM     52  C   UNL A   1      38.379  30.801  29.862  1.00  0.00     0.049 A 
ATOM     53  H   UNL A   1      40.334  30.352  30.425  1.00  0.00     0.167 HD
ATOM     54  C   UNL A   1      44.387  29.211  31.640  1.00  0.00     0.037 A 
ATOM     55  C   UNL A   1      38.093  32.013  30.370  1.00  0.00     0.037 A 
ATOM     56  C   UNL A   1      44.203  30.544  32.150  1.00  0.00     0.049 A 
ATOM     57  C   UNL A   1      39.149  32.750  31.147  1.00  0.00     0.074 A 
ATOM     58  C   UNL A   1      45.104  31.338  32.836  1.00  0.00     0.029 A 
ATOM     59  N   UNL A   1      43.033  31.279  32.027  1.00  0.00    -0.354 N 
ATOM     60  N   UNL A   1      40.370  32.374  31.444  1.00  0.00    -0.248 NA
ATOM     61  C   UNL A   1      38.792  34.084  31.649  1.00  0.00     0.031 C 
ATOM     62  C   UNL A   1      44.468  32.542  33.156  1.00  0.00     0.029 A 
ATOM     63  C   UNL A   1      43.185  32.513  32.636  1.00  0.00     0.049 A 
ATOM     64  H   UNL A   1      42.216  30.970  31.572  1.00  0.00     0.167 HD
ATOM     65  C   UNL A   1      40.933  33.432  32.146  1.00  0.00     0.074 A 
ATOM     66  C   UNL A   1      39.926  34.472  32.213  1.00  0.00     0.031 C 
ATOM     67  C   UNL A   1      42.171  33.535  32.689  1.00  0.00     0.037 A 
BRANCH  54  68
ATOM     68  C   UNL A   1      45.688  28.512  31.906  1.00  0.00     0.057 A 
ATOM     69  C   UNL A   1      46.776  28.622  31.030  1.00  0.00     0.134 A 
ATOM     70  C   UNL A   1      45.860  27.732  33.055  1.00  0.00     0.134 A 
ATOM     71  F   UNL A   1      46.671  29.342  29.903  1.00  0.00    -0.206 F 
ATOM     72  C   UNL A   1      47.979  27.958  31.272  1.00  0.00     0.040 A 
ATOM     73  C   UNL A   1      47.068  27.085  33.322  1.00  0.00     0.040 A 
ATOM     74  F   UNL A   1      44.860  27.586  33.938  1.00  0.00    -0.206 F 
ATOM     75  C   UNL A   1      48.129  27.191  32.425  1.00  0.00     0.006 A 
ENDBRANCH  54  68
BRANCH  55  76
ATOM     76  C   UNL A   1      36.765  32.629  30.127  1.00  0.00     0.057 A 
ATOM     77  C   UNL A   1      36.537  33.428  29.001  1.00  0.00     0.134 A 
ATOM     78  C   UNL A   1      35.698  32.445  31.015  1.00  0.00     0.134 A 
ATOM     79  F   UNL A   1      37.526  33.655  28.124  1.00  0.00    -0.206 F 
ATOM     80  C   UNL A   1      35.303  34.040  28.775  1.00  0.00     0.040 A 
ATOM     81  C   UNL A   1      34.452  33.032  30.789  1.00  0.00     0.040 A 
ATOM     82  F   UNL A   1      35.851  31.684  32.109  1.00  0.00    -0.206 F 
ATOM     83  C   UNL A   1      34.254  33.838  29.671  1.00  0.00     0.006 A 
ENDBRANCH  55  76
BRANCH  67  84
ATOM     84  C   UNL A   1      42.508  34.823  33.379  1.00  0.00     0.057 A 
ATOM     85  C   UNL A   1      42.234  35.025  34.738  1.00  0.00     0.134 A 
ATOM     86  C   UNL A   1      43.136  35.862  32.682  1.00  0.00     0.134 A 
ATOM     87  F   UNL A   1      41.621  34.072  35.457  1.00  0.00    -0.206 F 
ATOM     88  C   UNL A   1      42.550  36.227  35.373  1.00  0.00     0.040 A 
ATOM     89  C   UNL A   1      43.480  37.058  33.312  1.00  0.00     0.040 A 
ATOM     90  F   UNL A   1      43.433  35.729  31.380  1.00  0.00    -0.206 F 
ATOM     91  C   UNL A   1      43.181  37.245  34.661  1.00  0.00     0.006 A 
ENDBRANCH  67  84
ENDBRANCH  41  42
ENDBRANCH  33  36
ENDBRANCH  31  32
ENDBRANCH  30  31
ENDBRANCH   1  30
TORSDOF 16
ENDMDL
