MODEL 1
REMARK VINA RESULT:     -12.1      0.000      0.000
REMARK SMILES Cc1cc(C)c2c(O[C@@H](C)C(=O)NCCCCNC(=O)c3ccc(-c4c5nc(c(-c6c(F)cccc6F)c6ccc([nH]6)c(-c6c(F)cccc6F)c6nc(c(-c7c(F)cccc7F)c7ccc4[nH]7)C=C6)C=C5)cc3)nsc2n1
REMARK SMILES IDX 15 1 14 2 13 3 11 4 12 5 9 7 10 8 8 9 7 10 1 11 2 12 3 13
REMARK SMILES IDX 78 14 4 15 77 16 5 17 6 18 76 19 75 20 16 21 17 22 18 23
REMARK SMILES IDX 19 24 20 26 21 27 22 28 74 29 23 30 73 31 24 32 25 33 26 34
REMARK SMILES IDX 67 35 27 36 72 37 66 38 68 39 28 40 71 41 65 42 64 43 29 45
REMARK SMILES IDX 55 46 38 47 54 48 39 49 42 50 53 51 69 52 40 53 41 54 52 56
REMARK SMILES IDX 70 57 43 58 30 59 31 60 36 61 32 62 33 63 35 64 37 65 34 66
REMARK SMILES IDX 56 67 57 68 62 69 58 70 59 71 61 72 63 73 60 74 44 75 45 76
REMARK SMILES IDX 50 77 46 78 47 79 49 80 51 81 48 82
REMARK H PARENT 13 6 18 25 68 44 42 55
REMARK Flexibility Score: inf
ROOT
ATOM      1  C   UNL A   1      31.803  29.173  27.082  1.00  0.00     0.023 C 
ENDROOT
BRANCH   1   2
ATOM      2  C   UNL A   1      32.328  27.736  27.181  1.00  0.00     0.116 C 
BRANCH   2   3
ATOM      3  N   UNL A   1      31.398  26.674  26.866  1.00  0.00    -0.353 N 
ATOM      4  C   UNL A   1      31.724  25.392  26.506  1.00  0.00     0.260 C 
ATOM      5  O   UNL A   1      31.094  24.482  27.056  1.00  0.00    -0.271 OA
ATOM      6  H   UNL A   1      30.440  26.893  26.914  1.00  0.00     0.163 HD
BRANCH   4   7
ATOM      7  C   UNL A   1      32.718  25.078  25.343  1.00  0.00     0.260 C 
ATOM      8  C   UNL A   1      34.157  24.732  25.742  1.00  0.00     0.064 C 
BRANCH   7   9
ATOM      9  O   UNL A   1      32.592  25.585  24.053  1.00  0.00    -0.463 OA
BRANCH   9  10
ATOM     10  C   UNL A   1      32.251  26.850  23.725  1.00  0.00     0.235 A 
ATOM     11  C   UNL A   1      28.441  30.476  21.569  1.00  0.00     0.067 C 
ATOM     12  C   UNL A   1      29.319  29.485  22.272  1.00  0.00     0.039 A 
ATOM     13  C   UNL A   1      28.765  28.415  22.956  1.00  0.00     0.027 A 
ATOM     14  N   UNL A   1      30.633  29.693  22.200  1.00  0.00    -0.240 NA
ATOM     15  C   UNL A   1      29.579  27.425  23.563  1.00  0.00    -0.034 A 
ATOM     16  C   UNL A   1      31.397  28.763  22.795  1.00  0.00     0.147 A 
ATOM     17  C   UNL A   1      28.805  26.328  24.252  1.00  0.00     0.045 C 
ATOM     18  C   UNL A   1      31.005  27.588  23.458  1.00  0.00     0.078 A 
ATOM     19  S   UNL A   1      33.084  28.930  22.772  1.00  0.00    -0.012 S 
ATOM     20  N   UNL A   1      33.394  27.491  23.480  1.00  0.00    -0.153 NA
ENDBRANCH   9  10
ENDBRANCH   7   9
ENDBRANCH   4   7
ENDBRANCH   2   3
ENDBRANCH   1   2
BRANCH   1  21
ATOM     21  C   UNL A   1      32.801  30.158  26.438  1.00  0.00     0.023 C 
BRANCH  21  22
ATOM     22  C   UNL A   1      34.063  30.415  27.259  1.00  0.00     0.116 C 
BRANCH  22  23
ATOM     23  N   UNL A   1      33.967  31.434  28.295  1.00  0.00    -0.352 N 
ATOM     24  C   UNL A   1      34.868  31.670  29.321  1.00  0.00     0.251 C 
ATOM     25  H   UNL A   1      33.175  32.018  28.263  1.00  0.00     0.163 HD
ATOM     26  O   UNL A   1      34.561  32.373  30.284  1.00  0.00    -0.269 OA
BRANCH  24  27
ATOM     27  C   UNL A   1      36.231  31.091  29.254  1.00  0.00     0.039 A 
ATOM     28  C   UNL A   1      37.376  31.896  29.193  1.00  0.00     0.014 A 
ATOM     29  C   UNL A   1      36.360  29.705  29.179  1.00  0.00     0.014 A 
ATOM     30  C   UNL A   1      38.636  31.293  29.141  1.00  0.00     0.010 A 
ATOM     31  C   UNL A   1      37.591  29.104  29.197  1.00  0.00     0.010 A 
ATOM     32  C   UNL A   1      38.729  29.896  29.156  1.00  0.00    -0.014 A 
BRANCH  32  33
ATOM     33  C   UNL A   1      39.998  29.202  29.328  1.00  0.00     0.031 A 
ATOM     34  C   UNL A   1      40.364  28.960  30.755  1.00  0.00     0.074 A 
ATOM     35  C   UNL A   1      40.570  28.504  28.325  1.00  0.00     0.049 A 
ATOM     36  N   UNL A   1      41.399  29.381  31.402  1.00  0.00    -0.248 NA
ATOM     37  C   UNL A   1      39.379  28.257  31.601  1.00  0.00     0.031 C 
ATOM     38  C   UNL A   1      40.087  28.314  26.952  1.00  0.00     0.029 A 
ATOM     39  N   UNL A   1      41.665  27.701  28.370  1.00  0.00    -0.354 N 
ATOM     40  C   UNL A   1      41.285  28.853  32.688  1.00  0.00     0.074 A 
ATOM     41  C   UNL A   1      39.945  28.342  32.804  1.00  0.00     0.031 C 
ATOM     42  C   UNL A   1      40.767  27.297  26.372  1.00  0.00     0.029 A 
ATOM     43  C   UNL A   1      41.821  26.864  27.272  1.00  0.00     0.049 A 
ATOM     44  H   UNL A   1      42.299  27.711  29.123  1.00  0.00     0.167 HD
ATOM     45  C   UNL A   1      42.368  28.665  33.493  1.00  0.00     0.037 A 
ATOM     46  C   UNL A   1      42.729  25.863  27.155  1.00  0.00     0.037 A 
ATOM     47  C   UNL A   1      43.520  29.366  32.995  1.00  0.00     0.049 A 
ATOM     48  C   UNL A   1      43.776  26.100  28.183  1.00  0.00     0.074 A 
ATOM     49  C   UNL A   1      43.817  30.695  32.766  1.00  0.00     0.029 A 
ATOM     50  N   UNL A   1      44.434  28.650  32.261  1.00  0.00    -0.354 N 
ATOM     51  N   UNL A   1      44.597  27.114  28.169  1.00  0.00    -0.248 NA
ATOM     52  C   UNL A   1      43.604  25.456  29.477  1.00  0.00     0.031 C 
ATOM     53  C   UNL A   1      44.546  30.701  31.538  1.00  0.00     0.029 A 
ATOM     54  C   UNL A   1      44.711  29.377  31.130  1.00  0.00     0.049 A 
ATOM     55  H   UNL A   1      44.819  27.776  32.502  1.00  0.00     0.167 HD
ATOM     56  C   UNL A   1      44.714  27.497  29.497  1.00  0.00     0.074 A 
ATOM     57  C   UNL A   1      44.147  26.389  30.263  1.00  0.00     0.031 C 
ATOM     58  C   UNL A   1      44.991  28.792  29.837  1.00  0.00     0.037 A 
BRANCH  45  59
ATOM     59  C   UNL A   1      42.461  27.598  34.552  1.00  0.00     0.057 A 
ATOM     60  C   UNL A   1      42.911  26.311  34.215  1.00  0.00     0.134 A 
ATOM     61  C   UNL A   1      41.900  27.717  35.841  1.00  0.00     0.134 A 
ATOM     62  F   UNL A   1      43.424  26.059  33.002  1.00  0.00    -0.206 F 
ATOM     63  C   UNL A   1      42.794  25.222  35.089  1.00  0.00     0.040 A 
ATOM     64  C   UNL A   1      41.832  26.652  36.743  1.00  0.00     0.040 A 
ATOM     65  F   UNL A   1      41.303  28.841  36.259  1.00  0.00    -0.206 F 
ATOM     66  C   UNL A   1      42.259  25.392  36.360  1.00  0.00     0.006 A 
ENDBRANCH  45  59
BRANCH  46  67
ATOM     67  C   UNL A   1      42.599  24.557  26.467  1.00  0.00     0.057 A 
ATOM     68  C   UNL A   1      43.483  24.190  25.441  1.00  0.00     0.134 A 
ATOM     69  C   UNL A   1      41.805  23.523  26.993  1.00  0.00     0.134 A 
ATOM     70  F   UNL A   1      44.307  25.099  24.897  1.00  0.00    -0.206 F 
ATOM     71  C   UNL A   1      43.602  22.867  24.994  1.00  0.00     0.040 A 
ATOM     72  C   UNL A   1      41.910  22.199  26.552  1.00  0.00     0.040 A 
ATOM     73  F   UNL A   1      40.968  23.743  28.018  1.00  0.00    -0.206 F 
ATOM     74  C   UNL A   1      42.825  21.863  25.562  1.00  0.00     0.006 A 
ENDBRANCH  46  67
BRANCH  58  75
ATOM     75  C   UNL A   1      45.382  29.741  28.731  1.00  0.00     0.057 A 
ATOM     76  C   UNL A   1      44.474  30.552  28.028  1.00  0.00     0.134 A 
ATOM     77  C   UNL A   1      46.738  29.960  28.474  1.00  0.00     0.134 A 
ATOM     78  F   UNL A   1      43.161  30.494  28.270  1.00  0.00    -0.206 F 
ATOM     79  C   UNL A   1      44.893  31.502  27.091  1.00  0.00     0.040 A 
ATOM     80  C   UNL A   1      47.173  30.930  27.566  1.00  0.00     0.040 A 
ATOM     81  F   UNL A   1      47.672  29.267  29.144  1.00  0.00    -0.206 F 
ATOM     82  C   UNL A   1      46.249  31.698  26.863  1.00  0.00     0.006 A 
ENDBRANCH  58  75
ENDBRANCH  32  33
ENDBRANCH  24  27
ENDBRANCH  22  23
ENDBRANCH  21  22
ENDBRANCH   1  21
TORSDOF 13
ENDMDL
MODEL 2
REMARK VINA RESULT:     -12.0      1.893      3.426
REMARK SMILES Cc1cc(C)c2c(O[C@@H](C)C(=O)NCCCCNC(=O)c3ccc(-c4c5nc(c(-c6c(F)cccc6F)c6ccc([nH]6)c(-c6c(F)cccc6F)c6nc(c(-c7c(F)cccc7F)c7ccc4[nH]7)C=C6)C=C5)cc3)nsc2n1
REMARK SMILES IDX 15 1 14 2 13 3 11 4 12 5 9 7 10 8 8 9 7 10 1 11 2 12 3 13
REMARK SMILES IDX 78 14 4 15 77 16 5 17 6 18 76 19 75 20 16 21 17 22 18 23
REMARK SMILES IDX 19 24 20 26 21 27 22 28 74 29 23 30 73 31 24 32 25 33 26 34
REMARK SMILES IDX 67 35 27 36 72 37 66 38 68 39 28 40 71 41 65 42 64 43 29 45
REMARK SMILES IDX 55 46 38 47 54 48 39 49 42 50 53 51 69 52 40 53 41 54 52 56
REMARK SMILES IDX 70 57 43 58 30 59 31 60 36 61 32 62 33 63 35 64 37 65 34 66
REMARK SMILES IDX 56 67 57 68 62 69 58 70 59 71 61 72 63 73 60 74 44 75 45 76
REMARK SMILES IDX 50 77 46 78 47 79 49 80 51 81 48 82
REMARK H PARENT 13 6 18 25 68 44 42 55
REMARK Flexibility Score: inf
ROOT
ATOM      1  C   UNL A   1      32.406  27.973  26.919  1.00  0.00     0.023 C 
ENDROOT
BRANCH   1   2
ATOM      2  C   UNL A   1      31.368  27.344  25.983  1.00  0.00     0.116 C 
BRANCH   2   3
ATOM      3  N   UNL A   1      30.660  26.183  26.475  1.00  0.00    -0.353 N 
ATOM      4  C   UNL A   1      30.966  24.874  26.207  1.00  0.00     0.260 C 
ATOM      5  O   UNL A   1      30.963  24.094  27.166  1.00  0.00    -0.271 OA
ATOM      6  H   UNL A   1      29.883  26.349  27.056  1.00  0.00     0.163 HD
BRANCH   4   7
ATOM      7  C   UNL A   1      31.148  24.340  24.751  1.00  0.00     0.260 C 
ATOM      8  C   UNL A   1      30.327  25.031  23.656  1.00  0.00     0.064 C 
BRANCH   7   9
ATOM      9  O   UNL A   1      31.525  23.037  24.441  1.00  0.00    -0.463 OA
BRANCH   9  10
ATOM     10  C   UNL A   1      32.587  22.374  24.948  1.00  0.00     0.235 A 
ATOM     11  C   UNL A   1      38.211  22.001  25.690  1.00  0.00     0.067 C 
ATOM     12  C   UNL A   1      36.736  22.259  25.594  1.00  0.00     0.039 A 
ATOM     13  C   UNL A   1      36.248  23.555  25.574  1.00  0.00     0.027 A 
ATOM     14  N   UNL A   1      35.945  21.188  25.532  1.00  0.00    -0.240 NA
ATOM     15  C   UNL A   1      34.865  23.821  25.407  1.00  0.00    -0.034 A 
ATOM     16  C   UNL A   1      34.635  21.448  25.396  1.00  0.00     0.147 A 
ATOM     17  C   UNL A   1      34.517  25.289  25.396  1.00  0.00     0.045 C 
ATOM     18  C   UNL A   1      33.986  22.689  25.282  1.00  0.00     0.078 A 
ATOM     19  S   UNL A   1      33.534  20.161  25.314  1.00  0.00    -0.012 S 
ATOM     20  N   UNL A   1      32.226  21.092  25.015  1.00  0.00    -0.153 NA
ENDBRANCH   9  10
ENDBRANCH   7   9
ENDBRANCH   4   7
ENDBRANCH   2   3
ENDBRANCH   1   2
BRANCH   1  21
ATOM     21  C   UNL A   1      33.096  29.224  26.334  1.00  0.00     0.023 C 
BRANCH  21  22
ATOM     22  C   UNL A   1      34.301  29.718  27.131  1.00  0.00     0.116 C 
BRANCH  22  23
ATOM     23  N   UNL A   1      34.119  30.949  27.888  1.00  0.00    -0.352 N 
ATOM     24  C   UNL A   1      34.867  31.382  28.971  1.00  0.00     0.251 C 
ATOM     25  H   UNL A   1      33.383  31.536  27.599  1.00  0.00     0.163 HD
ATOM     26  O   UNL A   1      34.466  32.295  29.693  1.00  0.00    -0.269 OA
BRANCH  24  27
ATOM     27  C   UNL A   1      36.181  30.759  29.256  1.00  0.00     0.039 A 
ATOM     28  C   UNL A   1      36.292  29.552  29.959  1.00  0.00     0.014 A 
ATOM     29  C   UNL A   1      37.336  31.438  28.869  1.00  0.00     0.014 A 
ATOM     30  C   UNL A   1      37.559  29.007  30.190  1.00  0.00     0.010 A 
ATOM     31  C   UNL A   1      38.576  30.879  29.030  1.00  0.00     0.010 A 
ATOM     32  C   UNL A   1      38.691  29.675  29.709  1.00  0.00    -0.014 A 
BRANCH  32  33
ATOM     33  C   UNL A   1      40.014  29.067  29.712  1.00  0.00     0.031 A 
ATOM     34  C   UNL A   1      40.587  28.878  31.078  1.00  0.00     0.074 A 
ATOM     35  C   UNL A   1      40.490  28.387  28.648  1.00  0.00     0.049 A 
ATOM     36  N   UNL A   1      41.670  29.377  31.572  1.00  0.00    -0.248 NA
ATOM     37  C   UNL A   1      39.776  28.131  32.060  1.00  0.00     0.031 C 
ATOM     38  C   UNL A   1      39.837  28.139  27.357  1.00  0.00     0.029 A 
ATOM     39  N   UNL A   1      41.631  27.656  28.551  1.00  0.00    -0.354 N 
ATOM     40  C   UNL A   1      41.768  28.869  32.867  1.00  0.00     0.074 A 
ATOM     41  C   UNL A   1      40.494  28.276  33.172  1.00  0.00     0.031 C 
ATOM     42  C   UNL A   1      40.497  27.156  26.701  1.00  0.00     0.029 A 
ATOM     43  C   UNL A   1      41.690  26.809  27.451  1.00  0.00     0.049 A 
ATOM     44  H   UNL A   1      42.360  27.723  29.210  1.00  0.00     0.167 HD
ATOM     45  C   UNL A   1      42.961  28.766  33.518  1.00  0.00     0.037 A 
ATOM     46  C   UNL A   1      42.638  25.866  27.222  1.00  0.00     0.037 A 
ATOM     47  C   UNL A   1      43.986  29.530  32.858  1.00  0.00     0.049 A 
ATOM     48  C   UNL A   1      43.798  26.190  28.094  1.00  0.00     0.074 A 
ATOM     49  C   UNL A   1      44.160  30.871  32.575  1.00  0.00     0.029 A 
ATOM     50  N   UNL A   1      44.836  28.859  32.014  1.00  0.00    -0.354 N 
ATOM     51  N   UNL A   1      44.540  27.254  27.956  1.00  0.00    -0.248 NA
ATOM     52  C   UNL A   1      43.847  25.563  29.406  1.00  0.00     0.031 C 
ATOM     53  C   UNL A   1      44.712  30.898  31.259  1.00  0.00     0.029 A 
ATOM     54  C   UNL A   1      44.908  29.579  30.847  1.00  0.00     0.049 A 
ATOM     55  H   UNL A   1      45.307  28.016  32.209  1.00  0.00     0.167 HD
ATOM     56  C   UNL A   1      44.812  27.670  29.251  1.00  0.00     0.074 A 
ATOM     57  C   UNL A   1      44.429  26.544  30.100  1.00  0.00     0.031 C 
ATOM     58  C   UNL A   1      45.047  28.987  29.535  1.00  0.00     0.037 A 
BRANCH  45  59
ATOM     59  C   UNL A   1      43.268  27.730  34.566  1.00  0.00     0.057 A 
ATOM     60  C   UNL A   1      43.503  26.397  34.188  1.00  0.00     0.134 A 
ATOM     61  C   UNL A   1      43.107  27.939  35.952  1.00  0.00     0.134 A 
ATOM     62  F   UNL A   1      43.629  26.062  32.897  1.00  0.00    -0.206 F 
ATOM     63  C   UNL A   1      43.554  25.352  35.120  1.00  0.00     0.040 A 
ATOM     64  C   UNL A   1      43.216  26.914  36.895  1.00  0.00     0.040 A 
ATOM     65  F   UNL A   1      42.743  29.125  36.457  1.00  0.00    -0.206 F 
ATOM     66  C   UNL A   1      43.417  25.608  36.478  1.00  0.00     0.006 A 
ENDBRANCH  45  59
BRANCH  46  67
ATOM     67  C   UNL A   1      42.501  24.541  26.574  1.00  0.00     0.057 A 
ATOM     68  C   UNL A   1      43.264  24.209  25.444  1.00  0.00     0.134 A 
ATOM     69  C   UNL A   1      41.852  23.470  27.213  1.00  0.00     0.134 A 
ATOM     70  F   UNL A   1      43.949  25.154  24.784  1.00  0.00    -0.206 F 
ATOM     71  C   UNL A   1      43.407  22.887  25.000  1.00  0.00     0.040 A 
ATOM     72  C   UNL A   1      41.982  22.147  26.778  1.00  0.00     0.040 A 
ATOM     73  F   UNL A   1      41.146  23.660  28.338  1.00  0.00    -0.206 F 
ATOM     74  C   UNL A   1      42.777  21.848  25.679  1.00  0.00     0.006 A 
ENDBRANCH  46  67
BRANCH  58  75
ATOM     75  C   UNL A   1      45.219  29.937  28.375  1.00  0.00     0.057 A 
ATOM     76  C   UNL A   1      44.173  30.677  27.797  1.00  0.00     0.134 A 
ATOM     77  C   UNL A   1      46.510  30.233  27.928  1.00  0.00     0.134 A 
ATOM     78  F   UNL A   1      42.913  30.544  28.221  1.00  0.00    -0.206 F 
ATOM     79  C   UNL A   1      44.397  31.632  26.801  1.00  0.00     0.040 A 
ATOM     80  C   UNL A   1      46.753  31.210  26.958  1.00  0.00     0.040 A 
ATOM     81  F   UNL A   1      47.569  29.611  28.468  1.00  0.00    -0.206 F 
ATOM     82  C   UNL A   1      45.693  31.906  26.383  1.00  0.00     0.006 A 
ENDBRANCH  58  75
ENDBRANCH  32  33
ENDBRANCH  24  27
ENDBRANCH  22  23
ENDBRANCH  21  22
ENDBRANCH   1  21
TORSDOF 13
ENDMDL
MODEL 3
REMARK VINA RESULT:     -11.9      1.514      2.800
REMARK SMILES Cc1cc(C)c2c(O[C@@H](C)C(=O)NCCCCNC(=O)c3ccc(-c4c5nc(c(-c6c(F)cccc6F)c6ccc([nH]6)c(-c6c(F)cccc6F)c6nc(c(-c7c(F)cccc7F)c7ccc4[nH]7)C=C6)C=C5)cc3)nsc2n1
REMARK SMILES IDX 15 1 14 2 13 3 11 4 12 5 9 7 10 8 8 9 7 10 1 11 2 12 3 13
REMARK SMILES IDX 78 14 4 15 77 16 5 17 6 18 76 19 75 20 16 21 17 22 18 23
REMARK SMILES IDX 19 24 20 26 21 27 22 28 74 29 23 30 73 31 24 32 25 33 26 34
REMARK SMILES IDX 67 35 27 36 72 37 66 38 68 39 28 40 71 41 65 42 64 43 29 45
REMARK SMILES IDX 55 46 38 47 54 48 39 49 42 50 53 51 69 52 40 53 41 54 52 56
REMARK SMILES IDX 70 57 43 58 30 59 31 60 36 61 32 62 33 63 35 64 37 65 34 66
REMARK SMILES IDX 56 67 57 68 62 69 58 70 59 71 61 72 63 73 60 74 44 75 45 76
REMARK SMILES IDX 50 77 46 78 47 79 49 80 51 81 48 82
REMARK H PARENT 13 6 18 25 68 44 42 55
REMARK Flexibility Score: inf
ROOT
ATOM      1  C   UNL A   1      32.875  29.697  25.497  1.00  0.00     0.023 C 
ENDROOT
BRANCH   1   2
ATOM      2  C   UNL A   1      31.425  29.507  25.039  1.00  0.00     0.116 C 
BRANCH   2   3
ATOM      3  N   UNL A   1      31.167  29.612  23.620  1.00  0.00    -0.353 N 
ATOM      4  C   UNL A   1      31.144  28.577  22.721  1.00  0.00     0.260 C 
ATOM      5  O   UNL A   1      30.204  28.556  21.919  1.00  0.00    -0.271 OA
ATOM      6  H   UNL A   1      30.991  30.513  23.265  1.00  0.00     0.163 HD
BRANCH   4   7
ATOM      7  C   UNL A   1      32.322  27.559  22.590  1.00  0.00     0.260 C 
ATOM      8  C   UNL A   1      33.717  28.148  22.355  1.00  0.00     0.064 C 
BRANCH   7   9
ATOM      9  O   UNL A   1      32.174  26.251  22.139  1.00  0.00    -0.463 OA
BRANCH   9  10
ATOM     10  C   UNL A   1      32.490  25.133  22.827  1.00  0.00     0.235 A 
ATOM     11  C   UNL A   1      33.263  22.522  27.817  1.00  0.00     0.067 C 
ATOM     12  C   UNL A   1      32.880  23.232  26.553  1.00  0.00     0.039 A 
ATOM     13  C   UNL A   1      31.886  24.198  26.562  1.00  0.00     0.027 A 
ATOM     14  N   UNL A   1      33.539  22.885  25.448  1.00  0.00    -0.240 NA
ATOM     15  C   UNL A   1      31.561  24.934  25.395  1.00  0.00    -0.034 A 
ATOM     16  C   UNL A   1      33.211  23.572  24.342  1.00  0.00     0.147 A 
ATOM     17  C   UNL A   1      30.465  25.952  25.593  1.00  0.00     0.045 C 
ATOM     18  C   UNL A   1      32.291  24.624  24.194  1.00  0.00     0.078 A 
ATOM     19  S   UNL A   1      33.981  23.207  22.876  1.00  0.00    -0.012 S 
ATOM     20  N   UNL A   1      33.288  24.422  22.030  1.00  0.00    -0.153 NA
ENDBRANCH   9  10
ENDBRANCH   7   9
ENDBRANCH   4   7
ENDBRANCH   2   3
ENDBRANCH   1   2
BRANCH   1  21
ATOM     21  C   UNL A   1      33.038  29.782  27.029  1.00  0.00     0.023 C 
BRANCH  21  22
ATOM     22  C   UNL A   1      34.340  30.428  27.498  1.00  0.00     0.116 C 
BRANCH  22  23
ATOM     23  N   UNL A   1      34.214  31.558  28.408  1.00  0.00    -0.352 N 
ATOM     24  C   UNL A   1      34.988  31.821  29.526  1.00  0.00     0.251 C 
ATOM     25  H   UNL A   1      33.499  32.205  28.206  1.00  0.00     0.163 HD
ATOM     26  O   UNL A   1      34.631  32.649  30.364  1.00  0.00    -0.269 OA
BRANCH  24  27
ATOM     27  C   UNL A   1      36.279  31.116  29.712  1.00  0.00     0.039 A 
ATOM     28  C   UNL A   1      36.340  29.768  30.090  1.00  0.00     0.014 A 
ATOM     29  C   UNL A   1      37.459  31.844  29.570  1.00  0.00     0.014 A 
ATOM     30  C   UNL A   1      37.587  29.154  30.240  1.00  0.00     0.010 A 
ATOM     31  C   UNL A   1      38.684  31.235  29.648  1.00  0.00     0.010 A 
ATOM     32  C   UNL A   1      38.750  29.896  30.004  1.00  0.00    -0.014 A 
BRANCH  32  33
ATOM     33  C   UNL A   1      40.066  29.277  29.921  1.00  0.00     0.031 A 
ATOM     34  C   UNL A   1      40.703  29.038  31.250  1.00  0.00     0.074 A 
ATOM     35  C   UNL A   1      40.480  28.628  28.813  1.00  0.00     0.049 A 
ATOM     36  N   UNL A   1      41.815  29.511  31.705  1.00  0.00    -0.248 NA
ATOM     37  C   UNL A   1      39.934  28.266  32.246  1.00  0.00     0.031 C 
ATOM     38  C   UNL A   1      39.763  28.429  27.549  1.00  0.00     0.029 A 
ATOM     39  N   UNL A   1      41.608  27.892  28.636  1.00  0.00    -0.354 N 
ATOM     40  C   UNL A   1      41.972  28.959  32.977  1.00  0.00     0.074 A 
ATOM     41  C   UNL A   1      40.708  28.368  33.326  1.00  0.00     0.031 C 
ATOM     42  C   UNL A   1      40.379  27.462  26.829  1.00  0.00     0.029 A 
ATOM     43  C   UNL A   1      41.604  27.081  27.507  1.00  0.00     0.049 A 
ATOM     44  H   UNL A   1      42.369  27.930  29.259  1.00  0.00     0.167 HD
ATOM     45  C   UNL A   1      43.194  28.826  33.563  1.00  0.00     0.037 A 
ATOM     46  C   UNL A   1      42.530  26.138  27.201  1.00  0.00     0.037 A 
ATOM     47  C   UNL A   1      44.192  29.602  32.878  1.00  0.00     0.049 A 
ATOM     48  C   UNL A   1      43.734  26.423  28.024  1.00  0.00     0.074 A 
ATOM     49  C   UNL A   1      44.366  30.949  32.631  1.00  0.00     0.029 A 
ATOM     50  N   UNL A   1      44.993  28.952  31.972  1.00  0.00    -0.354 N 
ATOM     51  N   UNL A   1      44.479  27.485  27.883  1.00  0.00    -0.248 NA
ATOM     52  C   UNL A   1      43.842  25.752  29.310  1.00  0.00     0.031 C 
ATOM     53  C   UNL A   1      44.853  31.016  31.291  1.00  0.00     0.029 A 
ATOM     54  C   UNL A   1      45.014  29.710  30.827  1.00  0.00     0.049 A 
ATOM     55  H   UNL A   1      45.465  28.099  32.116  1.00  0.00     0.167 HD
ATOM     56  C   UNL A   1      44.820  27.856  29.176  1.00  0.00     0.074 A 
ATOM     57  C   UNL A   1      44.468  26.705  30.006  1.00  0.00     0.031 C 
ATOM     58  C   UNL A   1      45.082  29.160  29.491  1.00  0.00     0.037 A 
BRANCH  45  59
ATOM     59  C   UNL A   1      43.542  27.752  34.561  1.00  0.00     0.057 A 
ATOM     60  C   UNL A   1      43.646  26.414  34.145  1.00  0.00     0.134 A 
ATOM     61  C   UNL A   1      43.545  27.946  35.958  1.00  0.00     0.134 A 
ATOM     62  F   UNL A   1      43.610  26.095  32.843  1.00  0.00    -0.206 F 
ATOM     63  C   UNL A   1      43.727  25.351  35.053  1.00  0.00     0.040 A 
ATOM     64  C   UNL A   1      43.686  26.899  36.872  1.00  0.00     0.040 A 
ATOM     65  F   UNL A   1      43.317  29.144  36.513  1.00  0.00    -0.206 F 
ATOM     66  C   UNL A   1      43.754  25.591  36.422  1.00  0.00     0.006 A 
ENDBRANCH  45  59
BRANCH  46  67
ATOM     67  C   UNL A   1      42.348  24.836  26.517  1.00  0.00     0.057 A 
ATOM     68  C   UNL A   1      43.123  24.494  25.398  1.00  0.00     0.134 A 
ATOM     69  C   UNL A   1      41.632  23.783  27.114  1.00  0.00     0.134 A 
ATOM     70  F   UNL A   1      43.869  25.421  24.779  1.00  0.00    -0.206 F 
ATOM     71  C   UNL A   1      43.215  23.177  24.927  1.00  0.00     0.040 A 
ATOM     72  C   UNL A   1      41.711  22.465  26.650  1.00  0.00     0.040 A 
ATOM     73  F   UNL A   1      40.906  23.980  28.224  1.00  0.00    -0.206 F 
ATOM     74  C   UNL A   1      42.520  22.154  25.564  1.00  0.00     0.006 A 
ENDBRANCH  46  67
BRANCH  58  75
ATOM     75  C   UNL A   1      45.206  30.146  28.355  1.00  0.00     0.057 A 
ATOM     76  C   UNL A   1      44.139  30.907  27.849  1.00  0.00     0.134 A 
ATOM     77  C   UNL A   1      46.477  30.453  27.861  1.00  0.00     0.134 A 
ATOM     78  F   UNL A   1      42.898  30.764  28.324  1.00  0.00    -0.206 F 
ATOM     79  C   UNL A   1      44.322  31.893  26.874  1.00  0.00     0.040 A 
ATOM     80  C   UNL A   1      46.680  31.460  26.912  1.00  0.00     0.040 A 
ATOM     81  F   UNL A   1      47.557  29.811  28.333  1.00  0.00    -0.206 F 
ATOM     82  C   UNL A   1      45.599  32.177  26.408  1.00  0.00     0.006 A 
ENDBRANCH  58  75
ENDBRANCH  32  33
ENDBRANCH  24  27
ENDBRANCH  22  23
ENDBRANCH  21  22
ENDBRANCH   1  21
TORSDOF 13
ENDMDL
