MODEL 1
REMARK VINA RESULT:     -13.4      0.000      0.000
REMARK SMILES Cc1nc(-c2ccccc2)sc1C(=O)N[C@@H](CC1=c2ccccc2=NC1)C(=O)NCCCCNC(=O)c1ccc(-c2c3nc(c(-c4c(F)cccc4F)c4ccc([nH]4)c(-c4c(F)cccc4F)c4nc(c(-c5c(F)cccc5F)c5ccc2[nH]5)C=C4)C=C3)cc1
REMARK SMILES IDX 31 1 30 2 29 3 27 4 28 5 16 7 15 8 13 9 14 10 12 12 1 13
REMARK SMILES IDX 2 14 3 15 4 16 11 17 5 18 6 19 10 20 7 21 9 22 8 23 17 24
REMARK SMILES IDX 18 25 19 26 26 27 20 28 24 29 25 30 21 31 23 32 22 33 32 34
REMARK SMILES IDX 33 35 34 36 35 37 36 39 37 40 38 41 90 42 39 43 89 44 40 45
REMARK SMILES IDX 41 46 42 47 83 48 43 49 88 50 82 51 84 52 44 53 87 54 81 55
REMARK SMILES IDX 80 56 45 58 71 59 54 60 70 61 55 62 58 63 69 64 85 65 56 66
REMARK SMILES IDX 57 67 68 69 86 70 59 71 46 72 47 73 52 74 48 75 49 76 51 77
REMARK SMILES IDX 53 78 50 79 72 80 73 81 78 82 74 83 75 84 77 85 79 86 76 87
REMARK SMILES IDX 60 88 61 89 66 90 62 91 63 92 65 93 67 94 64 95
REMARK H PARENT 29 6 15 11 34 38 84 57 58 68
REMARK Flexibility Score: inf
ROOT
ATOM      1  C   UNL A   1      37.363  21.435  24.425  1.00  0.00     0.023 C 
ENDROOT
BRANCH   1   2
ATOM      2  C   UNL A   1      35.905  21.638  24.801  1.00  0.00     0.116 C 
BRANCH   2   3
ATOM      3  N   UNL A   1      35.634  21.641  26.219  1.00  0.00    -0.354 N 
ATOM      4  C   UNL A   1      34.517  22.059  26.875  1.00  0.00     0.242 C 
ATOM      5  O   UNL A   1      34.286  21.520  27.965  1.00  0.00    -0.273 OA
ATOM      6  H   UNL A   1      36.357  21.291  26.789  1.00  0.00     0.163 HD
BRANCH   4   7
ATOM      7  C   UNL A   1      33.505  23.077  26.299  1.00  0.00     0.175 C 
BRANCH   7   8
ATOM      8  N   UNL A   1      32.187  23.063  26.909  1.00  0.00    -0.339 N 
ATOM      9  C   UNL A   1      30.971  23.601  26.585  1.00  0.00     0.263 C 
ATOM     10  O   UNL A   1      30.140  23.406  27.484  1.00  0.00    -0.268 OA
ATOM     11  H   UNL A   1      32.162  22.549  27.748  1.00  0.00     0.164 HD
BRANCH   9  12
ATOM     12  C   UNL A   1      30.631  24.297  25.348  1.00  0.00     0.115 A 
ATOM     13  C   UNL A   1      31.141  22.961  23.121  1.00  0.00     0.068 C 
ATOM     14  C   UNL A   1      30.653  24.077  23.968  1.00  0.00     0.062 A 
ATOM     15  N   UNL A   1      30.129  25.107  23.201  1.00  0.00    -0.241 NA
ATOM     16  C   UNL A   1      29.801  26.138  23.932  1.00  0.00     0.124 A 
ATOM     17  S   UNL A   1      30.031  25.936  25.600  1.00  0.00    -0.108 S 
BRANCH  16  18
ATOM     18  C   UNL A   1      29.260  27.364  23.361  1.00  0.00     0.010 A 
ATOM     19  C   UNL A   1      30.142  28.291  22.787  1.00  0.00     0.011 A 
ATOM     20  C   UNL A   1      27.907  27.701  23.499  1.00  0.00     0.011 A 
ATOM     21  C   UNL A   1      29.684  29.540  22.370  1.00  0.00     0.001 A 
ATOM     22  C   UNL A   1      27.452  28.956  23.090  1.00  0.00     0.001 A 
ATOM     23  C   UNL A   1      28.341  29.875  22.532  1.00  0.00     0.000 A 
ENDBRANCH  16  18
ENDBRANCH   9  12
ENDBRANCH   7   8
BRANCH   7  24
ATOM     24  C   UNL A   1      34.050  24.515  26.095  1.00  0.00     0.068 C 
BRANCH  24  25
ATOM     25  C   UNL A   1      33.850  25.164  24.759  1.00  0.00    -0.037 C 
ATOM     26  C   UNL A   1      33.568  26.433  24.465  1.00  0.00     0.001 A 
ATOM     27  C   UNL A   1      34.018  24.363  23.501  1.00  0.00     0.174 C 
ATOM     28  C   UNL A   1      33.313  27.621  25.214  1.00  0.00     0.010 A 
ATOM     29  C   UNL A   1      33.782  26.476  23.006  1.00  0.00     0.065 A 
ATOM     30  N   UNL A   1      34.035  25.355  22.402  1.00  0.00    -0.280 NA
ATOM     31  C   UNL A   1      33.361  28.806  24.584  1.00  0.00     0.001 A 
ATOM     32  C   UNL A   1      33.810  27.815  22.381  1.00  0.00     0.028 A 
ATOM     33  C   UNL A   1      33.641  28.897  23.161  1.00  0.00     0.002 A 
ENDBRANCH  24  25
ENDBRANCH   7  24
ENDBRANCH   4   7
ENDBRANCH   2   3
ENDBRANCH   1   2
BRANCH   1  34
ATOM     34  C   UNL A   1      37.996  20.154  24.956  1.00  0.00     0.023 C 
BRANCH  34  35
ATOM     35  C   UNL A   1      39.181  20.339  25.899  1.00  0.00     0.116 C 
BRANCH  35  36
ATOM     36  N   UNL A   1      40.102  19.214  25.914  1.00  0.00    -0.352 N 
ATOM     37  C   UNL A   1      41.472  19.214  26.090  1.00  0.00     0.251 C 
ATOM     38  H   UNL A   1      39.692  18.329  25.780  1.00  0.00     0.163 HD
ATOM     39  O   UNL A   1      42.125  18.195  25.953  1.00  0.00    -0.269 OA
BRANCH  37  40
ATOM     40  C   UNL A   1      42.138  20.496  26.408  1.00  0.00     0.039 A 
ATOM     41  C   UNL A   1      42.557  21.318  25.362  1.00  0.00     0.014 A 
ATOM     42  C   UNL A   1      42.263  20.910  27.735  1.00  0.00     0.014 A 
ATOM     43  C   UNL A   1      43.011  22.608  25.646  1.00  0.00     0.010 A 
ATOM     44  C   UNL A   1      42.630  22.222  28.009  1.00  0.00     0.010 A 
ATOM     45  C   UNL A   1      42.999  23.087  26.968  1.00  0.00    -0.014 A 
BRANCH  45  46
ATOM     46  C   UNL A   1      43.355  24.493  27.284  1.00  0.00     0.031 A 
ATOM     47  C   UNL A   1      44.786  24.943  27.200  1.00  0.00     0.074 A 
ATOM     48  C   UNL A   1      42.406  25.341  27.729  1.00  0.00     0.049 A 
ATOM     49  N   UNL A   1      45.310  26.100  27.517  1.00  0.00    -0.248 NA
ATOM     50  C   UNL A   1      45.765  23.949  26.728  1.00  0.00     0.031 C 
ATOM     51  C   UNL A   1      40.992  25.009  27.921  1.00  0.00     0.029 A 
ATOM     52  N   UNL A   1      42.491  26.656  28.114  1.00  0.00    -0.354 N 
ATOM     53  C   UNL A   1      46.676  25.963  27.307  1.00  0.00     0.074 A 
ATOM     54  C   UNL A   1      46.907  24.599  26.888  1.00  0.00     0.031 C 
ATOM     55  C   UNL A   1      40.340  26.099  28.360  1.00  0.00     0.029 A 
ATOM     56  C   UNL A   1      41.292  27.194  28.513  1.00  0.00     0.049 A 
ATOM     57  H   UNL A   1      43.334  27.165  28.105  1.00  0.00     0.167 HD
ATOM     58  C   UNL A   1      47.648  26.899  27.426  1.00  0.00     0.037 A 
ATOM     59  C   UNL A   1      40.994  28.431  28.952  1.00  0.00     0.037 A 
ATOM     60  C   UNL A   1      47.412  28.267  27.803  1.00  0.00     0.049 A 
ATOM     61  C   UNL A   1      42.086  29.460  29.046  1.00  0.00     0.074 A 
ATOM     62  C   UNL A   1      48.320  29.308  27.883  1.00  0.00     0.029 A 
ATOM     63  N   UNL A   1      46.176  28.784  28.158  1.00  0.00    -0.354 N 
ATOM     64  N   UNL A   1      43.362  29.337  28.776  1.00  0.00    -0.248 NA
ATOM     65  C   UNL A   1      41.694  30.802  29.500  1.00  0.00     0.031 C 
ATOM     66  C   UNL A   1      47.638  30.450  28.316  1.00  0.00     0.029 A 
ATOM     67  C   UNL A   1      46.299  30.128  28.469  1.00  0.00     0.049 A 
ATOM     68  H   UNL A   1      45.335  28.271  28.184  1.00  0.00     0.167 HD
ATOM     69  C   UNL A   1      43.920  30.588  28.999  1.00  0.00     0.074 A 
ATOM     70  C   UNL A   1      42.841  31.461  29.415  1.00  0.00     0.031 C 
ATOM     71  C   UNL A   1      45.211  30.982  28.871  1.00  0.00     0.037 A 
BRANCH  58  72
ATOM     72  C   UNL A   1      49.054  26.470  27.128  1.00  0.00     0.057 A 
ATOM     73  C   UNL A   1      49.898  25.966  28.126  1.00  0.00     0.134 A 
ATOM     74  C   UNL A   1      49.563  26.543  25.826  1.00  0.00     0.134 A 
ATOM     75  F   UNL A   1      49.475  25.886  29.396  1.00  0.00    -0.206 F 
ATOM     76  C   UNL A   1      51.209  25.578  27.847  1.00  0.00     0.040 A 
ATOM     77  C   UNL A   1      50.864  26.131  25.529  1.00  0.00     0.040 A 
ATOM     78  F   UNL A   1      48.808  27.010  24.822  1.00  0.00    -0.206 F 
ATOM     79  C   UNL A   1      51.693  25.654  26.542  1.00  0.00     0.006 A 
ENDBRANCH  58  72
BRANCH  59  80
ATOM     80  C   UNL A   1      39.594  28.781  29.301  1.00  0.00     0.057 A 
ATOM     81  C   UNL A   1      39.125  28.641  30.612  1.00  0.00     0.134 A 
ATOM     82  C   UNL A   1      38.693  29.252  28.340  1.00  0.00     0.134 A 
ATOM     83  F   UNL A   1      39.937  28.176  31.573  1.00  0.00    -0.206 F 
ATOM     84  C   UNL A   1      37.804  28.937  30.952  1.00  0.00     0.040 A 
ATOM     85  C   UNL A   1      37.375  29.574  28.670  1.00  0.00     0.040 A 
ATOM     86  F   UNL A   1      39.085  29.416  27.067  1.00  0.00    -0.206 F 
ATOM     87  C   UNL A   1      36.926  29.409  29.978  1.00  0.00     0.006 A 
ENDBRANCH  59  80
BRANCH  71  88
ATOM     88  C   UNL A   1      45.519  32.422  29.148  1.00  0.00     0.057 A 
ATOM     89  C   UNL A   1      45.913  32.861  30.418  1.00  0.00     0.134 A 
ATOM     90  C   UNL A   1      45.459  33.373  28.121  1.00  0.00     0.134 A 
ATOM     91  F   UNL A   1      45.977  32.001  31.446  1.00  0.00    -0.206 F 
ATOM     92  C   UNL A   1      46.217  34.202  30.662  1.00  0.00     0.040 A 
ATOM     93  C   UNL A   1      45.782  34.711  28.348  1.00  0.00     0.040 A 
ATOM     94  F   UNL A   1      45.096  33.014  26.881  1.00  0.00    -0.206 F 
ATOM     95  C   UNL A   1      46.158  35.129  29.624  1.00  0.00     0.006 A 
ENDBRANCH  71  88
ENDBRANCH  45  46
ENDBRANCH  37  40
ENDBRANCH  35  36
ENDBRANCH  34  35
ENDBRANCH   1  34
TORSDOF 16
ENDMDL
MODEL 2
REMARK VINA RESULT:     -13.3      0.531      5.934
REMARK SMILES Cc1nc(-c2ccccc2)sc1C(=O)N[C@@H](CC1=c2ccccc2=NC1)C(=O)NCCCCNC(=O)c1ccc(-c2c3nc(c(-c4c(F)cccc4F)c4ccc([nH]4)c(-c4c(F)cccc4F)c4nc(c(-c5c(F)cccc5F)c5ccc2[nH]5)C=C4)C=C3)cc1
REMARK SMILES IDX 31 1 30 2 29 3 27 4 28 5 16 7 15 8 13 9 14 10 12 12 1 13
REMARK SMILES IDX 2 14 3 15 4 16 11 17 5 18 6 19 10 20 7 21 9 22 8 23 17 24
REMARK SMILES IDX 18 25 19 26 26 27 20 28 24 29 25 30 21 31 23 32 22 33 32 34
REMARK SMILES IDX 33 35 34 36 35 37 36 39 37 40 38 41 90 42 39 43 89 44 40 45
REMARK SMILES IDX 41 46 42 47 83 48 43 49 88 50 82 51 84 52 44 53 87 54 81 55
REMARK SMILES IDX 80 56 45 58 71 59 54 60 70 61 55 62 58 63 69 64 85 65 56 66
REMARK SMILES IDX 57 67 68 69 86 70 59 71 46 72 47 73 52 74 48 75 49 76 51 77
REMARK SMILES IDX 53 78 50 79 72 80 73 81 78 82 74 83 75 84 77 85 79 86 76 87
REMARK SMILES IDX 60 88 61 89 66 90 62 91 63 92 65 93 67 94 64 95
REMARK H PARENT 29 6 15 11 34 38 84 57 58 68
REMARK Flexibility Score: inf
ROOT
ATOM      1  C   UNL A   1      37.403  21.628  24.497  1.00  0.00     0.023 C 
ENDROOT
BRANCH   1   2
ATOM      2  C   UNL A   1      35.931  21.787  24.835  1.00  0.00     0.116 C 
BRANCH   2   3
ATOM      3  N   UNL A   1      35.618  21.734  26.244  1.00  0.00    -0.354 N 
ATOM      4  C   UNL A   1      34.474  22.106  26.880  1.00  0.00     0.242 C 
ATOM      5  O   UNL A   1      34.222  21.524  27.943  1.00  0.00    -0.273 OA
ATOM      6  H   UNL A   1      36.332  21.379  26.823  1.00  0.00     0.163 HD
BRANCH   4   7
ATOM      7  C   UNL A   1      33.457  23.123  26.309  1.00  0.00     0.175 C 
BRANCH   7   8
ATOM      8  N   UNL A   1      32.138  23.098  26.916  1.00  0.00    -0.339 N 
ATOM      9  C   UNL A   1      30.919  23.625  26.591  1.00  0.00     0.263 C 
ATOM     10  O   UNL A   1      30.087  23.423  27.488  1.00  0.00    -0.268 OA
ATOM     11  H   UNL A   1      32.116  22.583  27.755  1.00  0.00     0.164 HD
BRANCH   9  12
ATOM     12  C   UNL A   1      30.575  24.320  25.352  1.00  0.00     0.115 A 
ATOM     13  C   UNL A   1      31.101  22.989  23.126  1.00  0.00     0.068 C 
ATOM     14  C   UNL A   1      30.602  24.101  23.973  1.00  0.00     0.062 A 
ATOM     15  N   UNL A   1      30.071  25.126  23.205  1.00  0.00    -0.241 NA
ATOM     16  C   UNL A   1      29.734  26.155  23.937  1.00  0.00     0.124 A 
ATOM     17  S   UNL A   1      29.961  25.953  25.604  1.00  0.00    -0.108 S 
BRANCH  16  18
ATOM     18  C   UNL A   1      29.183  27.377  23.365  1.00  0.00     0.010 A 
ATOM     19  C   UNL A   1      30.058  28.311  22.793  1.00  0.00     0.011 A 
ATOM     20  C   UNL A   1      27.828  27.702  23.501  1.00  0.00     0.011 A 
ATOM     21  C   UNL A   1      29.592  29.556  22.375  1.00  0.00     0.001 A 
ATOM     22  C   UNL A   1      27.363  28.953  23.091  1.00  0.00     0.001 A 
ATOM     23  C   UNL A   1      28.246  29.880  22.536  1.00  0.00     0.000 A 
ENDBRANCH  16  18
ENDBRANCH   9  12
ENDBRANCH   7   8
BRANCH   7  24
ATOM     24  C   UNL A   1      33.996  24.565  26.117  1.00  0.00     0.068 C 
BRANCH  24  25
ATOM     25  C   UNL A   1      33.809  25.217  24.780  1.00  0.00    -0.037 C 
ATOM     26  C   UNL A   1      33.515  26.484  24.486  1.00  0.00     0.001 A 
ATOM     27  C   UNL A   1      34.007  24.422  23.522  1.00  0.00     0.174 C 
ATOM     28  C   UNL A   1      33.234  27.665  25.236  1.00  0.00     0.010 A 
ATOM     29  C   UNL A   1      33.752  26.534  23.031  1.00  0.00     0.065 A 
ATOM     30  N   UNL A   1      34.028  25.419  22.427  1.00  0.00    -0.280 NA
ATOM     31  C   UNL A   1      33.278  28.853  24.611  1.00  0.00     0.001 A 
ATOM     32  C   UNL A   1      33.773  27.877  22.412  1.00  0.00     0.028 A 
ATOM     33  C   UNL A   1      33.579  28.953  23.193  1.00  0.00     0.002 A 
ENDBRANCH  24  25
ENDBRANCH   7  24
ENDBRANCH   4   7
ENDBRANCH   2   3
ENDBRANCH   1   2
BRANCH   1  34
ATOM     34  C   UNL A   1      38.049  20.343  25.001  1.00  0.00     0.023 C 
BRANCH  34  35
ATOM     35  C   UNL A   1      39.327  20.516  25.816  1.00  0.00     0.116 C 
BRANCH  35  36
ATOM     36  N   UNL A   1      40.147  19.318  25.886  1.00  0.00    -0.352 N 
ATOM     37  C   UNL A   1      41.505  19.204  26.118  1.00  0.00     0.251 C 
ATOM     38  H   UNL A   1      39.668  18.468  25.748  1.00  0.00     0.163 HD
ATOM     39  O   UNL A   1      42.072  18.131  26.023  1.00  0.00    -0.269 OA
BRANCH  37  40
ATOM     40  C   UNL A   1      42.264  20.430  26.444  1.00  0.00     0.039 A 
ATOM     41  C   UNL A   1      42.891  21.132  25.413  1.00  0.00     0.014 A 
ATOM     42  C   UNL A   1      42.277  20.919  27.752  1.00  0.00     0.014 A 
ATOM     43  C   UNL A   1      43.447  22.385  25.680  1.00  0.00     0.010 A 
ATOM     44  C   UNL A   1      42.751  22.203  27.995  1.00  0.00     0.010 A 
ATOM     45  C   UNL A   1      43.332  22.953  26.962  1.00  0.00    -0.014 A 
BRANCH  45  46
ATOM     46  C   UNL A   1      43.800  24.333  27.240  1.00  0.00     0.031 A 
ATOM     47  C   UNL A   1      42.816  25.393  27.649  1.00  0.00     0.074 A 
ATOM     48  C   UNL A   1      45.094  24.655  27.041  1.00  0.00     0.049 A 
ATOM     49  N   UNL A   1      43.012  26.670  27.851  1.00  0.00    -0.248 NA
ATOM     50  C   UNL A   1      41.418  24.964  27.820  1.00  0.00     0.031 C 
ATOM     51  C   UNL A   1      46.138  23.736  26.580  1.00  0.00     0.029 A 
ATOM     52  N   UNL A   1      45.751  25.851  27.191  1.00  0.00    -0.354 N 
ATOM     53  C   UNL A   1      41.763  27.199  28.148  1.00  0.00     0.074 A 
ATOM     54  C   UNL A   1      40.808  26.118  28.047  1.00  0.00     0.031 C 
ATOM     55  C   UNL A   1      47.306  24.395  26.512  1.00  0.00     0.029 A 
ATOM     56  C   UNL A   1      47.090  25.788  26.890  1.00  0.00     0.049 A 
ATOM     57  H   UNL A   1      45.304  26.677  27.487  1.00  0.00     0.167 HD
ATOM     58  C   UNL A   1      41.442  28.468  28.500  1.00  0.00     0.037 A 
ATOM     59  C   UNL A   1      48.037  26.745  26.918  1.00  0.00     0.037 A 
ATOM     60  C   UNL A   1      42.397  29.534  28.641  1.00  0.00     0.049 A 
ATOM     61  C   UNL A   1      47.661  28.137  27.341  1.00  0.00     0.074 A 
ATOM     62  C   UNL A   1      42.182  30.834  29.061  1.00  0.00     0.029 A 
ATOM     63  N   UNL A   1      43.752  29.418  28.369  1.00  0.00    -0.354 N 
ATOM     64  N   UNL A   1      46.488  28.607  27.689  1.00  0.00    -0.248 NA
ATOM     65  C   UNL A   1      48.743  29.131  27.384  1.00  0.00     0.031 C 
ATOM     66  C   UNL A   1      43.403  31.515  29.015  1.00  0.00     0.029 A 
ATOM     67  C   UNL A   1      44.384  30.628  28.601  1.00  0.00     0.049 A 
ATOM     68  H   UNL A   1      44.198  28.597  28.056  1.00  0.00     0.167 HD
ATOM     69  C   UNL A   1      46.694  29.940  28.017  1.00  0.00     0.074 A 
ATOM     70  C   UNL A   1      48.107  30.202  27.840  1.00  0.00     0.031 C 
ATOM     71  C   UNL A   1      45.794  30.866  28.429  1.00  0.00     0.037 A 
BRANCH  58  72
ATOM     72  C   UNL A   1      39.997  28.760  28.773  1.00  0.00     0.057 A 
ATOM     73  C   UNL A   1      39.121  29.161  27.755  1.00  0.00     0.134 A 
ATOM     74  C   UNL A   1      39.469  28.621  30.062  1.00  0.00     0.134 A 
ATOM     75  F   UNL A   1      39.568  29.328  26.501  1.00  0.00    -0.206 F 
ATOM     76  C   UNL A   1      37.779  29.442  28.015  1.00  0.00     0.040 A 
ATOM     77  C   UNL A   1      38.122  28.873  30.329  1.00  0.00     0.040 A 
ATOM     78  F   UNL A   1      40.250  28.236  31.081  1.00  0.00    -0.206 F 
ATOM     79  C   UNL A   1      37.275  29.291  29.305  1.00  0.00     0.006 A 
ENDBRANCH  58  72
BRANCH  59  80
ATOM     80  C   UNL A   1      49.441  26.414  26.570  1.00  0.00     0.057 A 
ATOM     81  C   UNL A   1      50.310  25.877  27.526  1.00  0.00     0.134 A 
ATOM     82  C   UNL A   1      49.950  26.633  25.285  1.00  0.00     0.134 A 
ATOM     83  F   UNL A   1      49.885  25.662  28.779  1.00  0.00    -0.206 F 
ATOM     84  C   UNL A   1      51.642  25.588  27.223  1.00  0.00     0.040 A 
ATOM     85  C   UNL A   1      51.273  26.328  24.962  1.00  0.00     0.040 A 
ATOM     86  F   UNL A   1      49.164  27.138  24.322  1.00  0.00    -0.206 F 
ATOM     87  C   UNL A   1      52.125  25.810  25.935  1.00  0.00     0.006 A 
ENDBRANCH  59  80
BRANCH  71  88
ATOM     88  C   UNL A   1      46.316  32.234  28.750  1.00  0.00     0.057 A 
ATOM     89  C   UNL A   1      46.341  33.257  27.795  1.00  0.00     0.134 A 
ATOM     90  C   UNL A   1      46.762  32.540  30.042  1.00  0.00     0.134 A 
ATOM     91  F   UNL A   1      45.939  33.023  26.536  1.00  0.00    -0.206 F 
ATOM     92  C   UNL A   1      46.811  34.534  28.109  1.00  0.00     0.040 A 
ATOM     93  C   UNL A   1      47.213  33.817  30.374  1.00  0.00     0.040 A 
ATOM     94  F   UNL A   1      46.757  31.605  31.004  1.00  0.00    -0.206 F 
ATOM     95  C   UNL A   1      47.242  34.818  29.403  1.00  0.00     0.006 A 
ENDBRANCH  71  88
ENDBRANCH  45  46
ENDBRANCH  37  40
ENDBRANCH  35  36
ENDBRANCH  34  35
ENDBRANCH   1  34
TORSDOF 16
ENDMDL
MODEL 3
REMARK VINA RESULT:     -13.3      4.213      9.122
REMARK SMILES Cc1nc(-c2ccccc2)sc1C(=O)N[C@@H](CC1=c2ccccc2=NC1)C(=O)NCCCCNC(=O)c1ccc(-c2c3nc(c(-c4c(F)cccc4F)c4ccc([nH]4)c(-c4c(F)cccc4F)c4nc(c(-c5c(F)cccc5F)c5ccc2[nH]5)C=C4)C=C3)cc1
REMARK SMILES IDX 31 1 30 2 29 3 27 4 28 5 16 7 15 8 13 9 14 10 12 12 1 13
REMARK SMILES IDX 2 14 3 15 4 16 11 17 5 18 6 19 10 20 7 21 9 22 8 23 17 24
REMARK SMILES IDX 18 25 19 26 26 27 20 28 24 29 25 30 21 31 23 32 22 33 32 34
REMARK SMILES IDX 33 35 34 36 35 37 36 39 37 40 38 41 90 42 39 43 89 44 40 45
REMARK SMILES IDX 41 46 42 47 83 48 43 49 88 50 82 51 84 52 44 53 87 54 81 55
REMARK SMILES IDX 80 56 45 58 71 59 54 60 70 61 55 62 58 63 69 64 85 65 56 66
REMARK SMILES IDX 57 67 68 69 86 70 59 71 46 72 47 73 52 74 48 75 49 76 51 77
REMARK SMILES IDX 53 78 50 79 72 80 73 81 78 82 74 83 75 84 77 85 79 86 76 87
REMARK SMILES IDX 60 88 61 89 66 90 62 91 63 92 65 93 67 94 64 95
REMARK H PARENT 29 6 15 11 34 38 84 57 58 68
REMARK Flexibility Score: inf
ROOT
ATOM      1  C   UNL A   1      31.775  29.673  26.873  1.00  0.00     0.023 C 
ENDROOT
BRANCH   1   2
ATOM      2  C   UNL A   1      33.046  28.928  26.506  1.00  0.00     0.116 C 
BRANCH   2   3
ATOM      3  N   UNL A   1      33.657  29.335  25.264  1.00  0.00    -0.354 N 
ATOM      4  C   UNL A   1      33.633  28.711  24.054  1.00  0.00     0.242 C 
ATOM      5  O   UNL A   1      33.754  29.437  23.059  1.00  0.00    -0.273 OA
ATOM      6  H   UNL A   1      34.160  30.182  25.296  1.00  0.00     0.163 HD
BRANCH   4   7
ATOM      7  C   UNL A   1      33.378  27.197  23.865  1.00  0.00     0.175 C 
BRANCH   7   8
ATOM      8  N   UNL A   1      33.388  26.726  22.492  1.00  0.00    -0.339 N 
ATOM      9  C   UNL A   1      33.035  25.559  21.872  1.00  0.00     0.263 C 
ATOM     10  O   UNL A   1      33.326  25.584  20.667  1.00  0.00    -0.268 OA
ATOM     11  H   UNL A   1      33.726  27.403  21.861  1.00  0.00     0.164 HD
BRANCH   9  12
ATOM     12  C   UNL A   1      32.374  24.412  22.490  1.00  0.00     0.115 A 
ATOM     13  C   UNL A   1      30.014  24.918  23.576  1.00  0.00     0.068 C 
ATOM     14  C   UNL A   1      31.179  24.106  23.145  1.00  0.00     0.062 A 
ATOM     15  N   UNL A   1      31.025  22.771  23.492  1.00  0.00    -0.241 NA
ATOM     16  C   UNL A   1      32.094  22.073  23.216  1.00  0.00     0.124 A 
ATOM     17  S   UNL A   1      33.341  22.939  22.461  1.00  0.00    -0.108 S 
BRANCH  16  18
ATOM     18  C   UNL A   1      32.200  20.651  23.516  1.00  0.00     0.010 A 
ATOM     19  C   UNL A   1      32.468  20.255  24.834  1.00  0.00     0.011 A 
ATOM     20  C   UNL A   1      32.184  19.686  22.501  1.00  0.00     0.011 A 
ATOM     21  C   UNL A   1      32.729  18.919  25.134  1.00  0.00     0.001 A 
ATOM     22  C   UNL A   1      32.454  18.349  22.800  1.00  0.00     0.001 A 
ATOM     23  C   UNL A   1      32.733  17.969  24.113  1.00  0.00     0.000 A 
ENDBRANCH  16  18
ENDBRANCH   9  12
ENDBRANCH   7   8
BRANCH   7  24
ATOM     24  C   UNL A   1      34.170  26.265  24.819  1.00  0.00     0.068 C 
BRANCH  24  25
ATOM     25  C   UNL A   1      33.404  25.255  25.619  1.00  0.00    -0.037 C 
ATOM     26  C   UNL A   1      33.754  24.025  25.994  1.00  0.00     0.001 A 
ATOM     27  C   UNL A   1      32.049  25.601  26.167  1.00  0.00     0.174 C 
ATOM     28  C   UNL A   1      34.886  23.181  25.789  1.00  0.00     0.010 A 
ATOM     29  C   UNL A   1      32.705  23.681  26.973  1.00  0.00     0.065 A 
ATOM     30  N   UNL A   1      31.722  24.515  27.118  1.00  0.00    -0.280 NA
ATOM     31  C   UNL A   1      35.038  22.100  26.573  1.00  0.00     0.001 A 
ATOM     32  C   UNL A   1      32.935  22.470  27.790  1.00  0.00     0.028 A 
ATOM     33  C   UNL A   1      34.064  21.766  27.599  1.00  0.00     0.002 A 
ENDBRANCH  24  25
ENDBRANCH   7  24
ENDBRANCH   4   7
ENDBRANCH   2   3
ENDBRANCH   1   2
BRANCH   1  34
ATOM     34  C   UNL A   1      31.797  31.170  26.588  1.00  0.00     0.023 C 
BRANCH  34  35
ATOM     35  C   UNL A   1      32.896  31.964  27.287  1.00  0.00     0.116 C 
BRANCH  35  36
ATOM     36  N   UNL A   1      32.509  33.321  27.638  1.00  0.00    -0.352 N 
ATOM     37  C   UNL A   1      33.147  34.220  28.471  1.00  0.00     0.251 C 
ATOM     38  H   UNL A   1      31.676  33.644  27.224  1.00  0.00     0.163 HD
ATOM     39  O   UNL A   1      32.631  35.283  28.764  1.00  0.00    -0.269 OA
BRANCH  37  40
ATOM     40  C   UNL A   1      34.460  33.842  29.036  1.00  0.00     0.039 A 
ATOM     41  C   UNL A   1      34.500  33.131  30.236  1.00  0.00     0.014 A 
ATOM     42  C   UNL A   1      35.633  34.118  28.330  1.00  0.00     0.014 A 
ATOM     43  C   UNL A   1      35.717  32.606  30.678  1.00  0.00     0.010 A 
ATOM     44  C   UNL A   1      36.824  33.520  28.725  1.00  0.00     0.010 A 
ATOM     45  C   UNL A   1      36.877  32.751  29.897  1.00  0.00    -0.014 A 
BRANCH  45  46
ATOM     46  C   UNL A   1      38.153  32.096  30.279  1.00  0.00     0.031 A 
ATOM     47  C   UNL A   1      39.099  32.786  31.221  1.00  0.00     0.074 A 
ATOM     48  C   UNL A   1      38.500  30.923  29.712  1.00  0.00     0.049 A 
ATOM     49  N   UNL A   1      40.295  32.420  31.607  1.00  0.00    -0.248 NA
ATOM     50  C   UNL A   1      38.656  34.075  31.776  1.00  0.00     0.031 C 
ATOM     51  C   UNL A   1      37.702  30.184  28.731  1.00  0.00     0.029 A 
ATOM     52  N   UNL A   1      39.624  30.152  29.871  1.00  0.00    -0.354 N 
ATOM     53  C   UNL A   1      40.753  33.443  32.427  1.00  0.00     0.074 A 
ATOM     54  C   UNL A   1      39.733  34.467  32.440  1.00  0.00     0.031 C 
ATOM     55  C   UNL A   1      38.348  29.055  28.398  1.00  0.00     0.029 A 
ATOM     56  C   UNL A   1      39.619  29.005  29.114  1.00  0.00     0.049 A 
ATOM     57  H   UNL A   1      40.364  30.397  30.472  1.00  0.00     0.167 HD
ATOM     58  C   UNL A   1      41.910  33.511  33.129  1.00  0.00     0.037 A 
ATOM     59  C   UNL A   1      40.536  28.025  29.010  1.00  0.00     0.037 A 
ATOM     60  C   UNL A   1      42.907  32.475  33.148  1.00  0.00     0.049 A 
ATOM     61  C   UNL A   1      41.798  28.110  29.822  1.00  0.00     0.074 A 
ATOM     62  C   UNL A   1      44.079  32.419  33.881  1.00  0.00     0.029 A 
ATOM     63  N   UNL A   1      42.844  31.309  32.400  1.00  0.00    -0.354 N 
ATOM     64  N   UNL A   1      42.185  29.049  30.649  1.00  0.00    -0.248 NA
ATOM     65  C   UNL A   1      42.745  26.994  29.692  1.00  0.00     0.031 C 
ATOM     66  C   UNL A   1      44.741  31.231  33.555  1.00  0.00     0.029 A 
ATOM     67  C   UNL A   1      43.963  30.531  32.647  1.00  0.00     0.049 A 
ATOM     68  H   UNL A   1      42.113  31.070  31.785  1.00  0.00     0.167 HD
ATOM     69  C   UNL A   1      43.406  28.627  31.159  1.00  0.00     0.074 A 
ATOM     70  C   UNL A   1      43.689  27.340  30.557  1.00  0.00     0.031 C 
ATOM     71  C   UNL A   1      44.221  29.248  32.046  1.00  0.00     0.037 A 
BRANCH  58  72
ATOM     72  C   UNL A   1      42.145  34.747  33.945  1.00  0.00     0.057 A 
ATOM     73  C   UNL A   1      41.784  34.817  35.298  1.00  0.00     0.134 A 
ATOM     74  C   UNL A   1      42.757  35.873  33.380  1.00  0.00     0.134 A 
ATOM     75  F   UNL A   1      41.181  33.778  35.894  1.00  0.00    -0.206 F 
ATOM     76  C   UNL A   1      41.995  35.972  36.051  1.00  0.00     0.040 A 
ATOM     77  C   UNL A   1      42.998  37.025  34.131  1.00  0.00     0.040 A 
ATOM     78  F   UNL A   1      43.132  35.872  32.093  1.00  0.00    -0.206 F 
ATOM     79  C   UNL A   1      42.610  37.079  35.469  1.00  0.00     0.006 A 
ENDBRANCH  58  72
BRANCH  59  80
ATOM     80  C   UNL A   1      40.281  26.857  28.130  1.00  0.00     0.057 A 
ATOM     81  C   UNL A   1      39.474  25.797  28.559  1.00  0.00     0.134 A 
ATOM     82  C   UNL A   1      40.840  26.766  26.851  1.00  0.00     0.134 A 
ATOM     83  F   UNL A   1      38.925  25.820  29.783  1.00  0.00    -0.206 F 
ATOM     84  C   UNL A   1      39.248  24.678  27.756  1.00  0.00     0.040 A 
ATOM     85  C   UNL A   1      40.605  25.662  26.028  1.00  0.00     0.040 A 
ATOM     86  F   UNL A   1      41.616  27.753  26.379  1.00  0.00    -0.206 F 
ATOM     87  C   UNL A   1      39.812  24.612  26.484  1.00  0.00     0.006 A 
ENDBRANCH  59  80
BRANCH  71  88
ATOM     88  C   UNL A   1      45.475  28.529  32.445  1.00  0.00     0.057 A 
ATOM     89  C   UNL A   1      45.505  27.646  33.531  1.00  0.00     0.134 A 
ATOM     90  C   UNL A   1      46.655  28.694  31.707  1.00  0.00     0.134 A 
ATOM     91  F   UNL A   1      44.411  27.456  34.284  1.00  0.00    -0.206 F 
ATOM     92  C   UNL A   1      46.673  26.966  33.883  1.00  0.00     0.040 A 
ATOM     93  C   UNL A   1      47.821  28.003  32.036  1.00  0.00     0.040 A 
ATOM     94  F   UNL A   1      46.688  29.520  30.651  1.00  0.00    -0.206 F 
ATOM     95  C   UNL A   1      47.833  27.139  33.130  1.00  0.00     0.006 A 
ENDBRANCH  71  88
ENDBRANCH  45  46
ENDBRANCH  37  40
ENDBRANCH  35  36
ENDBRANCH  34  35
ENDBRANCH   1  34
TORSDOF 16
ENDMDL
