MODEL 1
REMARK VINA RESULT:     -10.8      0.000      0.000
REMARK SMILES CC1C[NH+]([C@H]2COC[C@@H]2C(=O)NCCCCNC(=O)c2ccc(-c3c4nc(c(-c5c(F)cccc5F)c5ccc([nH]5)c(-c5c(F)cccc5F)c5nc(c(-c6c(F)cccc6F)c6ccc3[nH]6)C=C5)C=C4)cc2)C1
REMARK SMILES IDX 15 1 14 2 13 3 12 4 10 5 11 6 9 8 5 9 6 10 7 11 8 12 4 13
REMARK SMILES IDX 1 14 2 15 3 16 74 17 16 19 17 20 18 21 19 23 20 24 21 25
REMARK SMILES IDX 73 26 22 27 72 28 23 29 24 30 25 31 66 32 26 33 71 34 65 35
REMARK SMILES IDX 67 36 27 37 70 38 64 39 63 40 28 42 54 43 37 44 53 45 38 46
REMARK SMILES IDX 41 47 52 48 68 49 39 50 40 51 51 53 69 54 42 55 29 56 30 57
REMARK SMILES IDX 35 58 31 59 32 60 34 61 36 62 33 63 55 64 56 65 61 66 57 67
REMARK SMILES IDX 58 68 60 69 62 70 59 71 43 72 44 73 49 74 45 75 46 76 48 77
REMARK SMILES IDX 50 78 47 79
REMARK H PARENT 12 7 4 18 17 22 67 41 41 52
REMARK Flexibility Score: inf
ROOT
ATOM      1  C   UNL A   1      31.510  31.467  26.461  1.00  0.00     0.023 C 
ENDROOT
BRANCH   1   2
ATOM      2  C   UNL A   1      31.732  30.007  26.066  1.00  0.00     0.023 C 
BRANCH   2   3
ATOM      3  C   UNL A   1      33.024  29.703  25.316  1.00  0.00     0.116 C 
BRANCH   3   4
ATOM      4  N   UNL A   1      33.454  28.321  25.405  1.00  0.00    -0.356 N 
ATOM      5  C   UNL A   1      33.448  27.349  24.442  1.00  0.00     0.231 C 
ATOM      6  O   UNL A   1      34.028  26.296  24.709  1.00  0.00    -0.274 OA
ATOM      7  H   UNL A   1      33.800  28.042  26.284  1.00  0.00     0.163 HD
BRANCH   5   8
ATOM      8  C   UNL A   1      32.677  27.556  23.137  1.00  0.00     0.164 C 
ATOM      9  C   UNL A   1      31.223  27.063  23.247  1.00  0.00     0.225 C 
ATOM     10  C   UNL A   1      31.403  25.584  22.871  1.00  0.00     0.226 C 
ATOM     11  O   UNL A   1      32.445  25.515  21.891  1.00  0.00    -0.374 OA
ATOM     12  C   UNL A   1      33.232  26.706  22.003  1.00  0.00     0.180 C 
BRANCH   9  13
ATOM     13  N   UNL A   1      30.290  27.905  22.458  1.00  0.00    -0.329 N 
ATOM     14  C   UNL A   1      28.883  30.851  23.501  1.00  0.00     0.020 C 
ATOM     15  C   UNL A   1      29.224  29.720  22.550  1.00  0.00     0.096 C 
ATOM     16  C   UNL A   1      30.713  29.324  22.409  1.00  0.00     0.271 C 
ATOM     17  C   UNL A   1      29.036  28.298  23.126  1.00  0.00     0.271 C 
ATOM     18  H   UNL A   1      30.235  27.326  21.620  1.00  0.00     0.348 HD
ENDBRANCH   9  13
ENDBRANCH   5   8
ENDBRANCH   3   4
ENDBRANCH   2   3
ENDBRANCH   1   2
BRANCH   1  19
ATOM     19  C   UNL A   1      32.690  32.169  27.127  1.00  0.00     0.116 C 
BRANCH  19  20
ATOM     20  N   UNL A   1      32.421  33.559  27.461  1.00  0.00    -0.352 N 
ATOM     21  C   UNL A   1      33.024  34.392  28.377  1.00  0.00     0.251 C 
ATOM     22  H   UNL A   1      31.688  33.971  26.948  1.00  0.00     0.163 HD
ATOM     23  O   UNL A   1      32.554  35.502  28.592  1.00  0.00    -0.269 OA
BRANCH  21  24
ATOM     24  C   UNL A   1      34.215  33.941  29.133  1.00  0.00     0.039 A 
ATOM     25  C   UNL A   1      34.028  33.131  30.257  1.00  0.00     0.014 A 
ATOM     26  C   UNL A   1      35.505  34.305  28.745  1.00  0.00     0.014 A 
ATOM     27  C   UNL A   1      35.137  32.609  30.930  1.00  0.00     0.010 A 
ATOM     28  C   UNL A   1      36.607  33.717  29.362  1.00  0.00     0.010 A 
ATOM     29  C   UNL A   1      36.436  32.854  30.455  1.00  0.00    -0.014 A 
BRANCH  29  30
ATOM     30  C   UNL A   1      37.620  32.194  31.069  1.00  0.00     0.031 A 
ATOM     31  C   UNL A   1      38.334  31.083  30.348  1.00  0.00     0.074 A 
ATOM     32  C   UNL A   1      38.009  32.547  32.312  1.00  0.00     0.049 A 
ATOM     33  N   UNL A   1      39.332  30.340  30.758  1.00  0.00    -0.248 NA
ATOM     34  C   UNL A   1      37.848  30.744  29.002  1.00  0.00     0.031 C 
ATOM     35  C   UNL A   1      37.371  33.573  33.140  1.00  0.00     0.029 A 
ATOM     36  N   UNL A   1      39.028  32.073  33.102  1.00  0.00    -0.354 N 
ATOM     37  C   UNL A   1      39.581  29.441  29.729  1.00  0.00     0.074 A 
ATOM     38  C   UNL A   1      38.599  29.695  28.697  1.00  0.00     0.031 C 
ATOM     39  C   UNL A   1      38.024  33.664  34.311  1.00  0.00     0.029 A 
ATOM     40  C   UNL A   1      39.096  32.676  34.336  1.00  0.00     0.049 A 
ATOM     41  H   UNL A   1      39.650  31.368  32.812  1.00  0.00     0.167 HD
ATOM     42  C   UNL A   1      40.553  28.501  29.642  1.00  0.00     0.037 A 
ATOM     43  C   UNL A   1      39.921  32.448  35.377  1.00  0.00     0.037 A 
ATOM     44  C   UNL A   1      41.545  28.265  30.657  1.00  0.00     0.049 A 
ATOM     45  C   UNL A   1      40.983  31.391  35.256  1.00  0.00     0.074 A 
ATOM     46  C   UNL A   1      42.611  27.381  30.629  1.00  0.00     0.029 A 
ATOM     47  N   UNL A   1      41.593  28.909  31.884  1.00  0.00    -0.354 N 
ATOM     48  N   UNL A   1      41.255  30.603  34.244  1.00  0.00    -0.248 NA
ATOM     49  C   UNL A   1      41.858  31.194  36.422  1.00  0.00     0.031 C 
ATOM     50  C   UNL A   1      43.272  27.453  31.860  1.00  0.00     0.029 A 
ATOM     51  C   UNL A   1      42.653  28.422  32.632  1.00  0.00     0.049 A 
ATOM     52  H   UNL A   1      40.967  29.609  32.179  1.00  0.00     0.167 HD
ATOM     53  C   UNL A   1      42.349  29.841  34.639  1.00  0.00     0.074 A 
ATOM     54  C   UNL A   1      42.701  30.273  35.974  1.00  0.00     0.031 C 
ATOM     55  C   UNL A   1      43.000  28.869  33.956  1.00  0.00     0.037 A 
BRANCH  42  56
ATOM     56  C   UNL A   1      40.601  27.657  28.401  1.00  0.00     0.057 A 
ATOM     57  C   UNL A   1      41.341  28.039  27.274  1.00  0.00     0.134 A 
ATOM     58  C   UNL A   1      39.953  26.416  28.356  1.00  0.00     0.134 A 
ATOM     59  F   UNL A   1      41.978  29.220  27.248  1.00  0.00    -0.206 F 
ATOM     60  C   UNL A   1      41.419  27.227  26.141  1.00  0.00     0.040 A 
ATOM     61  C   UNL A   1      40.046  25.582  27.239  1.00  0.00     0.040 A 
ATOM     62  F   UNL A   1      39.234  25.984  29.402  1.00  0.00    -0.206 F 
ATOM     63  C   UNL A   1      40.778  25.990  26.126  1.00  0.00     0.006 A 
ENDBRANCH  42  56
BRANCH  43  64
ATOM     64  C   UNL A   1      39.782  33.237  36.630  1.00  0.00     0.057 A 
ATOM     65  C   UNL A   1      38.867  32.864  37.623  1.00  0.00     0.134 A 
ATOM     66  C   UNL A   1      40.531  34.399  36.851  1.00  0.00     0.134 A 
ATOM     67  F   UNL A   1      38.105  31.772  37.463  1.00  0.00    -0.206 F 
ATOM     68  C   UNL A   1      38.680  33.633  38.774  1.00  0.00     0.040 A 
ATOM     69  C   UNL A   1      40.376  35.162  38.010  1.00  0.00     0.040 A 
ATOM     70  F   UNL A   1      41.430  34.808  35.943  1.00  0.00    -0.206 F 
ATOM     71  C   UNL A   1      39.439  34.784  38.970  1.00  0.00     0.006 A 
ENDBRANCH  43  64
BRANCH  55  72
ATOM     72  C   UNL A   1      44.185  28.233  34.624  1.00  0.00     0.057 A 
ATOM     73  C   UNL A   1      44.071  27.063  35.383  1.00  0.00     0.134 A 
ATOM     74  C   UNL A   1      45.466  28.782  34.472  1.00  0.00     0.134 A 
ATOM     75  F   UNL A   1      42.871  26.494  35.580  1.00  0.00    -0.206 F 
ATOM     76  C   UNL A   1      45.182  26.474  35.989  1.00  0.00     0.040 A 
ATOM     77  C   UNL A   1      46.589  28.185  35.046  1.00  0.00     0.040 A 
ATOM     78  F   UNL A   1      45.649  29.897  33.749  1.00  0.00    -0.206 F 
ATOM     79  C   UNL A   1      46.447  27.032  35.813  1.00  0.00     0.006 A 
ENDBRANCH  55  72
ENDBRANCH  29  30
ENDBRANCH  21  24
ENDBRANCH  19  20
ENDBRANCH   1  19
TORSDOF 12
ENDMDL
MODEL 2
REMARK VINA RESULT:     -10.8      5.227      9.899
REMARK SMILES CC1C[NH+]([C@H]2COC[C@@H]2C(=O)NCCCCNC(=O)c2ccc(-c3c4nc(c(-c5c(F)cccc5F)c5ccc([nH]5)c(-c5c(F)cccc5F)c5nc(c(-c6c(F)cccc6F)c6ccc3[nH]6)C=C5)C=C4)cc2)C1
REMARK SMILES IDX 15 1 14 2 13 3 12 4 10 5 11 6 9 8 5 9 6 10 7 11 8 12 4 13
REMARK SMILES IDX 1 14 2 15 3 16 74 17 16 19 17 20 18 21 19 23 20 24 21 25
REMARK SMILES IDX 73 26 22 27 72 28 23 29 24 30 25 31 66 32 26 33 71 34 65 35
REMARK SMILES IDX 67 36 27 37 70 38 64 39 63 40 28 42 54 43 37 44 53 45 38 46
REMARK SMILES IDX 41 47 52 48 68 49 39 50 40 51 51 53 69 54 42 55 29 56 30 57
REMARK SMILES IDX 35 58 31 59 32 60 34 61 36 62 33 63 55 64 56 65 61 66 57 67
REMARK SMILES IDX 58 68 60 69 62 70 59 71 43 72 44 73 49 74 45 75 46 76 48 77
REMARK SMILES IDX 50 78 47 79
REMARK H PARENT 12 7 4 18 17 22 67 41 41 52
REMARK Flexibility Score: inf
ROOT
ATOM      1  C   UNL A   1      37.524  20.292  24.782  1.00  0.00     0.023 C 
ENDROOT
BRANCH   1   2
ATOM      2  C   UNL A   1      36.428  21.355  24.714  1.00  0.00     0.023 C 
BRANCH   2   3
ATOM      3  C   UNL A   1      35.975  21.938  26.048  1.00  0.00     0.116 C 
BRANCH   3   4
ATOM      4  N   UNL A   1      35.350  23.243  25.947  1.00  0.00    -0.356 N 
ATOM      5  C   UNL A   1      34.046  23.596  26.161  1.00  0.00     0.231 C 
ATOM      6  O   UNL A   1      33.792  24.802  26.183  1.00  0.00    -0.274 OA
ATOM      7  H   UNL A   1      35.951  23.980  25.688  1.00  0.00     0.163 HD
BRANCH   5   8
ATOM      8  C   UNL A   1      32.962  22.525  26.279  1.00  0.00     0.164 C 
ATOM      9  C   UNL A   1      32.484  22.039  24.899  1.00  0.00     0.225 C 
ATOM     10  C   UNL A   1      31.387  23.074  24.605  1.00  0.00     0.226 C 
ATOM     11  O   UNL A   1      30.768  23.407  25.853  1.00  0.00    -0.374 OA
ATOM     12  C   UNL A   1      31.684  23.069  26.901  1.00  0.00     0.180 C 
BRANCH   9  13
ATOM     13  N   UNL A   1      32.138  20.596  24.907  1.00  0.00    -0.329 N 
ATOM     14  C   UNL A   1      34.300  18.016  24.260  1.00  0.00     0.020 C 
ATOM     15  C   UNL A   1      33.001  18.690  24.659  1.00  0.00     0.096 C 
ATOM     16  C   UNL A   1      33.069  19.796  25.738  1.00  0.00     0.271 C 
ATOM     17  C   UNL A   1      32.530  19.820  23.716  1.00  0.00     0.271 C 
ATOM     18  H   UNL A   1      31.146  20.679  25.130  1.00  0.00     0.348 HD
ENDBRANCH   9  13
ENDBRANCH   5   8
ENDBRANCH   3   4
ENDBRANCH   2   3
ENDBRANCH   1   2
BRANCH   1  19
ATOM     19  C   UNL A   1      38.708  20.605  25.693  1.00  0.00     0.116 C 
BRANCH  19  20
ATOM     20  N   UNL A   1      39.711  19.551  25.719  1.00  0.00    -0.352 N 
ATOM     21  C   UNL A   1      41.044  19.593  26.063  1.00  0.00     0.251 C 
ATOM     22  H   UNL A   1      39.383  18.663  25.446  1.00  0.00     0.163 HD
ATOM     23  O   UNL A   1      41.748  18.606  25.890  1.00  0.00    -0.269 OA
BRANCH  21  24
ATOM     24  C   UNL A   1      41.642  20.836  26.603  1.00  0.00     0.039 A 
ATOM     25  C   UNL A   1      42.143  21.784  25.706  1.00  0.00     0.014 A 
ATOM     26  C   UNL A   1      41.711  21.073  27.977  1.00  0.00     0.014 A 
ATOM     27  C   UNL A   1      42.621  23.007  26.183  1.00  0.00     0.010 A 
ATOM     28  C   UNL A   1      42.107  22.325  28.445  1.00  0.00     0.010 A 
ATOM     29  C   UNL A   1      42.557  23.310  27.553  1.00  0.00    -0.014 A 
BRANCH  29  30
ATOM     30  C   UNL A   1      42.927  24.657  28.066  1.00  0.00     0.031 A 
ATOM     31  C   UNL A   1      41.869  25.699  28.307  1.00  0.00     0.074 A 
ATOM     32  C   UNL A   1      44.228  24.967  28.245  1.00  0.00     0.049 A 
ATOM     33  N   UNL A   1      42.008  26.949  28.675  1.00  0.00    -0.248 NA
ATOM     34  C   UNL A   1      40.473  25.294  28.080  1.00  0.00     0.031 C 
ATOM     35  C   UNL A   1      45.355  24.066  27.999  1.00  0.00     0.029 A 
ATOM     36  N   UNL A   1      44.823  26.132  28.664  1.00  0.00    -0.354 N 
ATOM     37  C   UNL A   1      40.725  27.479  28.709  1.00  0.00     0.074 A 
ATOM     38  C   UNL A   1      39.823  26.433  28.276  1.00  0.00     0.031 C 
ATOM     39  C   UNL A   1      46.502  24.703  28.289  1.00  0.00     0.029 A 
ATOM     40  C   UNL A   1      46.197  26.069  28.700  1.00  0.00     0.049 A 
ATOM     41  H   UNL A   1      44.315  26.936  28.916  1.00  0.00     0.167 HD
ATOM     42  C   UNL A   1      40.329  28.718  29.087  1.00  0.00     0.037 A 
ATOM     43  C   UNL A   1      47.108  27.010  29.012  1.00  0.00     0.037 A 
ATOM     44  C   UNL A   1      41.224  29.750  29.542  1.00  0.00     0.049 A 
ATOM     45  C   UNL A   1      46.641  28.381  29.416  1.00  0.00     0.074 A 
ATOM     46  C   UNL A   1      40.910  31.015  30.011  1.00  0.00     0.029 A 
ATOM     47  N   UNL A   1      42.605  29.641  29.582  1.00  0.00    -0.354 N 
ATOM     48  N   UNL A   1      45.418  28.841  29.520  1.00  0.00    -0.248 NA
ATOM     49  C   UNL A   1      47.682  29.363  29.755  1.00  0.00     0.031 C 
ATOM     50  C   UNL A   1      42.104  31.689  30.284  1.00  0.00     0.029 A 
ATOM     51  C   UNL A   1      43.159  30.826  30.040  1.00  0.00     0.049 A 
ATOM     52  H   UNL A   1      43.116  28.840  29.323  1.00  0.00     0.167 HD
ATOM     53  C   UNL A   1      45.542  30.153  29.963  1.00  0.00     0.074 A 
ATOM     54  C   UNL A   1      46.957  30.409  30.126  1.00  0.00     0.031 C 
ATOM     55  C   UNL A   1      44.569  31.064  30.209  1.00  0.00     0.037 A 
BRANCH  42  56
ATOM     56  C   UNL A   1      38.862  29.032  29.034  1.00  0.00     0.057 A 
ATOM     57  C   UNL A   1      38.040  28.919  30.163  1.00  0.00     0.134 A 
ATOM     58  C   UNL A   1      38.276  29.513  27.856  1.00  0.00     0.134 A 
ATOM     59  F   UNL A   1      38.536  28.456  31.321  1.00  0.00    -0.206 F 
ATOM     60  C   UNL A   1      36.687  29.257  30.118  1.00  0.00     0.040 A 
ATOM     61  C   UNL A   1      36.930  29.880  27.805  1.00  0.00     0.040 A 
ATOM     62  F   UNL A   1      39.007  29.652  26.739  1.00  0.00    -0.206 F 
ATOM     63  C   UNL A   1      36.130  29.748  28.939  1.00  0.00     0.006 A 
ENDBRANCH  42  56
BRANCH  43  64
ATOM     64  C   UNL A   1      48.560  26.694  28.959  1.00  0.00     0.057 A 
ATOM     65  C   UNL A   1      49.312  26.932  27.801  1.00  0.00     0.134 A 
ATOM     66  C   UNL A   1      49.224  26.115  30.047  1.00  0.00     0.134 A 
ATOM     67  F   UNL A   1      48.730  27.467  26.717  1.00  0.00    -0.206 F 
ATOM     68  C   UNL A   1      50.660  26.579  27.717  1.00  0.00     0.040 A 
ATOM     69  C   UNL A   1      50.579  25.784  29.988  1.00  0.00     0.040 A 
ATOM     70  F   UNL A   1      48.564  25.868  31.189  1.00  0.00    -0.206 F 
ATOM     71  C   UNL A   1      51.297  26.005  28.815  1.00  0.00     0.006 A 
ENDBRANCH  43  64
BRANCH  55  72
ATOM     72  C   UNL A   1      44.998  32.409  30.720  1.00  0.00     0.057 A 
ATOM     73  C   UNL A   1      45.170  32.665  32.086  1.00  0.00     0.134 A 
ATOM     74  C   UNL A   1      45.280  33.451  29.826  1.00  0.00     0.134 A 
ATOM     75  F   UNL A   1      44.904  31.715  32.995  1.00  0.00    -0.206 F 
ATOM     76  C   UNL A   1      45.583  33.917  32.547  1.00  0.00     0.040 A 
ATOM     77  C   UNL A   1      45.724  34.696  30.274  1.00  0.00     0.040 A 
ATOM     78  F   UNL A   1      45.147  33.271  28.504  1.00  0.00    -0.206 F 
ATOM     79  C   UNL A   1      45.869  34.933  31.638  1.00  0.00     0.006 A 
ENDBRANCH  55  72
ENDBRANCH  29  30
ENDBRANCH  21  24
ENDBRANCH  19  20
ENDBRANCH   1  19
TORSDOF 12
ENDMDL
MODEL 3
REMARK VINA RESULT:     -10.8      5.043      9.459
REMARK SMILES CC1C[NH+]([C@H]2COC[C@@H]2C(=O)NCCCCNC(=O)c2ccc(-c3c4nc(c(-c5c(F)cccc5F)c5ccc([nH]5)c(-c5c(F)cccc5F)c5nc(c(-c6c(F)cccc6F)c6ccc3[nH]6)C=C5)C=C4)cc2)C1
REMARK SMILES IDX 15 1 14 2 13 3 12 4 10 5 11 6 9 8 5 9 6 10 7 11 8 12 4 13
REMARK SMILES IDX 1 14 2 15 3 16 74 17 16 19 17 20 18 21 19 23 20 24 21 25
REMARK SMILES IDX 73 26 22 27 72 28 23 29 24 30 25 31 66 32 26 33 71 34 65 35
REMARK SMILES IDX 67 36 27 37 70 38 64 39 63 40 28 42 54 43 37 44 53 45 38 46
REMARK SMILES IDX 41 47 52 48 68 49 39 50 40 51 51 53 69 54 42 55 29 56 30 57
REMARK SMILES IDX 35 58 31 59 32 60 34 61 36 62 33 63 55 64 56 65 61 66 57 67
REMARK SMILES IDX 58 68 60 69 62 70 59 71 43 72 44 73 49 74 45 75 46 76 48 77
REMARK SMILES IDX 50 78 47 79
REMARK H PARENT 12 7 4 18 17 22 67 41 41 52
REMARK Flexibility Score: inf
ROOT
ATOM      1  C   UNL A   1      37.712  19.936  24.892  1.00  0.00     0.023 C 
ENDROOT
BRANCH   1   2
ATOM      2  C   UNL A   1      36.612  20.983  24.714  1.00  0.00     0.023 C 
BRANCH   2   3
ATOM      3  C   UNL A   1      35.964  21.498  25.994  1.00  0.00     0.116 C 
BRANCH   3   4
ATOM      4  N   UNL A   1      35.441  22.848  25.896  1.00  0.00    -0.356 N 
ATOM      5  C   UNL A   1      34.158  23.292  26.063  1.00  0.00     0.231 C 
ATOM      6  O   UNL A   1      33.992  24.512  26.101  1.00  0.00    -0.274 OA
ATOM      7  H   UNL A   1      36.104  23.543  25.678  1.00  0.00     0.163 HD
BRANCH   5   8
ATOM      8  C   UNL A   1      32.995  22.302  26.112  1.00  0.00     0.164 C 
ATOM      9  C   UNL A   1      32.562  21.856  24.704  1.00  0.00     0.225 C 
ATOM     10  C   UNL A   1      31.561  22.969  24.357  1.00  0.00     0.226 C 
ATOM     11  O   UNL A   1      30.898  23.342  25.570  1.00  0.00    -0.374 OA
ATOM     12  C   UNL A   1      31.726  22.935  26.665  1.00  0.00     0.180 C 
BRANCH   9  13
ATOM     13  N   UNL A   1      32.113  20.442  24.682  1.00  0.00    -0.329 N 
ATOM     14  C   UNL A   1      34.087  17.726  23.989  1.00  0.00     0.020 C 
ATOM     15  C   UNL A   1      32.838  18.484  24.398  1.00  0.00     0.096 C 
ATOM     16  C   UNL A   1      32.980  19.561  25.500  1.00  0.00     0.271 C 
ATOM     17  C   UNL A   1      32.454  19.664  23.477  1.00  0.00     0.271 C 
ATOM     18  H   UNL A   1      31.129  20.591  24.903  1.00  0.00     0.348 HD
ENDBRANCH   9  13
ENDBRANCH   5   8
ENDBRANCH   3   4
ENDBRANCH   2   3
ENDBRANCH   1   2
BRANCH   1  19
ATOM     19  C   UNL A   1      38.894  20.345  25.767  1.00  0.00     0.116 C 
BRANCH  19  20
ATOM     20  N   UNL A   1      39.975  19.370  25.768  1.00  0.00    -0.352 N 
ATOM     21  C   UNL A   1      41.310  19.516  26.075  1.00  0.00     0.251 C 
ATOM     22  H   UNL A   1      39.708  18.459  25.508  1.00  0.00     0.163 HD
ATOM     23  O   UNL A   1      42.082  18.585  25.886  1.00  0.00    -0.269 OA
BRANCH  21  24
ATOM     24  C   UNL A   1      41.825  20.804  26.594  1.00  0.00     0.039 A 
ATOM     25  C   UNL A   1      42.273  21.764  25.681  1.00  0.00     0.014 A 
ATOM     26  C   UNL A   1      41.869  21.072  27.963  1.00  0.00     0.014 A 
ATOM     27  C   UNL A   1      42.671  23.024  26.137  1.00  0.00     0.010 A 
ATOM     28  C   UNL A   1      42.183  22.355  28.409  1.00  0.00     0.010 A 
ATOM     29  C   UNL A   1      42.578  23.349  27.501  1.00  0.00    -0.014 A 
BRANCH  29  30
ATOM     30  C   UNL A   1      42.860  24.726  27.988  1.00  0.00     0.031 A 
ATOM     31  C   UNL A   1      44.255  25.124  28.388  1.00  0.00     0.074 A 
ATOM     32  C   UNL A   1      41.843  25.599  28.142  1.00  0.00     0.049 A 
ATOM     33  N   UNL A   1      44.676  26.250  28.908  1.00  0.00    -0.248 NA
ATOM     34  C   UNL A   1      45.311  24.117  28.203  1.00  0.00     0.031 C 
ATOM     35  C   UNL A   1      40.436  25.323  27.842  1.00  0.00     0.029 A 
ATOM     36  N   UNL A   1      41.832  26.893  28.603  1.00  0.00    -0.354 N 
ATOM     37  C   UNL A   1      46.037  26.081  29.125  1.00  0.00     0.074 A 
ATOM     38  C   UNL A   1      46.364  24.729  28.729  1.00  0.00     0.031 C 
ATOM     39  C   UNL A   1      39.704  26.418  28.106  1.00  0.00     0.029 A 
ATOM     40  C   UNL A   1      40.579  27.458  28.635  1.00  0.00     0.049 A 
ATOM     41  H   UNL A   1      42.646  27.371  28.883  1.00  0.00     0.167 HD
ATOM     42  C   UNL A   1      46.939  26.978  29.592  1.00  0.00     0.037 A 
ATOM     43  C   UNL A   1      40.177  28.672  29.059  1.00  0.00     0.037 A 
ATOM     44  C   UNL A   1      46.618  28.331  29.962  1.00  0.00     0.049 A 
ATOM     45  C   UNL A   1      41.198  29.643  29.584  1.00  0.00     0.074 A 
ATOM     46  C   UNL A   1      47.475  29.334  30.382  1.00  0.00     0.029 A 
ATOM     47  N   UNL A   1      45.341  28.871  29.963  1.00  0.00    -0.354 N 
ATOM     48  N   UNL A   1      42.495  29.494  29.707  1.00  0.00    -0.248 NA
ATOM     49  C   UNL A   1      40.700  30.955  30.023  1.00  0.00     0.031 C 
ATOM     50  C   UNL A   1      46.711  30.465  30.687  1.00  0.00     0.029 A 
ATOM     51  C   UNL A   1      45.384  30.185  30.403  1.00  0.00     0.049 A 
ATOM     52  H   UNL A   1      44.525  28.392  29.691  1.00  0.00     0.167 HD
ATOM     53  C   UNL A   1      42.970  30.701  30.209  1.00  0.00     0.074 A 
ATOM     54  C   UNL A   1      41.826  31.576  30.349  1.00  0.00     0.031 C 
ATOM     55  C   UNL A   1      44.240  31.050  30.526  1.00  0.00     0.037 A 
BRANCH  42  56
ATOM     56  C   UNL A   1      48.366  26.531  29.725  1.00  0.00     0.057 A 
ATOM     57  C   UNL A   1      49.296  26.708  28.692  1.00  0.00     0.134 A 
ATOM     58  C   UNL A   1      48.832  25.977  30.924  1.00  0.00     0.134 A 
ATOM     59  F   UNL A   1      48.913  27.224  27.514  1.00  0.00    -0.206 F 
ATOM     60  C   UNL A   1      50.632  26.332  28.840  1.00  0.00     0.040 A 
ATOM     61  C   UNL A   1      50.173  25.624  31.094  1.00  0.00     0.040 A 
ATOM     62  F   UNL A   1      47.998  25.788  31.958  1.00  0.00    -0.206 F 
ATOM     63  C   UNL A   1      51.076  25.798  30.047  1.00  0.00     0.006 A 
ENDBRANCH  42  56
BRANCH  43  64
ATOM     64  C   UNL A   1      38.739  29.047  29.005  1.00  0.00     0.057 A 
ATOM     65  C   UNL A   1      38.165  29.549  27.829  1.00  0.00     0.134 A 
ATOM     66  C   UNL A   1      37.914  28.948  30.131  1.00  0.00     0.134 A 
ATOM     67  F   UNL A   1      38.907  29.686  26.721  1.00  0.00    -0.206 F 
ATOM     68  C   UNL A   1      36.833  29.966  27.785  1.00  0.00     0.040 A 
ATOM     69  C   UNL A   1      36.572  29.334  30.093  1.00  0.00     0.040 A 
ATOM     70  F   UNL A   1      38.399  28.469  31.286  1.00  0.00    -0.206 F 
ATOM     71  C   UNL A   1      36.032  29.856  28.919  1.00  0.00     0.006 A 
ENDBRANCH  43  64
BRANCH  55  72
ATOM     72  C   UNL A   1      44.467  32.450  31.019  1.00  0.00     0.057 A 
ATOM     73  C   UNL A   1      44.707  33.516  30.144  1.00  0.00     0.134 A 
ATOM     74  C   UNL A   1      44.405  32.740  32.389  1.00  0.00     0.134 A 
ATOM     75  F   UNL A   1      44.793  33.304  28.821  1.00  0.00    -0.206 F 
ATOM     76  C   UNL A   1      44.904  34.815  30.613  1.00  0.00     0.040 A 
ATOM     77  C   UNL A   1      44.568  34.040  32.868  1.00  0.00     0.040 A 
ATOM     78  F   UNL A   1      44.168  31.768  33.282  1.00  0.00    -0.206 F 
ATOM     79  C   UNL A   1      44.826  35.081  31.979  1.00  0.00     0.006 A 
ENDBRANCH  55  72
ENDBRANCH  29  30
ENDBRANCH  21  24
ENDBRANCH  19  20
ENDBRANCH   1  19
TORSDOF 12
ENDMDL
