MODEL 1
REMARK VINA RESULT:     -10.9      0.000      0.000
REMARK SMILES CC(C)Oc1ccc([C@H](O)[C@@H](F)C(=O)NCCCCNC(=O)c2ccc(-c3c4nc(c(-c5c(F)cccc5F)c5ccc([nH]5)c(-c5c(F)cccc5F)c5nc(c(-c6c(F)cccc6F)c6ccc3[nH]6)C=C5)C=C4)cc2)cc1
REMARK SMILES IDX 16 1 15 2 13 3 14 4 11 6 12 7 9 8 8 9 5 10 6 11 78 12 7 13
REMARK SMILES IDX 77 14 4 15 2 16 1 17 3 18 10 19 17 21 18 22 19 23 20 24
REMARK SMILES IDX 21 25 22 27 23 28 24 29 76 30 25 31 75 32 26 33 27 34 28 35
REMARK SMILES IDX 69 36 29 37 74 38 68 39 70 40 30 41 73 42 67 43 66 44 31 46
REMARK SMILES IDX 57 47 40 48 56 49 41 50 44 51 55 52 71 53 42 54 43 55 54 57
REMARK SMILES IDX 72 58 45 59 32 60 33 61 38 62 34 63 35 64 37 65 39 66 36 67
REMARK SMILES IDX 58 68 59 69 64 70 60 71 61 72 63 73 65 74 62 75 46 76 47 77
REMARK SMILES IDX 52 78 48 79 49 80 51 81 53 82 50 83
REMARK H PARENT 15 5 10 20 20 26 70 45 44 56
REMARK Flexibility Score: inf
ROOT
ATOM      1  C   UNL A   1      36.419  22.205  24.203  1.00  0.00     0.116 C 
ENDROOT
BRANCH   1   2
ATOM      2  N   UNL A   1      35.980  23.468  24.769  1.00  0.00    -0.353 N 
ATOM      3  C   UNL A   1      34.936  24.273  24.405  1.00  0.00     0.257 C 
ATOM      4  O   UNL A   1      34.719  25.270  25.099  1.00  0.00    -0.272 OA
ATOM      5  H   UNL A   1      36.516  23.795  25.528  1.00  0.00     0.163 HD
BRANCH   3   6
ATOM      6  C   UNL A   1      34.093  23.959  23.174  1.00  0.00     0.288 C 
ATOM      7  F   UNL A   1      33.960  25.072  22.379  1.00  0.00    -0.234 F 
BRANCH   6   8
ATOM      8  C   UNL A   1      32.690  23.447  23.535  1.00  0.00     0.188 C 
BRANCH   8   9
ATOM      9  C   UNL A   1      32.648  22.001  23.985  1.00  0.00    -0.016 A 
ATOM     10  C   UNL A   1      32.529  19.301  24.774  1.00  0.00     0.119 A 
ATOM     11  C   UNL A   1      32.814  20.294  25.710  1.00  0.00     0.047 A 
ATOM     12  C   UNL A   1      32.245  19.655  23.462  1.00  0.00     0.047 A 
ATOM     13  C   UNL A   1      32.877  21.636  25.319  1.00  0.00     0.010 A 
ATOM     14  C   UNL A   1      32.325  20.990  23.068  1.00  0.00     0.010 A 
BRANCH  10  15
ATOM     15  O   UNL A   1      32.436  18.015  25.222  1.00  0.00    -0.491 OA
BRANCH  15  16
ATOM     16  C   UNL A   1      33.202  17.013  24.528  1.00  0.00     0.167 C 
ATOM     17  C   UNL A   1      34.691  17.341  24.448  1.00  0.00     0.052 C 
ATOM     18  C   UNL A   1      32.944  15.583  25.001  1.00  0.00     0.052 C 
ENDBRANCH  15  16
ENDBRANCH  10  15
ENDBRANCH   8   9
BRANCH   8  19
ATOM     19  O   UNL A   1      31.822  23.591  22.397  1.00  0.00    -0.385 OA
ATOM     20  H   UNL A   1      31.071  24.157  22.633  1.00  0.00     0.211 HD
ENDBRANCH   8  19
ENDBRANCH   6   8
ENDBRANCH   3   6
ENDBRANCH   1   2
BRANCH   1  21
ATOM     21  C   UNL A   1      36.613  21.130  25.271  1.00  0.00     0.023 C 
BRANCH  21  22
ATOM     22  C   UNL A   1      37.762  20.156  25.000  1.00  0.00     0.023 C 
BRANCH  22  23
ATOM     23  C   UNL A   1      39.048  20.474  25.754  1.00  0.00     0.116 C 
BRANCH  23  24
ATOM     24  N   UNL A   1      39.941  19.327  25.833  1.00  0.00    -0.352 N 
ATOM     25  C   UNL A   1      41.298  19.295  26.044  1.00  0.00     0.251 C 
ATOM     26  H   UNL A   1      39.512  18.449  25.720  1.00  0.00     0.163 HD
ATOM     27  O   UNL A   1      41.921  18.247  25.914  1.00  0.00    -0.269 OA
BRANCH  25  28
ATOM     28  C   UNL A   1      42.006  20.541  26.398  1.00  0.00     0.039 A 
ATOM     29  C   UNL A   1      42.519  21.342  25.376  1.00  0.00     0.014 A 
ATOM     30  C   UNL A   1      42.132  20.928  27.735  1.00  0.00     0.014 A 
ATOM     31  C   UNL A   1      43.086  22.578  25.689  1.00  0.00     0.010 A 
ATOM     32  C   UNL A   1      42.635  22.187  28.040  1.00  0.00     0.010 A 
ATOM     33  C   UNL A   1      43.105  23.029  27.019  1.00  0.00    -0.014 A 
BRANCH  33  34
ATOM     34  C   UNL A   1      43.577  24.391  27.366  1.00  0.00     0.031 A 
ATOM     35  C   UNL A   1      42.597  25.445  27.792  1.00  0.00     0.074 A 
ATOM     36  C   UNL A   1      44.878  24.700  27.204  1.00  0.00     0.049 A 
ATOM     37  N   UNL A   1      42.802  26.715  28.030  1.00  0.00    -0.248 NA
ATOM     38  C   UNL A   1      41.195  25.023  27.943  1.00  0.00     0.031 C 
ATOM     39  C   UNL A   1      45.917  23.774  26.745  1.00  0.00     0.029 A 
ATOM     40  N   UNL A   1      45.546  25.884  27.385  1.00  0.00    -0.354 N 
ATOM     41  C   UNL A   1      41.557  27.247  28.341  1.00  0.00     0.074 A 
ATOM     42  C   UNL A   1      40.596  26.172  28.220  1.00  0.00     0.031 C 
ATOM     43  C   UNL A   1      47.091  24.422  26.694  1.00  0.00     0.029 A 
ATOM     44  C   UNL A   1      46.883  25.815  27.074  1.00  0.00     0.049 A 
ATOM     45  H   UNL A   1      45.109  26.705  27.708  1.00  0.00     0.167 HD
ATOM     46  C   UNL A   1      41.249  28.511  28.712  1.00  0.00     0.037 A 
ATOM     47  C   UNL A   1      47.830  26.772  27.079  1.00  0.00     0.037 A 
ATOM     48  C   UNL A   1      42.214  29.569  28.858  1.00  0.00     0.049 A 
ATOM     49  C   UNL A   1      47.459  28.170  27.486  1.00  0.00     0.074 A 
ATOM     50  C   UNL A   1      42.012  30.862  29.307  1.00  0.00     0.029 A 
ATOM     51  N   UNL A   1      43.561  29.457  28.550  1.00  0.00    -0.354 N 
ATOM     52  N   UNL A   1      46.292  28.640  27.854  1.00  0.00    -0.248 NA
ATOM     53  C   UNL A   1      48.536  29.170  27.478  1.00  0.00     0.031 C 
ATOM     54  C   UNL A   1      43.230  31.546  29.230  1.00  0.00     0.029 A 
ATOM     55  C   UNL A   1      44.197  30.666  28.773  1.00  0.00     0.049 A 
ATOM     56  H   UNL A   1      44.000  28.638  28.223  1.00  0.00     0.167 HD
ATOM     57  C   UNL A   1      46.497  29.983  28.140  1.00  0.00     0.074 A 
ATOM     58  C   UNL A   1      47.903  30.249  27.918  1.00  0.00     0.031 C 
ATOM     59  C   UNL A   1      45.599  30.914  28.547  1.00  0.00     0.037 A 
BRANCH  46  60
ATOM     60  C   UNL A   1      39.808  28.820  28.992  1.00  0.00     0.057 A 
ATOM     61  C   UNL A   1      38.924  29.204  27.975  1.00  0.00     0.134 A 
ATOM     62  C   UNL A   1      39.288  28.692  30.286  1.00  0.00     0.134 A 
ATOM     63  F   UNL A   1      39.362  29.356  26.716  1.00  0.00    -0.206 F 
ATOM     64  C   UNL A   1      37.581  29.473  28.240  1.00  0.00     0.040 A 
ATOM     65  C   UNL A   1      37.940  28.934  30.558  1.00  0.00     0.040 A 
ATOM     66  F   UNL A   1      40.079  28.323  31.305  1.00  0.00    -0.206 F 
ATOM     67  C   UNL A   1      37.084  29.330  29.533  1.00  0.00     0.006 A 
ENDBRANCH  46  60
BRANCH  47  68
ATOM     68  C   UNL A   1      49.223  26.439  26.691  1.00  0.00     0.057 A 
ATOM     69  C   UNL A   1      49.681  26.658  25.387  1.00  0.00     0.134 A 
ATOM     70  C   UNL A   1      50.128  25.894  27.611  1.00  0.00     0.134 A 
ATOM     71  F   UNL A   1      48.854  27.160  24.458  1.00  0.00    -0.206 F 
ATOM     72  C   UNL A   1      50.981  26.331  25.004  1.00  0.00     0.040 A 
ATOM     73  C   UNL A   1      51.440  25.585  27.247  1.00  0.00     0.040 A 
ATOM     74  F   UNL A   1      49.754  25.669  28.878  1.00  0.00    -0.206 F 
ATOM     75  C   UNL A   1      51.868  25.796  25.938  1.00  0.00     0.006 A 
ENDBRANCH  47  68
BRANCH  59  76
ATOM     76  C   UNL A   1      46.114  32.299  28.796  1.00  0.00     0.057 A 
ATOM     77  C   UNL A   1      46.134  33.269  27.787  1.00  0.00     0.134 A 
ATOM     78  C   UNL A   1      46.549  32.681  30.072  1.00  0.00     0.134 A 
ATOM     79  F   UNL A   1      45.743  32.961  26.540  1.00  0.00    -0.206 F 
ATOM     80  C   UNL A   1      46.584  34.566  28.032  1.00  0.00     0.040 A 
ATOM     81  C   UNL A   1      46.978  33.981  30.336  1.00  0.00     0.040 A 
ATOM     82  F   UNL A   1      46.548  31.800  31.084  1.00  0.00    -0.206 F 
ATOM     83  C   UNL A   1      47.000  34.928  29.313  1.00  0.00     0.006 A 
ENDBRANCH  59  76
ENDBRANCH  33  34
ENDBRANCH  25  28
ENDBRANCH  23  24
ENDBRANCH  22  23
ENDBRANCH  21  22
ENDBRANCH   1  21
TORSDOF 16
ENDMDL
MODEL 2
REMARK VINA RESULT:     -10.9      5.220     10.091
REMARK SMILES CC(C)Oc1ccc([C@H](O)[C@@H](F)C(=O)NCCCCNC(=O)c2ccc(-c3c4nc(c(-c5c(F)cccc5F)c5ccc([nH]5)c(-c5c(F)cccc5F)c5nc(c(-c6c(F)cccc6F)c6ccc3[nH]6)C=C5)C=C4)cc2)cc1
REMARK SMILES IDX 16 1 15 2 13 3 14 4 11 6 12 7 9 8 8 9 5 10 6 11 78 12 7 13
REMARK SMILES IDX 77 14 4 15 2 16 1 17 3 18 10 19 17 21 18 22 19 23 20 24
REMARK SMILES IDX 21 25 22 27 23 28 24 29 76 30 25 31 75 32 26 33 27 34 28 35
REMARK SMILES IDX 69 36 29 37 74 38 68 39 70 40 30 41 73 42 67 43 66 44 31 46
REMARK SMILES IDX 57 47 40 48 56 49 41 50 44 51 55 52 71 53 42 54 43 55 54 57
REMARK SMILES IDX 72 58 45 59 32 60 33 61 38 62 34 63 35 64 37 65 39 66 36 67
REMARK SMILES IDX 58 68 59 69 64 70 60 71 61 72 63 73 65 74 62 75 46 76 47 77
REMARK SMILES IDX 52 78 48 79 49 80 51 81 53 82 50 83
REMARK H PARENT 15 5 10 20 20 26 70 45 44 56
REMARK Flexibility Score: inf
ROOT
ATOM      1  C   UNL A   1      38.131  33.744  30.818  1.00  0.00     0.116 C 
ENDROOT
BRANCH   1   2
ATOM      2  N   UNL A   1      37.331  34.653  31.620  1.00  0.00    -0.353 N 
ATOM      3  C   UNL A   1      36.652  34.423  32.785  1.00  0.00     0.257 C 
ATOM      4  O   UNL A   1      36.102  35.388  33.321  1.00  0.00    -0.272 OA
ATOM      5  H   UNL A   1      37.268  35.572  31.273  1.00  0.00     0.163 HD
BRANCH   3   6
ATOM      6  C   UNL A   1      36.560  33.020  33.376  1.00  0.00     0.288 C 
ATOM      7  F   UNL A   1      35.360  32.844  34.023  1.00  0.00    -0.234 F 
BRANCH   6   8
ATOM      8  C   UNL A   1      37.697  32.723  34.367  1.00  0.00     0.188 C 
BRANCH   8   9
ATOM      9  C   UNL A   1      38.590  31.567  33.966  1.00  0.00    -0.016 A 
ATOM     10  C   UNL A   1      40.297  29.459  33.210  1.00  0.00     0.119 A 
ATOM     11  C   UNL A   1      38.918  29.341  33.043  1.00  0.00     0.047 A 
ATOM     12  C   UNL A   1      40.830  30.645  33.697  1.00  0.00     0.047 A 
ATOM     13  C   UNL A   1      38.068  30.386  33.420  1.00  0.00     0.010 A 
ATOM     14  C   UNL A   1      39.983  31.680  34.091  1.00  0.00     0.010 A 
BRANCH  10  15
ATOM     15  O   UNL A   1      41.079  28.426  32.781  1.00  0.00    -0.491 OA
BRANCH  15  16
ATOM     16  C   UNL A   1      42.189  28.044  33.615  1.00  0.00     0.167 C 
ATOM     17  C   UNL A   1      41.774  27.215  34.828  1.00  0.00     0.052 C 
ATOM     18  C   UNL A   1      43.361  27.422  32.856  1.00  0.00     0.052 C 
ENDBRANCH  15  16
ENDBRANCH  10  15
ENDBRANCH   8   9
BRANCH   8  19
ATOM     19  O   UNL A   1      37.138  32.433  35.660  1.00  0.00    -0.385 OA
ATOM     20  H   UNL A   1      36.285  31.984  35.550  1.00  0.00     0.211 HD
ENDBRANCH   8  19
ENDBRANCH   6   8
ENDBRANCH   3   6
ENDBRANCH   1   2
BRANCH   1  21
ATOM     21  C   UNL A   1      37.470  33.422  29.478  1.00  0.00     0.023 C 
BRANCH  21  22
ATOM     22  C   UNL A   1      35.957  33.648  29.438  1.00  0.00     0.023 C 
BRANCH  22  23
ATOM     23  C   UNL A   1      35.136  32.516  30.044  1.00  0.00     0.116 C 
BRANCH  23  24
ATOM     24  N   UNL A   1      34.349  31.807  29.045  1.00  0.00    -0.352 N 
ATOM     25  C   UNL A   1      34.725  30.788  28.205  1.00  0.00     0.251 C 
ATOM     26  H   UNL A   1      33.412  32.098  28.962  1.00  0.00     0.163 HD
ATOM     27  O   UNL A   1      33.977  30.418  27.306  1.00  0.00    -0.269 OA
BRANCH  25  28
ATOM     28  C   UNL A   1      36.051  30.163  28.373  1.00  0.00     0.039 A 
ATOM     29  C   UNL A   1      36.985  30.270  27.341  1.00  0.00     0.014 A 
ATOM     30  C   UNL A   1      36.377  29.500  29.560  1.00  0.00     0.014 A 
ATOM     31  C   UNL A   1      38.281  29.786  27.532  1.00  0.00     0.010 A 
ATOM     32  C   UNL A   1      37.684  29.080  29.775  1.00  0.00     0.010 A 
ATOM     33  C   UNL A   1      38.651  29.230  28.767  1.00  0.00    -0.014 A 
BRANCH  33  34
ATOM     34  C   UNL A   1      40.052  28.832  29.046  1.00  0.00     0.031 A 
ATOM     35  C   UNL A   1      41.012  29.815  29.650  1.00  0.00     0.074 A 
ATOM     36  C   UNL A   1      40.479  27.612  28.664  1.00  0.00     0.049 A 
ATOM     37  N   UNL A   1      42.296  29.689  29.866  1.00  0.00    -0.248 NA
ATOM     38  C   UNL A   1      40.462  31.125  30.036  1.00  0.00     0.031 C 
ATOM     39  C   UNL A   1      39.652  26.589  28.020  1.00  0.00     0.029 A 
ATOM     40  N   UNL A   1      41.720  27.035  28.744  1.00  0.00    -0.354 N 
ATOM     41  C   UNL A   1      42.711  30.903  30.396  1.00  0.00     0.074 A 
ATOM     42  C   UNL A   1      41.551  31.769  30.429  1.00  0.00     0.031 C 
ATOM     43  C   UNL A   1      40.406  25.506  27.774  1.00  0.00     0.029 A 
ATOM     44  C   UNL A   1      41.775  25.771  28.205  1.00  0.00     0.049 A 
ATOM     45  H   UNL A   1      42.499  27.482  29.149  1.00  0.00     0.167 HD
ATOM     46  C   UNL A   1      43.942  31.256  30.833  1.00  0.00     0.037 A 
ATOM     47  C   UNL A   1      42.815  24.930  28.058  1.00  0.00     0.037 A 
ATOM     48  C   UNL A   1      45.085  30.382  30.823  1.00  0.00     0.049 A 
ATOM     49  C   UNL A   1      44.174  25.350  28.543  1.00  0.00     0.074 A 
ATOM     50  C   UNL A   1      46.355  30.620  31.319  1.00  0.00     0.029 A 
ATOM     51  N   UNL A   1      45.097  29.104  30.285  1.00  0.00    -0.354 N 
ATOM     52  N   UNL A   1      44.534  26.473  29.114  1.00  0.00    -0.248 NA
ATOM     53  C   UNL A   1      45.269  24.387  28.362  1.00  0.00     0.031 C 
ATOM     54  C   UNL A   1      47.148  29.502  31.041  1.00  0.00     0.029 A 
ATOM     55  C   UNL A   1      46.361  28.552  30.410  1.00  0.00     0.049 A 
ATOM     56  H   UNL A   1      44.322  28.656  29.875  1.00  0.00     0.167 HD
ATOM     57  C   UNL A   1      45.892  26.346  29.379  1.00  0.00     0.074 A 
ATOM     58  C   UNL A   1      46.286  25.030  28.920  1.00  0.00     0.031 C 
ATOM     59  C   UNL A   1      46.736  27.240  29.948  1.00  0.00     0.037 A 
BRANCH  46  60
ATOM     60  C   UNL A   1      44.117  32.649  31.362  1.00  0.00     0.057 A 
ATOM     61  C   UNL A   1      44.344  33.740  30.513  1.00  0.00     0.134 A 
ATOM     62  C   UNL A   1      44.017  32.909  32.735  1.00  0.00     0.134 A 
ATOM     63  F   UNL A   1      44.462  33.556  29.188  1.00  0.00    -0.206 F 
ATOM     64  C   UNL A   1      44.488  35.035  31.011  1.00  0.00     0.040 A 
ATOM     65  C   UNL A   1      44.134  34.204  33.243  1.00  0.00     0.040 A 
ATOM     66  F   UNL A   1      43.796  31.911  33.603  1.00  0.00    -0.206 F 
ATOM     67  C   UNL A   1      44.375  35.271  32.379  1.00  0.00     0.006 A 
ENDBRANCH  46  60
BRANCH  47  68
ATOM     68  C   UNL A   1      42.611  23.601  27.430  1.00  0.00     0.057 A 
ATOM     69  C   UNL A   1      42.768  23.423  26.051  1.00  0.00     0.134 A 
ATOM     70  C   UNL A   1      42.255  22.479  28.189  1.00  0.00     0.134 A 
ATOM     71  F   UNL A   1      43.090  24.465  25.270  1.00  0.00    -0.206 F 
ATOM     72  C   UNL A   1      42.560  22.184  25.445  1.00  0.00     0.040 A 
ATOM     73  C   UNL A   1      42.067  21.228  27.599  1.00  0.00     0.040 A 
ATOM     74  F   UNL A   1      42.098  22.581  29.517  1.00  0.00    -0.206 F 
ATOM     75  C   UNL A   1      42.212  21.080  26.221  1.00  0.00     0.006 A 
ENDBRANCH  47  68
BRANCH  59  76
ATOM     76  C   UNL A   1      48.164  26.818  30.124  1.00  0.00     0.057 A 
ATOM     77  C   UNL A   1      49.149  27.151  29.186  1.00  0.00     0.134 A 
ATOM     78  C   UNL A   1      48.566  26.113  31.265  1.00  0.00     0.134 A 
ATOM     79  F   UNL A   1      48.825  27.813  28.065  1.00  0.00    -0.206 F 
ATOM     80  C   UNL A   1      50.483  26.785  29.370  1.00  0.00     0.040 A 
ATOM     81  C   UNL A   1      49.900  25.762  31.472  1.00  0.00     0.040 A 
ATOM     82  F   UNL A   1      47.671  25.770  32.204  1.00  0.00    -0.206 F 
ATOM     83  C   UNL A   1      50.862  26.095  30.521  1.00  0.00     0.006 A 
ENDBRANCH  59  76
ENDBRANCH  33  34
ENDBRANCH  25  28
ENDBRANCH  23  24
ENDBRANCH  22  23
ENDBRANCH  21  22
ENDBRANCH   1  21
TORSDOF 16
ENDMDL
MODEL 3
REMARK VINA RESULT:     -10.9      5.359     10.436
REMARK SMILES CC(C)Oc1ccc([C@H](O)[C@@H](F)C(=O)NCCCCNC(=O)c2ccc(-c3c4nc(c(-c5c(F)cccc5F)c5ccc([nH]5)c(-c5c(F)cccc5F)c5nc(c(-c6c(F)cccc6F)c6ccc3[nH]6)C=C5)C=C4)cc2)cc1
REMARK SMILES IDX 16 1 15 2 13 3 14 4 11 6 12 7 9 8 8 9 5 10 6 11 78 12 7 13
REMARK SMILES IDX 77 14 4 15 2 16 1 17 3 18 10 19 17 21 18 22 19 23 20 24
REMARK SMILES IDX 21 25 22 27 23 28 24 29 76 30 25 31 75 32 26 33 27 34 28 35
REMARK SMILES IDX 69 36 29 37 74 38 68 39 70 40 30 41 73 42 67 43 66 44 31 46
REMARK SMILES IDX 57 47 40 48 56 49 41 50 44 51 55 52 71 53 42 54 43 55 54 57
REMARK SMILES IDX 72 58 45 59 32 60 33 61 38 62 34 63 35 64 37 65 39 66 36 67
REMARK SMILES IDX 58 68 59 69 64 70 60 71 61 72 63 73 65 74 62 75 46 76 47 77
REMARK SMILES IDX 52 78 48 79 49 80 51 81 53 82 50 83
REMARK H PARENT 15 5 10 20 20 26 70 45 44 56
REMARK Flexibility Score: inf
ROOT
ATOM      1  C   UNL A   1      33.174  34.941  28.910  1.00  0.00     0.116 C 
ENDROOT
BRANCH   1   2
ATOM      2  N   UNL A   1      32.921  36.186  29.614  1.00  0.00    -0.353 N 
ATOM      3  C   UNL A   1      33.038  36.477  30.945  1.00  0.00     0.257 C 
ATOM      4  O   UNL A   1      32.835  37.643  31.291  1.00  0.00    -0.272 OA
ATOM      5  H   UNL A   1      32.618  36.932  29.047  1.00  0.00     0.163 HD
BRANCH   3   6
ATOM      6  C   UNL A   1      33.379  35.390  31.959  1.00  0.00     0.288 C 
ATOM      7  F   UNL A   1      32.319  35.166  32.805  1.00  0.00    -0.234 F 
BRANCH   6   8
ATOM      8  C   UNL A   1      34.613  35.741  32.806  1.00  0.00     0.188 C 
BRANCH   8   9
ATOM      9  C   UNL A   1      35.451  34.548  33.215  1.00  0.00    -0.016 A 
ATOM     10  C   UNL A   1      36.961  32.293  33.967  1.00  0.00     0.119 A 
ATOM     11  C   UNL A   1      37.279  33.552  34.474  1.00  0.00     0.047 A 
ATOM     12  C   UNL A   1      35.860  32.147  33.135  1.00  0.00     0.047 A 
ATOM     13  C   UNL A   1      36.532  34.674  34.099  1.00  0.00     0.010 A 
ATOM     14  C   UNL A   1      35.126  33.267  32.746  1.00  0.00     0.010 A 
BRANCH  10  15
ATOM     15  O   UNL A   1      37.695  31.229  34.403  1.00  0.00    -0.491 OA
BRANCH  15  16
ATOM     16  C   UNL A   1      38.424  30.476  33.416  1.00  0.00     0.167 C 
ATOM     17  C   UNL A   1      39.905  30.318  33.751  1.00  0.00     0.052 C 
ATOM     18  C   UNL A   1      37.770  29.151  33.026  1.00  0.00     0.052 C 
ENDBRANCH  15  16
ENDBRANCH  10  15
ENDBRANCH   8   9
BRANCH   8  19
ATOM     19  O   UNL A   1      34.193  36.427  33.998  1.00  0.00    -0.385 OA
ATOM     20  H   UNL A   1      33.927  35.777  34.668  1.00  0.00     0.211 HD
ENDBRANCH   8  19
ENDBRANCH   6   8
ENDBRANCH   3   6
ENDBRANCH   1   2
BRANCH   1  21
ATOM     21  C   UNL A   1      34.483  34.978  28.123  1.00  0.00     0.023 C 
BRANCH  21  22
ATOM     22  C   UNL A   1      35.524  33.944  28.558  1.00  0.00     0.023 C 
BRANCH  22  23
ATOM     23  C   UNL A   1      34.966  32.808  29.407  1.00  0.00     0.116 C 
BRANCH  23  24
ATOM     24  N   UNL A   1      34.119  31.907  28.639  1.00  0.00    -0.352 N 
ATOM     25  C   UNL A   1      34.442  30.721  28.027  1.00  0.00     0.251 C 
ATOM     26  H   UNL A   1      33.180  32.187  28.547  1.00  0.00     0.163 HD
ATOM     27  O   UNL A   1      33.641  30.172  27.278  1.00  0.00    -0.269 OA
BRANCH  25  28
ATOM     28  C   UNL A   1      35.774  30.128  28.254  1.00  0.00     0.039 A 
ATOM     29  C   UNL A   1      36.740  30.232  27.251  1.00  0.00     0.014 A 
ATOM     30  C   UNL A   1      36.073  29.499  29.466  1.00  0.00     0.014 A 
ATOM     31  C   UNL A   1      38.038  29.780  27.496  1.00  0.00     0.010 A 
ATOM     32  C   UNL A   1      37.380  29.111  29.734  1.00  0.00     0.010 A 
ATOM     33  C   UNL A   1      38.377  29.260  28.756  1.00  0.00    -0.014 A 
BRANCH  33  34
ATOM     34  C   UNL A   1      39.776  28.897  29.091  1.00  0.00     0.031 A 
ATOM     35  C   UNL A   1      40.676  29.894  29.761  1.00  0.00     0.074 A 
ATOM     36  C   UNL A   1      40.258  27.701  28.702  1.00  0.00     0.049 A 
ATOM     37  N   UNL A   1      41.952  29.801  30.034  1.00  0.00    -0.248 NA
ATOM     38  C   UNL A   1      40.068  31.177  30.150  1.00  0.00     0.031 C 
ATOM     39  C   UNL A   1      39.494  26.669  27.997  1.00  0.00     0.029 A 
ATOM     40  N   UNL A   1      41.511  27.159  28.826  1.00  0.00    -0.354 N 
ATOM     41  C   UNL A   1      42.304  31.015  30.610  1.00  0.00     0.074 A 
ATOM     42  C   UNL A   1      41.118  31.844  30.608  1.00  0.00     0.031 C 
ATOM     43  C   UNL A   1      40.292  25.615  27.762  1.00  0.00     0.029 A 
ATOM     44  C   UNL A   1      41.630  25.911  28.262  1.00  0.00     0.049 A 
ATOM     45  H   UNL A   1      42.256  27.620  29.277  1.00  0.00     0.167 HD
ATOM     46  C   UNL A   1      43.502  31.394  31.111  1.00  0.00     0.037 A 
ATOM     47  C   UNL A   1      42.702  25.105  28.145  1.00  0.00     0.037 A 
ATOM     48  C   UNL A   1      44.671  30.555  31.135  1.00  0.00     0.049 A 
ATOM     49  C   UNL A   1      44.023  25.555  28.702  1.00  0.00     0.074 A 
ATOM     50  C   UNL A   1      45.909  30.820  31.694  1.00  0.00     0.029 A 
ATOM     51  N   UNL A   1      44.748  29.292  30.569  1.00  0.00    -0.354 N 
ATOM     52  N   UNL A   1      44.322  26.674  29.314  1.00  0.00    -0.248 NA
ATOM     53  C   UNL A   1      45.155  24.630  28.550  1.00  0.00     0.031 C 
ATOM     54  C   UNL A   1      46.749  29.733  31.428  1.00  0.00     0.029 A 
ATOM     55  C   UNL A   1      46.021  28.776  30.740  1.00  0.00     0.049 A 
ATOM     56  H   UNL A   1      44.007  28.831  30.114  1.00  0.00     0.167 HD
ATOM     57  C   UNL A   1      45.669  26.581  29.639  1.00  0.00     0.074 A 
ATOM     58  C   UNL A   1      46.125  25.289  29.169  1.00  0.00     0.031 C 
ATOM     59  C   UNL A   1      46.458  27.487  30.267  1.00  0.00     0.037 A 
BRANCH  46  60
ATOM     60  C   UNL A   1      43.609  32.778  31.679  1.00  0.00     0.057 A 
ATOM     61  C   UNL A   1      43.342  33.046  33.029  1.00  0.00     0.134 A 
ATOM     62  C   UNL A   1      44.023  33.850  30.879  1.00  0.00     0.134 A 
ATOM     63  F   UNL A   1      42.930  32.065  33.847  1.00  0.00    -0.206 F 
ATOM     64  C   UNL A   1      43.460  34.332  33.555  1.00  0.00     0.040 A 
ATOM     65  C   UNL A   1      44.169  35.137  31.399  1.00  0.00     0.040 A 
ATOM     66  F   UNL A   1      44.299  33.662  29.579  1.00  0.00    -0.206 F 
ATOM     67  C   UNL A   1      43.883  35.381  32.741  1.00  0.00     0.006 A 
ENDBRANCH  46  60
BRANCH  47  68
ATOM     68  C   UNL A   1      42.569  23.786  27.478  1.00  0.00     0.057 A 
ATOM     69  C   UNL A   1      42.317  22.625  28.218  1.00  0.00     0.134 A 
ATOM     70  C   UNL A   1      42.692  23.652  26.089  1.00  0.00     0.134 A 
ATOM     71  F   UNL A   1      42.207  22.689  29.553  1.00  0.00    -0.206 F 
ATOM     72  C   UNL A   1      42.210  21.377  27.606  1.00  0.00     0.040 A 
ATOM     73  C   UNL A   1      42.564  22.412  25.462  1.00  0.00     0.040 A 
ATOM     74  F   UNL A   1      42.925  24.727  25.323  1.00  0.00    -0.206 F 
ATOM     75  C   UNL A   1      42.329  21.268  26.221  1.00  0.00     0.006 A 
ENDBRANCH  47  68
BRANCH  59  76
ATOM     76  C   UNL A   1      47.889  27.104  30.499  1.00  0.00     0.057 A 
ATOM     77  C   UNL A   1      48.273  26.328  31.599  1.00  0.00     0.134 A 
ATOM     78  C   UNL A   1      48.886  27.476  29.588  1.00  0.00     0.134 A 
ATOM     79  F   UNL A   1      47.367  25.953  32.516  1.00  0.00    -0.206 F 
ATOM     80  C   UNL A   1      49.601  25.948  31.794  1.00  0.00     0.040 A 
ATOM     81  C   UNL A   1      50.212  27.081  29.758  1.00  0.00     0.040 A 
ATOM     82  F   UNL A   1      48.581  28.214  28.510  1.00  0.00    -0.206 F 
ATOM     83  C   UNL A   1      50.574  26.318  30.866  1.00  0.00     0.006 A 
ENDBRANCH  59  76
ENDBRANCH  33  34
ENDBRANCH  25  28
ENDBRANCH  23  24
ENDBRANCH  22  23
ENDBRANCH  21  22
ENDBRANCH   1  21
TORSDOF 16
ENDMDL
