MODEL 1
REMARK VINA RESULT:     -11.5      0.000      0.000
REMARK SMILES C[C@@H]1C[C@@H](C)CN(C(=O)CSc2csc(C(=O)NCCCCNC(=O)c3ccc(-c4c5nc(c(-c6c(F)cccc6F)c6ccc([nH]6)c(-c6c(F)cccc6F)c6nc(c(-c7c(F)cccc7F)c7ccc4[nH]7)C=C6)C=C5)cc3)c2)C1
REMARK SMILES IDX 20 1 19 2 18 3 16 4 17 5 15 7 12 8 13 9 80 10 14 11 11 12
REMARK SMILES IDX 10 13 8 14 1 15 2 16 3 17 81 18 4 19 7 20 6 21 5 22 9 23
REMARK SMILES IDX 21 24 22 25 23 26 24 27 25 29 26 30 27 31 79 32 28 33 78 34
REMARK SMILES IDX 29 35 30 36 31 37 72 38 32 39 77 40 71 41 73 42 33 43 76 44
REMARK SMILES IDX 70 45 69 46 34 48 60 49 43 50 59 51 44 52 47 53 58 54 74 55
REMARK SMILES IDX 45 56 46 57 57 59 75 60 48 61 35 62 36 63 41 64 37 65 38 66
REMARK SMILES IDX 40 67 42 68 39 69 61 70 62 71 67 72 63 73 64 74 66 75 68 76
REMARK SMILES IDX 65 77 49 78 50 79 55 80 51 81 52 82 54 83 56 84 53 85
REMARK H PARENT 18 6 23 28 73 47 47 58
REMARK Flexibility Score: inf
ROOT
ATOM      1  C   UNL A   1      36.806  21.232  24.637  1.00  0.00     0.023 C 
ENDROOT
BRANCH   1   2
ATOM      2  C   UNL A   1      35.769  21.498  25.729  1.00  0.00     0.116 C 
BRANCH   2   3
ATOM      3  N   UNL A   1      34.744  20.475  25.739  1.00  0.00    -0.351 N 
ATOM      4  C   UNL A   1      33.374  20.546  25.628  1.00  0.00     0.261 C 
ATOM      5  O   UNL A   1      32.796  19.455  25.638  1.00  0.00    -0.268 OA
ATOM      6  H   UNL A   1      35.092  19.559  25.845  1.00  0.00     0.163 HD
BRANCH   4   7
ATOM      7  C   UNL A   1      32.679  21.821  25.482  1.00  0.00     0.093 A 
ATOM      8  C   UNL A   1      31.486  23.689  24.701  1.00  0.00     0.019 A 
ATOM      9  C   UNL A   1      31.555  23.961  26.046  1.00  0.00     0.080 A 
ATOM     10  C   UNL A   1      32.173  22.488  24.379  1.00  0.00     0.040 A 
ATOM     11  S   UNL A   1      32.411  22.760  26.905  1.00  0.00    -0.137 S 
BRANCH   8  12
ATOM     12  S   UNL A   1      30.615  24.725  23.585  1.00  0.00    -0.115 SA
BRANCH  12  13
ATOM     13  C   UNL A   1      31.850  25.394  22.439  1.00  0.00     0.175 C 
BRANCH  13  14
ATOM     14  C   UNL A   1      33.006  26.117  23.116  1.00  0.00     0.232 C 
ATOM     15  C   UNL A   1      33.102  27.690  26.408  1.00  0.00     0.009 C 
ATOM     16  C   UNL A   1      33.422  28.771  25.370  1.00  0.00     0.006 C 
ATOM     17  C   UNL A   1      32.190  29.647  25.056  1.00  0.00     0.010 C 
ATOM     18  C   UNL A   1      33.992  28.153  24.083  1.00  0.00     0.122 C 
ATOM     19  C   UNL A   1      31.153  28.919  24.180  1.00  0.00     0.006 C 
ATOM     20  N   UNL A   1      32.941  27.486  23.315  1.00  0.00    -0.341 N 
ATOM     21  C   UNL A   1      31.837  28.358  22.926  1.00  0.00     0.122 C 
ATOM     22  C   UNL A   1      29.985  29.825  23.802  1.00  0.00     0.009 C 
ATOM     23  O   UNL A   1      34.006  25.466  23.440  1.00  0.00    -0.274 OA
ENDBRANCH  13  14
ENDBRANCH  12  13
ENDBRANCH   8  12
ENDBRANCH   4   7
ENDBRANCH   2   3
ENDBRANCH   1   2
BRANCH   1  24
ATOM     24  C   UNL A   1      37.739  20.055  24.935  1.00  0.00     0.023 C 
BRANCH  24  25
ATOM     25  C   UNL A   1      38.945  20.395  25.805  1.00  0.00     0.116 C 
BRANCH  25  26
ATOM     26  N   UNL A   1      39.995  19.389  25.764  1.00  0.00    -0.352 N 
ATOM     27  C   UNL A   1      41.322  19.529  26.102  1.00  0.00     0.251 C 
ATOM     28  H   UNL A   1      39.722  18.495  25.457  1.00  0.00     0.163 HD
ATOM     29  O   UNL A   1      42.111  18.610  25.935  1.00  0.00    -0.269 OA
BRANCH  27  30
ATOM     30  C   UNL A   1      41.795  20.828  26.623  1.00  0.00     0.039 A 
ATOM     31  C   UNL A   1      42.267  21.781  25.717  1.00  0.00     0.014 A 
ATOM     32  C   UNL A   1      41.731  21.118  27.988  1.00  0.00     0.014 A 
ATOM     33  C   UNL A   1      42.610  23.055  26.173  1.00  0.00     0.010 A 
ATOM     34  C   UNL A   1      42.010  22.407  28.431  1.00  0.00     0.010 A 
ATOM     35  C   UNL A   1      42.449  23.388  27.528  1.00  0.00    -0.014 A 
BRANCH  35  36
ATOM     36  C   UNL A   1      42.726  24.759  28.021  1.00  0.00     0.031 A 
ATOM     37  C   UNL A   1      44.119  25.145  28.427  1.00  0.00     0.074 A 
ATOM     38  C   UNL A   1      41.710  25.631  28.171  1.00  0.00     0.049 A 
ATOM     39  N   UNL A   1      44.546  26.263  28.958  1.00  0.00    -0.248 NA
ATOM     40  C   UNL A   1      45.167  24.131  28.237  1.00  0.00     0.031 C 
ATOM     41  C   UNL A   1      40.306  25.360  27.858  1.00  0.00     0.029 A 
ATOM     42  N   UNL A   1      41.702  26.922  28.640  1.00  0.00    -0.354 N 
ATOM     43  C   UNL A   1      45.904  26.079  29.181  1.00  0.00     0.074 A 
ATOM     44  C   UNL A   1      46.221  24.727  28.775  1.00  0.00     0.031 C 
ATOM     45  C   UNL A   1      39.576  26.455  28.126  1.00  0.00     0.029 A 
ATOM     46  C   UNL A   1      40.453  27.492  28.660  1.00  0.00     0.049 A 
ATOM     47  H   UNL A   1      42.516  27.393  28.933  1.00  0.00     0.167 HD
ATOM     48  C   UNL A   1      46.809  26.964  29.662  1.00  0.00     0.037 A 
ATOM     49  C   UNL A   1      40.060  28.713  29.071  1.00  0.00     0.037 A 
ATOM     50  C   UNL A   1      46.498  28.318  30.039  1.00  0.00     0.049 A 
ATOM     51  C   UNL A   1      41.085  29.677  29.597  1.00  0.00     0.074 A 
ATOM     52  C   UNL A   1      47.357  29.311  30.475  1.00  0.00     0.029 A 
ATOM     53  N   UNL A   1      45.225  28.866  30.023  1.00  0.00    -0.354 N 
ATOM     54  N   UNL A   1      42.378  29.513  29.741  1.00  0.00    -0.248 NA
ATOM     55  C   UNL A   1      40.597  31.000  30.014  1.00  0.00     0.031 C 
ATOM     56  C   UNL A   1      46.598  30.451  30.759  1.00  0.00     0.029 A 
ATOM     57  C   UNL A   1      45.271  30.180  30.461  1.00  0.00     0.049 A 
ATOM     58  H   UNL A   1      44.408  28.393  29.744  1.00  0.00     0.167 HD
ATOM     59  C   UNL A   1      42.860  30.716  30.239  1.00  0.00     0.074 A 
ATOM     60  C   UNL A   1      41.724  31.605  30.361  1.00  0.00     0.031 C 
ATOM     61  C   UNL A   1      44.131  31.053  30.569  1.00  0.00     0.037 A 
BRANCH  48  62
ATOM     62  C   UNL A   1      48.227  26.493  29.799  1.00  0.00     0.057 A 
ATOM     63  C   UNL A   1      49.170  26.684  28.781  1.00  0.00     0.134 A 
ATOM     64  C   UNL A   1      48.662  25.864  30.972  1.00  0.00     0.134 A 
ATOM     65  F   UNL A   1      48.814  27.268  27.626  1.00  0.00    -0.206 F 
ATOM     66  C   UNL A   1      50.487  26.242  28.913  1.00  0.00     0.040 A 
ATOM     67  C   UNL A   1      49.984  25.441  31.126  1.00  0.00     0.040 A 
ATOM     68  F   UNL A   1      47.812  25.654  31.988  1.00  0.00    -0.206 F 
ATOM     69  C   UNL A   1      50.899  25.624  30.092  1.00  0.00     0.006 A 
ENDBRANCH  48  62
BRANCH  49  70
ATOM     70  C   UNL A   1      38.631  29.102  28.980  1.00  0.00     0.057 A 
ATOM     71  C   UNL A   1      38.088  29.574  27.779  1.00  0.00     0.134 A 
ATOM     72  C   UNL A   1      37.777  29.022  30.088  1.00  0.00     0.134 A 
ATOM     73  F   UNL A   1      38.862  29.692  26.691  1.00  0.00    -0.206 F 
ATOM     74  C   UNL A   1      36.753  29.971  27.686  1.00  0.00     0.040 A 
ATOM     75  C   UNL A   1      36.435  29.393  30.002  1.00  0.00     0.040 A 
ATOM     76  F   UNL A   1      38.235  28.571  31.264  1.00  0.00    -0.206 F 
ATOM     77  C   UNL A   1      35.921  29.877  28.799  1.00  0.00     0.006 A 
ENDBRANCH  49  70
BRANCH  61  78
ATOM     78  C   UNL A   1      44.363  32.449  31.063  1.00  0.00     0.057 A 
ATOM     79  C   UNL A   1      44.599  33.513  30.184  1.00  0.00     0.134 A 
ATOM     80  C   UNL A   1      44.309  32.739  32.433  1.00  0.00     0.134 A 
ATOM     81  F   UNL A   1      44.676  33.298  28.862  1.00  0.00    -0.206 F 
ATOM     82  C   UNL A   1      44.795  34.814  30.651  1.00  0.00     0.040 A 
ATOM     83  C   UNL A   1      44.479  34.040  32.910  1.00  0.00     0.040 A 
ATOM     84  F   UNL A   1      44.079  31.766  33.327  1.00  0.00    -0.206 F 
ATOM     85  C   UNL A   1      44.727  35.081  32.018  1.00  0.00     0.006 A 
ENDBRANCH  61  78
ENDBRANCH  35  36
ENDBRANCH  27  30
ENDBRANCH  25  26
ENDBRANCH  24  25
ENDBRANCH   1  24
TORSDOF 14
ENDMDL
MODEL 2
REMARK VINA RESULT:     -11.5      1.151      1.986
REMARK SMILES C[C@@H]1C[C@@H](C)CN(C(=O)CSc2csc(C(=O)NCCCCNC(=O)c3ccc(-c4c5nc(c(-c6c(F)cccc6F)c6ccc([nH]6)c(-c6c(F)cccc6F)c6nc(c(-c7c(F)cccc7F)c7ccc4[nH]7)C=C6)C=C5)cc3)c2)C1
REMARK SMILES IDX 20 1 19 2 18 3 16 4 17 5 15 7 12 8 13 9 80 10 14 11 11 12
REMARK SMILES IDX 10 13 8 14 1 15 2 16 3 17 81 18 4 19 7 20 6 21 5 22 9 23
REMARK SMILES IDX 21 24 22 25 23 26 24 27 25 29 26 30 27 31 79 32 28 33 78 34
REMARK SMILES IDX 29 35 30 36 31 37 72 38 32 39 77 40 71 41 73 42 33 43 76 44
REMARK SMILES IDX 70 45 69 46 34 48 60 49 43 50 59 51 44 52 47 53 58 54 74 55
REMARK SMILES IDX 45 56 46 57 57 59 75 60 48 61 35 62 36 63 41 64 37 65 38 66
REMARK SMILES IDX 40 67 42 68 39 69 61 70 62 71 67 72 63 73 64 74 66 75 68 76
REMARK SMILES IDX 65 77 49 78 50 79 55 80 51 81 52 82 54 83 56 84 53 85
REMARK H PARENT 18 6 23 28 73 47 47 58
REMARK Flexibility Score: inf
ROOT
ATOM      1  C   UNL A   1      36.493  20.774  25.050  1.00  0.00     0.023 C 
ENDROOT
BRANCH   1   2
ATOM      2  C   UNL A   1      36.567  22.259  25.408  1.00  0.00     0.116 C 
BRANCH   2   3
ATOM      3  N   UNL A   1      35.554  22.615  26.380  1.00  0.00    -0.351 N 
ATOM      4  C   UNL A   1      34.301  23.167  26.240  1.00  0.00     0.261 C 
ATOM      5  O   UNL A   1      33.676  23.306  27.295  1.00  0.00    -0.268 OA
ATOM      6  H   UNL A   1      35.809  22.428  27.312  1.00  0.00     0.163 HD
BRANCH   4   7
ATOM      7  C   UNL A   1      33.759  23.527  24.934  1.00  0.00     0.093 A 
ATOM      8  C   UNL A   1      33.185  24.597  22.922  1.00  0.00     0.019 A 
ATOM      9  C   UNL A   1      32.653  23.346  22.718  1.00  0.00     0.080 A 
ATOM     10  C   UNL A   1      33.773  24.708  24.210  1.00  0.00     0.040 A 
ATOM     11  S   UNL A   1      32.895  22.317  24.059  1.00  0.00    -0.137 S 
BRANCH   8  12
ATOM     12  S   UNL A   1      33.134  25.842  21.686  1.00  0.00    -0.115 SA
BRANCH  12  13
ATOM     13  C   UNL A   1      31.638  26.816  22.005  1.00  0.00     0.175 C 
BRANCH  13  14
ATOM     14  C   UNL A   1      31.832  27.955  22.995  1.00  0.00     0.232 C 
ATOM     15  C   UNL A   1      33.730  27.976  26.111  1.00  0.00     0.009 C 
ATOM     16  C   UNL A   1      32.277  28.319  26.454  1.00  0.00     0.006 C 
ATOM     17  C   UNL A   1      31.512  27.095  27.000  1.00  0.00     0.010 C 
ATOM     18  C   UNL A   1      31.547  28.919  25.240  1.00  0.00     0.122 C 
ATOM     19  C   UNL A   1      31.157  26.078  25.899  1.00  0.00     0.006 C 
ATOM     20  N   UNL A   1      31.249  27.886  24.249  1.00  0.00    -0.341 N 
ATOM     21  C   UNL A   1      30.426  26.790  24.753  1.00  0.00     0.122 C 
ATOM     22  C   UNL A   1      30.323  24.919  26.437  1.00  0.00     0.009 C 
ATOM     23  O   UNL A   1      32.478  28.948  22.639  1.00  0.00    -0.274 OA
ENDBRANCH  13  14
ENDBRANCH  12  13
ENDBRANCH   8  12
ENDBRANCH   4   7
ENDBRANCH   2   3
ENDBRANCH   1   2
BRANCH   1  24
ATOM     24  C   UNL A   1      37.848  20.147  24.707  1.00  0.00     0.023 C 
BRANCH  24  25
ATOM     25  C   UNL A   1      38.952  20.408  25.726  1.00  0.00     0.116 C 
BRANCH  25  26
ATOM     26  N   UNL A   1      39.990  19.388  25.735  1.00  0.00    -0.352 N 
ATOM     27  C   UNL A   1      41.306  19.515  26.115  1.00  0.00     0.251 C 
ATOM     28  H   UNL A   1      39.714  18.493  25.433  1.00  0.00     0.163 HD
ATOM     29  O   UNL A   1      42.088  18.583  25.988  1.00  0.00    -0.269 OA
BRANCH  27  30
ATOM     30  C   UNL A   1      41.779  20.816  26.632  1.00  0.00     0.039 A 
ATOM     31  C   UNL A   1      42.225  21.777  25.721  1.00  0.00     0.014 A 
ATOM     32  C   UNL A   1      41.742  21.099  28.000  1.00  0.00     0.014 A 
ATOM     33  C   UNL A   1      42.567  23.051  26.176  1.00  0.00     0.010 A 
ATOM     34  C   UNL A   1      42.020  22.388  28.442  1.00  0.00     0.010 A 
ATOM     35  C   UNL A   1      42.431  23.377  27.535  1.00  0.00    -0.014 A 
BRANCH  35  36
ATOM     36  C   UNL A   1      42.708  24.748  28.029  1.00  0.00     0.031 A 
ATOM     37  C   UNL A   1      44.098  25.130  28.449  1.00  0.00     0.074 A 
ATOM     38  C   UNL A   1      41.694  25.623  28.167  1.00  0.00     0.049 A 
ATOM     39  N   UNL A   1      44.523  26.247  28.983  1.00  0.00    -0.248 NA
ATOM     40  C   UNL A   1      45.145  24.112  28.272  1.00  0.00     0.031 C 
ATOM     41  C   UNL A   1      40.292  25.356  27.840  1.00  0.00     0.029 A 
ATOM     42  N   UNL A   1      41.685  26.915  28.633  1.00  0.00    -0.354 N 
ATOM     43  C   UNL A   1      45.878  26.060  29.220  1.00  0.00     0.074 A 
ATOM     44  C   UNL A   1      46.195  24.707  28.819  1.00  0.00     0.031 C 
ATOM     45  C   UNL A   1      39.562  26.454  28.098  1.00  0.00     0.029 A 
ATOM     46  C   UNL A   1      40.437  27.489  28.640  1.00  0.00     0.049 A 
ATOM     47  H   UNL A   1      42.496  27.384  28.934  1.00  0.00     0.167 HD
ATOM     48  C   UNL A   1      46.781  26.943  29.708  1.00  0.00     0.037 A 
ATOM     49  C   UNL A   1      40.043  28.712  29.044  1.00  0.00     0.037 A 
ATOM     50  C   UNL A   1      46.470  28.298  30.080  1.00  0.00     0.049 A 
ATOM     51  C   UNL A   1      41.066  29.674  29.579  1.00  0.00     0.074 A 
ATOM     52  C   UNL A   1      47.327  29.289  30.524  1.00  0.00     0.029 A 
ATOM     53  N   UNL A   1      45.198  28.850  30.050  1.00  0.00    -0.354 N 
ATOM     54  N   UNL A   1      42.357  29.506  29.737  1.00  0.00    -0.248 NA
ATOM     55  C   UNL A   1      40.578  30.999  29.989  1.00  0.00     0.031 C 
ATOM     56  C   UNL A   1      46.569  30.432  30.797  1.00  0.00     0.029 A 
ATOM     57  C   UNL A   1      45.245  30.165  30.486  1.00  0.00     0.049 A 
ATOM     58  H   UNL A   1      44.384  28.380  29.763  1.00  0.00     0.167 HD
ATOM     59  C   UNL A   1      42.838  30.708  30.238  1.00  0.00     0.074 A 
ATOM     60  C   UNL A   1      41.703  31.601  30.347  1.00  0.00     0.031 C 
ATOM     61  C   UNL A   1      44.106  31.042  30.581  1.00  0.00     0.037 A 
BRANCH  48  62
ATOM     62  C   UNL A   1      48.196  26.467  29.862  1.00  0.00     0.057 A 
ATOM     63  C   UNL A   1      48.641  25.843  31.034  1.00  0.00     0.134 A 
ATOM     64  C   UNL A   1      49.116  26.610  28.816  1.00  0.00     0.134 A 
ATOM     65  F   UNL A   1      47.812  25.687  32.078  1.00  0.00    -0.206 F 
ATOM     66  C   UNL A   1      49.959  25.403  31.172  1.00  0.00     0.040 A 
ATOM     67  C   UNL A   1      50.430  26.151  28.933  1.00  0.00     0.040 A 
ATOM     68  F   UNL A   1      48.754  27.194  27.664  1.00  0.00    -0.206 F 
ATOM     69  C   UNL A   1      50.855  25.551  30.116  1.00  0.00     0.006 A 
ENDBRANCH  48  62
BRANCH  49  70
ATOM     70  C   UNL A   1      38.617  29.106  28.938  1.00  0.00     0.057 A 
ATOM     71  C   UNL A   1      37.757  29.002  30.038  1.00  0.00     0.134 A 
ATOM     72  C   UNL A   1      38.076  29.586  27.738  1.00  0.00     0.134 A 
ATOM     73  F   UNL A   1      38.214  28.530  31.207  1.00  0.00    -0.206 F 
ATOM     74  C   UNL A   1      36.407  29.342  29.945  1.00  0.00     0.040 A 
ATOM     75  C   UNL A   1      36.733  29.952  27.639  1.00  0.00     0.040 A 
ATOM     76  F   UNL A   1      38.849  29.716  26.651  1.00  0.00    -0.206 F 
ATOM     77  C   UNL A   1      35.892  29.823  28.743  1.00  0.00     0.006 A 
ENDBRANCH  49  70
BRANCH  61  78
ATOM     78  C   UNL A   1      44.337  32.438  31.075  1.00  0.00     0.057 A 
ATOM     79  C   UNL A   1      44.602  33.497  30.198  1.00  0.00     0.134 A 
ATOM     80  C   UNL A   1      44.254  32.734  32.442  1.00  0.00     0.134 A 
ATOM     81  F   UNL A   1      44.709  33.276  28.878  1.00  0.00    -0.206 F 
ATOM     82  C   UNL A   1      44.797  34.798  30.664  1.00  0.00     0.040 A 
ATOM     83  C   UNL A   1      44.423  34.035  32.918  1.00  0.00     0.040 A 
ATOM     84  F   UNL A   1      43.995  31.767  33.334  1.00  0.00    -0.206 F 
ATOM     85  C   UNL A   1      44.700  35.070  32.028  1.00  0.00     0.006 A 
ENDBRANCH  61  78
ENDBRANCH  35  36
ENDBRANCH  27  30
ENDBRANCH  25  26
ENDBRANCH  24  25
ENDBRANCH   1  24
TORSDOF 14
ENDMDL
MODEL 3
REMARK VINA RESULT:     -11.4      1.500      2.311
REMARK SMILES C[C@@H]1C[C@@H](C)CN(C(=O)CSc2csc(C(=O)NCCCCNC(=O)c3ccc(-c4c5nc(c(-c6c(F)cccc6F)c6ccc([nH]6)c(-c6c(F)cccc6F)c6nc(c(-c7c(F)cccc7F)c7ccc4[nH]7)C=C6)C=C5)cc3)c2)C1
REMARK SMILES IDX 20 1 19 2 18 3 16 4 17 5 15 7 12 8 13 9 80 10 14 11 11 12
REMARK SMILES IDX 10 13 8 14 1 15 2 16 3 17 81 18 4 19 7 20 6 21 5 22 9 23
REMARK SMILES IDX 21 24 22 25 23 26 24 27 25 29 26 30 27 31 79 32 28 33 78 34
REMARK SMILES IDX 29 35 30 36 31 37 72 38 32 39 77 40 71 41 73 42 33 43 76 44
REMARK SMILES IDX 70 45 69 46 34 48 60 49 43 50 59 51 44 52 47 53 58 54 74 55
REMARK SMILES IDX 45 56 46 57 57 59 75 60 48 61 35 62 36 63 41 64 37 65 38 66
REMARK SMILES IDX 40 67 42 68 39 69 61 70 62 71 67 72 63 73 64 74 66 75 68 76
REMARK SMILES IDX 65 77 49 78 50 79 55 80 51 81 52 82 54 83 56 84 53 85
REMARK H PARENT 18 6 23 28 73 47 47 58
REMARK Flexibility Score: inf
ROOT
ATOM      1  C   UNL A   1      37.350  21.162  24.727  1.00  0.00     0.023 C 
ENDROOT
BRANCH   1   2
ATOM      2  C   UNL A   1      35.998  21.086  25.437  1.00  0.00     0.116 C 
BRANCH   2   3
ATOM      3  N   UNL A   1      35.229  19.947  24.980  1.00  0.00    -0.351 N 
ATOM      4  C   UNL A   1      33.903  19.811  24.638  1.00  0.00     0.261 C 
ATOM      5  O   UNL A   1      33.582  18.685  24.247  1.00  0.00    -0.268 OA
ATOM      6  H   UNL A   1      35.752  19.116  24.900  1.00  0.00     0.163 HD
BRANCH   4   7
ATOM      7  C   UNL A   1      32.970  20.931  24.711  1.00  0.00     0.093 A 
ATOM      8  C   UNL A   1      31.529  22.655  25.400  1.00  0.00     0.019 A 
ATOM      9  C   UNL A   1      31.580  22.877  24.044  1.00  0.00     0.080 A 
ATOM     10  C   UNL A   1      32.287  21.512  25.767  1.00  0.00     0.040 A 
ATOM     11  S   UNL A   1      32.559  21.733  23.240  1.00  0.00    -0.137 S 
BRANCH   8  12
ATOM     12  S   UNL A   1      30.643  23.712  26.483  1.00  0.00    -0.115 SA
BRANCH  12  13
ATOM     13  C   UNL A   1      30.518  25.314  25.644  1.00  0.00     0.175 C 
BRANCH  13  14
ATOM     14  C   UNL A   1      31.410  26.399  26.231  1.00  0.00     0.232 C 
ATOM     15  C   UNL A   1      32.054  29.760  24.965  1.00  0.00     0.009 C 
ATOM     16  C   UNL A   1      33.399  29.029  25.038  1.00  0.00     0.006 C 
ATOM     17  C   UNL A   1      33.836  28.493  23.659  1.00  0.00     0.010 C 
ATOM     18  C   UNL A   1      33.357  27.894  26.075  1.00  0.00     0.122 C 
ATOM     19  C   UNL A   1      33.030  27.255  23.222  1.00  0.00     0.006 C 
ATOM     20  N   UNL A   1      32.576  26.763  25.577  1.00  0.00    -0.341 N 
ATOM     21  C   UNL A   1      33.072  26.193  24.329  1.00  0.00     0.122 C 
ATOM     22  C   UNL A   1      33.533  26.681  21.900  1.00  0.00     0.009 C 
ATOM     23  O   UNL A   1      31.092  26.908  27.312  1.00  0.00    -0.274 OA
ENDBRANCH  13  14
ENDBRANCH  12  13
ENDBRANCH   8  12
ENDBRANCH   4   7
ENDBRANCH   2   3
ENDBRANCH   1   2
BRANCH   1  24
ATOM     24  C   UNL A   1      38.223  19.918  24.914  1.00  0.00     0.023 C 
BRANCH  24  25
ATOM     25  C   UNL A   1      39.269  20.027  26.019  1.00  0.00     0.116 C 
BRANCH  25  26
ATOM     26  N   UNL A   1      40.307  19.010  25.942  1.00  0.00    -0.352 N 
ATOM     27  C   UNL A   1      41.663  19.162  26.121  1.00  0.00     0.251 C 
ATOM     28  H   UNL A   1      40.000  18.098  25.737  1.00  0.00     0.163 HD
ATOM     29  O   UNL A   1      42.427  18.224  25.940  1.00  0.00    -0.269 OA
BRANCH  27  30
ATOM     30  C   UNL A   1      42.193  20.492  26.484  1.00  0.00     0.039 A 
ATOM     31  C   UNL A   1      42.624  21.342  25.463  1.00  0.00     0.014 A 
ATOM     32  C   UNL A   1      42.221  20.912  27.816  1.00  0.00     0.014 A 
ATOM     33  C   UNL A   1      43.020  22.645  25.773  1.00  0.00     0.010 A 
ATOM     34  C   UNL A   1      42.552  22.229  28.115  1.00  0.00     0.010 A 
ATOM     35  C   UNL A   1      42.951  23.109  27.097  1.00  0.00    -0.014 A 
BRANCH  35  36
ATOM     36  C   UNL A   1      43.286  24.514  27.438  1.00  0.00     0.031 A 
ATOM     37  C   UNL A   1      44.718  24.965  27.447  1.00  0.00     0.074 A 
ATOM     38  C   UNL A   1      42.306  25.360  27.809  1.00  0.00     0.049 A 
ATOM     39  N   UNL A   1      45.218  26.123  27.797  1.00  0.00    -0.248 NA
ATOM     40  C   UNL A   1      45.725  23.975  27.035  1.00  0.00     0.031 C 
ATOM     41  C   UNL A   1      40.882  25.027  27.887  1.00  0.00     0.029 A 
ATOM     42  N   UNL A   1      42.362  26.674  28.205  1.00  0.00    -0.354 N 
ATOM     43  C   UNL A   1      46.594  25.995  27.665  1.00  0.00     0.074 A 
ATOM     44  C   UNL A   1      46.854  24.633  27.251  1.00  0.00     0.031 C 
ATOM     45  C   UNL A   1      40.199  26.112  28.288  1.00  0.00     0.029 A 
ATOM     46  C   UNL A   1      41.137  27.205  28.526  1.00  0.00     0.049 A 
ATOM     47  H   UNL A   1      43.202  27.185  28.253  1.00  0.00     0.167 HD
ATOM     48  C   UNL A   1      47.552  26.933  27.851  1.00  0.00     0.037 A 
ATOM     49  C   UNL A   1      40.809  28.433  28.970  1.00  0.00     0.037 A 
ATOM     50  C   UNL A   1      47.289  28.295  28.235  1.00  0.00     0.049 A 
ATOM     51  C   UNL A   1      41.892  29.457  29.165  1.00  0.00     0.074 A 
ATOM     52  C   UNL A   1      48.187  29.337  28.386  1.00  0.00     0.029 A 
ATOM     53  N   UNL A   1      46.032  28.801  28.529  1.00  0.00    -0.354 N 
ATOM     54  N   UNL A   1      43.184  29.341  28.972  1.00  0.00    -0.248 NA
ATOM     55  C   UNL A   1      41.471  30.785  29.635  1.00  0.00     0.031 C 
ATOM     56  C   UNL A   1      47.477  30.467  28.807  1.00  0.00     0.029 A 
ATOM     57  C   UNL A   1      46.132  30.138  28.879  1.00  0.00     0.049 A 
ATOM     58  H   UNL A   1      45.194  28.288  28.494  1.00  0.00     0.167 HD
ATOM     59  C   UNL A   1      43.725  30.584  29.273  1.00  0.00     0.074 A 
ATOM     60  C   UNL A   1      42.621  31.443  29.648  1.00  0.00     0.031 C 
ATOM     61  C   UNL A   1      45.021  30.979  29.243  1.00  0.00     0.037 A 
BRANCH  48  62
ATOM     62  C   UNL A   1      48.977  26.514  27.634  1.00  0.00     0.057 A 
ATOM     63  C   UNL A   1      49.776  26.046  28.684  1.00  0.00     0.134 A 
ATOM     64  C   UNL A   1      49.548  26.556  26.356  1.00  0.00     0.134 A 
ATOM     65  F   UNL A   1      49.293  25.994  29.935  1.00  0.00    -0.206 F 
ATOM     66  C   UNL A   1      51.101  25.658  28.477  1.00  0.00     0.040 A 
ATOM     67  C   UNL A   1      50.864  26.147  26.132  1.00  0.00     0.040 A 
ATOM     68  F   UNL A   1      48.837  26.989  25.305  1.00  0.00    -0.206 F 
ATOM     69  C   UNL A   1      51.646  25.702  27.196  1.00  0.00     0.006 A 
ENDBRANCH  48  62
BRANCH  49  70
ATOM     70  C   UNL A   1      39.390  28.772  29.239  1.00  0.00     0.057 A 
ATOM     71  C   UNL A   1      38.573  29.301  28.233  1.00  0.00     0.134 A 
ATOM     72  C   UNL A   1      38.819  28.584  30.503  1.00  0.00     0.134 A 
ATOM     73  F   UNL A   1      39.071  29.522  27.007  1.00  0.00    -0.206 F 
ATOM     74  C   UNL A   1      37.244  29.651  28.478  1.00  0.00     0.040 A 
ATOM     75  C   UNL A   1      37.485  28.907  30.756  1.00  0.00     0.040 A 
ATOM     76  F   UNL A   1      39.547  28.074  31.507  1.00  0.00    -0.206 F 
ATOM     77  C   UNL A   1      36.695  29.450  29.743  1.00  0.00     0.006 A 
ENDBRANCH  49  70
BRANCH  61  78
ATOM     78  C   UNL A   1      45.310  32.407  29.595  1.00  0.00     0.057 A 
ATOM     79  C   UNL A   1      45.638  32.794  30.901  1.00  0.00     0.134 A 
ATOM     80  C   UNL A   1      45.299  33.402  28.608  1.00  0.00     0.134 A 
ATOM     81  F   UNL A   1      45.651  31.891  31.893  1.00  0.00    -0.206 F 
ATOM     82  C   UNL A   1      45.924  34.123  31.217  1.00  0.00     0.040 A 
ATOM     83  C   UNL A   1      45.608  34.729  28.907  1.00  0.00     0.040 A 
ATOM     84  F   UNL A   1      45.001  33.096  27.337  1.00  0.00    -0.206 F 
ATOM     85  C   UNL A   1      45.917  35.093  30.216  1.00  0.00     0.006 A 
ENDBRANCH  61  78
ENDBRANCH  35  36
ENDBRANCH  27  30
ENDBRANCH  25  26
ENDBRANCH  24  25
ENDBRANCH   1  24
TORSDOF 14
ENDMDL
