MODEL 1
REMARK VINA RESULT:     -11.3      0.000      0.000
REMARK SMILES C[C@H](CC(=O)NCCCCNC(=O)c1ccc(-c2c3nc(c(-c4c(F)cccc4F)c4ccc([nH]4)c(-c4c(F)cccc4F)c4nc(c(-c5c(F)cccc5F)c5ccc2[nH]5)C=C4)C=C3)cc1)NC(=O)Cn1nc2ccccn2c1=O
REMARK SMILES IDX 7 1 6 2 4 3 5 4 3 6 2 7 1 8 68 9 69 10 70 12 71 13 72 14
REMARK SMILES IDX 73 15 80 16 74 17 79 18 81 19 75 20 78 21 76 22 77 23 8 24
REMARK SMILES IDX 9 25 10 26 11 27 12 28 13 30 14 31 15 32 67 33 16 34 66 35
REMARK SMILES IDX 17 36 18 37 19 38 60 39 20 40 65 41 59 42 61 43 21 44 64 45
REMARK SMILES IDX 58 46 57 47 22 49 48 50 31 51 47 52 32 53 35 54 46 55 62 56
REMARK SMILES IDX 33 57 34 58 45 60 63 61 36 62 23 63 24 64 29 65 25 66 26 67
REMARK SMILES IDX 28 68 30 69 27 70 49 71 50 72 55 73 51 74 52 75 54 76 56 77
REMARK SMILES IDX 53 78 37 79 38 80 43 81 39 82 40 83 42 84 44 85 41 86
REMARK H PARENT 6 5 68 11 11 29 61 48 35 59
REMARK Flexibility Score: inf
ROOT
ATOM      1  C   UNL A   1      36.287  22.095  25.948  1.00  0.00     0.116 C 
ENDROOT
BRANCH   1   2
ATOM      2  N   UNL A   1      35.297  22.053  27.002  1.00  0.00    -0.356 N 
ATOM      3  C   UNL A   1      34.005  22.478  26.984  1.00  0.00     0.222 C 
ATOM      4  O   UNL A   1      33.364  22.431  28.036  1.00  0.00    -0.275 OA
ATOM      5  H   UNL A   1      35.601  21.661  27.853  1.00  0.00     0.163 HD
BRANCH   3   6
ATOM      6  C   UNL A   1      33.360  22.961  25.697  1.00  0.00     0.124 C 
BRANCH   6   7
ATOM      7  C   UNL A   1      32.097  22.219  25.215  1.00  0.00     0.088 C 
ATOM      8  C   UNL A   1      32.358  20.752  24.876  1.00  0.00     0.031 C 
BRANCH   7   9
ATOM      9  N   UNL A   1      30.992  22.348  26.168  1.00  0.00    -0.352 N 
ATOM     10  C   UNL A   1      30.220  23.422  26.510  1.00  0.00     0.242 C 
ATOM     11  H   UNL A   1      30.766  21.517  26.645  1.00  0.00     0.163 HD
ATOM     12  O   UNL A   1      29.620  23.346  27.587  1.00  0.00    -0.273 OA
BRANCH  10  13
ATOM     13  C   UNL A   1      30.017  24.605  25.563  1.00  0.00     0.249 C 
BRANCH  13  14
ATOM     14  N   UNL A   1      30.918  25.711  25.769  1.00  0.00    -0.203 N 
ATOM     15  N   UNL A   1      30.923  26.459  26.923  1.00  0.00    -0.149 NA
ATOM     16  C   UNL A   1      31.835  26.233  24.841  1.00  0.00     0.350 A 
ATOM     17  C   UNL A   1      31.741  27.425  26.658  1.00  0.00     0.161 A 
ATOM     18  N   UNL A   1      32.336  27.361  25.445  1.00  0.00    -0.250 N 
ATOM     19  O   UNL A   1      32.105  25.794  23.731  1.00  0.00    -0.246 OA
ATOM     20  C   UNL A   1      32.022  28.592  27.518  1.00  0.00     0.050 A 
ATOM     21  C   UNL A   1      33.203  28.300  24.967  1.00  0.00     0.098 A 
ATOM     22  C   UNL A   1      32.620  29.630  26.904  1.00  0.00     0.005 A 
ATOM     23  C   UNL A   1      33.356  29.435  25.663  1.00  0.00     0.019 A 
ENDBRANCH  13  14
ENDBRANCH  10  13
ENDBRANCH   7   9
ENDBRANCH   6   7
ENDBRANCH   3   6
ENDBRANCH   1   2
BRANCH   1  24
ATOM     24  C   UNL A   1      36.397  20.736  25.257  1.00  0.00     0.023 C 
BRANCH  24  25
ATOM     25  C   UNL A   1      37.783  20.387  24.733  1.00  0.00     0.023 C 
BRANCH  25  26
ATOM     26  C   UNL A   1      38.909  20.601  25.729  1.00  0.00     0.116 C 
BRANCH  26  27
ATOM     27  N   UNL A   1      39.876  19.513  25.746  1.00  0.00    -0.352 N 
ATOM     28  C   UNL A   1      41.203  19.553  26.102  1.00  0.00     0.251 C 
ATOM     29  H   UNL A   1      39.535  18.633  25.465  1.00  0.00     0.163 HD
ATOM     30  O   UNL A   1      41.925  18.576  25.949  1.00  0.00    -0.269 OA
BRANCH  28  31
ATOM     31  C   UNL A   1      41.758  20.814  26.631  1.00  0.00     0.039 A 
ATOM     32  C   UNL A   1      42.279  21.750  25.737  1.00  0.00     0.014 A 
ATOM     33  C   UNL A   1      41.684  21.097  27.998  1.00  0.00     0.014 A 
ATOM     34  C   UNL A   1      42.649  23.009  26.207  1.00  0.00     0.010 A 
ATOM     35  C   UNL A   1      41.960  22.383  28.445  1.00  0.00     0.010 A 
ATOM     36  C   UNL A   1      42.445  23.351  27.553  1.00  0.00    -0.014 A 
BRANCH  36  37
ATOM     37  C   UNL A   1      42.721  24.722  28.050  1.00  0.00     0.031 A 
ATOM     38  C   UNL A   1      44.114  25.108  28.458  1.00  0.00     0.074 A 
ATOM     39  C   UNL A   1      41.702  25.591  28.200  1.00  0.00     0.049 A 
ATOM     40  N   UNL A   1      44.541  26.232  28.974  1.00  0.00    -0.248 NA
ATOM     41  C   UNL A   1      45.161  24.086  28.296  1.00  0.00     0.031 C 
ATOM     42  C   UNL A   1      40.297  25.313  27.895  1.00  0.00     0.029 A 
ATOM     43  N   UNL A   1      41.692  26.885  28.656  1.00  0.00    -0.354 N 
ATOM     44  C   UNL A   1      45.898  26.046  29.208  1.00  0.00     0.074 A 
ATOM     45  C   UNL A   1      46.209  24.684  28.838  1.00  0.00     0.031 C 
ATOM     46  C   UNL A   1      39.566  26.412  28.144  1.00  0.00     0.029 A 
ATOM     47  C   UNL A   1      40.442  27.457  28.664  1.00  0.00     0.049 A 
ATOM     48  H   UNL A   1      42.503  27.360  28.949  1.00  0.00     0.167 HD
ATOM     49  C   UNL A   1      46.807  26.940  29.664  1.00  0.00     0.037 A 
ATOM     50  C   UNL A   1      40.046  28.683  29.056  1.00  0.00     0.037 A 
ATOM     51  C   UNL A   1      46.494  28.302  30.009  1.00  0.00     0.049 A 
ATOM     52  C   UNL A   1      41.074  29.654  29.567  1.00  0.00     0.074 A 
ATOM     53  C   UNL A   1      47.354  29.306  30.417  1.00  0.00     0.029 A 
ATOM     54  N   UNL A   1      45.220  28.848  29.992  1.00  0.00    -0.354 N 
ATOM     55  N   UNL A   1      42.368  29.492  29.707  1.00  0.00    -0.248 NA
ATOM     56  C   UNL A   1      40.588  30.982  29.968  1.00  0.00     0.031 C 
ATOM     57  C   UNL A   1      46.593  30.444  30.697  1.00  0.00     0.029 A 
ATOM     58  C   UNL A   1      45.266  30.168  30.410  1.00  0.00     0.049 A 
ATOM     59  H   UNL A   1      44.403  28.369  29.722  1.00  0.00     0.167 HD
ATOM     60  C   UNL A   1      42.853  30.701  30.189  1.00  0.00     0.074 A 
ATOM     61  C   UNL A   1      41.718  31.593  30.297  1.00  0.00     0.031 C 
ATOM     62  C   UNL A   1      44.125  31.041  30.512  1.00  0.00     0.037 A 
BRANCH  49  63
ATOM     63  C   UNL A   1      48.225  26.471  29.810  1.00  0.00     0.057 A 
ATOM     64  C   UNL A   1      48.693  25.880  30.992  1.00  0.00     0.134 A 
ATOM     65  C   UNL A   1      49.129  26.584  28.746  1.00  0.00     0.134 A 
ATOM     66  F   UNL A   1      47.884  25.753  32.055  1.00  0.00    -0.206 F 
ATOM     67  C   UNL A   1      50.013  25.444  31.120  1.00  0.00     0.040 A 
ATOM     68  C   UNL A   1      50.443  26.125  28.851  1.00  0.00     0.040 A 
ATOM     69  F   UNL A   1      48.748  27.135  27.583  1.00  0.00    -0.206 F 
ATOM     70  C   UNL A   1      50.890  25.559  30.043  1.00  0.00     0.006 A 
ENDBRANCH  49  63
BRANCH  50  71
ATOM     71  C   UNL A   1      38.615  29.070  28.963  1.00  0.00     0.057 A 
ATOM     72  C   UNL A   1      38.074  29.557  27.768  1.00  0.00     0.134 A 
ATOM     73  C   UNL A   1      37.756  28.968  30.065  1.00  0.00     0.134 A 
ATOM     74  F   UNL A   1      38.850  29.694  26.683  1.00  0.00    -0.206 F 
ATOM     75  C   UNL A   1      36.738  29.951  27.675  1.00  0.00     0.040 A 
ATOM     76  C   UNL A   1      36.411  29.332  29.979  1.00  0.00     0.040 A 
ATOM     77  F   UNL A   1      38.210  28.499  31.236  1.00  0.00    -0.206 F 
ATOM     78  C   UNL A   1      35.901  29.833  28.784  1.00  0.00     0.006 A 
ENDBRANCH  50  71
BRANCH  62  79
ATOM     79  C   UNL A   1      44.358  32.446  30.989  1.00  0.00     0.057 A 
ATOM     80  C   UNL A   1      44.345  32.778  32.349  1.00  0.00     0.134 A 
ATOM     81  C   UNL A   1      44.636  33.471  30.075  1.00  0.00     0.134 A 
ATOM     82  F   UNL A   1      44.073  31.845  33.274  1.00  0.00    -0.206 F 
ATOM     83  C   UNL A   1      44.575  34.084  32.783  1.00  0.00     0.040 A 
ATOM     84  C   UNL A   1      44.898  34.774  30.499  1.00  0.00     0.040 A 
ATOM     85  F   UNL A   1      44.674  33.219  28.758  1.00  0.00    -0.206 F 
ATOM     86  C   UNL A   1      44.861  35.085  31.856  1.00  0.00     0.006 A 
ENDBRANCH  62  79
ENDBRANCH  36  37
ENDBRANCH  28  31
ENDBRANCH  26  27
ENDBRANCH  25  26
ENDBRANCH  24  25
ENDBRANCH   1  24
TORSDOF 15
ENDMDL
MODEL 2
REMARK VINA RESULT:     -11.3      1.500      3.491
REMARK SMILES C[C@H](CC(=O)NCCCCNC(=O)c1ccc(-c2c3nc(c(-c4c(F)cccc4F)c4ccc([nH]4)c(-c4c(F)cccc4F)c4nc(c(-c5c(F)cccc5F)c5ccc2[nH]5)C=C4)C=C3)cc1)NC(=O)Cn1nc2ccccn2c1=O
REMARK SMILES IDX 7 1 6 2 4 3 5 4 3 6 2 7 1 8 68 9 69 10 70 12 71 13 72 14
REMARK SMILES IDX 73 15 80 16 74 17 79 18 81 19 75 20 78 21 76 22 77 23 8 24
REMARK SMILES IDX 9 25 10 26 11 27 12 28 13 30 14 31 15 32 67 33 16 34 66 35
REMARK SMILES IDX 17 36 18 37 19 38 60 39 20 40 65 41 59 42 61 43 21 44 64 45
REMARK SMILES IDX 58 46 57 47 22 49 48 50 31 51 47 52 32 53 35 54 46 55 62 56
REMARK SMILES IDX 33 57 34 58 45 60 63 61 36 62 23 63 24 64 29 65 25 66 26 67
REMARK SMILES IDX 28 68 30 69 27 70 49 71 50 72 55 73 51 74 52 75 54 76 56 77
REMARK SMILES IDX 53 78 37 79 38 80 43 81 39 82 40 83 42 84 44 85 41 86
REMARK H PARENT 6 5 68 11 11 29 61 48 35 59
REMARK Flexibility Score: inf
ROOT
ATOM      1  C   UNL A   1      35.780  21.836  24.249  1.00  0.00     0.116 C 
ENDROOT
BRANCH   1   2
ATOM      2  N   UNL A   1      35.199  21.952  25.570  1.00  0.00    -0.356 N 
ATOM      3  C   UNL A   1      34.914  23.073  26.287  1.00  0.00     0.222 C 
ATOM      4  O   UNL A   1      34.507  22.935  27.442  1.00  0.00    -0.275 OA
ATOM      5  H   UNL A   1      34.979  21.101  26.013  1.00  0.00     0.163 HD
BRANCH   3   6
ATOM      6  C   UNL A   1      35.060  24.452  25.669  1.00  0.00     0.124 C 
BRANCH   6   7
ATOM      7  C   UNL A   1      33.822  25.050  24.971  1.00  0.00     0.088 C 
ATOM      8  C   UNL A   1      33.628  26.536  25.267  1.00  0.00     0.031 C 
BRANCH   7   9
ATOM      9  N   UNL A   1      33.837  24.801  23.527  1.00  0.00    -0.352 N 
ATOM     10  C   UNL A   1      33.206  23.854  22.771  1.00  0.00     0.242 C 
ATOM     11  H   UNL A   1      34.398  25.425  23.012  1.00  0.00     0.163 HD
ATOM     12  O   UNL A   1      33.678  23.645  21.649  1.00  0.00    -0.273 OA
BRANCH  10  13
ATOM     13  C   UNL A   1      31.921  23.170  23.240  1.00  0.00     0.249 C 
BRANCH  13  14
ATOM     14  N   UNL A   1      32.033  21.750  23.456  1.00  0.00    -0.203 N 
ATOM     15  N   UNL A   1      32.252  21.203  24.699  1.00  0.00    -0.149 NA
ATOM     16  C   UNL A   1      32.020  20.746  22.472  1.00  0.00     0.350 A 
ATOM     17  C   UNL A   1      32.443  19.948  24.451  1.00  0.00     0.161 A 
ATOM     18  N   UNL A   1      32.313  19.589  23.154  1.00  0.00    -0.250 N 
ATOM     19  O   UNL A   1      31.819  20.879  21.273  1.00  0.00    -0.246 OA
ATOM     20  C   UNL A   1      32.845  18.916  25.428  1.00  0.00     0.050 A 
ATOM     21  C   UNL A   1      32.507  18.321  22.686  1.00  0.00     0.098 A 
ATOM     22  C   UNL A   1      33.324  17.775  24.898  1.00  0.00     0.005 A 
ATOM     23  C   UNL A   1      33.015  17.407  23.525  1.00  0.00     0.019 A 
ENDBRANCH  13  14
ENDBRANCH  10  13
ENDBRANCH   7   9
ENDBRANCH   6   7
ENDBRANCH   3   6
ENDBRANCH   1   2
BRANCH   1  24
ATOM     24  C   UNL A   1      37.300  21.707  24.338  1.00  0.00     0.023 C 
BRANCH  24  25
ATOM     25  C   UNL A   1      37.804  20.409  24.956  1.00  0.00     0.023 C 
BRANCH  25  26
ATOM     26  C   UNL A   1      38.952  20.578  25.934  1.00  0.00     0.116 C 
BRANCH  26  27
ATOM     27  N   UNL A   1      39.951  19.523  25.834  1.00  0.00    -0.352 N 
ATOM     28  C   UNL A   1      41.302  19.599  26.075  1.00  0.00     0.251 C 
ATOM     29  H   UNL A   1      39.615  18.640  25.557  1.00  0.00     0.163 HD
ATOM     30  O   UNL A   1      42.039  18.651  25.831  1.00  0.00    -0.269 OA
BRANCH  28  31
ATOM     31  C   UNL A   1      41.861  20.863  26.592  1.00  0.00     0.039 A 
ATOM     32  C   UNL A   1      42.310  21.823  25.685  1.00  0.00     0.014 A 
ATOM     33  C   UNL A   1      41.861  21.123  27.965  1.00  0.00     0.014 A 
ATOM     34  C   UNL A   1      42.682  23.083  26.154  1.00  0.00     0.010 A 
ATOM     35  C   UNL A   1      42.137  22.407  28.417  1.00  0.00     0.010 A 
ATOM     36  C   UNL A   1      42.549  23.400  27.516  1.00  0.00    -0.014 A 
BRANCH  36  37
ATOM     37  C   UNL A   1      42.825  24.768  28.018  1.00  0.00     0.031 A 
ATOM     38  C   UNL A   1      44.222  25.158  28.410  1.00  0.00     0.074 A 
ATOM     39  C   UNL A   1      41.805  25.631  28.188  1.00  0.00     0.049 A 
ATOM     40  N   UNL A   1      44.651  26.280  28.928  1.00  0.00    -0.248 NA
ATOM     41  C   UNL A   1      45.271  24.142  28.226  1.00  0.00     0.031 C 
ATOM     42  C   UNL A   1      40.396  25.349  27.901  1.00  0.00     0.029 A 
ATOM     43  N   UNL A   1      41.794  26.922  28.654  1.00  0.00    -0.354 N 
ATOM     44  C   UNL A   1      46.012  26.099  29.142  1.00  0.00     0.074 A 
ATOM     45  C   UNL A   1      46.324  24.741  28.757  1.00  0.00     0.031 C 
ATOM     46  C   UNL A   1      39.664  26.443  28.167  1.00  0.00     0.029 A 
ATOM     47  C   UNL A   1      40.542  27.488  28.683  1.00  0.00     0.049 A 
ATOM     48  H   UNL A   1      42.608  27.399  28.939  1.00  0.00     0.167 HD
ATOM     49  C   UNL A   1      46.922  26.994  29.592  1.00  0.00     0.037 A 
ATOM     50  C   UNL A   1      40.146  28.709  29.089  1.00  0.00     0.037 A 
ATOM     51  C   UNL A   1      46.608  28.352  29.951  1.00  0.00     0.049 A 
ATOM     52  C   UNL A   1      41.177  29.681  29.593  1.00  0.00     0.074 A 
ATOM     53  C   UNL A   1      47.469  29.357  30.354  1.00  0.00     0.029 A 
ATOM     54  N   UNL A   1      45.332  28.892  29.955  1.00  0.00    -0.354 N 
ATOM     55  N   UNL A   1      42.473  29.524  29.714  1.00  0.00    -0.248 NA
ATOM     56  C   UNL A   1      40.690  31.004  30.010  1.00  0.00     0.031 C 
ATOM     57  C   UNL A   1      46.706  30.490  30.653  1.00  0.00     0.029 A 
ATOM     58  C   UNL A   1      45.377  30.209  30.382  1.00  0.00     0.049 A 
ATOM     59  H   UNL A   1      44.513  28.411  29.693  1.00  0.00     0.167 HD
ATOM     60  C   UNL A   1      42.959  30.732  30.197  1.00  0.00     0.074 A 
ATOM     61  C   UNL A   1      41.821  31.618  30.328  1.00  0.00     0.031 C 
ATOM     62  C   UNL A   1      44.233  31.076  30.506  1.00  0.00     0.037 A 
BRANCH  49  63
ATOM     63  C   UNL A   1      48.345  26.530  29.715  1.00  0.00     0.057 A 
ATOM     64  C   UNL A   1      49.284  26.741  28.695  1.00  0.00     0.134 A 
ATOM     65  C   UNL A   1      48.790  25.891  30.879  1.00  0.00     0.134 A 
ATOM     66  F   UNL A   1      48.921  27.334  27.549  1.00  0.00    -0.206 F 
ATOM     67  C   UNL A   1      50.605  26.308  28.818  1.00  0.00     0.040 A 
ATOM     68  C   UNL A   1      50.116  25.481  31.025  1.00  0.00     0.040 A 
ATOM     69  F   UNL A   1      47.947  25.662  31.897  1.00  0.00    -0.206 F 
ATOM     70  C   UNL A   1      51.027  25.683  29.990  1.00  0.00     0.006 A 
ENDBRANCH  49  63
BRANCH  50  71
ATOM     71  C   UNL A   1      38.712  29.089  29.018  1.00  0.00     0.057 A 
ATOM     72  C   UNL A   1      38.148  29.565  27.830  1.00  0.00     0.134 A 
ATOM     73  C   UNL A   1      37.873  28.994  30.136  1.00  0.00     0.134 A 
ATOM     74  F   UNL A   1      38.903  29.695  26.729  1.00  0.00    -0.206 F 
ATOM     75  C   UNL A   1      36.809  29.953  27.757  1.00  0.00     0.040 A 
ATOM     76  C   UNL A   1      36.526  29.352  30.072  1.00  0.00     0.040 A 
ATOM     77  F   UNL A   1      38.350  28.537  31.304  1.00  0.00    -0.206 F 
ATOM     78  C   UNL A   1      35.992  29.841  28.882  1.00  0.00     0.006 A 
ENDBRANCH  50  71
BRANCH  62  79
ATOM     79  C   UNL A   1      44.467  32.479  30.990  1.00  0.00     0.057 A 
ATOM     80  C   UNL A   1      44.464  32.802  32.352  1.00  0.00     0.134 A 
ATOM     81  C   UNL A   1      44.733  33.510  30.080  1.00  0.00     0.134 A 
ATOM     82  F   UNL A   1      44.203  31.862  33.274  1.00  0.00    -0.206 F 
ATOM     83  C   UNL A   1      44.695  34.106  32.792  1.00  0.00     0.040 A 
ATOM     84  C   UNL A   1      44.995  34.811  30.509  1.00  0.00     0.040 A 
ATOM     85  F   UNL A   1      44.760  33.266  28.761  1.00  0.00    -0.206 F 
ATOM     86  C   UNL A   1      44.969  35.114  31.869  1.00  0.00     0.006 A 
ENDBRANCH  62  79
ENDBRANCH  36  37
ENDBRANCH  28  31
ENDBRANCH  26  27
ENDBRANCH  25  26
ENDBRANCH  24  25
ENDBRANCH   1  24
TORSDOF 15
ENDMDL
MODEL 3
REMARK VINA RESULT:     -11.2      1.533      6.239
REMARK SMILES C[C@H](CC(=O)NCCCCNC(=O)c1ccc(-c2c3nc(c(-c4c(F)cccc4F)c4ccc([nH]4)c(-c4c(F)cccc4F)c4nc(c(-c5c(F)cccc5F)c5ccc2[nH]5)C=C4)C=C3)cc1)NC(=O)Cn1nc2ccccn2c1=O
REMARK SMILES IDX 7 1 6 2 4 3 5 4 3 6 2 7 1 8 68 9 69 10 70 12 71 13 72 14
REMARK SMILES IDX 73 15 80 16 74 17 79 18 81 19 75 20 78 21 76 22 77 23 8 24
REMARK SMILES IDX 9 25 10 26 11 27 12 28 13 30 14 31 15 32 67 33 16 34 66 35
REMARK SMILES IDX 17 36 18 37 19 38 60 39 20 40 65 41 59 42 61 43 21 44 64 45
REMARK SMILES IDX 58 46 57 47 22 49 48 50 31 51 47 52 32 53 35 54 46 55 62 56
REMARK SMILES IDX 33 57 34 58 45 60 63 61 36 62 23 63 24 64 29 65 25 66 26 67
REMARK SMILES IDX 28 68 30 69 27 70 49 71 50 72 55 73 51 74 52 75 54 76 56 77
REMARK SMILES IDX 53 78 37 79 38 80 43 81 39 82 40 83 42 84 44 85 41 86
REMARK H PARENT 6 5 68 11 11 29 61 48 35 59
REMARK Flexibility Score: inf
ROOT
ATOM      1  C   UNL A   1      37.226  22.716  25.455  1.00  0.00     0.116 C 
ENDROOT
BRANCH   1   2
ATOM      2  N   UNL A   1      36.239  22.498  26.490  1.00  0.00    -0.356 N 
ATOM      3  C   UNL A   1      34.970  22.983  26.583  1.00  0.00     0.222 C 
ATOM      4  O   UNL A   1      34.332  22.744  27.610  1.00  0.00    -0.275 OA
ATOM      5  H   UNL A   1      36.524  21.918  27.233  1.00  0.00     0.163 HD
BRANCH   3   6
ATOM      6  C   UNL A   1      34.348  23.764  25.440  1.00  0.00     0.124 C 
BRANCH   6   7
ATOM      7  C   UNL A   1      33.035  23.220  24.842  1.00  0.00     0.088 C 
ATOM      8  C   UNL A   1      33.255  22.064  23.867  1.00  0.00     0.031 C 
BRANCH   7   9
ATOM      9  N   UNL A   1      32.074  22.851  25.884  1.00  0.00    -0.352 N 
ATOM     10  C   UNL A   1      30.999  23.523  26.394  1.00  0.00     0.242 C 
ATOM     11  H   UNL A   1      32.228  21.965  26.285  1.00  0.00     0.163 HD
ATOM     12  O   UNL A   1      30.594  23.148  27.500  1.00  0.00    -0.273 OA
BRANCH  10  13
ATOM     13  C   UNL A   1      30.267  24.602  25.597  1.00  0.00     0.249 C 
BRANCH  13  14
ATOM     14  N   UNL A   1      30.840  25.921  25.690  1.00  0.00    -0.203 N 
ATOM     15  N   UNL A   1      31.280  26.457  26.878  1.00  0.00    -0.149 NA
ATOM     16  C   UNL A   1      30.963  26.860  24.652  1.00  0.00     0.350 A 
ATOM     17  C   UNL A   1      31.569  27.681  26.573  1.00  0.00     0.161 A 
ATOM     18  N   UNL A   1      31.419  28.001  25.268  1.00  0.00    -0.250 N 
ATOM     19  O   UNL A   1      30.696  26.703  23.468  1.00  0.00    -0.246 OA
ATOM     20  C   UNL A   1      31.974  28.744  27.515  1.00  0.00     0.050 A 
ATOM     21  C   UNL A   1      31.641  29.246  24.754  1.00  0.00     0.098 A 
ATOM     22  C   UNL A   1      31.880  30.000  27.042  1.00  0.00     0.005 A 
ATOM     23  C   UNL A   1      31.862  30.254  25.609  1.00  0.00     0.019 A 
ENDBRANCH  13  14
ENDBRANCH  10  13
ENDBRANCH   7   9
ENDBRANCH   6   7
ENDBRANCH   3   6
ENDBRANCH   1   2
BRANCH   1  24
ATOM     24  C   UNL A   1      37.253  21.539  24.481  1.00  0.00     0.023 C 
BRANCH  24  25
ATOM     25  C   UNL A   1      37.927  20.279  25.007  1.00  0.00     0.023 C 
BRANCH  25  26
ATOM     26  C   UNL A   1      39.218  20.522  25.767  1.00  0.00     0.116 C 
BRANCH  26  27
ATOM     27  N   UNL A   1      40.078  19.349  25.828  1.00  0.00    -0.352 N 
ATOM     28  C   UNL A   1      41.424  19.287  26.102  1.00  0.00     0.251 C 
ATOM     29  H   UNL A   1      39.638  18.486  25.650  1.00  0.00     0.163 HD
ATOM     30  O   UNL A   1      42.039  18.234  25.998  1.00  0.00    -0.269 OA
BRANCH  28  31
ATOM     31  C   UNL A   1      42.128  20.528  26.479  1.00  0.00     0.039 A 
ATOM     32  C   UNL A   1      42.697  21.313  25.476  1.00  0.00     0.014 A 
ATOM     33  C   UNL A   1      42.149  20.948  27.812  1.00  0.00     0.014 A 
ATOM     34  C   UNL A   1      43.216  22.566  25.802  1.00  0.00     0.010 A 
ATOM     35  C   UNL A   1      42.575  22.235  28.116  1.00  0.00     0.010 A 
ATOM     36  C   UNL A   1      43.112  23.056  27.114  1.00  0.00    -0.014 A 
BRANCH  36  37
ATOM     37  C   UNL A   1      43.548  24.431  27.458  1.00  0.00     0.031 A 
ATOM     38  C   UNL A   1      42.533  25.468  27.848  1.00  0.00     0.074 A 
ATOM     39  C   UNL A   1      44.850  24.763  27.346  1.00  0.00     0.049 A 
ATOM     40  N   UNL A   1      42.710  26.735  28.121  1.00  0.00    -0.248 NA
ATOM     41  C   UNL A   1      41.129  25.030  27.910  1.00  0.00     0.031 C 
ATOM     42  C   UNL A   1      45.922  23.861  26.918  1.00  0.00     0.029 A 
ATOM     43  N   UNL A   1      45.492  25.953  27.576  1.00  0.00    -0.354 N 
ATOM     44  C   UNL A   1      41.443  27.246  28.373  1.00  0.00     0.074 A 
ATOM     45  C   UNL A   1      40.502  26.169  28.159  1.00  0.00     0.031 C 
ATOM     46  C   UNL A   1      47.090  24.521  26.945  1.00  0.00     0.029 A 
ATOM     47  C   UNL A   1      46.847  25.901  27.351  1.00  0.00     0.049 A 
ATOM     48  H   UNL A   1      45.026  26.768  27.875  1.00  0.00     0.167 HD
ATOM     49  C   UNL A   1      41.099  28.492  28.773  1.00  0.00     0.037 A 
ATOM     50  C   UNL A   1      47.785  26.862  27.452  1.00  0.00     0.037 A 
ATOM     51  C   UNL A   1      42.043  29.553  29.006  1.00  0.00     0.049 A 
ATOM     52  C   UNL A   1      47.375  28.240  27.890  1.00  0.00     0.074 A 
ATOM     53  C   UNL A   1      41.803  30.831  29.476  1.00  0.00     0.029 A 
ATOM     54  N   UNL A   1      43.407  29.459  28.780  1.00  0.00    -0.354 N 
ATOM     55  N   UNL A   1      46.183  28.689  28.203  1.00  0.00    -0.248 NA
ATOM     56  C   UNL A   1      48.442  29.246  27.996  1.00  0.00     0.031 C 
ATOM     57  C   UNL A   1      43.015  31.527  29.485  1.00  0.00     0.029 A 
ATOM     58  C   UNL A   1      44.020  30.666  29.073  1.00  0.00     0.049 A 
ATOM     59  H   UNL A   1      43.873  28.653  28.458  1.00  0.00     0.167 HD
ATOM     60  C   UNL A   1      46.360  30.018  28.565  1.00  0.00     0.074 A 
ATOM     61  C   UNL A   1      47.776  30.297  28.452  1.00  0.00     0.031 C 
ATOM     62  C   UNL A   1      45.432  30.926  28.955  1.00  0.00     0.037 A 
BRANCH  49  63
ATOM     63  C   UNL A   1      39.639  28.771  28.987  1.00  0.00     0.057 A 
ATOM     64  C   UNL A   1      39.021  28.573  30.230  1.00  0.00     0.134 A 
ATOM     65  C   UNL A   1      38.847  29.272  27.947  1.00  0.00     0.134 A 
ATOM     66  F   UNL A   1      39.719  28.082  31.265  1.00  0.00    -0.206 F 
ATOM     67  C   UNL A   1      37.664  28.836  30.422  1.00  0.00     0.040 A 
ATOM     68  C   UNL A   1      37.496  29.568  28.135  1.00  0.00     0.040 A 
ATOM     69  F   UNL A   1      39.374  29.491  26.732  1.00  0.00    -0.206 F 
ATOM     70  C   UNL A   1      36.899  29.344  29.373  1.00  0.00     0.006 A 
ENDBRANCH  49  63
BRANCH  50  71
ATOM     71  C   UNL A   1      49.206  26.550  27.152  1.00  0.00     0.057 A 
ATOM     72  C   UNL A   1      49.744  26.781  25.881  1.00  0.00     0.134 A 
ATOM     73  C   UNL A   1      50.058  26.009  28.123  1.00  0.00     0.134 A 
ATOM     74  F   UNL A   1      48.973  27.282  24.904  1.00  0.00    -0.206 F 
ATOM     75  C   UNL A   1      51.069  26.466  25.578  1.00  0.00     0.040 A 
ATOM     76  C   UNL A   1      51.393  25.716  27.842  1.00  0.00     0.040 A 
ATOM     77  F   UNL A   1      49.607  25.773  29.364  1.00  0.00    -0.206 F 
ATOM     78  C   UNL A   1      51.900  25.936  26.564  1.00  0.00     0.006 A 
ENDBRANCH  50  71
BRANCH  62  79
ATOM     79  C   UNL A   1      45.924  32.299  29.314  1.00  0.00     0.057 A 
ATOM     80  C   UNL A   1      46.331  32.623  30.614  1.00  0.00     0.134 A 
ATOM     81  C   UNL A   1      46.025  33.297  28.336  1.00  0.00     0.134 A 
ATOM     82  F   UNL A   1      46.247  31.715  31.599  1.00  0.00    -0.206 F 
ATOM     83  C   UNL A   1      46.798  33.897  30.935  1.00  0.00     0.040 A 
ATOM     84  C   UNL A   1      46.519  34.566  28.639  1.00  0.00     0.040 A 
ATOM     85  F   UNL A   1      45.661  33.050  27.069  1.00  0.00    -0.206 F 
ATOM     86  C   UNL A   1      46.901  34.871  29.943  1.00  0.00     0.006 A 
ENDBRANCH  62  79
ENDBRANCH  36  37
ENDBRANCH  28  31
ENDBRANCH  26  27
ENDBRANCH  25  26
ENDBRANCH  24  25
ENDBRANCH   1  24
TORSDOF 15
ENDMDL
