MODEL 1
REMARK VINA RESULT:     -11.7      0.000      0.000
REMARK SMILES O=C1NC[C@@H](CSc2ccnc(C(=O)NCCCCNC(=O)c3ccc(-c4c5nc(c(-c6c(F)cccc6F)c6ccc([nH]6)c(-c6c(F)cccc6F)c6nc(c(-c7c(F)cccc7F)c7ccc4[nH]7)C=C6)C=C5)cc3)c2)O1
REMARK SMILES IDX 17 1 16 2 15 3 13 4 14 5 12 7 8 8 9 9 77 10 10 11 11 12 7 13
REMARK SMILES IDX 6 14 5 15 1 16 2 17 3 18 78 19 4 20 18 22 19 23 20 24 21 25
REMARK SMILES IDX 22 27 23 28 24 29 76 30 25 31 75 32 26 33 27 34 28 35 69 36
REMARK SMILES IDX 29 37 74 38 68 39 70 40 30 41 73 42 67 43 66 44 31 46 57 47
REMARK SMILES IDX 40 48 56 49 41 50 44 51 55 52 71 53 42 54 43 55 54 57 72 58
REMARK SMILES IDX 45 59 32 60 33 61 38 62 34 63 35 64 37 65 39 66 36 67 58 68
REMARK SMILES IDX 59 69 64 70 60 71 61 72 63 73 65 74 62 75 46 76 47 77 52 78
REMARK SMILES IDX 48 79 49 80 51 81 53 82 50 83
REMARK H PARENT 15 6 3 21 20 26 70 45 44 56
REMARK Flexibility Score: inf
ROOT
ATOM      1  C   UNL A   1      37.248  21.084  24.443  1.00  0.00     0.023 C 
ENDROOT
BRANCH   1   2
ATOM      2  C   UNL A   1      37.077  22.243  25.429  1.00  0.00     0.116 C 
BRANCH   2   3
ATOM      3  N   UNL A   1      36.142  21.853  26.464  1.00  0.00    -0.351 N 
ATOM      4  C   UNL A   1      34.780  21.647  26.452  1.00  0.00     0.269 C 
ATOM      5  O   UNL A   1      34.244  21.438  27.541  1.00  0.00    -0.268 OA
ATOM      6  H   UNL A   1      36.560  21.707  27.344  1.00  0.00     0.163 HD
BRANCH   4   7
ATOM      7  C   UNL A   1      33.974  21.582  25.185  1.00  0.00     0.129 A 
ATOM      8  C   UNL A   1      32.681  20.436  23.538  1.00  0.00     0.011 A 
ATOM      9  C   UNL A   1      32.082  21.648  23.211  1.00  0.00     0.035 A 
ATOM     10  C   UNL A   1      33.678  20.408  24.509  1.00  0.00     0.049 A 
ATOM     11  C   UNL A   1      32.547  22.794  23.819  1.00  0.00     0.113 A 
ATOM     12  N   UNL A   1      33.467  22.784  24.800  1.00  0.00    -0.251 NA
BRANCH   8  13
ATOM     13  S   UNL A   1      32.027  18.918  22.878  1.00  0.00    -0.122 SA
BRANCH  13  14
ATOM     14  C   UNL A   1      33.454  17.777  23.024  1.00  0.00     0.122 C 
BRANCH  14  15
ATOM     15  C   UNL A   1      33.289  16.559  23.946  1.00  0.00     0.208 C 
ATOM     16  O   UNL A   1      36.089  15.473  25.649  1.00  0.00    -0.225 OA
ATOM     17  C   UNL A   1      35.001  15.889  25.286  1.00  0.00     0.407 C 
ATOM     18  N   UNL A   1      34.105  16.527  26.090  1.00  0.00    -0.318 N 
ATOM     19  O   UNL A   1      34.500  15.785  24.022  1.00  0.00    -0.443 OA
ATOM     20  C   UNL A   1      32.922  16.868  25.384  1.00  0.00     0.165 C 
ATOM     21  H   UNL A   1      34.258  16.725  27.043  1.00  0.00     0.167 HD
ENDBRANCH  14  15
ENDBRANCH  13  14
ENDBRANCH   8  13
ENDBRANCH   4   7
ENDBRANCH   2   3
ENDBRANCH   1   2
BRANCH   1  22
ATOM     22  C   UNL A   1      37.965  19.874  25.049  1.00  0.00     0.023 C 
BRANCH  22  23
ATOM     23  C   UNL A   1      39.195  20.221  25.878  1.00  0.00     0.116 C 
BRANCH  23  24
ATOM     24  N   UNL A   1      40.202  19.171  25.868  1.00  0.00    -0.352 N 
ATOM     25  C   UNL A   1      41.551  19.284  26.095  1.00  0.00     0.251 C 
ATOM     26  H   UNL A   1      39.874  18.263  25.674  1.00  0.00     0.163 HD
ATOM     27  O   UNL A   1      42.296  18.327  25.919  1.00  0.00    -0.269 OA
BRANCH  25  28
ATOM     28  C   UNL A   1      42.093  20.589  26.516  1.00  0.00     0.039 A 
ATOM     29  C   UNL A   1      42.541  21.476  25.539  1.00  0.00     0.014 A 
ATOM     30  C   UNL A   1      42.104  20.948  27.867  1.00  0.00     0.014 A 
ATOM     31  C   UNL A   1      42.949  22.755  25.914  1.00  0.00     0.010 A 
ATOM     32  C   UNL A   1      42.427  22.250  28.228  1.00  0.00     0.010 A 
ATOM     33  C   UNL A   1      42.860  23.164  27.257  1.00  0.00    -0.014 A 
BRANCH  33  34
ATOM     34  C   UNL A   1      43.216  24.548  27.651  1.00  0.00     0.031 A 
ATOM     35  C   UNL A   1      44.654  24.987  27.660  1.00  0.00     0.074 A 
ATOM     36  C   UNL A   1      42.244  25.396  28.039  1.00  0.00     0.049 A 
ATOM     37  N   UNL A   1      45.158  26.153  27.973  1.00  0.00    -0.248 NA
ATOM     38  C   UNL A   1      45.660  23.976  27.295  1.00  0.00     0.031 C 
ATOM     39  C   UNL A   1      40.820  25.067  28.131  1.00  0.00     0.029 A 
ATOM     40  N   UNL A   1      42.306  26.711  28.426  1.00  0.00    -0.354 N 
ATOM     41  C   UNL A   1      46.534  26.014  27.847  1.00  0.00     0.074 A 
ATOM     42  C   UNL A   1      46.791  24.635  27.497  1.00  0.00     0.031 C 
ATOM     43  C   UNL A   1      40.139  26.160  28.508  1.00  0.00     0.029 A 
ATOM     44  C   UNL A   1      41.080  27.255  28.723  1.00  0.00     0.049 A 
ATOM     45  H   UNL A   1      43.148  27.217  28.485  1.00  0.00     0.167 HD
ATOM     46  C   UNL A   1      47.496  26.958  27.982  1.00  0.00     0.037 A 
ATOM     47  C   UNL A   1      40.752  28.498  29.124  1.00  0.00     0.037 A 
ATOM     48  C   UNL A   1      47.232  28.333  28.317  1.00  0.00     0.049 A 
ATOM     49  C   UNL A   1      41.840  29.526  29.277  1.00  0.00     0.074 A 
ATOM     50  C   UNL A   1      48.129  29.381  28.425  1.00  0.00     0.029 A 
ATOM     51  N   UNL A   1      45.978  28.847  28.609  1.00  0.00    -0.354 N 
ATOM     52  N   UNL A   1      43.130  29.402  29.073  1.00  0.00    -0.248 NA
ATOM     53  C   UNL A   1      41.425  30.867  29.704  1.00  0.00     0.031 C 
ATOM     54  C   UNL A   1      47.425  30.517  28.836  1.00  0.00     0.029 A 
ATOM     55  C   UNL A   1      46.081  30.193  28.922  1.00  0.00     0.049 A 
ATOM     56  H   UNL A   1      45.138  28.333  28.594  1.00  0.00     0.167 HD
ATOM     57  C   UNL A   1      43.676  30.654  29.319  1.00  0.00     0.074 A 
ATOM     58  C   UNL A   1      42.573  31.528  29.666  1.00  0.00     0.031 C 
ATOM     59  C   UNL A   1      44.972  31.049  29.264  1.00  0.00     0.037 A 
BRANCH  46  60
ATOM     60  C   UNL A   1      48.920  26.533  27.763  1.00  0.00     0.057 A 
ATOM     61  C   UNL A   1      49.734  26.095  28.816  1.00  0.00     0.134 A 
ATOM     62  C   UNL A   1      49.477  26.532  26.477  1.00  0.00     0.134 A 
ATOM     63  F   UNL A   1      49.269  26.083  30.075  1.00  0.00    -0.206 F 
ATOM     64  C   UNL A   1      51.055  25.700  28.605  1.00  0.00     0.040 A 
ATOM     65  C   UNL A   1      50.787  26.110  26.248  1.00  0.00     0.040 A 
ATOM     66  F   UNL A   1      48.754  26.934  25.420  1.00  0.00    -0.206 F 
ATOM     67  C   UNL A   1      51.583  25.698  27.316  1.00  0.00     0.006 A 
ENDBRANCH  46  60
BRANCH  47  68
ATOM     68  C   UNL A   1      39.333  28.849  29.384  1.00  0.00     0.057 A 
ATOM     69  C   UNL A   1      38.758  28.661  30.646  1.00  0.00     0.134 A 
ATOM     70  C   UNL A   1      38.511  29.369  28.376  1.00  0.00     0.134 A 
ATOM     71  F   UNL A   1      39.487  28.151  31.650  1.00  0.00    -0.206 F 
ATOM     72  C   UNL A   1      37.414  28.949  30.890  1.00  0.00     0.040 A 
ATOM     73  C   UNL A   1      37.174  29.689  28.613  1.00  0.00     0.040 A 
ATOM     74  F   UNL A   1      39.003  29.584  27.146  1.00  0.00    -0.206 F 
ATOM     75  C   UNL A   1      36.620  29.470  29.872  1.00  0.00     0.006 A 
ENDBRANCH  47  68
BRANCH  59  76
ATOM     76  C   UNL A   1      45.261  32.495  29.550  1.00  0.00     0.057 A 
ATOM     77  C   UNL A   1      45.589  32.948  30.835  1.00  0.00     0.134 A 
ATOM     78  C   UNL A   1      45.236  33.442  28.518  1.00  0.00     0.134 A 
ATOM     79  F   UNL A   1      45.620  32.094  31.870  1.00  0.00    -0.206 F 
ATOM     80  C   UNL A   1      45.847  34.296  31.089  1.00  0.00     0.040 A 
ATOM     81  C   UNL A   1      45.526  34.787  28.754  1.00  0.00     0.040 A 
ATOM     82  F   UNL A   1      44.942  33.076  27.262  1.00  0.00    -0.206 F 
ATOM     83  C   UNL A   1      45.822  35.219  30.045  1.00  0.00     0.006 A 
ENDBRANCH  59  76
ENDBRANCH  33  34
ENDBRANCH  25  28
ENDBRANCH  23  24
ENDBRANCH  22  23
ENDBRANCH   1  22
TORSDOF 14
ENDMDL
MODEL 2
REMARK VINA RESULT:     -11.4      2.232      3.584
REMARK SMILES O=C1NC[C@@H](CSc2ccnc(C(=O)NCCCCNC(=O)c3ccc(-c4c5nc(c(-c6c(F)cccc6F)c6ccc([nH]6)c(-c6c(F)cccc6F)c6nc(c(-c7c(F)cccc7F)c7ccc4[nH]7)C=C6)C=C5)cc3)c2)O1
REMARK SMILES IDX 17 1 16 2 15 3 13 4 14 5 12 7 8 8 9 9 77 10 10 11 11 12 7 13
REMARK SMILES IDX 6 14 5 15 1 16 2 17 3 18 78 19 4 20 18 22 19 23 20 24 21 25
REMARK SMILES IDX 22 27 23 28 24 29 76 30 25 31 75 32 26 33 27 34 28 35 69 36
REMARK SMILES IDX 29 37 74 38 68 39 70 40 30 41 73 42 67 43 66 44 31 46 57 47
REMARK SMILES IDX 40 48 56 49 41 50 44 51 55 52 71 53 42 54 43 55 54 57 72 58
REMARK SMILES IDX 45 59 32 60 33 61 38 62 34 63 35 64 37 65 39 66 36 67 58 68
REMARK SMILES IDX 59 69 64 70 60 71 61 72 63 73 65 74 62 75 46 76 47 77 52 78
REMARK SMILES IDX 48 79 49 80 51 81 53 82 50 83
REMARK H PARENT 15 6 3 21 20 26 70 45 44 56
REMARK Flexibility Score: inf
ROOT
ATOM      1  C   UNL A   1      36.714  21.288  24.669  1.00  0.00     0.023 C 
ENDROOT
BRANCH   1   2
ATOM      2  C   UNL A   1      35.694  21.491  25.792  1.00  0.00     0.116 C 
BRANCH   2   3
ATOM      3  N   UNL A   1      34.797  20.354  25.832  1.00  0.00    -0.351 N 
ATOM      4  C   UNL A   1      33.476  20.205  25.475  1.00  0.00     0.269 C 
ATOM      5  O   UNL A   1      32.949  19.125  25.749  1.00  0.00    -0.268 OA
ATOM      6  H   UNL A   1      35.213  19.532  26.179  1.00  0.00     0.163 HD
BRANCH   4   7
ATOM      7  C   UNL A   1      32.711  21.249  24.710  1.00  0.00     0.129 A 
ATOM      8  C   UNL A   1      31.949  23.478  24.326  1.00  0.00     0.011 A 
ATOM      9  C   UNL A   1      31.781  23.155  22.984  1.00  0.00     0.035 A 
ATOM     10  C   UNL A   1      32.378  22.496  25.215  1.00  0.00     0.049 A 
ATOM     11  C   UNL A   1      31.984  21.849  22.593  1.00  0.00     0.113 A 
ATOM     12  N   UNL A   1      32.452  20.899  23.421  1.00  0.00    -0.251 NA
BRANCH   8  13
ATOM     13  S   UNL A   1      31.827  25.174  24.851  1.00  0.00    -0.122 SA
BRANCH  13  14
ATOM     14  C   UNL A   1      33.362  25.909  24.172  1.00  0.00     0.122 C 
BRANCH  14  15
ATOM     15  C   UNL A   1      33.224  26.802  22.930  1.00  0.00     0.208 C 
ATOM     16  O   UNL A   1      32.990  25.225  19.867  1.00  0.00    -0.225 OA
ATOM     17  C   UNL A   1      32.839  25.879  20.887  1.00  0.00     0.407 C 
ATOM     18  N   UNL A   1      31.654  26.404  21.304  1.00  0.00    -0.318 N 
ATOM     19  O   UNL A   1      33.827  26.194  21.773  1.00  0.00    -0.443 OA
ATOM     20  C   UNL A   1      31.806  27.133  22.513  1.00  0.00     0.165 C 
ATOM     21  H   UNL A   1      30.799  26.294  20.828  1.00  0.00     0.167 HD
ENDBRANCH  14  15
ENDBRANCH  13  14
ENDBRANCH   8  13
ENDBRANCH   4   7
ENDBRANCH   2   3
ENDBRANCH   1   2
BRANCH   1  22
ATOM     22  C   UNL A   1      37.675  20.124  24.926  1.00  0.00     0.023 C 
BRANCH  22  23
ATOM     23  C   UNL A   1      38.896  20.489  25.760  1.00  0.00     0.116 C 
BRANCH  23  24
ATOM     24  N   UNL A   1      39.926  19.460  25.742  1.00  0.00    -0.352 N 
ATOM     25  C   UNL A   1      41.253  19.580  26.067  1.00  0.00     0.251 C 
ATOM     26  H   UNL A   1      39.632  18.564  25.461  1.00  0.00     0.163 HD
ATOM     27  O   UNL A   1      42.031  18.653  25.873  1.00  0.00    -0.269 OA
BRANCH  25  28
ATOM     28  C   UNL A   1      41.737  20.860  26.619  1.00  0.00     0.039 A 
ATOM     29  C   UNL A   1      42.164  21.851  25.737  1.00  0.00     0.014 A 
ATOM     30  C   UNL A   1      41.713  21.090  27.997  1.00  0.00     0.014 A 
ATOM     31  C   UNL A   1      42.515  23.104  26.237  1.00  0.00     0.010 A 
ATOM     32  C   UNL A   1      41.978  22.364  28.484  1.00  0.00     0.010 A 
ATOM     33  C   UNL A   1      42.388  23.381  27.611  1.00  0.00    -0.014 A 
BRANCH  33  34
ATOM     34  C   UNL A   1      42.683  24.734  28.140  1.00  0.00     0.031 A 
ATOM     35  C   UNL A   1      44.088  25.108  28.524  1.00  0.00     0.074 A 
ATOM     36  C   UNL A   1      41.675  25.612  28.308  1.00  0.00     0.049 A 
ATOM     37  N   UNL A   1      44.538  26.240  29.001  1.00  0.00    -0.248 NA
ATOM     38  C   UNL A   1      45.116  24.066  28.378  1.00  0.00     0.031 C 
ATOM     39  C   UNL A   1      40.263  25.344  28.030  1.00  0.00     0.029 A 
ATOM     40  N   UNL A   1      41.685  26.910  28.754  1.00  0.00    -0.354 N 
ATOM     41  C   UNL A   1      45.896  26.044  29.216  1.00  0.00     0.074 A 
ATOM     42  C   UNL A   1      46.184  24.667  28.883  1.00  0.00     0.031 C 
ATOM     43  C   UNL A   1      39.548  26.454  28.272  1.00  0.00     0.029 A 
ATOM     44  C   UNL A   1      40.443  27.498  28.760  1.00  0.00     0.049 A 
ATOM     45  H   UNL A   1      42.503  27.376  29.042  1.00  0.00     0.167 HD
ATOM     46  C   UNL A   1      46.826  26.940  29.625  1.00  0.00     0.037 A 
ATOM     47  C   UNL A   1      40.070  28.741  29.118  1.00  0.00     0.037 A 
ATOM     48  C   UNL A   1      46.535  28.313  29.942  1.00  0.00     0.049 A 
ATOM     49  C   UNL A   1      41.120  29.714  29.580  1.00  0.00     0.074 A 
ATOM     50  C   UNL A   1      47.414  29.316  30.313  1.00  0.00     0.029 A 
ATOM     51  N   UNL A   1      45.267  28.873  29.933  1.00  0.00    -0.354 N 
ATOM     52  N   UNL A   1      42.415  29.539  29.698  1.00  0.00    -0.248 NA
ATOM     53  C   UNL A   1      40.659  31.058  29.947  1.00  0.00     0.031 C 
ATOM     54  C   UNL A   1      46.669  30.469  30.584  1.00  0.00     0.029 A 
ATOM     55  C   UNL A   1      45.336  30.203  30.319  1.00  0.00     0.049 A 
ATOM     56  H   UNL A   1      44.440  28.398  29.689  1.00  0.00     0.167 HD
ATOM     57  C   UNL A   1      42.926  30.758  30.125  1.00  0.00     0.074 A 
ATOM     58  C   UNL A   1      41.802  31.668  30.223  1.00  0.00     0.031 C 
ATOM     59  C   UNL A   1      44.208  31.096  30.410  1.00  0.00     0.037 A 
BRANCH  46  60
ATOM     60  C   UNL A   1      48.244  26.459  29.749  1.00  0.00     0.057 A 
ATOM     61  C   UNL A   1      48.727  25.870  30.925  1.00  0.00     0.134 A 
ATOM     62  C   UNL A   1      49.130  26.557  28.668  1.00  0.00     0.134 A 
ATOM     63  F   UNL A   1      47.936  25.756  32.004  1.00  0.00    -0.206 F 
ATOM     64  C   UNL A   1      50.045  25.424  31.033  1.00  0.00     0.040 A 
ATOM     65  C   UNL A   1      50.442  26.086  28.753  1.00  0.00     0.040 A 
ATOM     66  F   UNL A   1      48.734  27.106  27.509  1.00  0.00    -0.206 F 
ATOM     67  C   UNL A   1      50.904  25.524  29.941  1.00  0.00     0.006 A 
ENDBRANCH  46  60
BRANCH  47  68
ATOM     68  C   UNL A   1      38.643  29.147  29.032  1.00  0.00     0.057 A 
ATOM     69  C   UNL A   1      37.800  29.074  30.146  1.00  0.00     0.134 A 
ATOM     70  C   UNL A   1      38.085  29.604  27.832  1.00  0.00     0.134 A 
ATOM     71  F   UNL A   1      38.270  28.630  31.321  1.00  0.00    -0.206 F 
ATOM     72  C   UNL A   1      36.448  29.414  30.065  1.00  0.00     0.040 A 
ATOM     73  C   UNL A   1      36.742  29.975  27.743  1.00  0.00     0.040 A 
ATOM     74  F   UNL A   1      38.841  29.707  26.729  1.00  0.00    -0.206 F 
ATOM     75  C   UNL A   1      35.918  29.871  28.862  1.00  0.00     0.006 A 
ENDBRANCH  47  68
BRANCH  59  76
ATOM     76  C   UNL A   1      44.466  32.517  30.820  1.00  0.00     0.057 A 
ATOM     77  C   UNL A   1      44.510  32.908  32.165  1.00  0.00     0.134 A 
ATOM     78  C   UNL A   1      44.701  33.504  29.853  1.00  0.00     0.134 A 
ATOM     79  F   UNL A   1      44.283  32.014  33.140  1.00  0.00    -0.206 F 
ATOM     80  C   UNL A   1      44.744  34.234  32.532  1.00  0.00     0.040 A 
ATOM     81  C   UNL A   1      44.969  34.826  30.210  1.00  0.00     0.040 A 
ATOM     82  F   UNL A   1      44.686  33.197  28.548  1.00  0.00    -0.206 F 
ATOM     83  C   UNL A   1      44.980  35.197  31.553  1.00  0.00     0.006 A 
ENDBRANCH  59  76
ENDBRANCH  33  34
ENDBRANCH  25  28
ENDBRANCH  23  24
ENDBRANCH  22  23
ENDBRANCH   1  22
TORSDOF 14
ENDMDL
MODEL 3
REMARK VINA RESULT:     -11.4      6.405     11.262
REMARK SMILES O=C1NC[C@@H](CSc2ccnc(C(=O)NCCCCNC(=O)c3ccc(-c4c5nc(c(-c6c(F)cccc6F)c6ccc([nH]6)c(-c6c(F)cccc6F)c6nc(c(-c7c(F)cccc7F)c7ccc4[nH]7)C=C6)C=C5)cc3)c2)O1
REMARK SMILES IDX 17 1 16 2 15 3 13 4 14 5 12 7 8 8 9 9 77 10 10 11 11 12 7 13
REMARK SMILES IDX 6 14 5 15 1 16 2 17 3 18 78 19 4 20 18 22 19 23 20 24 21 25
REMARK SMILES IDX 22 27 23 28 24 29 76 30 25 31 75 32 26 33 27 34 28 35 69 36
REMARK SMILES IDX 29 37 74 38 68 39 70 40 30 41 73 42 67 43 66 44 31 46 57 47
REMARK SMILES IDX 40 48 56 49 41 50 44 51 55 52 71 53 42 54 43 55 54 57 72 58
REMARK SMILES IDX 45 59 32 60 33 61 38 62 34 63 35 64 37 65 39 66 36 67 58 68
REMARK SMILES IDX 59 69 64 70 60 71 61 72 63 73 65 74 62 75 46 76 47 77 52 78
REMARK SMILES IDX 48 79 49 80 51 81 53 82 50 83
REMARK H PARENT 15 6 3 21 20 26 70 45 44 56
REMARK Flexibility Score: inf
ROOT
ATOM      1  C   UNL A   1      31.714  30.815  25.946  1.00  0.00     0.023 C 
ENDROOT
BRANCH   1   2
ATOM      2  C   UNL A   1      33.024  30.093  26.268  1.00  0.00     0.116 C 
BRANCH   2   3
ATOM      3  N   UNL A   1      33.552  29.498  25.057  1.00  0.00    -0.351 N 
ATOM      4  C   UNL A   1      33.147  28.420  24.303  1.00  0.00     0.269 C 
ATOM      5  O   UNL A   1      33.889  28.082  23.380  1.00  0.00    -0.268 OA
ATOM      6  H   UNL A   1      34.351  29.953  24.707  1.00  0.00     0.163 HD
BRANCH   4   7
ATOM      7  C   UNL A   1      31.830  27.724  24.510  1.00  0.00     0.129 A 
ATOM      8  C   UNL A   1      29.529  27.328  24.016  1.00  0.00     0.011 A 
ATOM      9  C   UNL A   1      29.664  26.055  24.559  1.00  0.00     0.035 A 
ATOM     10  C   UNL A   1      30.616  28.196  24.033  1.00  0.00     0.049 A 
ATOM     11  C   UNL A   1      30.861  25.722  25.157  1.00  0.00     0.113 A 
ATOM     12  N   UNL A   1      31.942  26.521  25.134  1.00  0.00    -0.251 NA
BRANCH   8  13
ATOM     13  S   UNL A   1      28.051  27.756  23.121  1.00  0.00    -0.122 SA
BRANCH  13  14
ATOM     14  C   UNL A   1      27.861  29.539  23.501  1.00  0.00     0.122 C 
BRANCH  14  15
ATOM     15  C   UNL A   1      27.858  30.514  22.314  1.00  0.00     0.208 C 
ATOM     16  O   UNL A   1      28.493  33.839  22.999  1.00  0.00    -0.225 OA
ATOM     17  C   UNL A   1      28.480  32.683  22.606  1.00  0.00     0.407 C 
ATOM     18  N   UNL A   1      29.525  32.059  21.994  1.00  0.00    -0.318 N 
ATOM     19  O   UNL A   1      27.423  31.828  22.711  1.00  0.00    -0.443 OA
ATOM     20  C   UNL A   1      29.195  30.726  21.634  1.00  0.00     0.165 C 
ATOM     21  H   UNL A   1      30.399  32.479  21.822  1.00  0.00     0.167 HD
ENDBRANCH  14  15
ENDBRANCH  13  14
ENDBRANCH   8  13
ENDBRANCH   4   7
ENDBRANCH   2   3
ENDBRANCH   1   2
BRANCH   1  22
ATOM     22  C   UNL A   1      31.433  32.003  26.870  1.00  0.00     0.023 C 
BRANCH  22  23
ATOM     23  C   UNL A   1      32.670  32.805  27.257  1.00  0.00     0.116 C 
BRANCH  23  24
ATOM     24  N   UNL A   1      32.364  34.179  27.627  1.00  0.00    -0.352 N 
ATOM     25  C   UNL A   1      32.981  34.962  28.570  1.00  0.00     0.251 C 
ATOM     26  H   UNL A   1      31.619  34.599  27.140  1.00  0.00     0.163 HD
ATOM     27  O   UNL A   1      32.523  36.060  28.867  1.00  0.00    -0.269 OA
BRANCH  25  28
ATOM     28  C   UNL A   1      34.183  34.443  29.249  1.00  0.00     0.039 A 
ATOM     29  C   UNL A   1      34.029  33.741  30.443  1.00  0.00     0.014 A 
ATOM     30  C   UNL A   1      35.446  34.606  28.673  1.00  0.00     0.014 A 
ATOM     31  C   UNL A   1      35.143  33.148  31.034  1.00  0.00     0.010 A 
ATOM     32  C   UNL A   1      36.538  33.942  29.216  1.00  0.00     0.010 A 
ATOM     33  C   UNL A   1      36.400  33.212  30.405  1.00  0.00    -0.014 A 
BRANCH  33  34
ATOM     34  C   UNL A   1      37.572  32.517  30.986  1.00  0.00     0.031 A 
ATOM     35  C   UNL A   1      38.186  33.007  32.268  1.00  0.00     0.074 A 
ATOM     36  C   UNL A   1      38.107  31.464  30.336  1.00  0.00     0.049 A 
ATOM     37  N   UNL A   1      39.210  32.530  32.928  1.00  0.00    -0.248 NA
ATOM     38  C   UNL A   1      37.588  34.207  32.875  1.00  0.00     0.031 C 
ATOM     39  C   UNL A   1      37.638  30.934  29.054  1.00  0.00     0.029 A 
ATOM     40  N   UNL A   1      39.161  30.651  30.665  1.00  0.00    -0.354 N 
ATOM     41  C   UNL A   1      39.380  33.372  34.019  1.00  0.00     0.074 A 
ATOM     42  C   UNL A   1      38.399  34.427  33.898  1.00  0.00     0.031 C 
ATOM     43  C   UNL A   1      38.374  29.861  28.726  1.00  0.00     0.029 A 
ATOM     44  C   UNL A   1      39.391  29.652  29.751  1.00  0.00     0.049 A 
ATOM     45  H   UNL A   1      39.703  30.772  31.479  1.00  0.00     0.167 HD
ATOM     46  C   UNL A   1      40.255  33.258  35.047  1.00  0.00     0.037 A 
ATOM     47  C   UNL A   1      40.318  28.675  29.742  1.00  0.00     0.037 A 
ATOM     48  C   UNL A   1      41.220  32.197  35.169  1.00  0.00     0.049 A 
ATOM     49  C   UNL A   1      41.286  28.577  30.890  1.00  0.00     0.074 A 
ATOM     50  C   UNL A   1      42.115  31.960  36.197  1.00  0.00     0.029 A 
ATOM     51  N   UNL A   1      41.421  31.202  34.225  1.00  0.00    -0.354 N 
ATOM     52  N   UNL A   1      41.381  29.331  31.959  1.00  0.00    -0.248 NA
ATOM     53  C   UNL A   1      42.267  27.487  30.834  1.00  0.00     0.031 C 
ATOM     54  C   UNL A   1      42.896  30.854  35.849  1.00  0.00     0.029 A 
ATOM     55  C   UNL A   1      42.445  30.362  34.635  1.00  0.00     0.049 A 
ATOM     56  H   UNL A   1      40.912  31.104  33.387  1.00  0.00     0.167 HD
ATOM     57  C   UNL A   1      42.411  28.790  32.716  1.00  0.00     0.074 A 
ATOM     58  C   UNL A   1      42.894  27.631  31.993  1.00  0.00     0.031 C 
ATOM     59  C   UNL A   1      42.913  29.212  33.903  1.00  0.00     0.037 A 
BRANCH  46  60
ATOM     60  C   UNL A   1      40.203  34.309  36.120  1.00  0.00     0.057 A 
ATOM     61  C   UNL A   1      40.967  35.481  36.047  1.00  0.00     0.134 A 
ATOM     62  C   UNL A   1      39.357  34.160  37.226  1.00  0.00     0.134 A 
ATOM     63  F   UNL A   1      41.810  35.682  35.022  1.00  0.00    -0.206 F 
ATOM     64  C   UNL A   1      40.912  36.453  37.047  1.00  0.00     0.040 A 
ATOM     65  C   UNL A   1      39.270  35.140  38.217  1.00  0.00     0.040 A 
ATOM     66  F   UNL A   1      38.593  33.065  37.359  1.00  0.00    -0.206 F 
ATOM     67  C   UNL A   1      40.055  36.288  38.132  1.00  0.00     0.006 A 
ENDBRANCH  46  60
BRANCH  47  68
ATOM     68  C   UNL A   1      40.362  27.697  28.625  1.00  0.00     0.057 A 
ATOM     69  C   UNL A   1      41.112  27.947  27.471  1.00  0.00     0.134 A 
ATOM     70  C   UNL A   1      39.645  26.495  28.677  1.00  0.00     0.134 A 
ATOM     71  F   UNL A   1      41.808  29.087  27.352  1.00  0.00    -0.206 F 
ATOM     72  C   UNL A   1      41.128  27.053  26.399  1.00  0.00     0.040 A 
ATOM     73  C   UNL A   1      39.675  25.578  27.626  1.00  0.00     0.040 A 
ATOM     74  F   UNL A   1      38.914  26.189  29.760  1.00  0.00    -0.206 F 
ATOM     75  C   UNL A   1      40.411  25.862  26.477  1.00  0.00     0.006 A 
ENDBRANCH  47  68
BRANCH  59  76
ATOM     76  C   UNL A   1      44.018  28.394  34.508  1.00  0.00     0.057 A 
ATOM     77  C   UNL A   1      45.370  28.709  34.314  1.00  0.00     0.134 A 
ATOM     78  C   UNL A   1      43.723  27.291  35.320  1.00  0.00     0.134 A 
ATOM     79  F   UNL A   1      45.721  29.748  33.539  1.00  0.00    -0.206 F 
ATOM     80  C   UNL A   1      46.387  27.937  34.875  1.00  0.00     0.040 A 
ATOM     81  C   UNL A   1      44.731  26.531  35.914  1.00  0.00     0.040 A 
ATOM     82  F   UNL A   1      42.451  26.940  35.558  1.00  0.00    -0.206 F 
ATOM     83  C   UNL A   1      46.069  26.847  35.683  1.00  0.00     0.006 A 
ENDBRANCH  59  76
ENDBRANCH  33  34
ENDBRANCH  25  28
ENDBRANCH  23  24
ENDBRANCH  22  23
ENDBRANCH   1  22
TORSDOF 14
ENDMDL
