MODEL 1
REMARK VINA RESULT:     -12.6      0.000      0.000
REMARK SMILES CCOc1ccc(-c2nn(-c3ccccc3)cc2/C=C2/SC(=S)N(CC(=O)NCCCCNC(=O)c3ccc(-c4c5nc(c(-c6c(F)cccc6F)c6ccc([nH]6)c(-c6c(F)cccc6F)c6nc(c(-c7c(F)cccc7F)c7ccc4[nH]7)C=C6)C=C5)cc3)C2=O)cc1F
REMARK SMILES IDX 29 1 28 2 26 3 27 4 25 6 24 7 19 8 20 9 21 10 90 11 22 12
REMARK SMILES IDX 91 13 23 14 18 15 8 16 9 17 10 18 17 19 7 20 4 21 5 22 93 23
REMARK SMILES IDX 6 24 92 25 94 26 3 27 2 28 1 29 11 30 12 31 16 32 13 33
REMARK SMILES IDX 15 34 14 35 30 36 31 37 32 38 33 39 34 40 35 42 36 43 37 44
REMARK SMILES IDX 89 45 38 46 88 47 39 48 40 49 41 50 82 51 42 52 87 53 81 54
REMARK SMILES IDX 83 55 43 56 86 57 80 58 79 59 44 61 70 62 53 63 69 64 54 65
REMARK SMILES IDX 57 66 68 67 84 68 55 69 56 70 67 72 85 73 58 74 45 75 46 76
REMARK SMILES IDX 51 77 47 78 48 79 50 80 52 81 49 82 71 83 72 84 77 85 73 86
REMARK SMILES IDX 74 87 76 88 78 89 75 90 59 91 60 92 65 93 61 94 62 95 64 96
REMARK SMILES IDX 66 97 63 98
REMARK H PARENT 28 5 33 41 83 60 57 71
REMARK Flexibility Score: inf
ROOT
ATOM      1  C   UNL A   1      41.049  28.976  34.593  1.00  0.00     0.116 C 
ENDROOT
BRANCH   1   2
ATOM      2  N   UNL A   1      40.320  28.119  33.679  1.00  0.00    -0.355 N 
ATOM      3  C   UNL A   1      39.324  28.429  32.795  1.00  0.00     0.240 C 
ATOM      4  O   UNL A   1      39.098  27.609  31.900  1.00  0.00    -0.273 OA
ATOM      5  H   UNL A   1      40.582  27.170  33.698  1.00  0.00     0.163 HD
BRANCH   3   6
ATOM      6  C   UNL A   1      38.624  29.800  32.801  1.00  0.00     0.227 C 
BRANCH   6   7
ATOM      7  N   UNL A   1      38.835  30.553  31.565  1.00  0.00    -0.283 N 
ATOM      8  C   UNL A   1      37.254  31.764  28.518  1.00  0.00     0.033 C 
ATOM      9  C   UNL A   1      38.100  31.446  29.510  1.00  0.00     0.081 C 
ATOM     10  S   UNL A   1      39.704  32.052  29.659  1.00  0.00    -0.054 SA
ATOM     11  C   UNL A   1      37.807  30.518  30.640  1.00  0.00     0.266 C 
ATOM     12  C   UNL A   1      39.991  31.181  31.167  1.00  0.00     0.148 C 
ATOM     13  O   UNL A   1      36.812  29.826  30.743  1.00  0.00    -0.268 OA
ATOM     14  S   UNL A   1      41.480  31.178  31.917  1.00  0.00    -0.052 S 
BRANCH   8  15
ATOM     15  C   UNL A   1      35.975  31.167  28.354  1.00  0.00     0.022 A 
ATOM     16  C   UNL A   1      34.704  31.756  28.571  1.00  0.00     0.100 A 
ATOM     17  N   UNL A   1      33.733  30.979  28.074  1.00  0.00    -0.167 NA
ATOM     18  N   UNL A   1      34.362  29.863  27.639  1.00  0.00    -0.240 N 
ATOM     19  C   UNL A   1      35.717  29.901  27.883  1.00  0.00     0.123 A 
BRANCH  16  20
ATOM     20  C   UNL A   1      34.387  32.993  29.270  1.00  0.00     0.006 A 
ATOM     21  C   UNL A   1      33.585  35.340  30.566  1.00  0.00     0.154 A 
ATOM     22  C   UNL A   1      34.366  34.404  31.245  1.00  0.00     0.050 A 
ATOM     23  C   UNL A   1      33.257  35.124  29.229  1.00  0.00     0.165 A 
ATOM     24  C   UNL A   1      34.766  33.226  30.598  1.00  0.00     0.014 A 
ATOM     25  C   UNL A   1      33.637  33.956  28.586  1.00  0.00     0.053 A 
ATOM     26  F   UNL A   1      32.582  36.043  28.528  1.00  0.00    -0.203 F 
BRANCH  21  27
ATOM     27  O   UNL A   1      33.267  36.510  31.198  1.00  0.00    -0.491 OA
BRANCH  27  28
ATOM     28  C   UNL A   1      32.880  36.323  32.567  1.00  0.00     0.226 C 
ATOM     29  C   UNL A   1      33.723  37.145  33.530  1.00  0.00     0.049 C 
ENDBRANCH  27  28
ENDBRANCH  21  27
ENDBRANCH  16  20
BRANCH  18  30
ATOM     30  C   UNL A   1      33.632  28.811  27.043  1.00  0.00     0.065 A 
ATOM     31  C   UNL A   1      32.279  28.651  27.366  1.00  0.00     0.028 A 
ATOM     32  C   UNL A   1      34.255  27.935  26.147  1.00  0.00     0.028 A 
ATOM     33  C   UNL A   1      31.543  27.626  26.773  1.00  0.00     0.002 A 
ATOM     34  C   UNL A   1      33.524  26.878  25.602  1.00  0.00     0.002 A 
ATOM     35  C   UNL A   1      32.169  26.731  25.904  1.00  0.00     0.000 A 
ENDBRANCH  18  30
ENDBRANCH   8  15
ENDBRANCH   6   7
ENDBRANCH   3   6
ENDBRANCH   1   2
BRANCH   1  36
ATOM     36  C   UNL A   1      41.527  28.254  35.857  1.00  0.00     0.023 C 
BRANCH  36  37
ATOM     37  C   UNL A   1      42.461  27.051  35.660  1.00  0.00     0.023 C 
BRANCH  37  38
ATOM     38  C   UNL A   1      43.899  27.284  36.089  1.00  0.00     0.116 C 
BRANCH  38  39
ATOM     39  N   UNL A   1      44.628  26.062  36.472  1.00  0.00    -0.352 N 
ATOM     40  C   UNL A   1      45.055  25.017  35.647  1.00  0.00     0.251 C 
ATOM     41  H   UNL A   1      44.842  25.970  37.429  1.00  0.00     0.163 HD
ATOM     42  O   UNL A   1      45.309  23.910  36.088  1.00  0.00    -0.269 OA
BRANCH  40  43
ATOM     43  C   UNL A   1      45.235  25.317  34.216  1.00  0.00     0.039 A 
ATOM     44  C   UNL A   1      46.318  26.001  33.655  1.00  0.00     0.014 A 
ATOM     45  C   UNL A   1      44.275  24.748  33.406  1.00  0.00     0.014 A 
ATOM     46  C   UNL A   1      46.395  26.058  32.260  1.00  0.00     0.010 A 
ATOM     47  C   UNL A   1      44.648  24.400  32.155  1.00  0.00     0.010 A 
ATOM     48  C   UNL A   1      45.521  25.252  31.521  1.00  0.00    -0.014 A 
BRANCH  48  49
ATOM     49  C   UNL A   1      45.400  25.221  30.078  1.00  0.00     0.031 A 
ATOM     50  C   UNL A   1      46.502  25.869  29.344  1.00  0.00     0.074 A 
ATOM     51  C   UNL A   1      44.495  24.420  29.465  1.00  0.00     0.049 A 
ATOM     52  N   UNL A   1      46.448  26.975  28.687  1.00  0.00    -0.248 NA
ATOM     53  C   UNL A   1      47.852  25.303  29.464  1.00  0.00     0.031 C 
ATOM     54  C   UNL A   1      43.529  23.461  30.033  1.00  0.00     0.029 A 
ATOM     55  N   UNL A   1      44.301  24.261  28.132  1.00  0.00    -0.354 N 
ATOM     56  C   UNL A   1      47.716  27.167  28.153  1.00  0.00     0.074 A 
ATOM     57  C   UNL A   1      48.575  26.208  28.801  1.00  0.00     0.031 C 
ATOM     58  C   UNL A   1      43.007  22.692  29.050  1.00  0.00     0.029 A 
ATOM     59  C   UNL A   1      43.461  23.213  27.777  1.00  0.00     0.049 A 
ATOM     60  H   UNL A   1      44.725  24.847  27.464  1.00  0.00     0.167 HD
ATOM     61  C   UNL A   1      47.912  27.973  27.074  1.00  0.00     0.037 A 
ATOM     62  C   UNL A   1      43.175  22.819  26.512  1.00  0.00     0.037 A 
ATOM     63  C   UNL A   1      46.731  28.747  26.782  1.00  0.00     0.049 A 
ATOM     64  C   UNL A   1      43.461  23.989  25.637  1.00  0.00     0.074 A 
ATOM     65  C   UNL A   1      46.032  29.726  27.460  1.00  0.00     0.029 A 
ATOM     66  N   UNL A   1      45.859  28.245  25.844  1.00  0.00    -0.354 N 
ATOM     67  N   UNL A   1      42.787  25.108  25.698  1.00  0.00    -0.248 NA
ATOM     68  C   UNL A   1      44.803  24.099  25.081  1.00  0.00     0.031 C 
ATOM     69  C   UNL A   1      44.658  29.412  27.240  1.00  0.00     0.029 A 
ATOM     70  C   UNL A   1      44.596  28.313  26.381  1.00  0.00     0.049 A 
ATOM     71  H   UNL A   1      46.095  27.901  24.951  1.00  0.00     0.167 HD
ATOM     72  C   UNL A   1      43.738  26.112  25.575  1.00  0.00     0.074 A 
ATOM     73  C   UNL A   1      44.957  25.427  25.137  1.00  0.00     0.031 C 
ATOM     74  C   UNL A   1      43.547  27.349  26.121  1.00  0.00     0.037 A 
BRANCH  61  75
ATOM     75  C   UNL A   1      49.042  27.845  26.097  1.00  0.00     0.057 A 
ATOM     76  C   UNL A   1      48.985  27.057  24.933  1.00  0.00     0.134 A 
ATOM     77  C   UNL A   1      50.128  28.733  26.176  1.00  0.00     0.134 A 
ATOM     78  F   UNL A   1      47.956  26.240  24.674  1.00  0.00    -0.206 F 
ATOM     79  C   UNL A   1      49.942  27.142  23.918  1.00  0.00     0.040 A 
ATOM     80  C   UNL A   1      51.062  28.863  25.143  1.00  0.00     0.040 A 
ATOM     81  F   UNL A   1      50.276  29.547  27.232  1.00  0.00    -0.206 F 
ATOM     82  C   UNL A   1      50.970  28.068  24.007  1.00  0.00     0.006 A 
ENDBRANCH  61  75
BRANCH  62  83
ATOM     83  C   UNL A   1      43.066  21.431  26.003  1.00  0.00     0.057 A 
ATOM     84  C   UNL A   1      41.869  20.698  26.119  1.00  0.00     0.134 A 
ATOM     85  C   UNL A   1      44.203  20.690  25.650  1.00  0.00     0.134 A 
ATOM     86  F   UNL A   1      40.731  21.291  26.509  1.00  0.00    -0.206 F 
ATOM     87  C   UNL A   1      41.812  19.313  25.928  1.00  0.00     0.040 A 
ATOM     88  C   UNL A   1      44.161  19.300  25.456  1.00  0.00     0.040 A 
ATOM     89  F   UNL A   1      45.398  21.289  25.546  1.00  0.00    -0.206 F 
ATOM     90  C   UNL A   1      42.964  18.606  25.610  1.00  0.00     0.006 A 
ENDBRANCH  62  83
BRANCH  74  91
ATOM     91  C   UNL A   1      42.202  27.658  26.727  1.00  0.00     0.057 A 
ATOM     92  C   UNL A   1      41.374  28.594  26.102  1.00  0.00     0.134 A 
ATOM     93  C   UNL A   1      41.805  27.225  28.003  1.00  0.00     0.134 A 
ATOM     94  F   UNL A   1      41.715  29.102  24.909  1.00  0.00    -0.206 F 
ATOM     95  C   UNL A   1      40.217  29.084  26.716  1.00  0.00     0.040 A 
ATOM     96  C   UNL A   1      40.637  27.685  28.619  1.00  0.00     0.040 A 
ATOM     97  F   UNL A   1      42.575  26.407  28.723  1.00  0.00    -0.206 F 
ATOM     98  C   UNL A   1      39.843  28.628  27.979  1.00  0.00     0.006 A 
ENDBRANCH  74  91
ENDBRANCH  48  49
ENDBRANCH  40  43
ENDBRANCH  38  39
ENDBRANCH  37  38
ENDBRANCH  36  37
ENDBRANCH   1  36
TORSDOF 17
ENDMDL
MODEL 2
REMARK VINA RESULT:     -12.3      4.217     12.076
REMARK SMILES CCOc1ccc(-c2nn(-c3ccccc3)cc2/C=C2/SC(=S)N(CC(=O)NCCCCNC(=O)c3ccc(-c4c5nc(c(-c6c(F)cccc6F)c6ccc([nH]6)c(-c6c(F)cccc6F)c6nc(c(-c7c(F)cccc7F)c7ccc4[nH]7)C=C6)C=C5)cc3)C2=O)cc1F
REMARK SMILES IDX 29 1 28 2 26 3 27 4 25 6 24 7 19 8 20 9 21 10 90 11 22 12
REMARK SMILES IDX 91 13 23 14 18 15 8 16 9 17 10 18 17 19 7 20 4 21 5 22 93 23
REMARK SMILES IDX 6 24 92 25 94 26 3 27 2 28 1 29 11 30 12 31 16 32 13 33
REMARK SMILES IDX 15 34 14 35 30 36 31 37 32 38 33 39 34 40 35 42 36 43 37 44
REMARK SMILES IDX 89 45 38 46 88 47 39 48 40 49 41 50 82 51 42 52 87 53 81 54
REMARK SMILES IDX 83 55 43 56 86 57 80 58 79 59 44 61 70 62 53 63 69 64 54 65
REMARK SMILES IDX 57 66 68 67 84 68 55 69 56 70 67 72 85 73 58 74 45 75 46 76
REMARK SMILES IDX 51 77 47 78 48 79 50 80 52 81 49 82 71 83 72 84 77 85 73 86
REMARK SMILES IDX 74 87 76 88 78 89 75 90 59 91 60 92 65 93 61 94 62 95 64 96
REMARK SMILES IDX 66 97 63 98
REMARK H PARENT 28 5 33 41 83 60 57 71
REMARK Flexibility Score: inf
ROOT
ATOM      1  C   UNL A   1      45.936  30.458  26.984  1.00  0.00     0.116 C 
ENDROOT
BRANCH   1   2
ATOM      2  N   UNL A   1      45.398  29.599  25.949  1.00  0.00    -0.355 N 
ATOM      3  C   UNL A   1      45.067  28.273  25.996  1.00  0.00     0.240 C 
ATOM      4  O   UNL A   1      44.323  27.852  25.105  1.00  0.00    -0.273 OA
ATOM      5  H   UNL A   1      45.247  30.037  25.080  1.00  0.00     0.163 HD
BRANCH   3   6
ATOM      6  C   UNL A   1      45.456  27.376  27.185  1.00  0.00     0.227 C 
BRANCH   6   7
ATOM      7  N   UNL A   1      44.301  26.917  27.956  1.00  0.00    -0.283 N 
ATOM      8  C   UNL A   1      42.071  24.108  28.576  1.00  0.00     0.033 C 
ATOM      9  C   UNL A   1      42.697  25.294  28.551  1.00  0.00     0.081 C 
ATOM     10  S   UNL A   1      42.377  26.592  29.637  1.00  0.00    -0.054 SA
ATOM     11  C   UNL A   1      43.762  25.697  27.588  1.00  0.00     0.266 C 
ATOM     12  C   UNL A   1      43.615  27.622  28.914  1.00  0.00     0.148 C 
ATOM     13  O   UNL A   1      44.112  25.054  26.617  1.00  0.00    -0.268 OA
ATOM     14  S   UNL A   1      43.836  29.205  29.391  1.00  0.00    -0.052 S 
BRANCH   8  15
ATOM     15  C   UNL A   1      42.273  23.092  27.603  1.00  0.00     0.022 A 
ATOM     16  C   UNL A   1      41.393  22.687  26.570  1.00  0.00     0.100 A 
ATOM     17  N   UNL A   1      42.022  21.885  25.700  1.00  0.00    -0.167 NA
ATOM     18  N   UNL A   1      43.256  21.696  26.224  1.00  0.00    -0.240 N 
ATOM     19  C   UNL A   1      43.411  22.338  27.433  1.00  0.00     0.123 A 
BRANCH  16  20
ATOM     20  C   UNL A   1      39.979  22.994  26.413  1.00  0.00     0.006 A 
ATOM     21  C   UNL A   1      37.220  23.426  26.227  1.00  0.00     0.154 A 
ATOM     22  C   UNL A   1      38.061  24.468  26.623  1.00  0.00     0.050 A 
ATOM     23  C   UNL A   1      37.767  22.195  25.873  1.00  0.00     0.165 A 
ATOM     24  C   UNL A   1      39.442  24.252  26.719  1.00  0.00     0.014 A 
ATOM     25  C   UNL A   1      39.131  21.969  25.979  1.00  0.00     0.053 A 
ATOM     26  F   UNL A   1      36.995  21.205  25.409  1.00  0.00    -0.203 F 
BRANCH  21  27
ATOM     27  O   UNL A   1      35.885  23.684  26.075  1.00  0.00    -0.491 OA
BRANCH  27  28
ATOM     28  C   UNL A   1      35.550  24.153  24.761  1.00  0.00     0.226 C 
ATOM     29  C   UNL A   1      34.104  23.863  24.390  1.00  0.00     0.049 C 
ENDBRANCH  27  28
ENDBRANCH  21  27
ENDBRANCH  16  20
BRANCH  18  30
ATOM     30  C   UNL A   1      44.205  20.891  25.557  1.00  0.00     0.065 A 
ATOM     31  C   UNL A   1      43.864  19.578  25.212  1.00  0.00     0.028 A 
ATOM     32  C   UNL A   1      45.474  21.397  25.253  1.00  0.00     0.028 A 
ATOM     33  C   UNL A   1      44.786  18.777  24.539  1.00  0.00     0.002 A 
ATOM     34  C   UNL A   1      46.410  20.569  24.630  1.00  0.00     0.002 A 
ATOM     35  C   UNL A   1      46.064  19.268  24.263  1.00  0.00     0.000 A 
ENDBRANCH  18  30
ENDBRANCH   8  15
ENDBRANCH   6   7
ENDBRANCH   3   6
ENDBRANCH   1   2
BRANCH   1  36
ATOM     36  C   UNL A   1      45.739  31.951  26.702  1.00  0.00     0.023 C 
BRANCH  36  37
ATOM     37  C   UNL A   1      44.452  32.358  25.971  1.00  0.00     0.023 C 
BRANCH  37  38
ATOM     38  C   UNL A   1      44.405  33.808  25.521  1.00  0.00     0.116 C 
BRANCH  38  39
ATOM     39  N   UNL A   1      45.435  34.670  26.127  1.00  0.00    -0.352 N 
ATOM     40  C   UNL A   1      45.283  35.597  27.162  1.00  0.00     0.251 C 
ATOM     41  H   UNL A   1      46.342  34.583  25.757  1.00  0.00     0.163 HD
ATOM     42  O   UNL A   1      46.078  36.504  27.337  1.00  0.00    -0.269 OA
BRANCH  40  43
ATOM     43  C   UNL A   1      44.140  35.411  28.074  1.00  0.00     0.039 A 
ATOM     44  C   UNL A   1      42.928  36.105  28.015  1.00  0.00     0.014 A 
ATOM     45  C   UNL A   1      44.305  34.372  28.964  1.00  0.00     0.014 A 
ATOM     46  C   UNL A   1      41.901  35.688  28.866  1.00  0.00     0.010 A 
ATOM     47  C   UNL A   1      43.194  33.714  29.360  1.00  0.00     0.010 A 
ATOM     48  C   UNL A   1      42.071  34.481  29.555  1.00  0.00    -0.014 A 
BRANCH  48  49
ATOM     49  C   UNL A   1      41.158  33.917  30.529  1.00  0.00     0.031 A 
ATOM     50  C   UNL A   1      41.726  33.709  31.873  1.00  0.00     0.074 A 
ATOM     51  C   UNL A   1      39.825  33.855  30.290  1.00  0.00     0.049 A 
ATOM     52  N   UNL A   1      42.006  32.581  32.428  1.00  0.00    -0.248 NA
ATOM     53  C   UNL A   1      42.165  34.884  32.638  1.00  0.00     0.031 C 
ATOM     54  C   UNL A   1      39.041  34.315  29.128  1.00  0.00     0.029 A 
ATOM     55  N   UNL A   1      38.857  33.395  31.121  1.00  0.00    -0.354 N 
ATOM     56  C   UNL A   1      42.495  32.886  33.692  1.00  0.00     0.074 A 
ATOM     57  C   UNL A   1      42.732  34.307  33.700  1.00  0.00     0.031 C 
ATOM     58  C   UNL A   1      37.720  34.289  29.421  1.00  0.00     0.029 A 
ATOM     59  C   UNL A   1      37.554  33.652  30.711  1.00  0.00     0.049 A 
ATOM     60  H   UNL A   1      39.063  32.912  31.954  1.00  0.00     0.167 HD
ATOM     61  C   UNL A   1      42.479  31.966  34.694  1.00  0.00     0.037 A 
ATOM     62  C   UNL A   1      36.430  33.351  31.407  1.00  0.00     0.037 A 
ATOM     63  C   UNL A   1      42.160  30.653  34.190  1.00  0.00     0.049 A 
ATOM     64  C   UNL A   1      36.806  32.268  32.357  1.00  0.00     0.074 A 
ATOM     65  C   UNL A   1      42.782  29.780  33.320  1.00  0.00     0.029 A 
ATOM     66  N   UNL A   1      40.843  30.256  34.241  1.00  0.00    -0.354 N 
ATOM     67  N   UNL A   1      37.173  31.075  31.969  1.00  0.00    -0.248 NA
ATOM     68  C   UNL A   1      37.271  32.666  33.678  1.00  0.00     0.031 C 
ATOM     69  C   UNL A   1      41.728  29.242  32.525  1.00  0.00     0.029 A 
ATOM     70  C   UNL A   1      40.520  29.753  33.004  1.00  0.00     0.049 A 
ATOM     71  H   UNL A   1      40.244  30.320  35.020  1.00  0.00     0.167 HD
ATOM     72  C   UNL A   1      38.234  30.735  32.799  1.00  0.00     0.074 A 
ATOM     73  C   UNL A   1      38.209  31.731  33.872  1.00  0.00     0.031 C 
ATOM     74  C   UNL A   1      39.212  29.873  32.394  1.00  0.00     0.037 A 
BRANCH  61  75
ATOM     75  C   UNL A   1      42.442  32.287  36.158  1.00  0.00     0.057 A 
ATOM     76  C   UNL A   1      41.386  32.976  36.782  1.00  0.00     0.134 A 
ATOM     77  C   UNL A   1      43.360  31.670  37.025  1.00  0.00     0.134 A 
ATOM     78  F   UNL A   1      40.383  33.526  36.086  1.00  0.00    -0.206 F 
ATOM     79  C   UNL A   1      41.250  33.049  38.171  1.00  0.00     0.040 A 
ATOM     80  C   UNL A   1      43.206  31.694  38.415  1.00  0.00     0.040 A 
ATOM     81  F   UNL A   1      44.398  30.971  36.544  1.00  0.00    -0.206 F 
ATOM     82  C   UNL A   1      42.146  32.383  38.993  1.00  0.00     0.006 A 
ENDBRANCH  61  75
BRANCH  62  83
ATOM     83  C   UNL A   1      35.219  34.191  31.569  1.00  0.00     0.057 A 
ATOM     84  C   UNL A   1      34.233  34.259  30.566  1.00  0.00     0.134 A 
ATOM     85  C   UNL A   1      35.132  35.162  32.576  1.00  0.00     0.134 A 
ATOM     86  F   UNL A   1      34.252  33.419  29.520  1.00  0.00    -0.206 F 
ATOM     87  C   UNL A   1      33.243  35.248  30.548  1.00  0.00     0.040 A 
ATOM     88  C   UNL A   1      34.146  36.161  32.571  1.00  0.00     0.040 A 
ATOM     89  F   UNL A   1      36.043  35.204  33.559  1.00  0.00    -0.206 F 
ATOM     90  C   UNL A   1      33.206  36.214  31.545  1.00  0.00     0.006 A 
ENDBRANCH  62  83
BRANCH  74  91
ATOM     91  C   UNL A   1      39.033  29.165  31.074  1.00  0.00     0.057 A 
ATOM     92  C   UNL A   1      38.691  27.811  31.071  1.00  0.00     0.134 A 
ATOM     93  C   UNL A   1      39.396  29.722  29.836  1.00  0.00     0.134 A 
ATOM     94  F   UNL A   1      38.392  27.190  32.222  1.00  0.00    -0.206 F 
ATOM     95  C   UNL A   1      38.718  27.045  29.901  1.00  0.00     0.040 A 
ATOM     96  C   UNL A   1      39.401  28.976  28.653  1.00  0.00     0.040 A 
ATOM     97  F   UNL A   1      39.831  30.981  29.748  1.00  0.00    -0.206 F 
ATOM     98  C   UNL A   1      39.072  27.627  28.686  1.00  0.00     0.006 A 
ENDBRANCH  74  91
ENDBRANCH  48  49
ENDBRANCH  40  43
ENDBRANCH  38  39
ENDBRANCH  37  38
ENDBRANCH  36  37
ENDBRANCH   1  36
TORSDOF 17
ENDMDL
MODEL 3
REMARK VINA RESULT:     -12.1      3.175      8.215
REMARK SMILES CCOc1ccc(-c2nn(-c3ccccc3)cc2/C=C2/SC(=S)N(CC(=O)NCCCCNC(=O)c3ccc(-c4c5nc(c(-c6c(F)cccc6F)c6ccc([nH]6)c(-c6c(F)cccc6F)c6nc(c(-c7c(F)cccc7F)c7ccc4[nH]7)C=C6)C=C5)cc3)C2=O)cc1F
REMARK SMILES IDX 29 1 28 2 26 3 27 4 25 6 24 7 19 8 20 9 21 10 90 11 22 12
REMARK SMILES IDX 91 13 23 14 18 15 8 16 9 17 10 18 17 19 7 20 4 21 5 22 93 23
REMARK SMILES IDX 6 24 92 25 94 26 3 27 2 28 1 29 11 30 12 31 16 32 13 33
REMARK SMILES IDX 15 34 14 35 30 36 31 37 32 38 33 39 34 40 35 42 36 43 37 44
REMARK SMILES IDX 89 45 38 46 88 47 39 48 40 49 41 50 82 51 42 52 87 53 81 54
REMARK SMILES IDX 83 55 43 56 86 57 80 58 79 59 44 61 70 62 53 63 69 64 54 65
REMARK SMILES IDX 57 66 68 67 84 68 55 69 56 70 67 72 85 73 58 74 45 75 46 76
REMARK SMILES IDX 51 77 47 78 48 79 50 80 52 81 49 82 71 83 72 84 77 85 73 86
REMARK SMILES IDX 74 87 76 88 78 89 75 90 59 91 60 92 65 93 61 94 62 95 64 96
REMARK SMILES IDX 66 97 63 98
REMARK H PARENT 28 5 33 41 83 60 57 71
REMARK Flexibility Score: inf
ROOT
ATOM      1  C   UNL A   1      39.007  29.188  32.857  1.00  0.00     0.116 C 
ENDROOT
BRANCH   1   2
ATOM      2  N   UNL A   1      39.755  28.990  34.081  1.00  0.00    -0.355 N 
ATOM      3  C   UNL A   1      41.082  29.198  34.340  1.00  0.00     0.240 C 
ATOM      4  O   UNL A   1      41.412  29.280  35.527  1.00  0.00    -0.273 OA
ATOM      5  H   UNL A   1      39.229  28.655  34.843  1.00  0.00     0.163 HD
BRANCH   3   6
ATOM      6  C   UNL A   1      42.098  29.485  33.220  1.00  0.00     0.227 C 
BRANCH   6   7
ATOM      7  N   UNL A   1      42.635  30.844  33.272  1.00  0.00    -0.283 N 
ATOM      8  C   UNL A   1      41.875  34.362  32.726  1.00  0.00     0.033 C 
ATOM      9  C   UNL A   1      42.449  33.178  32.988  1.00  0.00     0.081 C 
ATOM     10  S   UNL A   1      44.016  32.981  33.673  1.00  0.00    -0.054 SA
ATOM     11  C   UNL A   1      41.844  31.840  32.728  1.00  0.00     0.266 C 
ATOM     12  C   UNL A   1      43.892  31.220  33.681  1.00  0.00     0.148 C 
ATOM     13  O   UNL A   1      40.806  31.642  32.124  1.00  0.00    -0.268 OA
ATOM     14  S   UNL A   1      45.168  30.246  34.131  1.00  0.00    -0.052 S 
BRANCH   8  15
ATOM     15  C   UNL A   1      40.628  34.500  32.059  1.00  0.00     0.022 A 
ATOM     16  C   UNL A   1      40.387  34.564  30.664  1.00  0.00     0.100 A 
ATOM     17  N   UNL A   1      39.079  34.439  30.404  1.00  0.00    -0.167 NA
ATOM     18  N   UNL A   1      38.480  34.399  31.617  1.00  0.00    -0.240 N 
ATOM     19  C   UNL A   1      39.385  34.533  32.648  1.00  0.00     0.123 A 
BRANCH  16  20
ATOM     20  C   UNL A   1      41.343  34.788  29.590  1.00  0.00     0.006 A 
ATOM     21  C   UNL A   1      43.193  35.020  27.503  1.00  0.00     0.154 A 
ATOM     22  C   UNL A   1      41.993  35.731  27.449  1.00  0.00     0.050 A 
ATOM     23  C   UNL A   1      43.485  34.244  28.622  1.00  0.00     0.165 A 
ATOM     24  C   UNL A   1      41.065  35.614  28.493  1.00  0.00     0.014 A 
ATOM     25  C   UNL A   1      42.566  34.110  29.651  1.00  0.00     0.053 A 
ATOM     26  F   UNL A   1      44.663  33.618  28.739  1.00  0.00    -0.203 F 
BRANCH  21  27
ATOM     27  O   UNL A   1      44.110  35.207  26.505  1.00  0.00    -0.491 OA
BRANCH  27  28
ATOM     28  C   UNL A   1      43.629  34.802  25.216  1.00  0.00     0.226 C 
ATOM     29  C   UNL A   1      44.013  33.371  24.874  1.00  0.00     0.049 C 
ENDBRANCH  27  28
ENDBRANCH  21  27
ENDBRANCH  16  20
BRANCH  18  30
ATOM     30  C   UNL A   1      37.079  34.265  31.725  1.00  0.00     0.065 A 
ATOM     31  C   UNL A   1      36.499  34.163  32.996  1.00  0.00     0.028 A 
ATOM     32  C   UNL A   1      36.280  34.228  30.576  1.00  0.00     0.028 A 
ATOM     33  C   UNL A   1      35.115  34.047  33.117  1.00  0.00     0.002 A 
ATOM     34  C   UNL A   1      34.901  34.055  30.707  1.00  0.00     0.002 A 
ATOM     35  C   UNL A   1      34.318  33.978  31.972  1.00  0.00     0.000 A 
ENDBRANCH  18  30
ENDBRANCH   8  15
ENDBRANCH   6   7
ENDBRANCH   3   6
ENDBRANCH   1   2
BRANCH   1  36
ATOM     36  C   UNL A   1      37.879  30.217  32.990  1.00  0.00     0.023 C 
BRANCH  36  37
ATOM     37  C   UNL A   1      36.630  29.996  32.125  1.00  0.00     0.023 C 
BRANCH  37  38
ATOM     38  C   UNL A   1      36.573  30.836  30.861  1.00  0.00     0.116 C 
BRANCH  38  39
ATOM     39  N   UNL A   1      35.940  30.167  29.710  1.00  0.00    -0.352 N 
ATOM     40  C   UNL A   1      36.562  29.489  28.657  1.00  0.00     0.251 C 
ATOM     41  H   UNL A   1      34.957  30.201  29.679  1.00  0.00     0.163 HD
ATOM     42  O   UNL A   1      36.001  29.300  27.592  1.00  0.00    -0.269 OA
BRANCH  40  43
ATOM     43  C   UNL A   1      37.918  28.965  28.898  1.00  0.00     0.039 A 
ATOM     44  C   UNL A   1      38.233  27.836  29.659  1.00  0.00     0.014 A 
ATOM     45  C   UNL A   1      38.900  29.626  28.191  1.00  0.00     0.014 A 
ATOM     46  C   UNL A   1      39.561  27.399  29.650  1.00  0.00     0.010 A 
ATOM     47  C   UNL A   1      39.983  28.908  27.818  1.00  0.00     0.010 A 
ATOM     48  C   UNL A   1      40.435  27.976  28.721  1.00  0.00    -0.014 A 
BRANCH  48  49
ATOM     49  C   UNL A   1      41.854  27.709  28.602  1.00  0.00     0.031 A 
ATOM     50  C   UNL A   1      42.203  26.531  27.787  1.00  0.00     0.074 A 
ATOM     51  C   UNL A   1      42.776  28.629  28.977  1.00  0.00     0.049 A 
ATOM     52  N   UNL A   1      42.677  25.411  28.209  1.00  0.00    -0.248 NA
ATOM     53  C   UNL A   1      41.861  26.542  26.358  1.00  0.00     0.031 C 
ATOM     54  C   UNL A   1      42.602  29.991  29.513  1.00  0.00     0.029 A 
ATOM     55  N   UNL A   1      44.126  28.531  28.884  1.00  0.00    -0.354 N 
ATOM     56  C   UNL A   1      42.865  24.624  27.081  1.00  0.00     0.074 A 
ATOM     57  C   UNL A   1      42.191  25.299  26.001  1.00  0.00     0.031 C 
ATOM     58  C   UNL A   1      43.785  30.647  29.506  1.00  0.00     0.029 A 
ATOM     59  C   UNL A   1      44.823  29.707  29.135  1.00  0.00     0.049 A 
ATOM     60  H   UNL A   1      44.579  27.687  28.657  1.00  0.00     0.167 HD
ATOM     61  C   UNL A   1      43.733  23.575  27.090  1.00  0.00     0.037 A 
ATOM     62  C   UNL A   1      46.165  29.870  29.035  1.00  0.00     0.037 A 
ATOM     63  C   UNL A   1      44.169  23.274  28.431  1.00  0.00     0.049 A 
ATOM     64  C   UNL A   1      46.759  28.509  29.150  1.00  0.00     0.074 A 
ATOM     65  C   UNL A   1      43.531  22.832  29.573  1.00  0.00     0.029 A 
ATOM     66  N   UNL A   1      45.350  23.837  28.856  1.00  0.00    -0.354 N 
ATOM     67  N   UNL A   1      46.686  27.788  30.237  1.00  0.00    -0.248 NA
ATOM     68  C   UNL A   1      46.964  27.761  27.917  1.00  0.00     0.031 C 
ATOM     69  C   UNL A   1      44.109  23.591  30.632  1.00  0.00     0.029 A 
ATOM     70  C   UNL A   1      45.117  24.391  30.091  1.00  0.00     0.049 A 
ATOM     71  H   UNL A   1      46.205  23.841  28.366  1.00  0.00     0.167 HD
ATOM     72  C   UNL A   1      46.429  26.495  29.798  1.00  0.00     0.074 A 
ATOM     73  C   UNL A   1      46.671  26.531  28.355  1.00  0.00     0.031 C 
ATOM     74  C   UNL A   1      45.759  25.595  30.577  1.00  0.00     0.037 A 
BRANCH  61  75
ATOM     75  C   UNL A   1      44.428  23.021  25.883  1.00  0.00     0.057 A 
ATOM     76  C   UNL A   1      45.470  23.682  25.207  1.00  0.00     0.134 A 
ATOM     77  C   UNL A   1      44.236  21.674  25.532  1.00  0.00     0.134 A 
ATOM     78  F   UNL A   1      45.834  24.935  25.509  1.00  0.00    -0.206 F 
ATOM     79  C   UNL A   1      46.266  23.052  24.246  1.00  0.00     0.040 A 
ATOM     80  C   UNL A   1      45.059  21.019  24.609  1.00  0.00     0.040 A 
ATOM     81  F   UNL A   1      43.283  20.938  26.122  1.00  0.00    -0.206 F 
ATOM     82  C   UNL A   1      46.080  21.707  23.965  1.00  0.00     0.006 A 
ENDBRANCH  61  75
BRANCH  62  83
ATOM     83  C   UNL A   1      46.892  31.029  28.465  1.00  0.00     0.057 A 
ATOM     84  C   UNL A   1      47.588  31.935  29.287  1.00  0.00     0.134 A 
ATOM     85  C   UNL A   1      46.689  31.440  27.139  1.00  0.00     0.134 A 
ATOM     86  F   UNL A   1      47.788  31.676  30.588  1.00  0.00    -0.206 F 
ATOM     87  C   UNL A   1      48.027  33.183  28.830  1.00  0.00     0.040 A 
ATOM     88  C   UNL A   1      47.123  32.688  26.667  1.00  0.00     0.040 A 
ATOM     89  F   UNL A   1      46.007  30.662  26.285  1.00  0.00    -0.206 F 
ATOM     90  C   UNL A   1      47.781  33.571  27.519  1.00  0.00     0.006 A 
ENDBRANCH  62  83
BRANCH  74  91
ATOM     91  C   UNL A   1      45.442  25.984  32.000  1.00  0.00     0.057 A 
ATOM     92  C   UNL A   1      46.334  25.631  33.014  1.00  0.00     0.134 A 
ATOM     93  C   UNL A   1      44.199  26.495  32.408  1.00  0.00     0.134 A 
ATOM     94  F   UNL A   1      47.518  25.079  32.708  1.00  0.00    -0.206 F 
ATOM     95  C   UNL A   1      46.006  25.768  34.367  1.00  0.00     0.040 A 
ATOM     96  C   UNL A   1      43.866  26.664  33.756  1.00  0.00     0.040 A 
ATOM     97  F   UNL A   1      43.242  26.772  31.520  1.00  0.00    -0.206 F 
ATOM     98  C   UNL A   1      44.769  26.288  34.742  1.00  0.00     0.006 A 
ENDBRANCH  74  91
ENDBRANCH  48  49
ENDBRANCH  40  43
ENDBRANCH  38  39
ENDBRANCH  37  38
ENDBRANCH  36  37
ENDBRANCH   1  36
TORSDOF 17
ENDMDL
