MODEL 1
REMARK VINA RESULT:     -12.4      0.000      0.000
REMARK SMILES O=C(NCCCCNC(=O)[C@H]1Cc2ccc(Cl)cc2C[N@@H+]1Cc1ccccc1Cl)c1ccc(-c2c3nc(c(-c4c(F)cccc4F)c4ccc([nH]4)c(-c4c(F)cccc4F)c4nc(c(-c5c(F)cccc5F)c5ccc2[nH]5)C=C4)C=C3)cc1
REMARK SMILES IDX 5 1 4 2 3 3 1 4 2 5 30 7 31 8 83 9 32 10 82 11 33 12 34 13
REMARK SMILES IDX 35 14 76 15 36 16 81 17 75 18 77 19 37 20 80 21 74 22 73 23
REMARK SMILES IDX 38 25 64 26 47 27 63 28 48 29 51 30 62 31 78 32 49 33 50 34
REMARK SMILES IDX 61 36 79 37 52 38 39 39 40 40 45 41 41 42 42 43 44 44 46 45
REMARK SMILES IDX 43 46 65 47 66 48 71 49 67 50 68 51 70 52 72 53 69 54 53 55
REMARK SMILES IDX 54 56 59 57 55 58 56 59 58 60 60 61 57 62 6 63 7 64 8 65
REMARK SMILES IDX 9 66 10 68 11 69 12 70 21 71 13 72 20 73 14 75 19 76 15 77
REMARK SMILES IDX 18 78 16 79 17 80 22 81 23 82 24 83 28 84 25 85 27 86 29 87
REMARK SMILES IDX 26 88
REMARK H PARENT 3 6 77 24 51 35 8 67 21 74
REMARK Flexibility Score: inf
ROOT
ATOM      1  C   UNL A   1      31.119  31.640  26.194  1.00  0.00     0.023 C 
ENDROOT
BRANCH   1   2
ATOM      2  C   UNL A   1      32.379  32.213  26.814  1.00  0.00     0.116 C 
BRANCH   2   3
ATOM      3  N   UNL A   1      32.201  33.564  27.319  1.00  0.00    -0.352 N 
ATOM      4  O   UNL A   1      32.620  35.349  28.627  1.00  0.00    -0.269 OA
ATOM      5  C   UNL A   1      32.979  34.258  28.214  1.00  0.00     0.251 C 
ATOM      6  H   UNL A   1      31.415  34.046  26.974  1.00  0.00     0.163 HD
BRANCH   5   7
ATOM      7  C   UNL A   1      34.241  33.656  28.699  1.00  0.00     0.039 A 
ATOM      8  C   UNL A   1      35.446  34.083  28.136  1.00  0.00     0.014 A 
ATOM      9  C   UNL A   1      34.239  32.679  29.697  1.00  0.00     0.014 A 
ATOM     10  C   UNL A   1      36.650  33.550  28.599  1.00  0.00     0.010 A 
ATOM     11  C   UNL A   1      35.441  32.223  30.224  1.00  0.00     0.010 A 
ATOM     12  C   UNL A   1      36.657  32.627  29.658  1.00  0.00    -0.014 A 
BRANCH  12  13
ATOM     13  C   UNL A   1      37.923  32.019  30.132  1.00  0.00     0.031 A 
ATOM     14  C   UNL A   1      38.670  32.648  31.279  1.00  0.00     0.074 A 
ATOM     15  C   UNL A   1      38.414  30.924  29.522  1.00  0.00     0.049 A 
ATOM     16  N   UNL A   1      39.791  32.276  31.842  1.00  0.00    -0.248 NA
ATOM     17  C   UNL A   1      38.095  33.879  31.848  1.00  0.00     0.031 C 
ATOM     18  C   UNL A   1      37.809  30.248  28.372  1.00  0.00     0.029 A 
ATOM     19  N   UNL A   1      39.533  30.181  29.795  1.00  0.00    -0.354 N 
ATOM     20  C   UNL A   1      40.062  33.236  32.811  1.00  0.00     0.074 A 
ATOM     21  C   UNL A   1      39.028  34.241  32.712  1.00  0.00     0.031 C 
ATOM     22  C   UNL A   1      38.536  29.159  28.072  1.00  0.00     0.029 A 
ATOM     23  C   UNL A   1      39.671  29.079  28.986  1.00  0.00     0.049 A 
ATOM     24  H   UNL A   1      40.176  30.413  30.503  1.00  0.00     0.167 HD
ATOM     25  C   UNL A   1      41.061  33.262  33.725  1.00  0.00     0.037 A 
ATOM     26  C   UNL A   1      40.604  28.109  28.996  1.00  0.00     0.037 A 
ATOM     27  C   UNL A   1      42.067  32.242  33.846  1.00  0.00     0.049 A 
ATOM     28  C   UNL A   1      41.706  28.165  30.017  1.00  0.00     0.074 A 
ATOM     29  C   UNL A   1      43.084  32.135  34.778  1.00  0.00     0.029 A 
ATOM     30  N   UNL A   1      42.181  31.148  33.001  1.00  0.00    -0.354 N 
ATOM     31  N   UNL A   1      41.908  29.035  30.977  1.00  0.00    -0.248 NA
ATOM     32  C   UNL A   1      42.706  27.090  29.959  1.00  0.00     0.031 C 
ATOM     33  C   UNL A   1      43.840  30.997  34.469  1.00  0.00     0.029 A 
ATOM     34  C   UNL A   1      43.266  30.372  33.375  1.00  0.00     0.049 A 
ATOM     35  H   UNL A   1      41.580  30.953  32.246  1.00  0.00     0.167 HD
ATOM     36  C   UNL A   1      43.039  28.598  31.654  1.00  0.00     0.074 A 
ATOM     37  C   UNL A   1      43.463  27.373  31.007  1.00  0.00     0.031 C 
ATOM     38  C   UNL A   1      43.672  29.157  32.716  1.00  0.00     0.037 A 
BRANCH  25  39
ATOM     39  C   UNL A   1      41.102  34.438  34.659  1.00  0.00     0.057 A 
ATOM     40  C   UNL A   1      40.454  34.389  35.899  1.00  0.00     0.134 A 
ATOM     41  C   UNL A   1      41.796  35.614  34.342  1.00  0.00     0.134 A 
ATOM     42  F   UNL A   1      39.768  33.295  36.267  1.00  0.00    -0.206 F 
ATOM     43  C   UNL A   1      40.502  35.461  36.793  1.00  0.00     0.040 A 
ATOM     44  C   UNL A   1      41.878  36.681  35.239  1.00  0.00     0.040 A 
ATOM     45  F   UNL A   1      42.454  35.723  33.177  1.00  0.00    -0.206 F 
ATOM     46  C   UNL A   1      41.227  36.606  36.468  1.00  0.00     0.006 A 
ENDBRANCH  25  39
BRANCH  26  47
ATOM     47  C   UNL A   1      40.517  26.971  28.046  1.00  0.00     0.057 A 
ATOM     48  C   UNL A   1      39.753  25.834  28.325  1.00  0.00     0.134 A 
ATOM     49  C   UNL A   1      41.173  27.021  26.809  1.00  0.00     0.134 A 
ATOM     50  F   UNL A   1      39.104  25.722  29.494  1.00  0.00    -0.206 F 
ATOM     51  C   UNL A   1      39.640  24.787  27.408  1.00  0.00     0.040 A 
ATOM     52  C   UNL A   1      41.049  25.994  25.873  1.00  0.00     0.040 A 
ATOM     53  F   UNL A   1      41.904  28.095  26.477  1.00  0.00    -0.206 F 
ATOM     54  C   UNL A   1      40.282  24.871  26.174  1.00  0.00     0.006 A 
ENDBRANCH  26  47
BRANCH  38  55
ATOM     55  C   UNL A   1      44.863  28.420  33.255  1.00  0.00     0.057 A 
ATOM     56  C   UNL A   1      44.704  27.418  34.221  1.00  0.00     0.134 A 
ATOM     57  C   UNL A   1      46.165  28.690  32.811  1.00  0.00     0.134 A 
ATOM     58  F   UNL A   1      43.487  27.116  34.697  1.00  0.00    -0.206 F 
ATOM     59  C   UNL A   1      45.795  26.704  34.718  1.00  0.00     0.040 A 
ATOM     60  C   UNL A   1      47.260  27.960  33.278  1.00  0.00     0.040 A 
ATOM     61  F   UNL A   1      46.383  29.626  31.876  1.00  0.00    -0.206 F 
ATOM     62  C   UNL A   1      47.076  26.966  34.236  1.00  0.00     0.006 A 
ENDBRANCH  38  55
ENDBRANCH  12  13
ENDBRANCH   5   7
ENDBRANCH   2   3
ENDBRANCH   1   2
BRANCH   1  63
ATOM     63  C   UNL A   1      31.311  30.300  25.485  1.00  0.00     0.023 C 
BRANCH  63  64
ATOM     64  C   UNL A   1      32.772  29.844  25.340  1.00  0.00     0.116 C 
BRANCH  64  65
ATOM     65  N   UNL A   1      33.117  29.720  23.938  1.00  0.00    -0.351 N 
ATOM     66  C   UNL A   1      33.148  28.608  23.148  1.00  0.00     0.278 C 
ATOM     67  H   UNL A   1      33.366  30.561  23.491  1.00  0.00     0.163 HD
ATOM     68  O   UNL A   1      33.870  28.663  22.147  1.00  0.00    -0.268 OA
BRANCH  66  69
ATOM     69  C   UNL A   1      32.361  27.318  23.469  1.00  0.00     0.279 C 
ATOM     70  C   UNL A   1      32.938  26.668  24.743  1.00  0.00     0.111 C 
ATOM     71  N   UNL A   1      30.885  27.534  23.517  1.00  0.00    -0.317 N 
ATOM     72  C   UNL A   1      32.073  25.617  25.375  1.00  0.00    -0.033 A 
ATOM     73  C   UNL A   1      30.190  26.270  23.821  1.00  0.00     0.300 C 
ATOM     74  H   UNL A   1      30.726  28.201  24.271  1.00  0.00     0.349 HD
ATOM     75  C   UNL A   1      32.587  24.819  26.407  1.00  0.00     0.006 A 
ATOM     76  C   UNL A   1      30.740  25.477  24.979  1.00  0.00     0.011 A 
ATOM     77  C   UNL A   1      31.792  23.839  27.001  1.00  0.00     0.021 A 
ATOM     78  C   UNL A   1      29.952  24.476  25.569  1.00  0.00     0.030 A 
ATOM     79  C   UNL A   1      30.483  23.662  26.568  1.00  0.00     0.041 A 
ATOM     80  Cl  UNL A   1      29.516  22.416  27.254  1.00  0.00    -0.084 Cl
BRANCH  71  81
ATOM     81  C   UNL A   1      30.315  28.176  22.291  1.00  0.00     0.301 C 
BRANCH  81  82
ATOM     82  C   UNL A   1      29.373  29.360  22.480  1.00  0.00     0.025 A 
ATOM     83  C   UNL A   1      29.738  30.634  22.000  1.00  0.00     0.011 A 
ATOM     84  C   UNL A   1      28.137  29.259  23.142  1.00  0.00     0.049 A 
ATOM     85  C   UNL A   1      29.018  31.780  22.343  1.00  0.00     0.001 A 
ATOM     86  C   UNL A   1      27.413  30.409  23.485  1.00  0.00     0.021 A 
ATOM     87  Cl  UNL A   1      27.387  27.738  23.485  1.00  0.00    -0.084 Cl
ATOM     88  C   UNL A   1      27.874  31.672  23.119  1.00  0.00     0.002 A 
ENDBRANCH  81  82
ENDBRANCH  71  81
ENDBRANCH  66  69
ENDBRANCH  64  65
ENDBRANCH  63  64
ENDBRANCH   1  63
TORSDOF 13
ENDMDL
MODEL 2
REMARK VINA RESULT:     -12.4      4.633      9.553
REMARK SMILES O=C(NCCCCNC(=O)[C@H]1Cc2ccc(Cl)cc2C[N@@H+]1Cc1ccccc1Cl)c1ccc(-c2c3nc(c(-c4c(F)cccc4F)c4ccc([nH]4)c(-c4c(F)cccc4F)c4nc(c(-c5c(F)cccc5F)c5ccc2[nH]5)C=C4)C=C3)cc1
REMARK SMILES IDX 5 1 4 2 3 3 1 4 2 5 30 7 31 8 83 9 32 10 82 11 33 12 34 13
REMARK SMILES IDX 35 14 76 15 36 16 81 17 75 18 77 19 37 20 80 21 74 22 73 23
REMARK SMILES IDX 38 25 64 26 47 27 63 28 48 29 51 30 62 31 78 32 49 33 50 34
REMARK SMILES IDX 61 36 79 37 52 38 39 39 40 40 45 41 41 42 42 43 44 44 46 45
REMARK SMILES IDX 43 46 65 47 66 48 71 49 67 50 68 51 70 52 72 53 69 54 53 55
REMARK SMILES IDX 54 56 59 57 55 58 56 59 58 60 60 61 57 62 6 63 7 64 8 65
REMARK SMILES IDX 9 66 10 68 11 69 12 70 21 71 13 72 20 73 14 75 19 76 15 77
REMARK SMILES IDX 18 78 16 79 17 80 22 81 23 82 24 83 28 84 25 85 27 86 29 87
REMARK SMILES IDX 26 88
REMARK H PARENT 3 6 77 24 51 35 8 67 21 74
REMARK Flexibility Score: inf
ROOT
ATOM      1  C   UNL A   1      37.385  19.479  24.956  1.00  0.00     0.023 C 
ENDROOT
BRANCH   1   2
ATOM      2  C   UNL A   1      38.600  20.109  25.610  1.00  0.00     0.116 C 
BRANCH   2   3
ATOM      3  N   UNL A   1      39.749  19.220  25.649  1.00  0.00    -0.352 N 
ATOM      4  O   UNL A   1      41.920  18.664  25.875  1.00  0.00    -0.269 OA
ATOM      5  C   UNL A   1      41.044  19.502  26.013  1.00  0.00     0.251 C 
ATOM      6  H   UNL A   1      39.576  18.290  25.377  1.00  0.00     0.163 HD
BRANCH   5   7
ATOM      7  C   UNL A   1      41.373  20.844  26.545  1.00  0.00     0.039 A 
ATOM      8  C   UNL A   1      41.221  21.077  27.914  1.00  0.00     0.014 A 
ATOM      9  C   UNL A   1      41.825  21.863  25.704  1.00  0.00     0.014 A 
ATOM     10  C   UNL A   1      41.554  22.326  28.441  1.00  0.00     0.010 A 
ATOM     11  C   UNL A   1      42.248  23.071  26.244  1.00  0.00     0.010 A 
ATOM     12  C   UNL A   1      42.085  23.327  27.612  1.00  0.00    -0.014 A 
BRANCH  12  13
ATOM     13  C   UNL A   1      42.403  24.673  28.147  1.00  0.00     0.031 A 
ATOM     14  C   UNL A   1      43.830  25.032  28.466  1.00  0.00     0.074 A 
ATOM     15  C   UNL A   1      41.415  25.560  28.370  1.00  0.00     0.049 A 
ATOM     16  N   UNL A   1      44.319  26.148  28.942  1.00  0.00    -0.248 NA
ATOM     17  C   UNL A   1      44.840  23.982  28.251  1.00  0.00     0.031 C 
ATOM     18  C   UNL A   1      39.988  25.317  28.146  1.00  0.00     0.029 A 
ATOM     19  N   UNL A   1      41.465  26.851  28.827  1.00  0.00    -0.354 N 
ATOM     20  C   UNL A   1      45.682  25.926  29.101  1.00  0.00     0.074 A 
ATOM     21  C   UNL A   1      45.932  24.550  28.739  1.00  0.00     0.031 C 
ATOM     22  C   UNL A   1      39.304  26.442  28.415  1.00  0.00     0.029 A 
ATOM     23  C   UNL A   1      40.239  27.470  28.860  1.00  0.00     0.049 A 
ATOM     24  H   UNL A   1      42.300  27.293  29.104  1.00  0.00     0.167 HD
ATOM     25  C   UNL A   1      46.646  26.798  29.482  1.00  0.00     0.037 A 
ATOM     26  C   UNL A   1      39.915  28.732  29.199  1.00  0.00     0.037 A 
ATOM     27  C   UNL A   1      46.401  28.176  29.807  1.00  0.00     0.049 A 
ATOM     28  C   UNL A   1      41.004  29.678  29.623  1.00  0.00     0.074 A 
ATOM     29  C   UNL A   1      47.312  29.163  30.139  1.00  0.00     0.029 A 
ATOM     30  N   UNL A   1      45.145  28.763  29.841  1.00  0.00    -0.354 N 
ATOM     31  N   UNL A   1      42.298  29.478  29.696  1.00  0.00    -0.248 NA
ATOM     32  C   UNL A   1      40.582  31.032  30.003  1.00  0.00     0.031 C 
ATOM     33  C   UNL A   1      46.602  30.337  30.416  1.00  0.00     0.029 A 
ATOM     34  C   UNL A   1      45.254  30.094  30.210  1.00  0.00     0.049 A 
ATOM     35  H   UNL A   1      44.300  28.302  29.633  1.00  0.00     0.167 HD
ATOM     36  C   UNL A   1      42.847  30.688  30.101  1.00  0.00     0.074 A 
ATOM     37  C   UNL A   1      41.745  31.620  30.235  1.00  0.00     0.031 C 
ATOM     38  C   UNL A   1      44.144  31.004  30.340  1.00  0.00     0.037 A 
BRANCH  25  39
ATOM     39  C   UNL A   1      48.050  26.270  29.563  1.00  0.00     0.057 A 
ATOM     40  C   UNL A   1      48.895  26.311  28.448  1.00  0.00     0.134 A 
ATOM     41  C   UNL A   1      48.576  25.736  30.749  1.00  0.00     0.134 A 
ATOM     42  F   UNL A   1      48.458  26.806  27.279  1.00  0.00    -0.206 F 
ATOM     43  C   UNL A   1      50.212  25.850  28.510  1.00  0.00     0.040 A 
ATOM     44  C   UNL A   1      49.900  25.300  30.833  1.00  0.00     0.040 A 
ATOM     45  F   UNL A   1      47.826  25.682  31.861  1.00  0.00    -0.206 F 
ATOM     46  C   UNL A   1      50.720  25.355  29.709  1.00  0.00     0.006 A 
ENDBRANCH  25  39
BRANCH  26  47
ATOM     47  C   UNL A   1      38.509  29.199  29.103  1.00  0.00     0.057 A 
ATOM     48  C   UNL A   1      37.654  29.196  30.209  1.00  0.00     0.134 A 
ATOM     49  C   UNL A   1      38.003  29.701  27.897  1.00  0.00     0.134 A 
ATOM     50  F   UNL A   1      38.076  28.723  31.392  1.00  0.00    -0.206 F 
ATOM     51  C   UNL A   1      36.346  29.678  30.122  1.00  0.00     0.040 A 
ATOM     52  C   UNL A   1      36.707  30.209  27.801  1.00  0.00     0.040 A 
ATOM     53  F   UNL A   1      38.783  29.748  26.806  1.00  0.00    -0.206 F 
ATOM     54  C   UNL A   1      35.874  30.195  28.917  1.00  0.00     0.006 A 
ENDBRANCH  26  47
BRANCH  38  55
ATOM     55  C   UNL A   1      44.431  32.423  30.735  1.00  0.00     0.057 A 
ATOM     56  C   UNL A   1      44.471  32.793  32.086  1.00  0.00     0.134 A 
ATOM     57  C   UNL A   1      44.680  33.421  29.784  1.00  0.00     0.134 A 
ATOM     58  F   UNL A   1      44.232  31.889  33.048  1.00  0.00    -0.206 F 
ATOM     59  C   UNL A   1      44.760  34.101  32.476  1.00  0.00     0.040 A 
ATOM     60  C   UNL A   1      45.002  34.725  30.162  1.00  0.00     0.040 A 
ATOM     61  F   UNL A   1      44.672  33.129  28.474  1.00  0.00    -0.206 F 
ATOM     62  C   UNL A   1      45.039  35.068  31.513  1.00  0.00     0.006 A 
ENDBRANCH  38  55
ENDBRANCH  12  13
ENDBRANCH   5   7
ENDBRANCH   2   3
ENDBRANCH   1   2
BRANCH   1  63
ATOM     63  C   UNL A   1      36.160  20.390  24.879  1.00  0.00     0.023 C 
BRANCH  63  64
ATOM     64  C   UNL A   1      36.131  21.529  25.911  1.00  0.00     0.116 C 
BRANCH  64  65
ATOM     65  N   UNL A   1      35.074  21.301  26.874  1.00  0.00    -0.351 N 
ATOM     66  C   UNL A   1      33.823  21.843  26.934  1.00  0.00     0.278 C 
ATOM     67  H   UNL A   1      35.289  20.662  27.591  1.00  0.00     0.163 HD
ATOM     68  O   UNL A   1      33.275  21.846  28.041  1.00  0.00    -0.268 OA
BRANCH  66  69
ATOM     69  C   UNL A   1      33.106  22.456  25.710  1.00  0.00     0.279 C 
ATOM     70  C   UNL A   1      33.862  23.721  25.255  1.00  0.00     0.111 C 
ATOM     71  N   UNL A   1      32.870  21.468  24.617  1.00  0.00    -0.317 N 
ATOM     72  C   UNL A   1      33.502  24.225  23.887  1.00  0.00    -0.033 A 
ATOM     73  C   UNL A   1      32.181  22.109  23.484  1.00  0.00     0.300 C 
ATOM     74  H   UNL A   1      33.794  21.153  24.322  1.00  0.00     0.349 HD
ATOM     75  C   UNL A   1      33.968  25.477  23.460  1.00  0.00     0.006 A 
ATOM     76  C   UNL A   1      32.757  23.423  23.019  1.00  0.00     0.011 A 
ATOM     77  C   UNL A   1      33.639  25.956  22.192  1.00  0.00     0.021 A 
ATOM     78  C   UNL A   1      32.415  23.919  21.751  1.00  0.00     0.030 A 
ATOM     79  C   UNL A   1      32.851  25.180  21.349  1.00  0.00     0.041 A 
ATOM     80  Cl  UNL A   1      32.392  25.789  19.807  1.00  0.00    -0.084 Cl
BRANCH  71  81
ATOM     81  C   UNL A   1      32.149  20.230  25.051  1.00  0.00     0.301 C 
BRANCH  81  82
ATOM     82  C   UNL A   1      32.753  18.883  24.668  1.00  0.00     0.025 A 
ATOM     83  C   UNL A   1      33.211  18.006  25.672  1.00  0.00     0.011 A 
ATOM     84  C   UNL A   1      32.905  18.461  23.336  1.00  0.00     0.049 A 
ATOM     85  C   UNL A   1      33.967  16.872  25.365  1.00  0.00     0.001 A 
ATOM     86  C   UNL A   1      33.663  17.323  23.028  1.00  0.00     0.021 A 
ATOM     87  Cl  UNL A   1      32.103  19.242  22.016  1.00  0.00    -0.084 Cl
ATOM     88  C   UNL A   1      34.226  16.552  24.041  1.00  0.00     0.002 A 
ENDBRANCH  81  82
ENDBRANCH  71  81
ENDBRANCH  66  69
ENDBRANCH  64  65
ENDBRANCH  63  64
ENDBRANCH   1  63
TORSDOF 13
ENDMDL
MODEL 3
REMARK VINA RESULT:     -12.1      4.602      9.328
REMARK SMILES O=C(NCCCCNC(=O)[C@H]1Cc2ccc(Cl)cc2C[N@@H+]1Cc1ccccc1Cl)c1ccc(-c2c3nc(c(-c4c(F)cccc4F)c4ccc([nH]4)c(-c4c(F)cccc4F)c4nc(c(-c5c(F)cccc5F)c5ccc2[nH]5)C=C4)C=C3)cc1
REMARK SMILES IDX 5 1 4 2 3 3 1 4 2 5 30 7 31 8 83 9 32 10 82 11 33 12 34 13
REMARK SMILES IDX 35 14 76 15 36 16 81 17 75 18 77 19 37 20 80 21 74 22 73 23
REMARK SMILES IDX 38 25 64 26 47 27 63 28 48 29 51 30 62 31 78 32 49 33 50 34
REMARK SMILES IDX 61 36 79 37 52 38 39 39 40 40 45 41 41 42 42 43 44 44 46 45
REMARK SMILES IDX 43 46 65 47 66 48 71 49 67 50 68 51 70 52 72 53 69 54 53 55
REMARK SMILES IDX 54 56 59 57 55 58 56 59 58 60 60 61 57 62 6 63 7 64 8 65
REMARK SMILES IDX 9 66 10 68 11 69 12 70 21 71 13 72 20 73 14 75 19 76 15 77
REMARK SMILES IDX 18 78 16 79 17 80 22 81 23 82 24 83 28 84 25 85 27 86 29 87
REMARK SMILES IDX 26 88
REMARK H PARENT 3 6 77 24 51 35 8 67 21 74
REMARK Flexibility Score: inf
ROOT
ATOM      1  C   UNL A   1      37.590  19.895  24.690  1.00  0.00     0.023 C 
ENDROOT
BRANCH   1   2
ATOM      2  C   UNL A   1      38.648  20.288  25.704  1.00  0.00     0.116 C 
BRANCH   2   3
ATOM      3  N   UNL A   1      39.729  19.321  25.800  1.00  0.00    -0.352 N 
ATOM      4  O   UNL A   1      41.853  18.623  26.079  1.00  0.00    -0.269 OA
ATOM      5  C   UNL A   1      41.038  19.527  26.167  1.00  0.00     0.251 C 
ATOM      6  H   UNL A   1      39.493  18.394  25.569  1.00  0.00     0.163 HD
BRANCH   5   7
ATOM      7  C   UNL A   1      41.458  20.866  26.639  1.00  0.00     0.039 A 
ATOM      8  C   UNL A   1      41.396  21.143  28.006  1.00  0.00     0.014 A 
ATOM      9  C   UNL A   1      41.907  21.839  25.744  1.00  0.00     0.014 A 
ATOM     10  C   UNL A   1      41.815  22.389  28.476  1.00  0.00     0.010 A 
ATOM     11  C   UNL A   1      42.415  23.040  26.223  1.00  0.00     0.010 A 
ATOM     12  C   UNL A   1      42.343  23.341  27.589  1.00  0.00    -0.014 A 
BRANCH  12  13
ATOM     13  C   UNL A   1      42.751  24.685  28.065  1.00  0.00     0.031 A 
ATOM     14  C   UNL A   1      41.708  25.746  28.294  1.00  0.00     0.074 A 
ATOM     15  C   UNL A   1      44.053  24.960  28.268  1.00  0.00     0.049 A 
ATOM     16  N   UNL A   1      41.854  26.979  28.704  1.00  0.00    -0.248 NA
ATOM     17  C   UNL A   1      40.314  25.379  27.989  1.00  0.00     0.031 C 
ATOM     18  C   UNL A   1      45.164  24.032  28.039  1.00  0.00     0.029 A 
ATOM     19  N   UNL A   1      44.661  26.101  28.725  1.00  0.00    -0.354 N 
ATOM     20  C   UNL A   1      40.581  27.537  28.685  1.00  0.00     0.074 A 
ATOM     21  C   UNL A   1      39.686  26.532  28.157  1.00  0.00     0.031 C 
ATOM     22  C   UNL A   1      46.312  24.625  28.407  1.00  0.00     0.029 A 
ATOM     23  C   UNL A   1      46.022  25.979  28.866  1.00  0.00     0.049 A 
ATOM     24  H   UNL A   1      44.169  26.928  28.932  1.00  0.00     0.167 HD
ATOM     25  C   UNL A   1      40.184  28.763  29.102  1.00  0.00     0.037 A 
ATOM     26  C   UNL A   1      46.927  26.862  29.328  1.00  0.00     0.037 A 
ATOM     27  C   UNL A   1      41.070  29.748  29.660  1.00  0.00     0.049 A 
ATOM     28  C   UNL A   1      46.460  28.219  29.778  1.00  0.00     0.074 A 
ATOM     29  C   UNL A   1      40.763  30.995  30.176  1.00  0.00     0.029 A 
ATOM     30  N   UNL A   1      42.443  29.594  29.776  1.00  0.00    -0.354 N 
ATOM     31  N   UNL A   1      45.244  28.707  29.827  1.00  0.00    -0.248 NA
ATOM     32  C   UNL A   1      47.499  29.144  30.249  1.00  0.00     0.031 C 
ATOM     33  C   UNL A   1      41.958  31.612  30.564  1.00  0.00     0.029 A 
ATOM     34  C   UNL A   1      43.002  30.732  30.333  1.00  0.00     0.049 A 
ATOM     35  H   UNL A   1      42.946  28.793  29.502  1.00  0.00     0.167 HD
ATOM     36  C   UNL A   1      45.368  29.984  30.361  1.00  0.00     0.074 A 
ATOM     37  C   UNL A   1      46.776  30.182  30.639  1.00  0.00     0.031 C 
ATOM     38  C   UNL A   1      44.407  30.910  30.600  1.00  0.00     0.037 A 
BRANCH  25  39
ATOM     39  C   UNL A   1      38.725  29.093  28.960  1.00  0.00     0.057 A 
ATOM     40  C   UNL A   1      37.858  28.979  30.053  1.00  0.00     0.134 A 
ATOM     41  C   UNL A   1      38.178  29.541  27.749  1.00  0.00     0.134 A 
ATOM     42  F   UNL A   1      38.311  28.554  31.243  1.00  0.00    -0.206 F 
ATOM     43  C   UNL A   1      36.504  29.307  29.950  1.00  0.00     0.040 A 
ATOM     44  C   UNL A   1      36.833  29.901  27.640  1.00  0.00     0.040 A 
ATOM     45  F   UNL A   1      38.957  29.689  26.665  1.00  0.00    -0.206 F 
ATOM     46  C   UNL A   1      35.992  29.781  28.743  1.00  0.00     0.006 A 
ENDBRANCH  25  39
BRANCH  26  47
ATOM     47  C   UNL A   1      48.357  26.484  29.442  1.00  0.00     0.057 A 
ATOM     48  C   UNL A   1      49.281  26.777  28.434  1.00  0.00     0.134 A 
ATOM     49  C   UNL A   1      48.839  25.849  30.594  1.00  0.00     0.134 A 
ATOM     50  F   UNL A   1      48.883  27.380  27.303  1.00  0.00    -0.206 F 
ATOM     51  C   UNL A   1      50.634  26.457  28.568  1.00  0.00     0.040 A 
ATOM     52  C   UNL A   1      50.191  25.545  30.752  1.00  0.00     0.040 A 
ATOM     53  F   UNL A   1      48.004  25.560  31.604  1.00  0.00    -0.206 F 
ATOM     54  C   UNL A   1      51.093  25.848  29.734  1.00  0.00     0.006 A 
ENDBRANCH  26  47
BRANCH  38  55
ATOM     55  C   UNL A   1      44.854  32.199  31.224  1.00  0.00     0.057 A 
ATOM     56  C   UNL A   1      45.269  33.272  30.425  1.00  0.00     0.134 A 
ATOM     57  C   UNL A   1      44.862  32.387  32.612  1.00  0.00     0.134 A 
ATOM     58  F   UNL A   1      45.294  33.157  29.088  1.00  0.00    -0.206 F 
ATOM     59  C   UNL A   1      45.664  34.488  30.983  1.00  0.00     0.040 A 
ATOM     60  C   UNL A   1      45.225  33.609  33.181  1.00  0.00     0.040 A 
ATOM     61  F   UNL A   1      44.462  31.404  33.433  1.00  0.00    -0.206 F 
ATOM     62  C   UNL A   1      45.631  34.663  32.365  1.00  0.00     0.006 A 
ENDBRANCH  38  55
ENDBRANCH  12  13
ENDBRANCH   5   7
ENDBRANCH   2   3
ENDBRANCH   1   2
BRANCH   1  63
ATOM     63  C   UNL A   1      36.191  20.430  24.991  1.00  0.00     0.023 C 
BRANCH  63  64
ATOM     64  C   UNL A   1      36.145  21.624  25.957  1.00  0.00     0.116 C 
BRANCH  64  65
ATOM     65  N   UNL A   1      35.108  21.423  26.948  1.00  0.00    -0.351 N 
ATOM     66  C   UNL A   1      33.865  21.981  27.029  1.00  0.00     0.278 C 
ATOM     67  H   UNL A   1      35.332  20.791  27.669  1.00  0.00     0.163 HD
ATOM     68  O   UNL A   1      33.343  22.006  28.149  1.00  0.00    -0.268 OA
BRANCH  66  69
ATOM     69  C   UNL A   1      33.128  22.587  25.814  1.00  0.00     0.279 C 
ATOM     70  C   UNL A   1      33.891  23.833  25.320  1.00  0.00     0.111 C 
ATOM     71  N   UNL A   1      32.850  21.586  24.743  1.00  0.00    -0.317 N 
ATOM     72  C   UNL A   1      33.505  24.321  23.954  1.00  0.00    -0.033 A 
ATOM     73  C   UNL A   1      32.142  22.220  23.617  1.00  0.00     0.300 C 
ATOM     74  H   UNL A   1      33.761  21.252  24.430  1.00  0.00     0.349 HD
ATOM     75  C   UNL A   1      33.980  25.558  23.496  1.00  0.00     0.006 A 
ATOM     76  C   UNL A   1      32.727  23.517  23.117  1.00  0.00     0.011 A 
ATOM     77  C   UNL A   1      33.627  26.023  22.229  1.00  0.00     0.021 A 
ATOM     78  C   UNL A   1      32.361  23.999  21.851  1.00  0.00     0.030 A 
ATOM     79  C   UNL A   1      32.806  25.247  21.418  1.00  0.00     0.041 A 
ATOM     80  Cl  UNL A   1      32.318  25.839  19.879  1.00  0.00    -0.084 Cl
BRANCH  71  81
ATOM     81  C   UNL A   1      32.121  20.366  25.213  1.00  0.00     0.301 C 
BRANCH  81  82
ATOM     82  C   UNL A   1      32.648  19.005  24.769  1.00  0.00     0.025 A 
ATOM     83  C   UNL A   1      33.018  18.045  25.731  1.00  0.00     0.011 A 
ATOM     84  C   UNL A   1      32.811  18.650  23.418  1.00  0.00     0.049 A 
ATOM     85  C   UNL A   1      33.708  16.883  25.379  1.00  0.00     0.001 A 
ATOM     86  C   UNL A   1      33.502  17.483  23.065  1.00  0.00     0.021 A 
ATOM     87  Cl  UNL A   1      32.100  19.555  22.126  1.00  0.00    -0.084 Cl
ATOM     88  C   UNL A   1      33.985  16.621  24.046  1.00  0.00     0.002 A 
ENDBRANCH  81  82
ENDBRANCH  71  81
ENDBRANCH  66  69
ENDBRANCH  64  65
ENDBRANCH  63  64
ENDBRANCH   1  63
TORSDOF 13
ENDMDL
