MODEL 1
REMARK VINA RESULT:     -12.3      0.000      0.000
REMARK SMILES CS(=O)(=O)c1ccc(N2N=C(C(=O)NCCCCNC(=O)c3ccc(-c4c5nc(c(-c6c(F)cccc6F)c6ccc([nH]6)c(-c6c(F)cccc6F)c6nc(c(-c7c(F)cccc7F)c7ccc4[nH]7)C=C6)C=C5)cc3)C[C@H]2c2ccco2)cc1
REMARK SMILES IDX 16 1 15 2 14 3 12 4 13 5 11 7 9 8 10 9 77 10 76 11 8 12 5 13
REMARK SMILES IDX 6 14 84 15 7 16 83 17 2 18 1 19 3 20 4 21 78 22 79 23 82 24
REMARK SMILES IDX 80 25 81 26 17 27 18 28 19 29 20 30 21 32 22 33 23 34 75 35
REMARK SMILES IDX 24 36 74 37 25 38 26 39 27 40 68 41 28 42 73 43 67 44 69 45
REMARK SMILES IDX 29 46 72 47 66 48 65 49 30 51 56 52 39 53 55 54 40 55 43 56
REMARK SMILES IDX 54 57 70 58 41 59 42 60 53 62 71 63 44 64 31 65 32 66 37 67
REMARK SMILES IDX 33 68 34 69 36 70 38 71 35 72 57 73 58 74 63 75 59 76 60 77
REMARK SMILES IDX 62 78 64 79 61 80 45 81 46 82 51 83 47 84 48 85 50 86 52 87
REMARK SMILES IDX 49 88
REMARK H PARENT 14 6 19 31 69 50 43 61
REMARK Flexibility Score: inf
ROOT
ATOM      1  C   UNL A   1      32.134  27.453  26.042  1.00  0.00     0.023 C 
ENDROOT
BRANCH   1   2
ATOM      2  C   UNL A   1      31.333  26.179  26.292  1.00  0.00     0.116 C 
BRANCH   2   3
ATOM      3  N   UNL A   1      30.536  25.825  25.134  1.00  0.00    -0.351 N 
ATOM      4  C   UNL A   1      30.730  25.009  24.049  1.00  0.00     0.267 C 
ATOM      5  O   UNL A   1      29.865  25.020  23.176  1.00  0.00    -0.268 OA
ATOM      6  H   UNL A   1      29.658  26.270  25.126  1.00  0.00     0.163 HD
BRANCH   4   7
ATOM      7  C   UNL A   1      31.915  24.070  23.886  1.00  0.00     0.128 C 
ATOM      8  N   UNL A   1      33.054  22.277  24.075  1.00  0.00    -0.254 N 
ATOM      9  N   UNL A   1      31.804  22.803  24.154  1.00  0.00    -0.171 NA
ATOM     10  C   UNL A   1      34.049  23.195  23.520  1.00  0.00     0.180 C 
ATOM     11  C   UNL A   1      33.272  24.512  23.456  1.00  0.00     0.099 C 
BRANCH   8  12
ATOM     12  C   UNL A   1      33.238  20.903  24.112  1.00  0.00     0.060 A 
ATOM     13  C   UNL A   1      33.568  18.112  24.156  1.00  0.00     0.067 A 
ATOM     14  C   UNL A   1      34.456  18.930  24.859  1.00  0.00     0.022 A 
ATOM     15  C   UNL A   1      32.528  18.672  23.418  1.00  0.00     0.022 A 
ATOM     16  C   UNL A   1      34.291  20.319  24.827  1.00  0.00     0.029 A 
ATOM     17  C   UNL A   1      32.375  20.059  23.400  1.00  0.00     0.029 A 
BRANCH  13  18
ATOM     18  S   UNL A   1      33.830  16.357  24.192  1.00  0.00     0.175 S 
ATOM     19  C   UNL A   1      35.251  16.074  25.213  1.00  0.00     0.163 C 
ATOM     20  O   UNL A   1      34.172  15.965  22.837  1.00  0.00    -0.224 OA
ATOM     21  O   UNL A   1      32.693  15.775  24.878  1.00  0.00    -0.224 OA
ENDBRANCH  13  18
ENDBRANCH   8  12
BRANCH  10  22
ATOM     22  C   UNL A   1      35.355  23.336  24.248  1.00  0.00     0.128 A 
ATOM     23  C   UNL A   1      36.670  23.179  23.852  1.00  0.00     0.048 A 
ATOM     24  O   UNL A   1      35.319  23.679  25.571  1.00  0.00    -0.467 OA
ATOM     25  C   UNL A   1      37.470  23.433  24.992  1.00  0.00     0.042 A 
ATOM     26  C   UNL A   1      36.600  23.748  26.008  1.00  0.00     0.195 A 
ENDBRANCH  10  22
ENDBRANCH   4   7
ENDBRANCH   2   3
ENDBRANCH   1   2
BRANCH   1  27
ATOM     27  C   UNL A   1      32.523  28.208  27.312  1.00  0.00     0.023 C 
BRANCH  27  28
ATOM     28  C   UNL A   1      33.881  28.901  27.263  1.00  0.00     0.116 C 
BRANCH  28  29
ATOM     29  N   UNL A   1      33.885  30.217  27.888  1.00  0.00    -0.352 N 
ATOM     30  C   UNL A   1      34.912  30.831  28.566  1.00  0.00     0.251 C 
ATOM     31  H   UNL A   1      33.048  30.731  27.817  1.00  0.00     0.163 HD
ATOM     32  O   UNL A   1      34.746  31.911  29.121  1.00  0.00    -0.269 OA
BRANCH  30  33
ATOM     33  C   UNL A   1      36.212  30.140  28.648  1.00  0.00     0.039 A 
ATOM     34  C   UNL A   1      37.083  30.204  27.558  1.00  0.00     0.014 A 
ATOM     35  C   UNL A   1      36.595  29.512  29.835  1.00  0.00     0.014 A 
ATOM     36  C   UNL A   1      38.379  29.706  27.689  1.00  0.00     0.010 A 
ATOM     37  C   UNL A   1      37.906  29.077  29.984  1.00  0.00     0.010 A 
ATOM     38  C   UNL A   1      38.812  29.179  28.916  1.00  0.00    -0.014 A 
BRANCH  38  39
ATOM     39  C   UNL A   1      40.211  28.731  29.125  1.00  0.00     0.031 A 
ATOM     40  C   UNL A   1      41.229  29.704  29.649  1.00  0.00     0.074 A 
ATOM     41  C   UNL A   1      40.586  27.496  28.740  1.00  0.00     0.049 A 
ATOM     42  N   UNL A   1      42.527  29.574  29.741  1.00  0.00    -0.248 NA
ATOM     43  C   UNL A   1      40.721  31.010  30.097  1.00  0.00     0.031 C 
ATOM     44  C   UNL A   1      39.700  26.476  28.174  1.00  0.00     0.029 A 
ATOM     45  N   UNL A   1      41.821  26.897  28.741  1.00  0.00    -0.354 N 
ATOM     46  C   UNL A   1      42.993  30.789  30.222  1.00  0.00     0.074 A 
ATOM     47  C   UNL A   1      41.845  31.656  30.372  1.00  0.00     0.031 C 
ATOM     48  C   UNL A   1      40.420  25.379  27.887  1.00  0.00     0.029 A 
ATOM     49  C   UNL A   1      41.821  25.630  28.209  1.00  0.00     0.049 A 
ATOM     50  H   UNL A   1      42.631  27.335  29.091  1.00  0.00     0.167 HD
ATOM     51  C   UNL A   1      44.262  31.145  30.526  1.00  0.00     0.037 A 
ATOM     52  C   UNL A   1      42.839  24.778  27.988  1.00  0.00     0.037 A 
ATOM     53  C   UNL A   1      45.394  30.264  30.423  1.00  0.00     0.049 A 
ATOM     54  C   UNL A   1      44.238  25.189  28.358  1.00  0.00     0.074 A 
ATOM     55  C   UNL A   1      46.709  30.507  30.778  1.00  0.00     0.029 A 
ATOM     56  N   UNL A   1      45.343  28.969  29.934  1.00  0.00    -0.354 N 
ATOM     57  N   UNL A   1      44.656  26.322  28.870  1.00  0.00    -0.248 NA
ATOM     58  C   UNL A   1      45.305  24.206  28.125  1.00  0.00     0.031 C 
ATOM     59  C   UNL A   1      47.460  29.367  30.478  1.00  0.00     0.029 A 
ATOM     60  C   UNL A   1      46.605  28.403  29.968  1.00  0.00     0.049 A 
ATOM     61  H   UNL A   1      44.530  28.518  29.610  1.00  0.00     0.167 HD
ATOM     62  C   UNL A   1      46.026  26.175  29.046  1.00  0.00     0.074 A 
ATOM     63  C   UNL A   1      46.368  24.843  28.596  1.00  0.00     0.031 C 
ATOM     64  C   UNL A   1      46.920  27.066  29.539  1.00  0.00     0.037 A 
BRANCH  51  65
ATOM     65  C   UNL A   1      44.495  32.545  31.008  1.00  0.00     0.057 A 
ATOM     66  C   UNL A   1      44.474  32.869  32.370  1.00  0.00     0.134 A 
ATOM     67  C   UNL A   1      44.789  33.571  30.102  1.00  0.00     0.134 A 
ATOM     68  F   UNL A   1      44.185  31.933  33.286  1.00  0.00    -0.206 F 
ATOM     69  C   UNL A   1      44.720  34.169  32.813  1.00  0.00     0.040 A 
ATOM     70  C   UNL A   1      45.061  34.870  30.534  1.00  0.00     0.040 A 
ATOM     71  F   UNL A   1      44.828  33.326  28.782  1.00  0.00    -0.206 F 
ATOM     72  C   UNL A   1      45.021  35.173  31.894  1.00  0.00     0.006 A 
ENDBRANCH  51  65
BRANCH  52  73
ATOM     73  C   UNL A   1      42.581  23.443  27.391  1.00  0.00     0.057 A 
ATOM     74  C   UNL A   1      42.225  22.352  28.193  1.00  0.00     0.134 A 
ATOM     75  C   UNL A   1      42.707  23.219  26.015  1.00  0.00     0.134 A 
ATOM     76  F   UNL A   1      42.108  22.501  29.520  1.00  0.00    -0.206 F 
ATOM     77  C   UNL A   1      42.026  21.081  27.651  1.00  0.00     0.040 A 
ATOM     78  C   UNL A   1      42.488  21.959  25.457  1.00  0.00     0.040 A 
ATOM     79  F   UNL A   1      43.038  24.225  25.193  1.00  0.00    -0.206 F 
ATOM     80  C   UNL A   1      42.155  20.883  26.279  1.00  0.00     0.006 A 
ENDBRANCH  52  73
BRANCH  64  81
ATOM     81  C   UNL A   1      48.344  26.616  29.664  1.00  0.00     0.057 A 
ATOM     82  C   UNL A   1      49.288  26.865  28.661  1.00  0.00     0.134 A 
ATOM     83  C   UNL A   1      48.786  25.981  30.831  1.00  0.00     0.134 A 
ATOM     84  F   UNL A   1      48.922  27.459  27.515  1.00  0.00    -0.206 F 
ATOM     85  C   UNL A   1      50.623  26.489  28.811  1.00  0.00     0.040 A 
ATOM     86  C   UNL A   1      50.122  25.618  31.002  1.00  0.00     0.040 A 
ATOM     87  F   UNL A   1      47.931  25.720  31.831  1.00  0.00    -0.206 F 
ATOM     88  C   UNL A   1      51.045  25.871  29.988  1.00  0.00     0.006 A 
ENDBRANCH  64  81
ENDBRANCH  38  39
ENDBRANCH  30  33
ENDBRANCH  28  29
ENDBRANCH  27  28
ENDBRANCH   1  27
TORSDOF 14
ENDMDL
MODEL 2
REMARK VINA RESULT:     -12.1      3.889      7.485
REMARK SMILES CS(=O)(=O)c1ccc(N2N=C(C(=O)NCCCCNC(=O)c3ccc(-c4c5nc(c(-c6c(F)cccc6F)c6ccc([nH]6)c(-c6c(F)cccc6F)c6nc(c(-c7c(F)cccc7F)c7ccc4[nH]7)C=C6)C=C5)cc3)C[C@H]2c2ccco2)cc1
REMARK SMILES IDX 16 1 15 2 14 3 12 4 13 5 11 7 9 8 10 9 77 10 76 11 8 12 5 13
REMARK SMILES IDX 6 14 84 15 7 16 83 17 2 18 1 19 3 20 4 21 78 22 79 23 82 24
REMARK SMILES IDX 80 25 81 26 17 27 18 28 19 29 20 30 21 32 22 33 23 34 75 35
REMARK SMILES IDX 24 36 74 37 25 38 26 39 27 40 68 41 28 42 73 43 67 44 69 45
REMARK SMILES IDX 29 46 72 47 66 48 65 49 30 51 56 52 39 53 55 54 40 55 43 56
REMARK SMILES IDX 54 57 70 58 41 59 42 60 53 62 71 63 44 64 31 65 32 66 37 67
REMARK SMILES IDX 33 68 34 69 36 70 38 71 35 72 57 73 58 74 63 75 59 76 60 77
REMARK SMILES IDX 62 78 64 79 61 80 45 81 46 82 51 83 47 84 48 85 50 86 52 87
REMARK SMILES IDX 49 88
REMARK H PARENT 14 6 19 31 69 50 43 61
REMARK Flexibility Score: inf
ROOT
ATOM      1  C   UNL A   1      33.107  29.279  24.749  1.00  0.00     0.023 C 
ENDROOT
BRANCH   1   2
ATOM      2  C   UNL A   1      32.951  27.762  24.770  1.00  0.00     0.116 C 
BRANCH   2   3
ATOM      3  N   UNL A   1      33.047  27.207  23.434  1.00  0.00    -0.351 N 
ATOM      4  C   UNL A   1      33.514  26.025  22.917  1.00  0.00     0.267 C 
ATOM      5  O   UNL A   1      33.544  25.920  21.693  1.00  0.00    -0.268 OA
ATOM      6  H   UNL A   1      32.699  27.815  22.742  1.00  0.00     0.163 HD
BRANCH   4   7
ATOM      7  C   UNL A   1      33.949  24.836  23.760  1.00  0.00     0.128 C 
ATOM      8  N   UNL A   1      35.249  23.331  24.529  1.00  0.00    -0.254 N 
ATOM      9  N   UNL A   1      35.204  24.514  23.861  1.00  0.00    -0.171 NA
ATOM     10  C   UNL A   1      33.965  22.921  25.096  1.00  0.00     0.180 C 
ATOM     11  C   UNL A   1      33.002  23.943  24.486  1.00  0.00     0.099 C 
BRANCH   8  12
ATOM     12  C   UNL A   1      36.462  22.824  24.971  1.00  0.00     0.060 A 
ATOM     13  C   UNL A   1      38.930  21.843  25.893  1.00  0.00     0.067 A 
ATOM     14  C   UNL A   1      38.111  21.035  25.100  1.00  0.00     0.022 A 
ATOM     15  C   UNL A   1      38.524  23.128  26.244  1.00  0.00     0.022 A 
ATOM     16  C   UNL A   1      36.880  21.526  24.651  1.00  0.00     0.029 A 
ATOM     17  C   UNL A   1      37.295  23.604  25.784  1.00  0.00     0.029 A 
BRANCH  13  18
ATOM     18  S   UNL A   1      40.467  21.172  26.473  1.00  0.00     0.175 S 
ATOM     19  C   UNL A   1      40.426  19.433  26.134  1.00  0.00     0.163 C 
ATOM     20  O   UNL A   1      40.472  21.344  27.913  1.00  0.00    -0.224 OA
ATOM     21  O   UNL A   1      41.514  21.741  25.646  1.00  0.00    -0.224 OA
ENDBRANCH  13  18
ENDBRANCH   8  12
BRANCH  10  22
ATOM     22  C   UNL A   1      33.517  21.506  24.867  1.00  0.00     0.128 A 
ATOM     23  C   UNL A   1      32.916  20.876  23.794  1.00  0.00     0.048 A 
ATOM     24  O   UNL A   1      33.702  20.603  25.877  1.00  0.00    -0.467 OA
ATOM     25  C   UNL A   1      32.721  19.526  24.175  1.00  0.00     0.042 A 
ATOM     26  C   UNL A   1      33.229  19.408  25.445  1.00  0.00     0.195 A 
ENDBRANCH  10  22
ENDBRANCH   4   7
ENDBRANCH   2   3
ENDBRANCH   1   2
BRANCH   1  27
ATOM     27  C   UNL A   1      31.922  30.040  25.342  1.00  0.00     0.023 C 
BRANCH  27  28
ATOM     28  C   UNL A   1      32.119  30.535  26.771  1.00  0.00     0.116 C 
BRANCH  28  29
ATOM     29  N   UNL A   1      31.937  31.973  26.918  1.00  0.00    -0.352 N 
ATOM     30  C   UNL A   1      32.801  32.885  27.478  1.00  0.00     0.251 C 
ATOM     31  H   UNL A   1      31.090  32.337  26.575  1.00  0.00     0.163 HD
ATOM     32  O   UNL A   1      32.478  34.059  27.616  1.00  0.00    -0.269 OA
BRANCH  30  33
ATOM     33  C   UNL A   1      34.115  32.409  27.949  1.00  0.00     0.039 A 
ATOM     34  C   UNL A   1      35.167  33.322  28.059  1.00  0.00     0.014 A 
ATOM     35  C   UNL A   1      34.270  31.085  28.365  1.00  0.00     0.014 A 
ATOM     36  C   UNL A   1      36.358  32.924  28.666  1.00  0.00     0.010 A 
ATOM     37  C   UNL A   1      35.432  30.710  29.028  1.00  0.00     0.010 A 
ATOM     38  C   UNL A   1      36.481  31.629  29.194  1.00  0.00    -0.014 A 
BRANCH  38  39
ATOM     39  C   UNL A   1      37.693  31.199  29.934  1.00  0.00     0.031 A 
ATOM     40  C   UNL A   1      38.663  30.255  29.282  1.00  0.00     0.074 A 
ATOM     41  C   UNL A   1      37.861  31.565  31.219  1.00  0.00     0.049 A 
ATOM     42  N   UNL A   1      39.682  29.624  29.805  1.00  0.00    -0.248 NA
ATOM     43  C   UNL A   1      38.432  29.953  27.860  1.00  0.00     0.031 C 
ATOM     44  C   UNL A   1      36.965  32.441  31.978  1.00  0.00     0.029 A 
ATOM     45  N   UNL A   1      38.833  31.222  32.125  1.00  0.00    -0.354 N 
ATOM     46  C   UNL A   1      40.191  28.827  28.789  1.00  0.00     0.074 A 
ATOM     47  C   UNL A   1      39.351  29.027  27.628  1.00  0.00     0.031 C 
ATOM     48  C   UNL A   1      37.431  32.568  33.231  1.00  0.00     0.029 A 
ATOM     49  C   UNL A   1      38.633  31.752  33.377  1.00  0.00     0.049 A 
ATOM     50  H   UNL A   1      39.601  30.648  31.900  1.00  0.00     0.167 HD
ATOM     51  C   UNL A   1      41.272  28.013  28.817  1.00  0.00     0.037 A 
ATOM     52  C   UNL A   1      39.330  31.583  34.517  1.00  0.00     0.037 A 
ATOM     53  C   UNL A   1      42.134  27.856  29.957  1.00  0.00     0.049 A 
ATOM     54  C   UNL A   1      40.541  30.692  34.514  1.00  0.00     0.074 A 
ATOM     55  C   UNL A   1      43.297  27.113  30.060  1.00  0.00     0.029 A 
ATOM     56  N   UNL A   1      41.929  28.456  31.188  1.00  0.00    -0.354 N 
ATOM     57  N   UNL A   1      41.047  29.991  33.528  1.00  0.00    -0.248 NA
ATOM     58  C   UNL A   1      41.281  30.571  35.778  1.00  0.00     0.031 C 
ATOM     59  C   UNL A   1      43.782  27.241  31.365  1.00  0.00     0.029 A 
ATOM     60  C   UNL A   1      42.939  28.092  32.062  1.00  0.00     0.049 A 
ATOM     61  H   UNL A   1      41.178  29.053  31.409  1.00  0.00     0.167 HD
ATOM     62  C   UNL A   1      42.178  29.372  34.045  1.00  0.00     0.074 A 
ATOM     63  C   UNL A   1      42.289  29.786  35.428  1.00  0.00     0.031 C 
ATOM     64  C   UNL A   1      43.047  28.536  33.427  1.00  0.00     0.037 A 
BRANCH  51  65
ATOM     65  C   UNL A   1      41.589  27.237  27.575  1.00  0.00     0.057 A 
ATOM     66  C   UNL A   1      42.373  27.776  26.548  1.00  0.00     0.134 A 
ATOM     67  C   UNL A   1      41.144  25.918  27.426  1.00  0.00     0.134 A 
ATOM     68  F   UNL A   1      42.818  29.040  26.625  1.00  0.00    -0.206 F 
ATOM     69  C   UNL A   1      42.688  27.037  25.407  1.00  0.00     0.040 A 
ATOM     70  C   UNL A   1      41.473  25.160  26.301  1.00  0.00     0.040 A 
ATOM     71  F   UNL A   1      40.392  25.340  28.376  1.00  0.00    -0.206 F 
ATOM     72  C   UNL A   1      42.243  25.723  25.285  1.00  0.00     0.006 A 
ENDBRANCH  51  65
BRANCH  52  73
ATOM     73  C   UNL A   1      38.907  32.275  35.761  1.00  0.00     0.057 A 
ATOM     74  C   UNL A   1      39.266  33.607  36.001  1.00  0.00     0.134 A 
ATOM     75  C   UNL A   1      38.161  31.619  36.747  1.00  0.00     0.134 A 
ATOM     76  F   UNL A   1      39.998  34.280  35.103  1.00  0.00    -0.206 F 
ATOM     77  C   UNL A   1      38.916  34.255  37.188  1.00  0.00     0.040 A 
ATOM     78  C   UNL A   1      37.784  32.262  37.927  1.00  0.00     0.040 A 
ATOM     79  F   UNL A   1      37.779  30.346  36.573  1.00  0.00    -0.206 F 
ATOM     80  C   UNL A   1      38.171  33.583  38.153  1.00  0.00     0.006 A 
ENDBRANCH  52  73
BRANCH  64  81
ATOM     81  C   UNL A   1      44.220  28.050  34.223  1.00  0.00     0.057 A 
ATOM     82  C   UNL A   1      45.413  28.778  34.298  1.00  0.00     0.134 A 
ATOM     83  C   UNL A   1      44.128  26.871  34.973  1.00  0.00     0.134 A 
ATOM     84  F   UNL A   1      45.565  29.910  33.593  1.00  0.00    -0.206 F 
ATOM     85  C   UNL A   1      46.481  28.344  35.085  1.00  0.00     0.040 A 
ATOM     86  C   UNL A   1      45.181  26.437  35.779  1.00  0.00     0.040 A 
ATOM     87  F   UNL A   1      43.009  26.133  34.948  1.00  0.00    -0.206 F 
ATOM     88  C   UNL A   1      46.362  27.175  35.834  1.00  0.00     0.006 A 
ENDBRANCH  64  81
ENDBRANCH  38  39
ENDBRANCH  30  33
ENDBRANCH  28  29
ENDBRANCH  27  28
ENDBRANCH   1  27
TORSDOF 14
ENDMDL
MODEL 3
REMARK VINA RESULT:     -12.0      3.622      8.773
REMARK SMILES CS(=O)(=O)c1ccc(N2N=C(C(=O)NCCCCNC(=O)c3ccc(-c4c5nc(c(-c6c(F)cccc6F)c6ccc([nH]6)c(-c6c(F)cccc6F)c6nc(c(-c7c(F)cccc7F)c7ccc4[nH]7)C=C6)C=C5)cc3)C[C@H]2c2ccco2)cc1
REMARK SMILES IDX 16 1 15 2 14 3 12 4 13 5 11 7 9 8 10 9 77 10 76 11 8 12 5 13
REMARK SMILES IDX 6 14 84 15 7 16 83 17 2 18 1 19 3 20 4 21 78 22 79 23 82 24
REMARK SMILES IDX 80 25 81 26 17 27 18 28 19 29 20 30 21 32 22 33 23 34 75 35
REMARK SMILES IDX 24 36 74 37 25 38 26 39 27 40 68 41 28 42 73 43 67 44 69 45
REMARK SMILES IDX 29 46 72 47 66 48 65 49 30 51 56 52 39 53 55 54 40 55 43 56
REMARK SMILES IDX 54 57 70 58 41 59 42 60 53 62 71 63 44 64 31 65 32 66 37 67
REMARK SMILES IDX 33 68 34 69 36 70 38 71 35 72 57 73 58 74 63 75 59 76 60 77
REMARK SMILES IDX 62 78 64 79 61 80 45 81 46 82 51 83 47 84 48 85 50 86 52 87
REMARK SMILES IDX 49 88
REMARK H PARENT 14 6 19 31 69 50 43 61
REMARK Flexibility Score: inf
ROOT
ATOM      1  C   UNL A   1      35.490  21.865  25.868  1.00  0.00     0.023 C 
ENDROOT
BRANCH   1   2
ATOM      2  C   UNL A   1      34.115  21.935  25.210  1.00  0.00     0.116 C 
BRANCH   2   3
ATOM      3  N   UNL A   1      34.217  22.362  23.828  1.00  0.00    -0.351 N 
ATOM      4  C   UNL A   1      33.739  23.433  23.117  1.00  0.00     0.267 C 
ATOM      5  O   UNL A   1      33.930  23.432  21.903  1.00  0.00    -0.268 OA
ATOM      6  H   UNL A   1      34.748  21.744  23.276  1.00  0.00     0.163 HD
BRANCH   4   7
ATOM      7  C   UNL A   1      33.035  24.629  23.741  1.00  0.00     0.128 C 
ATOM      8  N   UNL A   1      31.996  26.489  23.818  1.00  0.00    -0.254 N 
ATOM      9  N   UNL A   1      32.350  25.455  23.009  1.00  0.00    -0.171 NA
ATOM     10  C   UNL A   1      32.280  26.258  25.234  1.00  0.00     0.180 C 
ATOM     11  C   UNL A   1      33.101  24.966  25.192  1.00  0.00     0.099 C 
BRANCH   8  12
ATOM     12  C   UNL A   1      31.085  27.439  23.380  1.00  0.00     0.060 A 
ATOM     13  C   UNL A   1      29.200  29.333  22.511  1.00  0.00     0.067 A 
ATOM     14  C   UNL A   1      30.563  29.563  22.308  1.00  0.00     0.022 A 
ATOM     15  C   UNL A   1      28.768  28.177  23.157  1.00  0.00     0.022 A 
ATOM     16  C   UNL A   1      31.497  28.620  22.750  1.00  0.00     0.029 A 
ATOM     17  C   UNL A   1      29.713  27.245  23.588  1.00  0.00     0.029 A 
BRANCH  13  18
ATOM     18  S   UNL A   1      28.047  30.569  21.968  1.00  0.00     0.175 S 
ATOM     19  C   UNL A   1      28.860  32.135  22.138  1.00  0.00     0.163 C 
ATOM     20  O   UNL A   1      26.941  30.539  22.907  1.00  0.00    -0.224 OA
ATOM     21  O   UNL A   1      27.834  30.353  20.550  1.00  0.00    -0.224 OA
ENDBRANCH  13  18
ENDBRANCH   8  12
BRANCH  10  22
ATOM     22  C   UNL A   1      32.972  27.351  25.997  1.00  0.00     0.128 A 
ATOM     23  C   UNL A   1      34.303  27.696  26.138  1.00  0.00     0.048 A 
ATOM     24  O   UNL A   1      32.201  28.211  26.728  1.00  0.00    -0.467 OA
ATOM     25  C   UNL A   1      34.341  28.818  27.001  1.00  0.00     0.042 A 
ATOM     26  C   UNL A   1      33.035  29.101  27.320  1.00  0.00     0.195 A 
ENDBRANCH  10  22
ENDBRANCH   4   7
ENDBRANCH   2   3
ENDBRANCH   1   2
BRANCH   1  27
ATOM     27  C   UNL A   1      36.118  23.228  26.154  1.00  0.00     0.023 C 
BRANCH  27  28
ATOM     28  C   UNL A   1      37.330  23.575  25.296  1.00  0.00     0.116 C 
BRANCH  28  29
ATOM     29  N   UNL A   1      38.490  22.735  25.561  1.00  0.00    -0.352 N 
ATOM     30  C   UNL A   1      39.630  23.059  26.260  1.00  0.00     0.251 C 
ATOM     31  H   UNL A   1      38.455  21.823  25.193  1.00  0.00     0.163 HD
ATOM     32  O   UNL A   1      40.570  22.277  26.331  1.00  0.00    -0.269 OA
BRANCH  30  33
ATOM     33  C   UNL A   1      39.712  24.388  26.893  1.00  0.00     0.039 A 
ATOM     34  C   UNL A   1      39.183  24.563  28.173  1.00  0.00     0.014 A 
ATOM     35  C   UNL A   1      40.393  25.424  26.250  1.00  0.00     0.014 A 
ATOM     36  C   UNL A   1      39.410  25.763  28.849  1.00  0.00     0.010 A 
ATOM     37  C   UNL A   1      40.674  26.592  26.950  1.00  0.00     0.010 A 
ATOM     38  C   UNL A   1      40.194  26.767  28.259  1.00  0.00    -0.014 A 
BRANCH  38  39
ATOM     39  C   UNL A   1      40.541  28.014  28.983  1.00  0.00     0.031 A 
ATOM     40  C   UNL A   1      41.863  28.117  29.689  1.00  0.00     0.074 A 
ATOM     41  C   UNL A   1      39.630  29.000  29.098  1.00  0.00     0.049 A 
ATOM     42  N   UNL A   1      42.290  29.036  30.516  1.00  0.00    -0.248 NA
ATOM     43  C   UNL A   1      42.817  27.019  29.462  1.00  0.00     0.031 C 
ATOM     44  C   UNL A   1      38.295  29.000  28.497  1.00  0.00     0.029 A 
ATOM     45  N   UNL A   1      39.682  30.186  29.787  1.00  0.00    -0.354 N 
ATOM     46  C   UNL A   1      43.544  28.611  30.933  1.00  0.00     0.074 A 
ATOM     47  C   UNL A   1      43.796  27.337  30.296  1.00  0.00     0.031 C 
ATOM     48  C   UNL A   1      37.657  30.130  28.841  1.00  0.00     0.029 A 
ATOM     49  C   UNL A   1      38.519  30.916  29.717  1.00  0.00     0.049 A 
ATOM     50  H   UNL A   1      40.477  30.486  30.285  1.00  0.00     0.167 HD
ATOM     51  C   UNL A   1      44.414  29.235  31.760  1.00  0.00     0.037 A 
ATOM     52  C   UNL A   1      38.182  32.077  30.310  1.00  0.00     0.037 A 
ATOM     53  C   UNL A   1      44.180  30.525  32.351  1.00  0.00     0.049 A 
ATOM     54  C   UNL A   1      39.177  32.762  31.206  1.00  0.00     0.074 A 
ATOM     55  C   UNL A   1      45.032  31.276  33.144  1.00  0.00     0.029 A 
ATOM     56  N   UNL A   1      43.013  31.258  32.209  1.00  0.00    -0.354 N 
ATOM     57  N   UNL A   1      40.384  32.378  31.545  1.00  0.00    -0.248 NA
ATOM     58  C   UNL A   1      38.766  34.042  31.800  1.00  0.00     0.031 C 
ATOM     59  C   UNL A   1      44.368  32.452  33.505  1.00  0.00     0.029 A 
ATOM     60  C   UNL A   1      43.117  32.448  32.908  1.00  0.00     0.049 A 
ATOM     61  H   UNL A   1      42.227  30.974  31.689  1.00  0.00     0.167 HD
ATOM     62  C   UNL A   1      40.885  33.381  32.364  1.00  0.00     0.074 A 
ATOM     63  C   UNL A   1      39.857  34.394  32.466  1.00  0.00     0.031 C 
ATOM     64  C   UNL A   1      42.092  33.456  32.976  1.00  0.00     0.037 A 
BRANCH  51  65
ATOM     65  C   UNL A   1      45.702  28.536  32.069  1.00  0.00     0.057 A 
ATOM     66  C   UNL A   1      46.858  28.749  31.308  1.00  0.00     0.134 A 
ATOM     67  C   UNL A   1      45.801  27.675  33.169  1.00  0.00     0.134 A 
ATOM     68  F   UNL A   1      46.825  29.552  30.234  1.00  0.00    -0.206 F 
ATOM     69  C   UNL A   1      48.062  28.116  31.619  1.00  0.00     0.040 A 
ATOM     70  C   UNL A   1      47.005  27.055  33.505  1.00  0.00     0.040 A 
ATOM     71  F   UNL A   1      44.730  27.431  33.942  1.00  0.00    -0.206 F 
ATOM     72  C   UNL A   1      48.139  27.272  32.725  1.00  0.00     0.006 A 
ENDBRANCH  51  65
BRANCH  52  73
ATOM     73  C   UNL A   1      36.843  32.674  30.076  1.00  0.00     0.057 A 
ATOM     74  C   UNL A   1      35.753  32.340  30.889  1.00  0.00     0.134 A 
ATOM     75  C   UNL A   1      36.614  33.568  29.024  1.00  0.00     0.134 A 
ATOM     76  F   UNL A   1      35.907  31.473  31.899  1.00  0.00    -0.206 F 
ATOM     77  C   UNL A   1      34.478  32.857  30.650  1.00  0.00     0.040 A 
ATOM     78  C   UNL A   1      35.349  34.110  28.788  1.00  0.00     0.040 A 
ATOM     79  F   UNL A   1      37.618  33.934  28.214  1.00  0.00    -0.206 F 
ATOM     80  C   UNL A   1      34.275  33.747  29.598  1.00  0.00     0.006 A 
ENDBRANCH  52  73
BRANCH  64  81
ATOM     81  C   UNL A   1      42.387  34.692  33.769  1.00  0.00     0.057 A 
ATOM     82  C   UNL A   1      42.861  35.862  33.165  1.00  0.00     0.134 A 
ATOM     83  C   UNL A   1      42.133  34.727  35.146  1.00  0.00     0.134 A 
ATOM     84  F   UNL A   1      43.133  35.886  31.851  1.00  0.00    -0.206 F 
ATOM     85  C   UNL A   1      43.080  37.024  33.905  1.00  0.00     0.040 A 
ATOM     86  C   UNL A   1      42.329  35.889  35.893  1.00  0.00     0.040 A 
ATOM     87  F   UNL A   1      41.672  33.640  35.782  1.00  0.00    -0.206 F 
ATOM     88  C   UNL A   1      42.807  37.041  35.272  1.00  0.00     0.006 A 
ENDBRANCH  64  81
ENDBRANCH  38  39
ENDBRANCH  30  33
ENDBRANCH  28  29
ENDBRANCH  27  28
ENDBRANCH   1  27
TORSDOF 14
ENDMDL
