MODEL 1
REMARK VINA RESULT:     -12.0      0.000      0.000
REMARK SMILES C[C@@H](C(=O)NCCCCNC(=O)c1ccc(-c2c3nc(c(-c4c(F)cccc4F)c4ccc([nH]4)c(-c4c(F)cccc4F)c4nc(c(-c5c(F)cccc5F)c5ccc2[nH]5)C=C4)C=C3)cc1)c1ccc(C[C@H]2CCCC2=O)cc1
REMARK SMILES IDX 7 1 6 2 5 3 3 4 4 5 2 7 1 8 67 9 68 10 79 11 69 12 78 13
REMARK SMILES IDX 70 14 71 15 72 16 73 17 76 18 74 19 75 20 77 21 8 22 9 23
REMARK SMILES IDX 10 24 11 25 12 27 13 28 14 29 66 30 15 31 65 32 16 33 17 34
REMARK SMILES IDX 18 35 59 36 19 37 64 38 58 39 60 40 20 41 63 42 57 43 56 44
REMARK SMILES IDX 21 46 47 47 30 48 46 49 31 50 34 51 45 52 61 53 32 54 33 55
REMARK SMILES IDX 44 57 62 58 35 59 22 60 23 61 28 62 24 63 25 64 27 65 29 66
REMARK SMILES IDX 26 67 48 68 49 69 54 70 50 71 51 72 53 73 55 74 52 75 36 76
REMARK SMILES IDX 37 77 42 78 38 79 39 80 41 81 43 82 40 83
REMARK H PARENT 5 6 10 26 60 45 34 56
REMARK Flexibility Score: inf
ROOT
ATOM      1  C   UNL A   1      31.274  30.717  26.288  1.00  0.00     0.023 C 
ENDROOT
BRANCH   1   2
ATOM      2  C   UNL A   1      32.482  29.916  26.780  1.00  0.00     0.116 C 
BRANCH   2   3
ATOM      3  N   UNL A   1      32.074  28.609  27.245  1.00  0.00    -0.356 N 
ATOM      4  C   UNL A   1      31.914  27.446  26.550  1.00  0.00     0.227 C 
ATOM      5  O   UNL A   1      31.424  26.500  27.170  1.00  0.00    -0.274 OA
ATOM      6  H   UNL A   1      31.882  28.549  28.209  1.00  0.00     0.163 HD
BRANCH   4   7
ATOM      7  C   UNL A   1      32.385  27.349  25.085  1.00  0.00     0.105 C 
ATOM      8  C   UNL A   1      33.745  28.021  24.855  1.00  0.00     0.023 C 
BRANCH   7   9
ATOM      9  C   UNL A   1      31.338  27.917  24.132  1.00  0.00    -0.036 A 
ATOM     10  C   UNL A   1      31.667  28.924  23.213  1.00  0.00     0.005 A 
ATOM     11  C   UNL A   1      30.010  27.470  24.188  1.00  0.00     0.005 A 
ATOM     12  C   UNL A   1      30.706  29.449  22.356  1.00  0.00     0.004 A 
ATOM     13  C   UNL A   1      29.036  28.026  23.352  1.00  0.00     0.004 A 
ATOM     14  C   UNL A   1      29.373  29.033  22.439  1.00  0.00    -0.047 A 
BRANCH  14  15
ATOM     15  C   UNL A   1      28.321  29.684  21.574  1.00  0.00     0.047 C 
BRANCH  15  16
ATOM     16  C   UNL A   1      27.614  30.909  22.172  1.00  0.00     0.060 C 
ATOM     17  C   UNL A   1      27.824  31.148  23.671  1.00  0.00     0.012 C 
ATOM     18  C   UNL A   1      28.086  32.215  21.577  1.00  0.00     0.136 C 
ATOM     19  C   UNL A   1      28.929  32.191  23.792  1.00  0.00     0.009 C 
ATOM     20  C   UNL A   1      28.775  33.100  22.581  1.00  0.00     0.076 C 
ATOM     21  O   UNL A   1      27.918  32.527  20.402  1.00  0.00    -0.299 OA
ENDBRANCH  15  16
ENDBRANCH  14  15
ENDBRANCH   7   9
ENDBRANCH   4   7
ENDBRANCH   2   3
ENDBRANCH   1   2
BRANCH   1  22
ATOM     22  C   UNL A   1      31.402  32.232  26.474  1.00  0.00     0.023 C 
BRANCH  22  23
ATOM     23  C   UNL A   1      32.616  32.680  27.278  1.00  0.00     0.116 C 
BRANCH  23  24
ATOM     24  N   UNL A   1      32.543  34.076  27.678  1.00  0.00    -0.352 N 
ATOM     25  C   UNL A   1      33.304  34.751  28.598  1.00  0.00     0.251 C 
ATOM     26  H   UNL A   1      31.852  34.612  27.225  1.00  0.00     0.163 HD
ATOM     27  O   UNL A   1      33.011  35.900  28.918  1.00  0.00    -0.269 OA
BRANCH  25  28
ATOM     28  C   UNL A   1      34.459  34.080  29.229  1.00  0.00     0.039 A 
ATOM     29  C   UNL A   1      34.224  33.133  30.228  1.00  0.00     0.014 A 
ATOM     30  C   UNL A   1      35.767  34.375  28.833  1.00  0.00     0.014 A 
ATOM     31  C   UNL A   1      35.297  32.444  30.792  1.00  0.00     0.010 A 
ATOM     32  C   UNL A   1      36.828  33.630  29.338  1.00  0.00     0.010 A 
ATOM     33  C   UNL A   1      36.606  32.665  30.330  1.00  0.00    -0.014 A 
BRANCH  33  34
ATOM     34  C   UNL A   1      37.752  31.902  30.885  1.00  0.00     0.031 A 
ATOM     35  C   UNL A   1      38.250  32.190  32.274  1.00  0.00     0.074 A 
ATOM     36  C   UNL A   1      38.375  30.984  30.120  1.00  0.00     0.049 A 
ATOM     37  N   UNL A   1      39.255  31.655  32.921  1.00  0.00    -0.248 NA
ATOM     38  C   UNL A   1      37.543  33.238  33.028  1.00  0.00     0.031 C 
ATOM     39  C   UNL A   1      38.018  30.647  28.742  1.00  0.00     0.029 A 
ATOM     40  N   UNL A   1      39.442  30.167  30.396  1.00  0.00    -0.354 N 
ATOM     41  C   UNL A   1      39.306  32.306  34.147  1.00  0.00     0.074 A 
ATOM     42  C   UNL A   1      38.273  33.318  34.131  1.00  0.00     0.031 C 
ATOM     43  C   UNL A   1      38.828  29.671  28.304  1.00  0.00     0.029 A 
ATOM     44  C   UNL A   1      39.787  29.341  29.354  1.00  0.00     0.049 A 
ATOM     45  H   UNL A   1      39.917  30.173  31.259  1.00  0.00     0.167 HD
ATOM     46  C   UNL A   1      40.121  32.065  35.201  1.00  0.00     0.037 A 
ATOM     47  C   UNL A   1      40.765  28.422  29.257  1.00  0.00     0.037 A 
ATOM     48  C   UNL A   1      41.137  31.045  35.221  1.00  0.00     0.049 A 
ATOM     49  C   UNL A   1      41.669  28.186  30.436  1.00  0.00     0.074 A 
ATOM     50  C   UNL A   1      41.978  30.685  36.258  1.00  0.00     0.029 A 
ATOM     51  N   UNL A   1      41.453  30.226  34.146  1.00  0.00    -0.354 N 
ATOM     52  N   UNL A   1      41.658  28.757  31.616  1.00  0.00    -0.248 NA
ATOM     53  C   UNL A   1      42.718  27.169  30.271  1.00  0.00     0.031 C 
ATOM     54  C   UNL A   1      42.838  29.684  35.796  1.00  0.00     0.029 A 
ATOM     55  C   UNL A   1      42.494  29.378  34.489  1.00  0.00     0.049 A 
ATOM     56  H   UNL A   1      41.004  30.244  33.270  1.00  0.00     0.167 HD
ATOM     57  C   UNL A   1      42.671  28.147  32.344  1.00  0.00     0.074 A 
ATOM     58  C   UNL A   1      43.266  27.152  31.476  1.00  0.00     0.031 C 
ATOM     59  C   UNL A   1      43.071  28.386  33.617  1.00  0.00     0.037 A 
BRANCH  46  60
ATOM     60  C   UNL A   1      39.945  32.925  36.422  1.00  0.00     0.057 A 
ATOM     61  C   UNL A   1      39.003  32.618  37.414  1.00  0.00     0.134 A 
ATOM     62  C   UNL A   1      40.741  34.059  36.619  1.00  0.00     0.134 A 
ATOM     63  F   UNL A   1      38.198  31.552  37.283  1.00  0.00    -0.206 F 
ATOM     64  C   UNL A   1      38.837  33.427  38.540  1.00  0.00     0.040 A 
ATOM     65  C   UNL A   1      40.607  34.859  37.756  1.00  0.00     0.040 A 
ATOM     66  F   UNL A   1      41.667  34.408  35.714  1.00  0.00    -0.206 F 
ATOM     67  C   UNL A   1      39.646  34.548  38.716  1.00  0.00     0.006 A 
ENDBRANCH  46  60
BRANCH  47  68
ATOM     68  C   UNL A   1      40.927  27.632  28.009  1.00  0.00     0.057 A 
ATOM     69  C   UNL A   1      41.716  28.104  26.954  1.00  0.00     0.134 A 
ATOM     70  C   UNL A   1      40.289  26.398  27.835  1.00  0.00     0.134 A 
ATOM     71  F   UNL A   1      42.339  29.288  27.054  1.00  0.00    -0.206 F 
ATOM     72  C   UNL A   1      41.846  27.391  25.761  1.00  0.00     0.040 A 
ATOM     73  C   UNL A   1      40.433  25.661  26.658  1.00  0.00     0.040 A 
ATOM     74  F   UNL A   1      39.526  25.886  28.811  1.00  0.00    -0.206 F 
ATOM     75  C   UNL A   1      41.207  26.162  25.613  1.00  0.00     0.006 A 
ENDBRANCH  47  68
BRANCH  59  76
ATOM     76  C   UNL A   1      44.178  27.529  34.162  1.00  0.00     0.057 A 
ATOM     77  C   UNL A   1      45.519  27.928  34.121  1.00  0.00     0.134 A 
ATOM     78  C   UNL A   1      43.889  26.296  34.762  1.00  0.00     0.134 A 
ATOM     79  F   UNL A   1      45.865  29.091  33.549  1.00  0.00    -0.206 F 
ATOM     80  C   UNL A   1      46.537  27.119  34.629  1.00  0.00     0.040 A 
ATOM     81  C   UNL A   1      44.895  25.492  35.302  1.00  0.00     0.040 A 
ATOM     82  F   UNL A   1      42.624  25.856  34.845  1.00  0.00    -0.206 F 
ATOM     83  C   UNL A   1      46.224  25.900  35.228  1.00  0.00     0.006 A 
ENDBRANCH  59  76
ENDBRANCH  33  34
ENDBRANCH  25  28
ENDBRANCH  23  24
ENDBRANCH  22  23
ENDBRANCH   1  22
TORSDOF 14
ENDMDL
MODEL 2
REMARK VINA RESULT:     -11.8      6.318     11.184
REMARK SMILES C[C@@H](C(=O)NCCCCNC(=O)c1ccc(-c2c3nc(c(-c4c(F)cccc4F)c4ccc([nH]4)c(-c4c(F)cccc4F)c4nc(c(-c5c(F)cccc5F)c5ccc2[nH]5)C=C4)C=C3)cc1)c1ccc(C[C@H]2CCCC2=O)cc1
REMARK SMILES IDX 7 1 6 2 5 3 3 4 4 5 2 7 1 8 67 9 68 10 79 11 69 12 78 13
REMARK SMILES IDX 70 14 71 15 72 16 73 17 76 18 74 19 75 20 77 21 8 22 9 23
REMARK SMILES IDX 10 24 11 25 12 27 13 28 14 29 66 30 15 31 65 32 16 33 17 34
REMARK SMILES IDX 18 35 59 36 19 37 64 38 58 39 60 40 20 41 63 42 57 43 56 44
REMARK SMILES IDX 21 46 47 47 30 48 46 49 31 50 34 51 45 52 61 53 32 54 33 55
REMARK SMILES IDX 44 57 62 58 35 59 22 60 23 61 28 62 24 63 25 64 27 65 29 66
REMARK SMILES IDX 26 67 48 68 49 69 54 70 50 71 51 72 53 73 55 74 52 75 36 76
REMARK SMILES IDX 37 77 42 78 38 79 39 80 41 81 43 82 40 83
REMARK H PARENT 5 6 10 26 60 45 34 56
REMARK Flexibility Score: inf
ROOT
ATOM      1  C   UNL A   1      36.765  20.626  24.791  1.00  0.00     0.023 C 
ENDROOT
BRANCH   1   2
ATOM      2  C   UNL A   1      36.961  22.114  25.091  1.00  0.00     0.116 C 
BRANCH   2   3
ATOM      3  N   UNL A   1      36.269  22.486  26.306  1.00  0.00    -0.356 N 
ATOM      4  C   UNL A   1      35.002  22.961  26.479  1.00  0.00     0.227 C 
ATOM      5  O   UNL A   1      34.706  23.327  27.618  1.00  0.00    -0.274 OA
ATOM      6  H   UNL A   1      36.792  22.379  27.134  1.00  0.00     0.163 HD
BRANCH   4   7
ATOM      7  C   UNL A   1      34.012  22.971  25.298  1.00  0.00     0.105 C 
ATOM      8  C   UNL A   1      32.875  23.984  25.488  1.00  0.00     0.023 C 
BRANCH   7   9
ATOM      9  C   UNL A   1      33.450  21.576  25.039  1.00  0.00    -0.036 A 
ATOM     10  C   UNL A   1      33.404  20.614  26.057  1.00  0.00     0.005 A 
ATOM     11  C   UNL A   1      33.005  21.217  23.758  1.00  0.00     0.005 A 
ATOM     12  C   UNL A   1      32.904  19.340  25.813  1.00  0.00     0.004 A 
ATOM     13  C   UNL A   1      32.539  19.923  23.504  1.00  0.00     0.004 A 
ATOM     14  C   UNL A   1      32.499  18.967  24.527  1.00  0.00    -0.047 A 
BRANCH  14  15
ATOM     15  C   UNL A   1      32.055  17.552  24.253  1.00  0.00     0.047 C 
BRANCH  15  16
ATOM     16  C   UNL A   1      33.155  16.565  23.834  1.00  0.00     0.060 C 
ATOM     17  C   UNL A   1      34.496  17.180  23.421  1.00  0.00     0.012 C 
ATOM     18  C   UNL A   1      33.569  15.630  24.948  1.00  0.00     0.136 C 
ATOM     19  C   UNL A   1      35.404  17.098  24.642  1.00  0.00     0.009 C 
ATOM     20  C   UNL A   1      34.998  15.828  25.375  1.00  0.00     0.076 C 
ATOM     21  O   UNL A   1      32.823  14.792  25.444  1.00  0.00    -0.299 OA
ENDBRANCH  15  16
ENDBRANCH  14  15
ENDBRANCH   7   9
ENDBRANCH   4   7
ENDBRANCH   2   3
ENDBRANCH   1   2
BRANCH   1  22
ATOM     22  C   UNL A   1      38.067  19.826  24.682  1.00  0.00     0.023 C 
BRANCH  22  23
ATOM     23  C   UNL A   1      39.029  20.004  25.849  1.00  0.00     0.116 C 
BRANCH  23  24
ATOM     24  N   UNL A   1      40.118  19.040  25.834  1.00  0.00    -0.352 N 
ATOM     25  C   UNL A   1      41.462  19.253  26.006  1.00  0.00     0.251 C 
ATOM     26  H   UNL A   1      39.853  18.104  25.680  1.00  0.00     0.163 HD
ATOM     27  O   UNL A   1      42.260  18.338  25.819  1.00  0.00    -0.269 OA
BRANCH  25  28
ATOM     28  C   UNL A   1      41.949  20.594  26.385  1.00  0.00     0.039 A 
ATOM     29  C   UNL A   1      42.281  21.500  25.375  1.00  0.00     0.014 A 
ATOM     30  C   UNL A   1      42.072  20.962  27.729  1.00  0.00     0.014 A 
ATOM     31  C   UNL A   1      42.685  22.792  25.712  1.00  0.00     0.010 A 
ATOM     32  C   UNL A   1      42.396  22.274  28.060  1.00  0.00     0.010 A 
ATOM     33  C   UNL A   1      42.716  23.199  27.057  1.00  0.00    -0.014 A 
BRANCH  33  34
ATOM     34  C   UNL A   1      43.094  24.586  27.427  1.00  0.00     0.031 A 
ATOM     35  C   UNL A   1      44.533  25.018  27.373  1.00  0.00     0.074 A 
ATOM     36  C   UNL A   1      42.147  25.442  27.859  1.00  0.00     0.049 A 
ATOM     37  N   UNL A   1      45.063  26.173  27.687  1.00  0.00    -0.248 NA
ATOM     38  C   UNL A   1      45.511  24.010  26.932  1.00  0.00     0.031 C 
ATOM     39  C   UNL A   1      40.725  25.130  28.002  1.00  0.00     0.029 A 
ATOM     40  N   UNL A   1      42.242  26.751  28.259  1.00  0.00    -0.354 N 
ATOM     41  C   UNL A   1      46.432  26.027  27.493  1.00  0.00     0.074 A 
ATOM     42  C   UNL A   1      46.658  24.654  27.095  1.00  0.00     0.031 C 
ATOM     43  C   UNL A   1      40.075  26.226  28.425  1.00  0.00     0.029 A 
ATOM     44  C   UNL A   1      41.038  27.305  28.621  1.00  0.00     0.049 A 
ATOM     45  H   UNL A   1      43.093  27.247  28.285  1.00  0.00     0.167 HD
ATOM     46  C   UNL A   1      47.409  26.957  27.610  1.00  0.00     0.037 A 
ATOM     47  C   UNL A   1      40.745  28.542  29.062  1.00  0.00     0.037 A 
ATOM     48  C   UNL A   1      47.178  28.326  27.989  1.00  0.00     0.049 A 
ATOM     49  C   UNL A   1      41.850  29.553  29.200  1.00  0.00     0.074 A 
ATOM     50  C   UNL A   1      48.091  29.361  28.083  1.00  0.00     0.029 A 
ATOM     51  N   UNL A   1      45.943  28.850  28.344  1.00  0.00    -0.354 N 
ATOM     52  N   UNL A   1      43.129  29.422  28.941  1.00  0.00    -0.248 NA
ATOM     53  C   UNL A   1      41.469  30.887  29.684  1.00  0.00     0.031 C 
ATOM     54  C   UNL A   1      47.421  30.497  28.546  1.00  0.00     0.029 A 
ATOM     55  C   UNL A   1      46.076  30.187  28.683  1.00  0.00     0.049 A 
ATOM     56  H   UNL A   1      45.097  28.346  28.356  1.00  0.00     0.167 HD
ATOM     57  C   UNL A   1      43.698  30.663  29.197  1.00  0.00     0.074 A 
ATOM     58  C   UNL A   1      42.622  31.536  29.617  1.00  0.00     0.031 C 
ATOM     59  C   UNL A   1      44.994  31.047  29.091  1.00  0.00     0.037 A 
BRANCH  46  60
ATOM     60  C   UNL A   1      48.818  26.519  27.323  1.00  0.00     0.057 A 
ATOM     61  C   UNL A   1      49.640  25.971  28.317  1.00  0.00     0.134 A 
ATOM     62  C   UNL A   1      49.351  26.627  26.034  1.00  0.00     0.134 A 
ATOM     63  F   UNL A   1      49.197  25.850  29.578  1.00  0.00    -0.206 F 
ATOM     64  C   UNL A   1      50.952  25.577  28.046  1.00  0.00     0.040 A 
ATOM     65  C   UNL A   1      50.651  26.207  25.742  1.00  0.00     0.040 A 
ATOM     66  F   UNL A   1      48.618  27.136  25.032  1.00  0.00    -0.206 F 
ATOM     67  C   UNL A   1      51.458  25.688  26.753  1.00  0.00     0.006 A 
ENDBRANCH  46  60
BRANCH  47  68
ATOM     68  C   UNL A   1      39.341  28.910  29.377  1.00  0.00     0.057 A 
ATOM     69  C   UNL A   1      38.809  28.698  30.655  1.00  0.00     0.134 A 
ATOM     70  C   UNL A   1      38.493  29.466  28.411  1.00  0.00     0.134 A 
ATOM     71  F   UNL A   1      39.566  28.153  31.618  1.00  0.00    -0.206 F 
ATOM     72  C   UNL A   1      37.480  29.003  30.955  1.00  0.00     0.040 A 
ATOM     73  C   UNL A   1      37.170  29.802  28.705  1.00  0.00     0.040 A 
ATOM     74  F   UNL A   1      38.944  29.702  27.170  1.00  0.00    -0.206 F 
ATOM     75  C   UNL A   1      36.659  29.561  29.979  1.00  0.00     0.006 A 
ENDBRANCH  47  68
BRANCH  59  76
ATOM     76  C   UNL A   1      45.313  32.483  29.394  1.00  0.00     0.057 A 
ATOM     77  C   UNL A   1      45.706  32.906  30.669  1.00  0.00     0.134 A 
ATOM     78  C   UNL A   1      45.249  33.451  28.383  1.00  0.00     0.134 A 
ATOM     79  F   UNL A   1      45.775  32.033  31.685  1.00  0.00    -0.206 F 
ATOM     80  C   UNL A   1      45.996  34.245  30.936  1.00  0.00     0.040 A 
ATOM     81  C   UNL A   1      45.566  34.788  28.630  1.00  0.00     0.040 A 
ATOM     82  F   UNL A   1      44.888  33.114  27.135  1.00  0.00    -0.206 F 
ATOM     83  C   UNL A   1      45.933  35.189  29.912  1.00  0.00     0.006 A 
ENDBRANCH  59  76
ENDBRANCH  33  34
ENDBRANCH  25  28
ENDBRANCH  23  24
ENDBRANCH  22  23
ENDBRANCH   1  22
TORSDOF 14
ENDMDL
MODEL 3
REMARK VINA RESULT:     -11.8      4.515      9.333
REMARK SMILES C[C@@H](C(=O)NCCCCNC(=O)c1ccc(-c2c3nc(c(-c4c(F)cccc4F)c4ccc([nH]4)c(-c4c(F)cccc4F)c4nc(c(-c5c(F)cccc5F)c5ccc2[nH]5)C=C4)C=C3)cc1)c1ccc(C[C@H]2CCCC2=O)cc1
REMARK SMILES IDX 7 1 6 2 5 3 3 4 4 5 2 7 1 8 67 9 68 10 79 11 69 12 78 13
REMARK SMILES IDX 70 14 71 15 72 16 73 17 76 18 74 19 75 20 77 21 8 22 9 23
REMARK SMILES IDX 10 24 11 25 12 27 13 28 14 29 66 30 15 31 65 32 16 33 17 34
REMARK SMILES IDX 18 35 59 36 19 37 64 38 58 39 60 40 20 41 63 42 57 43 56 44
REMARK SMILES IDX 21 46 47 47 30 48 46 49 31 50 34 51 45 52 61 53 32 54 33 55
REMARK SMILES IDX 44 57 62 58 35 59 22 60 23 61 28 62 24 63 25 64 27 65 29 66
REMARK SMILES IDX 26 67 48 68 49 69 54 70 50 71 51 72 53 73 55 74 52 75 36 76
REMARK SMILES IDX 37 77 42 78 38 79 39 80 41 81 43 82 40 83
REMARK H PARENT 5 6 10 26 60 45 34 56
REMARK Flexibility Score: inf
ROOT
ATOM      1  C   UNL A   1      38.881  22.398  26.224  1.00  0.00     0.023 C 
ENDROOT
BRANCH   1   2
ATOM      2  C   UNL A   1      37.680  23.243  25.791  1.00  0.00     0.116 C 
BRANCH   2   3
ATOM      3  N   UNL A   1      37.498  23.176  24.358  1.00  0.00    -0.356 N 
ATOM      4  C   UNL A   1      36.355  23.027  23.628  1.00  0.00     0.227 C 
ATOM      5  O   UNL A   1      36.498  22.865  22.414  1.00  0.00    -0.274 OA
ATOM      6  H   UNL A   1      38.326  23.249  23.828  1.00  0.00     0.163 HD
BRANCH   4   7
ATOM      7  C   UNL A   1      34.980  23.115  24.318  1.00  0.00     0.105 C 
ATOM      8  C   UNL A   1      33.925  22.223  23.651  1.00  0.00     0.023 C 
BRANCH   7   9
ATOM      9  C   UNL A   1      34.493  24.559  24.392  1.00  0.00    -0.036 A 
ATOM     10  C   UNL A   1      33.969  25.204  23.263  1.00  0.00     0.005 A 
ATOM     11  C   UNL A   1      34.600  25.284  25.588  1.00  0.00     0.005 A 
ATOM     12  C   UNL A   1      33.540  26.525  23.332  1.00  0.00     0.004 A 
ATOM     13  C   UNL A   1      34.203  26.624  25.646  1.00  0.00     0.004 A 
ATOM     14  C   UNL A   1      33.684  27.262  24.512  1.00  0.00    -0.047 A 
BRANCH  14  15
ATOM     15  C   UNL A   1      33.309  28.723  24.543  1.00  0.00     0.047 C 
BRANCH  15  16
ATOM     16  C   UNL A   1      32.003  29.072  25.272  1.00  0.00     0.060 C 
ATOM     17  C   UNL A   1      30.920  27.989  25.280  1.00  0.00     0.012 C 
ATOM     18  C   UNL A   1      32.199  29.331  26.749  1.00  0.00     0.136 C 
ATOM     19  C   UNL A   1      31.039  27.268  26.618  1.00  0.00     0.009 C 
ATOM     20  C   UNL A   1      31.496  28.321  27.616  1.00  0.00     0.076 C 
ATOM     21  O   UNL A   1      32.852  30.269  27.194  1.00  0.00    -0.299 OA
ENDBRANCH  15  16
ENDBRANCH  14  15
ENDBRANCH   7   9
ENDBRANCH   4   7
ENDBRANCH   2   3
ENDBRANCH   1   2
BRANCH   1  22
ATOM     22  C   UNL A   1      39.007  21.058  25.494  1.00  0.00     0.023 C 
BRANCH  22  23
ATOM     23  C   UNL A   1      39.449  19.890  26.366  1.00  0.00     0.116 C 
BRANCH  23  24
ATOM     24  N   UNL A   1      40.643  19.230  25.862  1.00  0.00    -0.352 N 
ATOM     25  C   UNL A   1      41.926  19.709  25.785  1.00  0.00     0.251 C 
ATOM     26  H   UNL A   1      40.512  18.312  25.532  1.00  0.00     0.163 HD
ATOM     27  O   UNL A   1      42.790  19.065  25.196  1.00  0.00    -0.269 OA
BRANCH  25  28
ATOM     28  C   UNL A   1      42.258  21.018  26.384  1.00  0.00     0.039 A 
ATOM     29  C   UNL A   1      42.597  22.077  25.540  1.00  0.00     0.014 A 
ATOM     30  C   UNL A   1      42.229  21.204  27.769  1.00  0.00     0.014 A 
ATOM     31  C   UNL A   1      42.855  23.336  26.082  1.00  0.00     0.010 A 
ATOM     32  C   UNL A   1      42.405  22.477  28.301  1.00  0.00     0.010 A 
ATOM     33  C   UNL A   1      42.731  23.554  27.464  1.00  0.00    -0.014 A 
BRANCH  33  34
ATOM     34  C   UNL A   1      42.951  24.900  28.050  1.00  0.00     0.031 A 
ATOM     35  C   UNL A   1      44.324  25.313  28.501  1.00  0.00     0.074 A 
ATOM     36  C   UNL A   1      41.905  25.733  28.219  1.00  0.00     0.049 A 
ATOM     37  N   UNL A   1      44.710  26.431  29.063  1.00  0.00    -0.248 NA
ATOM     38  C   UNL A   1      45.405  24.330  28.320  1.00  0.00     0.031 C 
ATOM     39  C   UNL A   1      40.517  25.431  27.867  1.00  0.00     0.029 A 
ATOM     40  N   UNL A   1      41.848  27.003  28.734  1.00  0.00    -0.354 N 
ATOM     41  C   UNL A   1      46.068  26.281  29.313  1.00  0.00     0.074 A 
ATOM     42  C   UNL A   1      46.428  24.942  28.898  1.00  0.00     0.031 C 
ATOM     43  C   UNL A   1      39.751  26.498  28.145  1.00  0.00     0.029 A 
ATOM     44  C   UNL A   1      40.586  27.544  28.730  1.00  0.00     0.049 A 
ATOM     45  H   UNL A   1      42.639  27.482  29.076  1.00  0.00     0.167 HD
ATOM     46  C   UNL A   1      46.943  27.183  29.816  1.00  0.00     0.037 A 
ATOM     47  C   UNL A   1      40.150  28.745  29.152  1.00  0.00     0.037 A 
ATOM     48  C   UNL A   1      46.585  28.520  30.211  1.00  0.00     0.049 A 
ATOM     49  C   UNL A   1      41.139  29.724  29.723  1.00  0.00     0.074 A 
ATOM     50  C   UNL A   1      47.406  29.530  30.680  1.00  0.00     0.029 A 
ATOM     51  N   UNL A   1      45.296  29.032  30.187  1.00  0.00    -0.354 N 
ATOM     52  N   UNL A   1      42.433  29.596  29.883  1.00  0.00    -0.248 NA
ATOM     53  C   UNL A   1      40.604  31.021  30.164  1.00  0.00     0.031 C 
ATOM     54  C   UNL A   1      46.608  30.635  30.991  1.00  0.00     0.029 A 
ATOM     55  C   UNL A   1      45.295  30.335  30.659  1.00  0.00     0.049 A 
ATOM     56  H   UNL A   1      44.498  28.542  29.882  1.00  0.00     0.167 HD
ATOM     57  C   UNL A   1      42.873  30.803  30.411  1.00  0.00     0.074 A 
ATOM     58  C   UNL A   1      41.709  31.655  30.529  1.00  0.00     0.031 C 
ATOM     59  C   UNL A   1      44.129  31.175  30.763  1.00  0.00     0.037 A 
BRANCH  46  60
ATOM     60  C   UNL A   1      48.374  26.749  29.967  1.00  0.00     0.057 A 
ATOM     61  C   UNL A   1      48.833  26.098  31.121  1.00  0.00     0.134 A 
ATOM     62  C   UNL A   1      49.299  26.964  28.938  1.00  0.00     0.134 A 
ATOM     63  F   UNL A   1      48.003  25.871  32.151  1.00  0.00    -0.206 F 
ATOM     64  C   UNL A   1      50.167  25.708  31.258  1.00  0.00     0.040 A 
ATOM     65  C   UNL A   1      50.628  26.550  29.051  1.00  0.00     0.040 A 
ATOM     66  F   UNL A   1      48.927  27.575  27.804  1.00  0.00    -0.206 F 
ATOM     67  C   UNL A   1      51.067  25.928  30.218  1.00  0.00     0.006 A 
ENDBRANCH  46  60
BRANCH  47  68
ATOM     68  C   UNL A   1      38.715  29.107  29.023  1.00  0.00     0.057 A 
ATOM     69  C   UNL A   1      38.191  29.557  27.806  1.00  0.00     0.134 A 
ATOM     70  C   UNL A   1      37.838  29.026  30.112  1.00  0.00     0.134 A 
ATOM     71  F   UNL A   1      38.985  29.672  26.731  1.00  0.00    -0.206 F 
ATOM     72  C   UNL A   1      36.854  29.937  27.680  1.00  0.00     0.040 A 
ATOM     73  C   UNL A   1      36.492  29.376  29.993  1.00  0.00     0.040 A 
ATOM     74  F   UNL A   1      38.275  28.594  31.303  1.00  0.00    -0.206 F 
ATOM     75  C   UNL A   1      35.999  29.842  28.775  1.00  0.00     0.006 A 
ENDBRANCH  47  68
BRANCH  59  76
ATOM     76  C   UNL A   1      44.314  32.577  31.269  1.00  0.00     0.057 A 
ATOM     77  C   UNL A   1      44.244  32.893  32.631  1.00  0.00     0.134 A 
ATOM     78  C   UNL A   1      44.594  33.621  30.378  1.00  0.00     0.134 A 
ATOM     79  F   UNL A   1      43.966  31.942  33.536  1.00  0.00    -0.206 F 
ATOM     80  C   UNL A   1      44.415  34.201  33.086  1.00  0.00     0.040 A 
ATOM     81  C   UNL A   1      44.799  34.928  30.823  1.00  0.00     0.040 A 
ATOM     82  F   UNL A   1      44.686  33.387  29.059  1.00  0.00    -0.206 F 
ATOM     83  C   UNL A   1      44.701  35.222  32.181  1.00  0.00     0.006 A 
ENDBRANCH  59  76
ENDBRANCH  33  34
ENDBRANCH  25  28
ENDBRANCH  23  24
ENDBRANCH  22  23
ENDBRANCH   1  22
TORSDOF 14
ENDMDL
