MODEL 1
REMARK VINA RESULT:     -10.6      0.000      0.000
REMARK SMILES Cc1cc(F)cc(/C=C/C(=O)NCCCCNC(=O)c2ccc(-c3c4nc(c(-c5c(F)cccc5F)c5ccc([nH]5)c(-c5c(F)cccc5F)c5nc(c(-c6c(F)cccc6F)c6ccc3[nH]6)C=C5)C=C4)cc2)c1
REMARK SMILES IDX 15 1 14 2 13 3 12 4 10 5 11 6 9 8 8 9 7 10 1 11 2 12 3 13
REMARK SMILES IDX 74 14 4 15 5 16 6 17 16 18 17 19 18 20 19 22 20 23 21 24
REMARK SMILES IDX 73 25 22 26 72 27 23 28 24 29 25 30 66 31 26 32 71 33 65 34
REMARK SMILES IDX 67 35 27 36 70 37 64 38 63 39 28 41 54 42 37 43 53 44 38 45
REMARK SMILES IDX 41 46 52 47 68 48 39 49 40 50 51 52 69 53 42 54 29 55 30 56
REMARK SMILES IDX 35 57 31 58 32 59 34 60 36 61 33 62 55 63 56 64 61 65 57 66
REMARK SMILES IDX 58 67 60 68 62 69 59 70 43 71 44 72 49 73 45 74 46 75 48 76
REMARK SMILES IDX 50 77 47 78
REMARK H PARENT 12 7 17 21 67 40 41 51
REMARK Flexibility Score: inf
ROOT
ATOM      1  C   UNL A   1      34.647  33.996  29.684  1.00  0.00     0.023 C 
ENDROOT
BRANCH   1   2
ATOM      2  C   UNL A   1      33.332  34.736  29.424  1.00  0.00     0.023 C 
BRANCH   2   3
ATOM      3  C   UNL A   1      33.376  36.234  29.728  1.00  0.00     0.116 C 
BRANCH   3   4
ATOM      4  N   UNL A   1      32.528  36.566  30.859  1.00  0.00    -0.353 N 
ATOM      5  C   UNL A   1      32.806  36.573  32.190  1.00  0.00     0.243 C 
ATOM      6  O   UNL A   1      31.970  36.992  32.986  1.00  0.00    -0.270 OA
ATOM      7  H   UNL A   1      31.608  36.827  30.624  1.00  0.00     0.163 HD
BRANCH   5   8
ATOM      8  C   UNL A   1      34.142  36.168  32.683  1.00  0.00     0.072 C 
ATOM      9  C   UNL A   1      34.413  34.957  33.189  1.00  0.00     0.014 C 
BRANCH   9  10
ATOM     10  C   UNL A   1      35.739  34.561  33.680  1.00  0.00    -0.022 A 
ATOM     11  C   UNL A   1      39.318  34.473  32.335  1.00  0.00     0.044 C 
ATOM     12  C   UNL A   1      38.135  34.324  33.245  1.00  0.00    -0.048 A 
ATOM     13  C   UNL A   1      38.296  33.762  34.515  1.00  0.00     0.042 A 
ATOM     14  C   UNL A   1      36.850  34.710  32.832  1.00  0.00     0.011 A 
ATOM     15  C   UNL A   1      37.195  33.605  35.349  1.00  0.00     0.124 A 
ATOM     16  F   UNL A   1      37.360  33.059  36.560  1.00  0.00    -0.207 F 
ATOM     17  C   UNL A   1      35.923  33.995  34.944  1.00  0.00     0.047 A 
ENDBRANCH   9  10
ENDBRANCH   5   8
ENDBRANCH   3   4
ENDBRANCH   2   3
ENDBRANCH   1   2
BRANCH   1  18
ATOM     18  C   UNL A   1      35.226  33.261  28.479  1.00  0.00     0.116 C 
BRANCH  18  19
ATOM     19  N   UNL A   1      34.277  32.367  27.834  1.00  0.00    -0.352 N 
ATOM     20  C   UNL A   1      34.400  31.017  27.598  1.00  0.00     0.251 C 
ATOM     21  H   UNL A   1      33.439  32.781  27.525  1.00  0.00     0.163 HD
ATOM     22  O   UNL A   1      33.550  30.414  26.958  1.00  0.00    -0.269 OA
BRANCH  20  23
ATOM     23  C   UNL A   1      35.602  30.311  28.092  1.00  0.00     0.039 A 
ATOM     24  C   UNL A   1      36.740  30.280  27.283  1.00  0.00     0.014 A 
ATOM     25  C   UNL A   1      35.616  29.732  29.362  1.00  0.00     0.014 A 
ATOM     26  C   UNL A   1      37.923  29.731  27.782  1.00  0.00     0.010 A 
ATOM     27  C   UNL A   1      36.811  29.241  29.880  1.00  0.00     0.010 A 
ATOM     28  C   UNL A   1      37.976  29.246  29.098  1.00  0.00    -0.014 A 
BRANCH  28  29
ATOM     29  C   UNL A   1      39.247  28.757  29.686  1.00  0.00     0.031 A 
ATOM     30  C   UNL A   1      39.829  29.431  30.895  1.00  0.00     0.074 A 
ATOM     31  C   UNL A   1      39.916  27.755  29.082  1.00  0.00     0.049 A 
ATOM     32  N   UNL A   1      40.968  29.206  31.499  1.00  0.00    -0.248 NA
ATOM     33  C   UNL A   1      39.040  30.524  31.484  1.00  0.00     0.031 C 
ATOM     34  C   UNL A   1      39.483  27.055  27.871  1.00  0.00     0.029 A 
ATOM     35  N   UNL A   1      41.113  27.163  29.396  1.00  0.00    -0.354 N 
ATOM     36  C   UNL A   1      41.040  30.139  32.524  1.00  0.00     0.074 A 
ATOM     37  C   UNL A   1      39.853  30.961  32.435  1.00  0.00     0.031 C 
ATOM     38  C   UNL A   1      40.390  26.117  27.556  1.00  0.00     0.029 A 
ATOM     39  C   UNL A   1      41.484  26.172  28.521  1.00  0.00     0.049 A 
ATOM     40  H   UNL A   1      41.656  27.424  30.176  1.00  0.00     0.167 HD
ATOM     41  C   UNL A   1      41.998  30.282  33.470  1.00  0.00     0.037 A 
ATOM     42  C   UNL A   1      42.585  25.398  28.497  1.00  0.00     0.037 A 
ATOM     43  C   UNL A   1      43.161  29.441  33.579  1.00  0.00     0.049 A 
ATOM     44  C   UNL A   1      43.629  25.571  29.563  1.00  0.00     0.074 A 
ATOM     45  C   UNL A   1      44.149  29.458  34.548  1.00  0.00     0.029 A 
ATOM     46  N   UNL A   1      43.489  28.431  32.689  1.00  0.00    -0.354 N 
ATOM     47  N   UNL A   1      43.651  26.409  30.570  1.00  0.00    -0.248 NA
ATOM     48  C   UNL A   1      44.803  24.688  29.491  1.00  0.00     0.031 C 
ATOM     49  C   UNL A   1      45.095  28.480  34.223  1.00  0.00     0.029 A 
ATOM     50  C   UNL A   1      44.676  27.830  33.072  1.00  0.00     0.049 A 
ATOM     51  H   UNL A   1      42.958  28.178  31.899  1.00  0.00     0.167 HD
ATOM     52  C   UNL A   1      44.824  26.142  31.262  1.00  0.00     0.074 A 
ATOM     53  C   UNL A   1      45.482  25.054  30.569  1.00  0.00     0.031 C 
ATOM     54  C   UNL A   1      45.315  26.746  32.372  1.00  0.00     0.037 A 
BRANCH  41  55
ATOM     55  C   UNL A   1      41.821  31.387  34.469  1.00  0.00     0.057 A 
ATOM     56  C   UNL A   1      41.145  31.184  35.679  1.00  0.00     0.134 A 
ATOM     57  C   UNL A   1      42.355  32.660  34.230  1.00  0.00     0.134 A 
ATOM     58  F   UNL A   1      40.600  29.991  35.960  1.00  0.00    -0.206 F 
ATOM     59  C   UNL A   1      40.983  32.215  36.605  1.00  0.00     0.040 A 
ATOM     60  C   UNL A   1      42.220  33.692  35.160  1.00  0.00     0.040 A 
ATOM     61  F   UNL A   1      43.018  32.919  33.093  1.00  0.00    -0.206 F 
ATOM     62  C   UNL A   1      41.527  33.472  36.349  1.00  0.00     0.006 A 
ENDBRANCH  41  55
BRANCH  42  63
ATOM     63  C   UNL A   1      42.748  24.371  27.439  1.00  0.00     0.057 A 
ATOM     64  C   UNL A   1      42.343  23.048  27.652  1.00  0.00     0.134 A 
ATOM     65  C   UNL A   1      43.315  24.682  26.197  1.00  0.00     0.134 A 
ATOM     66  F   UNL A   1      41.810  22.689  28.829  1.00  0.00    -0.206 F 
ATOM     67  C   UNL A   1      42.511  22.066  26.676  1.00  0.00     0.040 A 
ATOM     68  C   UNL A   1      43.470  23.714  25.204  1.00  0.00     0.040 A 
ATOM     69  F   UNL A   1      43.717  25.933  25.930  1.00  0.00    -0.206 F 
ATOM     70  C   UNL A   1      43.073  22.400  25.445  1.00  0.00     0.006 A 
ENDBRANCH  42  63
BRANCH  54  71
ATOM     71  C   UNL A   1      46.612  26.230  32.915  1.00  0.00     0.057 A 
ATOM     72  C   UNL A   1      46.657  25.169  33.829  1.00  0.00     0.134 A 
ATOM     73  C   UNL A   1      47.831  26.772  32.490  1.00  0.00     0.134 A 
ATOM     74  F   UNL A   1      45.522  24.618  34.284  1.00  0.00    -0.206 F 
ATOM     75  C   UNL A   1      47.868  24.675  34.312  1.00  0.00     0.040 A 
ATOM     76  C   UNL A   1      49.051  26.273  32.950  1.00  0.00     0.040 A 
ATOM     77  F   UNL A   1      47.856  27.787  31.612  1.00  0.00    -0.206 F 
ATOM     78  C   UNL A   1      49.070  25.223  33.866  1.00  0.00     0.006 A 
ENDBRANCH  54  71
ENDBRANCH  28  29
ENDBRANCH  20  23
ENDBRANCH  18  19
ENDBRANCH   1  18
TORSDOF 12
ENDMDL
MODEL 2
REMARK VINA RESULT:     -10.5      3.787      6.979
REMARK SMILES Cc1cc(F)cc(/C=C/C(=O)NCCCCNC(=O)c2ccc(-c3c4nc(c(-c5c(F)cccc5F)c5ccc([nH]5)c(-c5c(F)cccc5F)c5nc(c(-c6c(F)cccc6F)c6ccc3[nH]6)C=C5)C=C4)cc2)c1
REMARK SMILES IDX 15 1 14 2 13 3 12 4 10 5 11 6 9 8 8 9 7 10 1 11 2 12 3 13
REMARK SMILES IDX 74 14 4 15 5 16 6 17 16 18 17 19 18 20 19 22 20 23 21 24
REMARK SMILES IDX 73 25 22 26 72 27 23 28 24 29 25 30 66 31 26 32 71 33 65 34
REMARK SMILES IDX 67 35 27 36 70 37 64 38 63 39 28 41 54 42 37 43 53 44 38 45
REMARK SMILES IDX 41 46 52 47 68 48 39 49 40 50 51 52 69 53 42 54 29 55 30 56
REMARK SMILES IDX 35 57 31 58 32 59 34 60 36 61 33 62 55 63 56 64 61 65 57 66
REMARK SMILES IDX 58 67 60 68 62 69 59 70 43 71 44 72 49 73 45 74 46 75 48 76
REMARK SMILES IDX 50 77 47 78
REMARK H PARENT 12 7 17 21 67 40 41 51
REMARK Flexibility Score: inf
ROOT
ATOM      1  C   UNL A   1      32.547  28.436  26.312  1.00  0.00     0.023 C 
ENDROOT
BRANCH   1   2
ATOM      2  C   UNL A   1      31.517  27.441  26.853  1.00  0.00     0.023 C 
BRANCH   2   3
ATOM      3  C   UNL A   1      30.957  26.475  25.808  1.00  0.00     0.116 C 
BRANCH   3   4
ATOM      4  N   UNL A   1      30.264  25.366  26.437  1.00  0.00    -0.353 N 
ATOM      5  C   UNL A   1      30.658  24.077  26.621  1.00  0.00     0.243 C 
ATOM      6  O   UNL A   1      29.957  23.312  27.279  1.00  0.00    -0.270 OA
ATOM      7  H   UNL A   1      29.368  25.580  26.785  1.00  0.00     0.163 HD
BRANCH   5   8
ATOM      8  C   UNL A   1      31.969  23.610  26.115  1.00  0.00     0.072 C 
ATOM      9  C   UNL A   1      32.777  22.783  26.793  1.00  0.00     0.014 C 
BRANCH   9  10
ATOM     10  C   UNL A   1      34.078  22.326  26.289  1.00  0.00    -0.022 A 
ATOM     11  C   UNL A   1      37.583  23.789  25.837  1.00  0.00     0.044 C 
ATOM     12  C   UNL A   1      36.425  22.836  25.821  1.00  0.00    -0.048 A 
ATOM     13  C   UNL A   1      36.579  21.556  25.277  1.00  0.00     0.042 A 
ATOM     14  C   UNL A   1      35.166  23.215  26.314  1.00  0.00     0.011 A 
ATOM     15  C   UNL A   1      35.499  20.682  25.243  1.00  0.00     0.124 A 
ATOM     16  F   UNL A   1      35.657  19.462  24.713  1.00  0.00    -0.207 F 
ATOM     17  C   UNL A   1      34.254  21.054  25.739  1.00  0.00     0.047 A 
ENDBRANCH   9  10
ENDBRANCH   5   8
ENDBRANCH   3   4
ENDBRANCH   2   3
ENDBRANCH   1   2
BRANCH   1  18
ATOM     18  C   UNL A   1      33.702  28.752  27.256  1.00  0.00     0.116 C 
BRANCH  18  19
ATOM     19  N   UNL A   1      33.671  30.110  27.778  1.00  0.00    -0.352 N 
ATOM     20  C   UNL A   1      34.679  30.808  28.402  1.00  0.00     0.251 C 
ATOM     21  H   UNL A   1      32.819  30.591  27.671  1.00  0.00     0.163 HD
ATOM     22  O   UNL A   1      34.472  31.918  28.871  1.00  0.00    -0.269 OA
BRANCH  20  23
ATOM     23  C   UNL A   1      36.008  30.176  28.541  1.00  0.00     0.039 A 
ATOM     24  C   UNL A   1      36.883  30.210  27.453  1.00  0.00     0.014 A 
ATOM     25  C   UNL A   1      36.401  29.600  29.751  1.00  0.00     0.014 A 
ATOM     26  C   UNL A   1      38.187  29.734  27.604  1.00  0.00     0.010 A 
ATOM     27  C   UNL A   1      37.717  29.183  29.918  1.00  0.00     0.010 A 
ATOM     28  C   UNL A   1      38.624  29.255  28.849  1.00  0.00    -0.014 A 
BRANCH  28  29
ATOM     29  C   UNL A   1      40.032  28.843  29.063  1.00  0.00     0.031 A 
ATOM     30  C   UNL A   1      41.021  29.809  29.650  1.00  0.00     0.074 A 
ATOM     31  C   UNL A   1      40.438  27.624  28.655  1.00  0.00     0.049 A 
ATOM     32  N   UNL A   1      42.309  29.665  29.832  1.00  0.00    -0.248 NA
ATOM     33  C   UNL A   1      40.498  31.122  30.057  1.00  0.00     0.031 C 
ATOM     34  C   UNL A   1      39.586  26.616  28.021  1.00  0.00     0.029 A 
ATOM     35  N   UNL A   1      41.674  27.034  28.696  1.00  0.00    -0.354 N 
ATOM     36  C   UNL A   1      42.752  30.871  30.356  1.00  0.00     0.074 A 
ATOM     37  C   UNL A   1      41.606  31.752  30.422  1.00  0.00     0.031 C 
ATOM     38  C   UNL A   1      40.321  25.526  27.750  1.00  0.00     0.029 A 
ATOM     39  C   UNL A   1      41.700  25.770  28.160  1.00  0.00     0.049 A 
ATOM     40  H   UNL A   1      42.470  27.474  29.075  1.00  0.00     0.167 HD
ATOM     41  C   UNL A   1      43.997  31.207  30.767  1.00  0.00     0.037 A 
ATOM     42  C   UNL A   1      42.722  24.906  28.011  1.00  0.00     0.037 A 
ATOM     43  C   UNL A   1      45.129  30.320  30.734  1.00  0.00     0.049 A 
ATOM     44  C   UNL A   1      44.093  25.301  28.484  1.00  0.00     0.074 A 
ATOM     45  C   UNL A   1      46.414  30.541  31.199  1.00  0.00     0.029 A 
ATOM     46  N   UNL A   1      45.110  29.038  30.207  1.00  0.00    -0.354 N 
ATOM     47  N   UNL A   1      44.483  26.419  29.044  1.00  0.00    -0.248 NA
ATOM     48  C   UNL A   1      45.165  24.311  28.305  1.00  0.00     0.031 C 
ATOM     49  C   UNL A   1      47.181  29.406  30.920  1.00  0.00     0.029 A 
ATOM     50  C   UNL A   1      46.364  28.463  30.315  1.00  0.00     0.049 A 
ATOM     51  H   UNL A   1      44.320  28.600  29.812  1.00  0.00     0.167 HD
ATOM     52  C   UNL A   1      45.838  26.261  29.304  1.00  0.00     0.074 A 
ATOM     53  C   UNL A   1      46.200  24.933  28.853  1.00  0.00     0.031 C 
ATOM     54  C   UNL A   1      46.706  27.139  29.864  1.00  0.00     0.037 A 
BRANCH  41  55
ATOM     55  C   UNL A   1      44.196  32.596  31.299  1.00  0.00     0.057 A 
ATOM     56  C   UNL A   1      44.544  33.663  30.460  1.00  0.00     0.134 A 
ATOM     57  C   UNL A   1      44.011  32.875  32.659  1.00  0.00     0.134 A 
ATOM     58  F   UNL A   1      44.748  33.457  29.150  1.00  0.00    -0.206 F 
ATOM     59  C   UNL A   1      44.727  34.953  30.959  1.00  0.00     0.040 A 
ATOM     60  C   UNL A   1      44.168  34.166  33.165  1.00  0.00     0.040 A 
ATOM     61  F   UNL A   1      43.672  31.900  33.515  1.00  0.00    -0.206 F 
ATOM     62  C   UNL A   1      44.533  35.208  32.315  1.00  0.00     0.006 A 
ENDBRANCH  41  55
BRANCH  42  63
ATOM     63  C   UNL A   1      42.486  23.573  27.406  1.00  0.00     0.057 A 
ATOM     64  C   UNL A   1      42.175  22.466  28.204  1.00  0.00     0.134 A 
ATOM     65  C   UNL A   1      42.571  23.369  26.024  1.00  0.00     0.134 A 
ATOM     66  F   UNL A   1      42.098  22.597  29.537  1.00  0.00    -0.206 F 
ATOM     67  C   UNL A   1      41.973  21.201  27.653  1.00  0.00     0.040 A 
ATOM     68  C   UNL A   1      42.350  22.113  25.457  1.00  0.00     0.040 A 
ATOM     69  F   UNL A   1      42.858  24.392  25.205  1.00  0.00    -0.206 F 
ATOM     70  C   UNL A   1      42.057  21.023  26.273  1.00  0.00     0.006 A 
ENDBRANCH  42  63
BRANCH  54  71
ATOM     71  C   UNL A   1      48.122  26.683  30.039  1.00  0.00     0.057 A 
ATOM     72  C   UNL A   1      49.109  26.966  29.086  1.00  0.00     0.134 A 
ATOM     73  C   UNL A   1      48.512  25.990  31.191  1.00  0.00     0.134 A 
ATOM     74  F   UNL A   1      48.794  27.616  27.955  1.00  0.00    -0.206 F 
ATOM     75  C   UNL A   1      50.431  26.563  29.267  1.00  0.00     0.040 A 
ATOM     76  C   UNL A   1      49.836  25.598  31.393  1.00  0.00     0.040 A 
ATOM     77  F   UNL A   1      47.615  25.692  32.144  1.00  0.00    -0.206 F 
ATOM     78  C   UNL A   1      50.799  25.882  30.426  1.00  0.00     0.006 A 
ENDBRANCH  54  71
ENDBRANCH  28  29
ENDBRANCH  20  23
ENDBRANCH  18  19
ENDBRANCH   1  18
TORSDOF 12
ENDMDL
MODEL 3
REMARK VINA RESULT:     -10.5      2.489      3.797
REMARK SMILES Cc1cc(F)cc(/C=C/C(=O)NCCCCNC(=O)c2ccc(-c3c4nc(c(-c5c(F)cccc5F)c5ccc([nH]5)c(-c5c(F)cccc5F)c5nc(c(-c6c(F)cccc6F)c6ccc3[nH]6)C=C5)C=C4)cc2)c1
REMARK SMILES IDX 15 1 14 2 13 3 12 4 10 5 11 6 9 8 8 9 7 10 1 11 2 12 3 13
REMARK SMILES IDX 74 14 4 15 5 16 6 17 16 18 17 19 18 20 19 22 20 23 21 24
REMARK SMILES IDX 73 25 22 26 72 27 23 28 24 29 25 30 66 31 26 32 71 33 65 34
REMARK SMILES IDX 67 35 27 36 70 37 64 38 63 39 28 41 54 42 37 43 53 44 38 45
REMARK SMILES IDX 41 46 52 47 68 48 39 49 40 50 51 52 69 53 42 54 29 55 30 56
REMARK SMILES IDX 35 57 31 58 32 59 34 60 36 61 33 62 55 63 56 64 61 65 57 66
REMARK SMILES IDX 58 67 60 68 62 69 59 70 43 71 44 72 49 73 45 74 46 75 48 76
REMARK SMILES IDX 50 77 47 78
REMARK H PARENT 12 7 17 21 67 40 41 51
REMARK Flexibility Score: inf
ROOT
ATOM      1  C   UNL A   1      36.261  33.509  29.137  1.00  0.00     0.023 C 
ENDROOT
BRANCH   1   2
ATOM      2  C   UNL A   1      37.741  33.271  29.453  1.00  0.00     0.023 C 
BRANCH   2   3
ATOM      3  C   UNL A   1      38.403  34.385  30.264  1.00  0.00     0.116 C 
BRANCH   3   4
ATOM      4  N   UNL A   1      37.733  34.575  31.538  1.00  0.00    -0.353 N 
ATOM      5  C   UNL A   1      37.572  33.717  32.581  1.00  0.00     0.243 C 
ATOM      6  O   UNL A   1      37.058  34.112  33.624  1.00  0.00    -0.270 OA
ATOM      7  H   UNL A   1      37.332  35.465  31.667  1.00  0.00     0.163 HD
BRANCH   5   8
ATOM      8  C   UNL A   1      38.096  32.334  32.506  1.00  0.00     0.072 C 
ATOM      9  C   UNL A   1      39.088  31.870  33.280  1.00  0.00     0.014 C 
BRANCH   9  10
ATOM     10  C   UNL A   1      39.606  30.499  33.199  1.00  0.00    -0.022 A 
ATOM     11  C   UNL A   1      43.004  28.763  33.466  1.00  0.00     0.044 C 
ATOM     12  C   UNL A   1      41.533  28.993  33.286  1.00  0.00    -0.048 A 
ATOM     13  C   UNL A   1      40.688  27.919  32.988  1.00  0.00     0.042 A 
ATOM     14  C   UNL A   1      40.984  30.282  33.378  1.00  0.00     0.011 A 
ATOM     15  C   UNL A   1      39.328  28.137  32.800  1.00  0.00     0.124 A 
ATOM     16  F   UNL A   1      38.531  27.101  32.508  1.00  0.00    -0.207 F 
ATOM     17  C   UNL A   1      38.782  29.412  32.900  1.00  0.00     0.047 A 
ENDBRANCH   9  10
ENDBRANCH   5   8
ENDBRANCH   3   4
ENDBRANCH   2   3
ENDBRANCH   1   2
BRANCH   1  18
ATOM     18  C   UNL A   1      35.287  32.590  29.867  1.00  0.00     0.116 C 
BRANCH  18  19
ATOM     19  N   UNL A   1      34.410  31.848  28.974  1.00  0.00    -0.352 N 
ATOM     20  C   UNL A   1      34.696  30.719  28.241  1.00  0.00     0.251 C 
ATOM     21  H   UNL A   1      33.495  32.199  28.880  1.00  0.00     0.163 HD
ATOM     22  O   UNL A   1      33.877  30.258  27.458  1.00  0.00    -0.269 OA
BRANCH  20  23
ATOM     23  C   UNL A   1      36.028  30.094  28.380  1.00  0.00     0.039 A 
ATOM     24  C   UNL A   1      36.920  30.172  27.308  1.00  0.00     0.014 A 
ATOM     25  C   UNL A   1      36.408  29.482  29.576  1.00  0.00     0.014 A 
ATOM     26  C   UNL A   1      38.225  29.703  27.463  1.00  0.00     0.010 A 
ATOM     27  C   UNL A   1      37.726  29.071  29.750  1.00  0.00     0.010 A 
ATOM     28  C   UNL A   1      38.648  29.186  28.698  1.00  0.00    -0.014 A 
BRANCH  28  29
ATOM     29  C   UNL A   1      40.057  28.780  28.921  1.00  0.00     0.031 A 
ATOM     30  C   UNL A   1      41.044  29.757  29.493  1.00  0.00     0.074 A 
ATOM     31  C   UNL A   1      40.465  27.556  28.532  1.00  0.00     0.049 A 
ATOM     32  N   UNL A   1      42.331  29.617  29.679  1.00  0.00    -0.248 NA
ATOM     33  C   UNL A   1      40.517  31.075  29.880  1.00  0.00     0.031 C 
ATOM     34  C   UNL A   1      39.615  26.537  27.912  1.00  0.00     0.029 A 
ATOM     35  N   UNL A   1      41.702  26.968  28.584  1.00  0.00    -0.354 N 
ATOM     36  C   UNL A   1      42.771  30.833  30.186  1.00  0.00     0.074 A 
ATOM     37  C   UNL A   1      41.624  31.713  30.236  1.00  0.00     0.031 C 
ATOM     38  C   UNL A   1      40.352  25.444  27.660  1.00  0.00     0.029 A 
ATOM     39  C   UNL A   1      41.730  25.696  28.068  1.00  0.00     0.049 A 
ATOM     40  H   UNL A   1      42.497  27.415  28.957  1.00  0.00     0.167 HD
ATOM     41  C   UNL A   1      44.016  31.177  30.593  1.00  0.00     0.037 A 
ATOM     42  C   UNL A   1      42.754  24.832  27.933  1.00  0.00     0.037 A 
ATOM     43  C   UNL A   1      45.148  30.291  30.575  1.00  0.00     0.049 A 
ATOM     44  C   UNL A   1      44.124  25.236  28.402  1.00  0.00     0.074 A 
ATOM     45  C   UNL A   1      46.432  30.522  31.038  1.00  0.00     0.029 A 
ATOM     46  N   UNL A   1      45.132  29.001  30.068  1.00  0.00    -0.354 N 
ATOM     47  N   UNL A   1      44.512  26.363  28.945  1.00  0.00    -0.248 NA
ATOM     48  C   UNL A   1      45.198  24.245  28.241  1.00  0.00     0.031 C 
ATOM     49  C   UNL A   1      47.202  29.383  30.779  1.00  0.00     0.029 A 
ATOM     50  C   UNL A   1      46.388  28.430  30.187  1.00  0.00     0.049 A 
ATOM     51  H   UNL A   1      44.344  28.556  29.679  1.00  0.00     0.167 HD
ATOM     52  C   UNL A   1      45.866  26.212  29.209  1.00  0.00     0.074 A 
ATOM     53  C   UNL A   1      46.231  24.877  28.780  1.00  0.00     0.031 C 
ATOM     54  C   UNL A   1      46.732  27.099  29.757  1.00  0.00     0.037 A 
BRANCH  41  55
ATOM     55  C   UNL A   1      44.211  32.574  31.103  1.00  0.00     0.057 A 
ATOM     56  C   UNL A   1      44.471  33.644  30.238  1.00  0.00     0.134 A 
ATOM     57  C   UNL A   1      44.112  32.857  32.472  1.00  0.00     0.134 A 
ATOM     58  F   UNL A   1      44.590  33.436  28.918  1.00  0.00    -0.206 F 
ATOM     59  C   UNL A   1      44.651  34.943  30.717  1.00  0.00     0.040 A 
ATOM     60  C   UNL A   1      44.267  34.156  32.959  1.00  0.00     0.040 A 
ATOM     61  F   UNL A   1      43.860  31.878  33.353  1.00  0.00    -0.206 F 
ATOM     62  C   UNL A   1      44.544  35.201  32.082  1.00  0.00     0.006 A 
ENDBRANCH  41  55
BRANCH  42  63
ATOM     63  C   UNL A   1      42.521  23.489  27.349  1.00  0.00     0.057 A 
ATOM     64  C   UNL A   1      42.144  22.409  28.156  1.00  0.00     0.134 A 
ATOM     65  C   UNL A   1      42.674  23.249  25.978  1.00  0.00     0.134 A 
ATOM     66  F   UNL A   1      42.001  22.575  29.479  1.00  0.00    -0.206 F 
ATOM     67  C   UNL A   1      41.944  21.135  27.626  1.00  0.00     0.040 A 
ATOM     68  C   UNL A   1      42.456  21.984  25.431  1.00  0.00     0.040 A 
ATOM     69  F   UNL A   1      43.026  24.244  25.152  1.00  0.00    -0.206 F 
ATOM     70  C   UNL A   1      42.096  20.921  26.257  1.00  0.00     0.006 A 
ENDBRANCH  42  63
BRANCH  54  71
ATOM     71  C   UNL A   1      48.149  26.649  29.941  1.00  0.00     0.057 A 
ATOM     72  C   UNL A   1      48.556  25.952  31.086  1.00  0.00     0.134 A 
ATOM     73  C   UNL A   1      49.107  26.878  28.946  1.00  0.00     0.134 A 
ATOM     74  F   UNL A   1      47.688  25.714  32.080  1.00  0.00    -0.206 F 
ATOM     75  C   UNL A   1      49.870  25.512  31.241  1.00  0.00     0.040 A 
ATOM     76  C   UNL A   1      50.420  26.425  29.080  1.00  0.00     0.040 A 
ATOM     77  F   UNL A   1      48.778  27.536  27.823  1.00  0.00    -0.206 F 
ATOM     78  C   UNL A   1      50.804  25.743  30.232  1.00  0.00     0.006 A 
ENDBRANCH  54  71
ENDBRANCH  28  29
ENDBRANCH  20  23
ENDBRANCH  18  19
ENDBRANCH   1  18
TORSDOF 12
ENDMDL
