MODEL 1
REMARK VINA RESULT:     -11.1      0.000      0.000
REMARK SMILES CCN(CC)C(=O)C[C@](C)(C(=O)NCCCCNC(=O)c1ccc(-c2c3nc(c(-c4c(F)cccc4F)c4ccc([nH]4)c(-c4c(F)cccc4F)c4nc(c(-c5c(F)cccc5F)c5ccc2[nH]5)C=C4)C=C3)cc1)c1ccccc1
REMARK SMILES IDX 15 1 14 2 13 3 11 4 12 5 9 7 10 8 8 9 6 10 3 11 7 12 2 13
REMARK SMILES IDX 1 14 4 15 5 16 75 17 76 18 80 19 77 20 79 21 78 22 16 23
REMARK SMILES IDX 17 24 18 25 19 26 20 28 21 29 22 30 74 31 23 32 73 33 24 34
REMARK SMILES IDX 25 35 26 36 67 37 27 38 72 39 66 40 68 41 28 42 71 43 65 44
REMARK SMILES IDX 64 45 29 47 55 48 38 49 54 50 39 51 42 52 53 53 69 54 40 55
REMARK SMILES IDX 41 56 52 58 70 59 43 60 30 61 31 62 36 63 32 64 33 65 35 66
REMARK SMILES IDX 37 67 34 68 56 69 57 70 62 71 58 72 59 73 61 74 63 75 60 76
REMARK SMILES IDX 44 77 45 78 50 79 46 80 47 81 49 82 51 83 48 84
REMARK H PARENT 13 6 18 27 68 46 42 57
REMARK Flexibility Score: inf
ROOT
ATOM      1  C   UNL A   1      31.091  30.853  25.605  1.00  0.00     0.023 C 
ENDROOT
BRANCH   1   2
ATOM      2  C   UNL A   1      32.288  29.936  25.851  1.00  0.00     0.116 C 
BRANCH   2   3
ATOM      3  N   UNL A   1      33.079  29.749  24.641  1.00  0.00    -0.355 N 
ATOM      4  C   UNL A   1      32.977  28.873  23.590  1.00  0.00     0.230 C 
ATOM      5  O   UNL A   1      33.919  28.930  22.796  1.00  0.00    -0.274 OA
ATOM      6  H   UNL A   1      33.835  30.373  24.562  1.00  0.00     0.163 HD
BRANCH   4   7
ATOM      7  C   UNL A   1      31.766  27.894  23.443  1.00  0.00     0.080 C 
ATOM      8  C   UNL A   1      32.223  26.899  22.330  1.00  0.00     0.027 C 
BRANCH   7   9
ATOM      9  C   UNL A   1      31.556  27.171  24.813  1.00  0.00     0.121 C 
BRANCH   9  10
ATOM     10  C   UNL A   1      32.515  26.067  25.236  1.00  0.00     0.223 C 
ATOM     11  N   UNL A   1      32.115  24.739  25.146  1.00  0.00    -0.343 N 
ATOM     12  O   UNL A   1      33.605  26.394  25.717  1.00  0.00    -0.275 OA
BRANCH  11  13
ATOM     13  C   UNL A   1      33.055  23.712  25.602  1.00  0.00     0.116 C 
ATOM     14  C   UNL A   1      32.695  23.125  26.962  1.00  0.00     0.027 C 
ENDBRANCH  11  13
BRANCH  11  15
ATOM     15  C   UNL A   1      30.784  24.281  24.745  1.00  0.00     0.116 C 
ATOM     16  C   UNL A   1      30.774  23.671  23.353  1.00  0.00     0.027 C 
ENDBRANCH  11  15
ENDBRANCH   9  10
ENDBRANCH   7   9
BRANCH   7  17
ATOM     17  C   UNL A   1      30.423  28.511  22.952  1.00  0.00    -0.032 A 
ATOM     18  C   UNL A   1      30.335  29.657  22.144  1.00  0.00     0.005 A 
ATOM     19  C   UNL A   1      29.200  27.957  23.393  1.00  0.00     0.005 A 
ATOM     20  C   UNL A   1      29.100  30.205  21.778  1.00  0.00     0.000 A 
ATOM     21  C   UNL A   1      27.965  28.497  23.022  1.00  0.00     0.000 A 
ATOM     22  C   UNL A   1      27.914  29.623  22.214  1.00  0.00     0.000 A 
ENDBRANCH   7  17
ENDBRANCH   4   7
ENDBRANCH   2   3
ENDBRANCH   1   2
BRANCH   1  23
ATOM     23  C   UNL A   1      31.071  32.119  26.464  1.00  0.00     0.023 C 
BRANCH  23  24
ATOM     24  C   UNL A   1      32.445  32.645  26.868  1.00  0.00     0.116 C 
BRANCH  24  25
ATOM     25  N   UNL A   1      32.379  33.913  27.581  1.00  0.00    -0.352 N 
ATOM     26  C   UNL A   1      33.210  34.405  28.562  1.00  0.00     0.251 C 
ATOM     27  H   UNL A   1      31.635  34.503  27.324  1.00  0.00     0.163 HD
ATOM     28  O   UNL A   1      32.928  35.436  29.156  1.00  0.00    -0.269 OA
BRANCH  26  29
ATOM     29  C   UNL A   1      34.430  33.653  28.919  1.00  0.00     0.039 A 
ATOM     30  C   UNL A   1      35.676  34.245  28.702  1.00  0.00     0.014 A 
ATOM     31  C   UNL A   1      34.338  32.393  29.516  1.00  0.00     0.014 A 
ATOM     32  C   UNL A   1      36.829  33.617  29.178  1.00  0.00     0.010 A 
ATOM     33  C   UNL A   1      35.479  31.800  30.047  1.00  0.00     0.010 A 
ATOM     34  C   UNL A   1      36.731  32.419  29.904  1.00  0.00    -0.014 A 
BRANCH  34  35
ATOM     35  C   UNL A   1      37.912  31.824  30.577  1.00  0.00     0.031 A 
ATOM     36  C   UNL A   1      38.701  30.736  29.909  1.00  0.00     0.074 A 
ATOM     37  C   UNL A   1      38.206  32.194  31.840  1.00  0.00     0.049 A 
ATOM     38  N   UNL A   1      39.680  30.014  30.388  1.00  0.00    -0.248 NA
ATOM     39  C   UNL A   1      38.322  30.400  28.528  1.00  0.00     0.031 C 
ATOM     40  C   UNL A   1      37.484  33.204  32.617  1.00  0.00     0.029 A 
ATOM     41  N   UNL A   1      39.176  31.746  32.702  1.00  0.00    -0.354 N 
ATOM     42  C   UNL A   1      40.025  29.128  29.376  1.00  0.00     0.074 A 
ATOM     43  C   UNL A   1      39.124  29.376  28.270  1.00  0.00     0.031 C 
ATOM     44  C   UNL A   1      38.040  33.304  33.834  1.00  0.00     0.029 A 
ATOM     45  C   UNL A   1      39.129  32.339  33.940  1.00  0.00     0.049 A 
ATOM     46  H   UNL A   1      39.843  31.065  32.455  1.00  0.00     0.167 HD
ATOM     47  C   UNL A   1      41.014  28.203  29.365  1.00  0.00     0.037 A 
ATOM     48  C   UNL A   1      39.865  32.115  35.045  1.00  0.00     0.037 A 
ATOM     49  C   UNL A   1      41.925  27.977  30.456  1.00  0.00     0.049 A 
ATOM     50  C   UNL A   1      40.942  31.069  35.013  1.00  0.00     0.074 A 
ATOM     51  C   UNL A   1      43.013  27.123  30.506  1.00  0.00     0.029 A 
ATOM     52  N   UNL A   1      41.850  28.602  31.690  1.00  0.00    -0.354 N 
ATOM     53  N   UNL A   1      41.306  30.290  34.023  1.00  0.00    -0.248 NA
ATOM     54  C   UNL A   1      41.708  30.866  36.251  1.00  0.00     0.031 C 
ATOM     55  C   UNL A   1      43.569  27.199  31.787  1.00  0.00     0.029 A 
ATOM     56  C   UNL A   1      42.852  28.129  32.521  1.00  0.00     0.049 A 
ATOM     57  H   UNL A   1      41.183  29.283  31.940  1.00  0.00     0.167 HD
ATOM     58  C   UNL A   1      42.350  29.516  34.513  1.00  0.00     0.074 A 
ATOM     59  C   UNL A   1      42.572  29.931  35.882  1.00  0.00     0.031 C 
ATOM     60  C   UNL A   1      43.057  28.547  33.884  1.00  0.00     0.037 A 
BRANCH  47  61
ATOM     61  C   UNL A   1      41.166  27.367  28.130  1.00  0.00     0.057 A 
ATOM     62  C   UNL A   1      40.491  26.151  27.975  1.00  0.00     0.134 A 
ATOM     63  C   UNL A   1      41.961  27.807  27.063  1.00  0.00     0.134 A 
ATOM     64  F   UNL A   1      39.723  25.669  28.965  1.00  0.00    -0.206 F 
ATOM     65  C   UNL A   1      40.617  25.389  26.812  1.00  0.00     0.040 A 
ATOM     66  C   UNL A   1      42.076  27.066  25.886  1.00  0.00     0.040 A 
ATOM     67  F   UNL A   1      42.630  28.967  27.144  1.00  0.00    -0.206 F 
ATOM     68  C   UNL A   1      41.407  25.850  25.760  1.00  0.00     0.006 A 
ENDBRANCH  47  61
BRANCH  48  69
ATOM     69  C   UNL A   1      39.606  32.897  36.279  1.00  0.00     0.057 A 
ATOM     70  C   UNL A   1      38.639  32.485  37.203  1.00  0.00     0.134 A 
ATOM     71  C   UNL A   1      40.313  34.071  36.563  1.00  0.00     0.134 A 
ATOM     72  F   UNL A   1      37.917  31.378  36.974  1.00  0.00    -0.206 F 
ATOM     73  C   UNL A   1      38.373  33.219  38.359  1.00  0.00     0.040 A 
ATOM     74  C   UNL A   1      40.073  34.804  37.727  1.00  0.00     0.040 A 
ATOM     75  F   UNL A   1      41.256  34.515  35.720  1.00  0.00    -0.206 F 
ATOM     76  C   UNL A   1      39.095  34.381  38.626  1.00  0.00     0.006 A 
ENDBRANCH  48  69
BRANCH  60  77
ATOM     77  C   UNL A   1      44.143  27.874  34.668  1.00  0.00     0.057 A 
ATOM     78  C   UNL A   1      45.431  28.414  34.750  1.00  0.00     0.134 A 
ATOM     79  C   UNL A   1      43.886  26.699  35.385  1.00  0.00     0.134 A 
ATOM     80  F   UNL A   1      45.745  29.530  34.074  1.00  0.00    -0.206 F 
ATOM     81  C   UNL A   1      46.431  27.803  35.508  1.00  0.00     0.040 A 
ATOM     82  C   UNL A   1      44.871  26.090  36.165  1.00  0.00     0.040 A 
ATOM     83  F   UNL A   1      42.669  26.133  35.353  1.00  0.00    -0.206 F 
ATOM     84  C   UNL A   1      46.148  26.641  36.225  1.00  0.00     0.006 A 
ENDBRANCH  60  77
ENDBRANCH  34  35
ENDBRANCH  26  29
ENDBRANCH  24  25
ENDBRANCH  23  24
ENDBRANCH   1  23
TORSDOF 16
ENDMDL
MODEL 2
REMARK VINA RESULT:     -10.9      4.386      9.360
REMARK SMILES CCN(CC)C(=O)C[C@](C)(C(=O)NCCCCNC(=O)c1ccc(-c2c3nc(c(-c4c(F)cccc4F)c4ccc([nH]4)c(-c4c(F)cccc4F)c4nc(c(-c5c(F)cccc5F)c5ccc2[nH]5)C=C4)C=C3)cc1)c1ccccc1
REMARK SMILES IDX 15 1 14 2 13 3 11 4 12 5 9 7 10 8 8 9 6 10 3 11 7 12 2 13
REMARK SMILES IDX 1 14 4 15 5 16 75 17 76 18 80 19 77 20 79 21 78 22 16 23
REMARK SMILES IDX 17 24 18 25 19 26 20 28 21 29 22 30 74 31 23 32 73 33 24 34
REMARK SMILES IDX 25 35 26 36 67 37 27 38 72 39 66 40 68 41 28 42 71 43 65 44
REMARK SMILES IDX 64 45 29 47 55 48 38 49 54 50 39 51 42 52 53 53 69 54 40 55
REMARK SMILES IDX 41 56 52 58 70 59 43 60 30 61 31 62 36 63 32 64 33 65 35 66
REMARK SMILES IDX 37 67 34 68 56 69 57 70 62 71 58 72 59 73 61 74 63 75 60 76
REMARK SMILES IDX 44 77 45 78 50 79 46 80 47 81 49 82 51 83 48 84
REMARK H PARENT 13 6 18 27 68 46 42 57
REMARK Flexibility Score: inf
ROOT
ATOM      1  C   UNL A   1      36.039  21.080  25.396  1.00  0.00     0.023 C 
ENDROOT
BRANCH   1   2
ATOM      2  C   UNL A   1      35.687  22.438  25.999  1.00  0.00     0.116 C 
BRANCH   2   3
ATOM      3  N   UNL A   1      34.724  22.310  27.087  1.00  0.00    -0.355 N 
ATOM      4  C   UNL A   1      33.357  22.401  27.134  1.00  0.00     0.230 C 
ATOM      5  O   UNL A   1      32.890  22.361  28.274  1.00  0.00    -0.274 OA
ATOM      6  H   UNL A   1      35.137  22.121  27.960  1.00  0.00     0.163 HD
BRANCH   4   7
ATOM      7  C   UNL A   1      32.493  22.550  25.838  1.00  0.00     0.080 C 
ATOM      8  C   UNL A   1      31.046  22.778  26.379  1.00  0.00     0.027 C 
BRANCH   7   9
ATOM      9  C   UNL A   1      33.015  23.791  25.045  1.00  0.00     0.121 C 
BRANCH   9  10
ATOM     10  C   UNL A   1      32.354  25.146  25.248  1.00  0.00     0.223 C 
ATOM     11  N   UNL A   1      31.524  25.659  24.258  1.00  0.00    -0.343 N 
ATOM     12  O   UNL A   1      32.635  25.787  26.266  1.00  0.00    -0.275 OA
BRANCH  11  13
ATOM     13  C   UNL A   1      30.940  26.985  24.477  1.00  0.00     0.116 C 
ATOM     14  C   UNL A   1      29.634  27.202  23.723  1.00  0.00     0.027 C 
ENDBRANCH  11  13
BRANCH  11  15
ATOM     15  C   UNL A   1      31.274  25.038  22.956  1.00  0.00     0.116 C 
ATOM     16  C   UNL A   1      32.315  25.425  21.918  1.00  0.00     0.027 C 
ENDBRANCH  11  15
ENDBRANCH   9  10
ENDBRANCH   7   9
BRANCH   7  17
ATOM     17  C   UNL A   1      32.417  21.308  24.901  1.00  0.00    -0.032 A 
ATOM     18  C   UNL A   1      32.619  19.986  25.332  1.00  0.00     0.005 A 
ATOM     19  C   UNL A   1      32.214  21.493  23.515  1.00  0.00     0.005 A 
ATOM     20  C   UNL A   1      32.598  18.910  24.437  1.00  0.00     0.000 A 
ATOM     21  C   UNL A   1      32.183  20.420  22.620  1.00  0.00     0.000 A 
ATOM     22  C   UNL A   1      32.376  19.126  23.082  1.00  0.00     0.000 A 
ENDBRANCH   7  17
ENDBRANCH   4   7
ENDBRANCH   2   3
ENDBRANCH   1   2
BRANCH   1  23
ATOM     23  C   UNL A   1      37.424  21.008  24.752  1.00  0.00     0.023 C 
BRANCH  23  24
ATOM     24  C   UNL A   1      38.594  21.109  25.726  1.00  0.00     0.116 C 
BRANCH  24  25
ATOM     25  N   UNL A   1      39.487  19.960  25.662  1.00  0.00    -0.352 N 
ATOM     26  C   UNL A   1      40.824  19.878  25.978  1.00  0.00     0.251 C 
ATOM     27  H   UNL A   1      39.075  19.124  25.348  1.00  0.00     0.163 HD
ATOM     28  O   UNL A   1      41.460  18.863  25.731  1.00  0.00    -0.269 OA
BRANCH  26  29
ATOM     29  C   UNL A   1      41.496  21.046  26.584  1.00  0.00     0.039 A 
ATOM     30  C   UNL A   1      42.066  22.006  25.745  1.00  0.00     0.014 A 
ATOM     31  C   UNL A   1      41.513  21.214  27.970  1.00  0.00     0.014 A 
ATOM     32  C   UNL A   1      42.564  23.190  26.295  1.00  0.00     0.010 A 
ATOM     33  C   UNL A   1      41.949  22.420  28.510  1.00  0.00     0.010 A 
ATOM     34  C   UNL A   1      42.455  23.428  27.675  1.00  0.00    -0.014 A 
BRANCH  34  35
ATOM     35  C   UNL A   1      42.807  24.744  28.262  1.00  0.00     0.031 A 
ATOM     36  C   UNL A   1      41.753  25.795  28.461  1.00  0.00     0.074 A 
ATOM     37  C   UNL A   1      44.100  25.028  28.517  1.00  0.00     0.049 A 
ATOM     38  N   UNL A   1      41.890  27.038  28.841  1.00  0.00    -0.248 NA
ATOM     39  C   UNL A   1      40.366  25.400  28.170  1.00  0.00     0.031 C 
ATOM     40  C   UNL A   1      45.224  24.109  28.318  1.00  0.00     0.029 A 
ATOM     41  N   UNL A   1      44.691  26.178  28.976  1.00  0.00    -0.354 N 
ATOM     42  C   UNL A   1      40.612  27.581  28.820  1.00  0.00     0.074 A 
ATOM     43  C   UNL A   1      39.718  26.543  28.352  1.00  0.00     0.031 C 
ATOM     44  C   UNL A   1      46.365  24.728  28.661  1.00  0.00     0.029 A 
ATOM     45  C   UNL A   1      46.060  26.097  29.062  1.00  0.00     0.049 A 
ATOM     46  H   UNL A   1      44.182  26.985  29.220  1.00  0.00     0.167 HD
ATOM     47  C   UNL A   1      40.218  28.827  29.175  1.00  0.00     0.037 A 
ATOM     48  C   UNL A   1      46.971  27.028  29.404  1.00  0.00     0.037 A 
ATOM     49  C   UNL A   1      41.105  29.849  29.665  1.00  0.00     0.049 A 
ATOM     50  C   UNL A   1      46.510  28.409  29.773  1.00  0.00     0.074 A 
ATOM     51  C   UNL A   1      40.789  31.113  30.132  1.00  0.00     0.029 A 
ATOM     52  N   UNL A   1      42.483  29.727  29.745  1.00  0.00    -0.354 N 
ATOM     53  N   UNL A   1      45.290  28.886  29.821  1.00  0.00    -0.248 NA
ATOM     54  C   UNL A   1      47.551  29.383  30.132  1.00  0.00     0.031 C 
ATOM     55  C   UNL A   1      41.980  31.772  30.452  1.00  0.00     0.029 A 
ATOM     56  C   UNL A   1      43.035  30.904  30.222  1.00  0.00     0.049 A 
ATOM     57  H   UNL A   1      42.995  28.921  29.500  1.00  0.00     0.167 HD
ATOM     58  C   UNL A   1      45.414  30.208  30.227  1.00  0.00     0.074 A 
ATOM     59  C   UNL A   1      46.827  30.453  30.429  1.00  0.00     0.031 C 
ATOM     60  C   UNL A   1      44.444  31.135  30.412  1.00  0.00     0.037 A 
BRANCH  47  61
ATOM     61  C   UNL A   1      38.760  29.155  29.051  1.00  0.00     0.057 A 
ATOM     62  C   UNL A   1      37.891  29.075  30.146  1.00  0.00     0.134 A 
ATOM     63  C   UNL A   1      38.230  29.600  27.834  1.00  0.00     0.134 A 
ATOM     64  F   UNL A   1      38.336  28.645  31.337  1.00  0.00    -0.206 F 
ATOM     65  C   UNL A   1      36.540  29.406  30.030  1.00  0.00     0.040 A 
ATOM     66  C   UNL A   1      36.886  29.956  27.711  1.00  0.00     0.040 A 
ATOM     67  F   UNL A   1      39.010  29.705  26.747  1.00  0.00    -0.206 F 
ATOM     68  C   UNL A   1      36.035  29.854  28.811  1.00  0.00     0.006 A 
ENDBRANCH  47  61
BRANCH  48  69
ATOM     69  C   UNL A   1      48.415  26.685  29.411  1.00  0.00     0.057 A 
ATOM     70  C   UNL A   1      49.218  26.933  28.292  1.00  0.00     0.134 A 
ATOM     71  C   UNL A   1      49.023  26.102  30.528  1.00  0.00     0.134 A 
ATOM     72  F   UNL A   1      48.686  27.473  27.186  1.00  0.00    -0.206 F 
ATOM     73  C   UNL A   1      50.573  26.601  28.278  1.00  0.00     0.040 A 
ATOM     74  C   UNL A   1      50.383  25.784  30.536  1.00  0.00     0.040 A 
ATOM     75  F   UNL A   1      48.307  25.844  31.632  1.00  0.00    -0.206 F 
ATOM     76  C   UNL A   1      51.160  26.028  29.405  1.00  0.00     0.006 A 
ENDBRANCH  48  69
BRANCH  60  77
ATOM     77  C   UNL A   1      44.877  32.498  30.863  1.00  0.00     0.057 A 
ATOM     78  C   UNL A   1      45.134  33.526  29.948  1.00  0.00     0.134 A 
ATOM     79  C   UNL A   1      44.993  32.799  32.225  1.00  0.00     0.134 A 
ATOM     80  F   UNL A   1      45.055  33.297  28.628  1.00  0.00    -0.206 F 
ATOM     81  C   UNL A   1      45.505  34.802  30.371  1.00  0.00     0.040 A 
ATOM     82  C   UNL A   1      45.341  34.078  32.662  1.00  0.00     0.040 A 
ATOM     83  F   UNL A   1      44.754  31.859  33.153  1.00  0.00    -0.206 F 
ATOM     84  C   UNL A   1      45.601  35.082  31.734  1.00  0.00     0.006 A 
ENDBRANCH  60  77
ENDBRANCH  34  35
ENDBRANCH  26  29
ENDBRANCH  24  25
ENDBRANCH  23  24
ENDBRANCH   1  23
TORSDOF 16
ENDMDL
MODEL 3
REMARK VINA RESULT:     -10.8      4.202      8.793
REMARK SMILES CCN(CC)C(=O)C[C@](C)(C(=O)NCCCCNC(=O)c1ccc(-c2c3nc(c(-c4c(F)cccc4F)c4ccc([nH]4)c(-c4c(F)cccc4F)c4nc(c(-c5c(F)cccc5F)c5ccc2[nH]5)C=C4)C=C3)cc1)c1ccccc1
REMARK SMILES IDX 15 1 14 2 13 3 11 4 12 5 9 7 10 8 8 9 6 10 3 11 7 12 2 13
REMARK SMILES IDX 1 14 4 15 5 16 75 17 76 18 80 19 77 20 79 21 78 22 16 23
REMARK SMILES IDX 17 24 18 25 19 26 20 28 21 29 22 30 74 31 23 32 73 33 24 34
REMARK SMILES IDX 25 35 26 36 67 37 27 38 72 39 66 40 68 41 28 42 71 43 65 44
REMARK SMILES IDX 64 45 29 47 55 48 38 49 54 50 39 51 42 52 53 53 69 54 40 55
REMARK SMILES IDX 41 56 52 58 70 59 43 60 30 61 31 62 36 63 32 64 33 65 35 66
REMARK SMILES IDX 37 67 34 68 56 69 57 70 62 71 58 72 59 73 61 74 63 75 60 76
REMARK SMILES IDX 44 77 45 78 50 79 46 80 47 81 49 82 51 83 48 84
REMARK H PARENT 13 6 18 27 68 46 42 57
REMARK Flexibility Score: inf
ROOT
ATOM      1  C   UNL A   1      36.916  21.635  24.291  1.00  0.00     0.023 C 
ENDROOT
BRANCH   1   2
ATOM      2  C   UNL A   1      36.830  22.902  25.139  1.00  0.00     0.116 C 
BRANCH   2   3
ATOM      3  N   UNL A   1      35.961  22.719  26.295  1.00  0.00    -0.355 N 
ATOM      4  C   UNL A   1      34.615  22.902  26.484  1.00  0.00     0.230 C 
ATOM      5  O   UNL A   1      34.250  22.763  27.654  1.00  0.00    -0.274 OA
ATOM      6  H   UNL A   1      36.433  22.399  27.097  1.00  0.00     0.163 HD
BRANCH   4   7
ATOM      7  C   UNL A   1      33.655  23.264  25.303  1.00  0.00     0.080 C 
ATOM      8  C   UNL A   1      32.375  23.804  26.016  1.00  0.00     0.027 C 
BRANCH   7   9
ATOM      9  C   UNL A   1      34.343  24.368  24.438  1.00  0.00     0.121 C 
BRANCH   9  10
ATOM     10  C   UNL A   1      34.000  25.832  24.672  1.00  0.00     0.223 C 
ATOM     11  N   UNL A   1      33.496  26.594  23.625  1.00  0.00    -0.343 N 
ATOM     12  O   UNL A   1      34.248  26.319  25.780  1.00  0.00    -0.275 OA
BRANCH  11  13
ATOM     13  C   UNL A   1      33.217  28.009  23.884  1.00  0.00     0.116 C 
ATOM     14  C   UNL A   1      33.705  28.933  22.776  1.00  0.00     0.027 C 
ENDBRANCH  11  13
BRANCH  11  15
ATOM     15  C   UNL A   1      33.330  26.134  22.245  1.00  0.00     0.116 C 
ATOM     16  C   UNL A   1      31.901  25.717  21.939  1.00  0.00     0.027 C 
ENDBRANCH  11  15
ENDBRANCH   9  10
ENDBRANCH   7   9
BRANCH   7  17
ATOM     17  C   UNL A   1      33.186  22.088  24.397  1.00  0.00    -0.032 A 
ATOM     18  C   UNL A   1      32.572  22.259  23.144  1.00  0.00     0.005 A 
ATOM     19  C   UNL A   1      33.294  20.760  24.867  1.00  0.00     0.005 A 
ATOM     20  C   UNL A   1      32.115  21.168  22.395  1.00  0.00     0.000 A 
ATOM     21  C   UNL A   1      32.847  19.668  24.118  1.00  0.00     0.000 A 
ATOM     22  C   UNL A   1      32.256  19.872  22.880  1.00  0.00     0.000 A 
ENDBRANCH   7  17
ENDBRANCH   4   7
ENDBRANCH   2   3
ENDBRANCH   1   2
BRANCH   1  23
ATOM     23  C   UNL A   1      37.603  20.454  24.978  1.00  0.00     0.023 C 
BRANCH  23  24
ATOM     24  C   UNL A   1      38.892  20.799  25.717  1.00  0.00     0.116 C 
BRANCH  24  25
ATOM     25  N   UNL A   1      39.848  19.701  25.733  1.00  0.00    -0.352 N 
ATOM     26  C   UNL A   1      41.186  19.716  26.054  1.00  0.00     0.251 C 
ATOM     27  H   UNL A   1      39.486  18.823  25.477  1.00  0.00     0.163 HD
ATOM     28  O   UNL A   1      41.880  18.723  25.879  1.00  0.00    -0.269 OA
BRANCH  26  29
ATOM     29  C   UNL A   1      41.790  20.958  26.579  1.00  0.00     0.039 A 
ATOM     30  C   UNL A   1      42.355  21.865  25.681  1.00  0.00     0.014 A 
ATOM     31  C   UNL A   1      41.745  21.246  27.945  1.00  0.00     0.014 A 
ATOM     32  C   UNL A   1      42.785  23.111  26.141  1.00  0.00     0.010 A 
ATOM     33  C   UNL A   1      42.113  22.511  28.392  1.00  0.00     0.010 A 
ATOM     34  C   UNL A   1      42.614  23.463  27.490  1.00  0.00    -0.014 A 
BRANCH  34  35
ATOM     35  C   UNL A   1      42.891  24.839  27.972  1.00  0.00     0.031 A 
ATOM     36  C   UNL A   1      44.270  25.224  28.423  1.00  0.00     0.074 A 
ATOM     37  C   UNL A   1      41.869  25.710  28.103  1.00  0.00     0.049 A 
ATOM     38  N   UNL A   1      44.673  26.333  28.987  1.00  0.00    -0.248 NA
ATOM     39  C   UNL A   1      45.329  24.221  28.236  1.00  0.00     0.031 C 
ATOM     40  C   UNL A   1      40.474  25.439  27.747  1.00  0.00     0.029 A 
ATOM     41  N   UNL A   1      41.842  26.991  28.592  1.00  0.00    -0.354 N 
ATOM     42  C   UNL A   1      46.028  26.156  29.238  1.00  0.00     0.074 A 
ATOM     43  C   UNL A   1      46.369  24.819  28.801  1.00  0.00     0.031 C 
ATOM     44  C   UNL A   1      39.731  26.522  28.021  1.00  0.00     0.029 A 
ATOM     45  C   UNL A   1      40.586  27.547  28.611  1.00  0.00     0.049 A 
ATOM     46  H   UNL A   1      42.647  27.468  28.901  1.00  0.00     0.167 HD
ATOM     47  C   UNL A   1      46.909  27.035  29.770  1.00  0.00     0.037 A 
ATOM     48  C   UNL A   1      40.164  28.740  29.071  1.00  0.00     0.037 A 
ATOM     49  C   UNL A   1      46.573  28.373  30.180  1.00  0.00     0.049 A 
ATOM     50  C   UNL A   1      41.159  29.689  29.676  1.00  0.00     0.074 A 
ATOM     51  C   UNL A   1      47.413  29.367  30.649  1.00  0.00     0.029 A 
ATOM     52  N   UNL A   1      45.291  28.902  30.177  1.00  0.00    -0.354 N 
ATOM     53  N   UNL A   1      42.451  29.537  29.838  1.00  0.00    -0.248 NA
ATOM     54  C   UNL A   1      40.638  30.974  30.166  1.00  0.00     0.031 C 
ATOM     55  C   UNL A   1      46.634  30.483  30.972  1.00  0.00     0.029 A 
ATOM     56  C   UNL A   1      45.313  30.197  30.667  1.00  0.00     0.049 A 
ATOM     57  H   UNL A   1      44.484  28.427  29.870  1.00  0.00     0.167 HD
ATOM     58  C   UNL A   1      42.899  30.708  30.435  1.00  0.00     0.074 A 
ATOM     59  C   UNL A   1      41.744  31.568  30.590  1.00  0.00     0.031 C 
ATOM     60  C   UNL A   1      44.155  31.038  30.821  1.00  0.00     0.037 A 
BRANCH  47  61
ATOM     61  C   UNL A   1      48.328  26.580  29.935  1.00  0.00     0.057 A 
ATOM     62  C   UNL A   1      48.747  25.870  31.067  1.00  0.00     0.134 A 
ATOM     63  C   UNL A   1      49.274  26.812  28.930  1.00  0.00     0.134 A 
ATOM     64  F   UNL A   1      47.891  25.625  32.071  1.00  0.00    -0.206 F 
ATOM     65  C   UNL A   1      50.063  25.426  31.204  1.00  0.00     0.040 A 
ATOM     66  C   UNL A   1      50.587  26.354  29.044  1.00  0.00     0.040 A 
ATOM     67  F   UNL A   1      48.936  27.481  27.817  1.00  0.00    -0.206 F 
ATOM     68  C   UNL A   1      50.986  25.662  30.187  1.00  0.00     0.006 A 
ENDBRANCH  47  61
BRANCH  48  69
ATOM     69  C   UNL A   1      38.729  29.105  28.981  1.00  0.00     0.057 A 
ATOM     70  C   UNL A   1      38.179  29.574  27.783  1.00  0.00     0.134 A 
ATOM     71  C   UNL A   1      37.876  28.996  30.085  1.00  0.00     0.134 A 
ATOM     72  F   UNL A   1      38.953  29.717  26.696  1.00  0.00    -0.206 F 
ATOM     73  C   UNL A   1      36.835  29.937  27.688  1.00  0.00     0.040 A 
ATOM     74  C   UNL A   1      36.524  29.335  30.000  1.00  0.00     0.040 A 
ATOM     75  F   UNL A   1      38.342  28.548  31.260  1.00  0.00    -0.206 F 
ATOM     76  C   UNL A   1      36.002  29.813  28.799  1.00  0.00     0.006 A 
ENDBRANCH  48  69
BRANCH  60  77
ATOM     77  C   UNL A   1      44.346  32.389  31.443  1.00  0.00     0.057 A 
ATOM     78  C   UNL A   1      44.588  33.527  30.665  1.00  0.00     0.134 A 
ATOM     79  C   UNL A   1      44.243  32.561  32.829  1.00  0.00     0.134 A 
ATOM     80  F   UNL A   1      44.713  33.425  29.333  1.00  0.00    -0.206 F 
ATOM     81  C   UNL A   1      44.733  34.788  31.244  1.00  0.00     0.040 A 
ATOM     82  C   UNL A   1      44.364  33.821  33.418  1.00  0.00     0.040 A 
ATOM     83  F   UNL A   1      44.006  31.511  33.630  1.00  0.00    -0.206 F 
ATOM     84  C   UNL A   1      44.613  34.938  32.624  1.00  0.00     0.006 A 
ENDBRANCH  60  77
ENDBRANCH  34  35
ENDBRANCH  26  29
ENDBRANCH  24  25
ENDBRANCH  23  24
ENDBRANCH   1  23
TORSDOF 16
ENDMDL
