MODEL 1
REMARK VINA RESULT:     -12.3      0.000      0.000
REMARK SMILES Cc1noc(C[N@H+]2CCC[C@@H](c3ccc(C(=O)NCCCCNC(=O)c4ccc(-c5c6nc(c(-c7c(F)cccc7F)c7ccc([nH]7)c(-c7c(F)cccc7F)c7nc(c(-c8c(F)cccc8F)c8ccc5[nH]8)C=C7)C=C6)cc4)cc3)C2)n1
REMARK SMILES IDX 20 1 19 2 18 3 16 4 17 5 15 7 12 8 13 9 81 10 14 11 80 12
REMARK SMILES IDX 11 13 7 14 8 15 82 16 9 18 10 19 6 20 5 21 1 22 2 23 3 24
REMARK SMILES IDX 83 25 4 26 21 27 22 28 23 29 24 30 25 32 26 33 27 34 79 35
REMARK SMILES IDX 28 36 78 37 29 38 30 39 31 40 72 41 32 42 77 43 71 44 73 45
REMARK SMILES IDX 33 46 76 47 70 48 69 49 34 51 60 52 43 53 59 54 44 55 47 56
REMARK SMILES IDX 58 57 74 58 45 59 46 60 57 62 75 63 48 64 35 65 36 66 41 67
REMARK SMILES IDX 37 68 38 69 40 70 42 71 39 72 61 73 62 74 67 75 63 76 64 77
REMARK SMILES IDX 66 78 68 79 65 80 49 81 50 82 55 83 51 84 52 85 54 86 56 87
REMARK SMILES IDX 53 88
REMARK H PARENT 18 6 7 17 23 31 73 50 47 61
REMARK Flexibility Score: inf
ROOT
ATOM      1  C   UNL A   1      34.628  33.813  29.276  1.00  0.00     0.023 C 
ENDROOT
BRANCH   1   2
ATOM      2  C   UNL A   1      35.228  33.483  27.906  1.00  0.00     0.116 C 
BRANCH   2   3
ATOM      3  N   UNL A   1      36.230  32.445  28.027  1.00  0.00    -0.352 N 
ATOM      4  C   UNL A   1      36.145  31.085  27.867  1.00  0.00     0.251 C 
ATOM      5  O   UNL A   1      37.178  30.429  28.004  1.00  0.00    -0.269 OA
ATOM      6  H   UNL A   1      37.127  32.771  28.267  1.00  0.00     0.163 HD
BRANCH   4   7
ATOM      7  C   UNL A   1      34.887  30.389  27.480  1.00  0.00     0.039 A 
ATOM      8  C   UNL A   1      32.616  28.919  26.649  1.00  0.00    -0.039 A 
ATOM      9  C   UNL A   1      33.859  28.291  26.822  1.00  0.00     0.005 A 
ATOM     10  C   UNL A   1      32.510  30.275  26.966  1.00  0.00     0.005 A 
ATOM     11  C   UNL A   1      34.982  29.019  27.219  1.00  0.00     0.014 A 
ATOM     12  C   UNL A   1      33.630  30.994  27.399  1.00  0.00     0.014 A 
BRANCH   8  13
ATOM     13  C   UNL A   1      31.391  28.165  26.152  1.00  0.00     0.074 C 
ATOM     14  N   UNL A   1      30.007  27.672  24.086  1.00  0.00    -0.327 N 
ATOM     15  C   UNL A   1      30.232  26.233  24.286  1.00  0.00     0.262 C 
ATOM     16  C   UNL A   1      31.099  28.476  24.668  1.00  0.00     0.270 C 
ATOM     17  H   UNL A   1      29.146  27.913  24.577  1.00  0.00     0.348 HD
ATOM     18  C   UNL A   1      30.392  25.894  25.768  1.00  0.00     0.062 C 
ATOM     19  C   UNL A   1      31.559  26.660  26.381  1.00  0.00     0.020 C 
BRANCH  14  20
ATOM     20  C   UNL A   1      29.822  27.999  22.643  1.00  0.00     0.364 C 
BRANCH  20  21
ATOM     21  C   UNL A   1      29.207  29.337  22.362  1.00  0.00     0.281 A 
ATOM     22  C   UNL A   1      27.968  32.006  20.459  1.00  0.00     0.093 C 
ATOM     23  C   UNL A   1      28.343  31.032  21.501  1.00  0.00     0.169 A 
ATOM     24  N   UNL A   1      27.698  30.926  22.669  1.00  0.00    -0.063 NA
ATOM     25  N   UNL A   1      29.320  30.097  21.292  1.00  0.00    -0.191 NA
ATOM     26  O   UNL A   1      28.276  29.793  23.251  1.00  0.00    -0.333 OA
ENDBRANCH  20  21
ENDBRANCH  14  20
ENDBRANCH   8  13
ENDBRANCH   4   7
ENDBRANCH   2   3
ENDBRANCH   1   2
BRANCH   1  27
ATOM     27  C   UNL A   1      33.319  34.601  29.218  1.00  0.00     0.023 C 
BRANCH  27  28
ATOM     28  C   UNL A   1      33.402  36.013  29.779  1.00  0.00     0.116 C 
BRANCH  28  29
ATOM     29  N   UNL A   1      32.408  36.282  30.806  1.00  0.00    -0.352 N 
ATOM     30  C   UNL A   1      32.436  35.919  32.131  1.00  0.00     0.251 C 
ATOM     31  H   UNL A   1      31.616  36.790  30.516  1.00  0.00     0.163 HD
ATOM     32  O   UNL A   1      31.475  36.131  32.859  1.00  0.00    -0.269 OA
BRANCH  30  33
ATOM     33  C   UNL A   1      33.630  35.225  32.654  1.00  0.00     0.039 A 
ATOM     34  C   UNL A   1      33.501  33.905  33.090  1.00  0.00     0.014 A 
ATOM     35  C   UNL A   1      34.875  35.860  32.663  1.00  0.00     0.014 A 
ATOM     36  C   UNL A   1      34.638  33.196  33.475  1.00  0.00     0.010 A 
ATOM     37  C   UNL A   1      36.015  35.132  32.983  1.00  0.00     0.010 A 
ATOM     38  C   UNL A   1      35.906  33.792  33.389  1.00  0.00    -0.014 A 
BRANCH  38  39
ATOM     39  C   UNL A   1      37.134  33.034  33.725  1.00  0.00     0.031 A 
ATOM     40  C   UNL A   1      37.872  33.328  35.001  1.00  0.00     0.074 A 
ATOM     41  C   UNL A   1      37.614  32.123  32.856  1.00  0.00     0.049 A 
ATOM     42  N   UNL A   1      39.002  32.832  35.436  1.00  0.00    -0.248 NA
ATOM     43  C   UNL A   1      37.272  34.332  35.895  1.00  0.00     0.031 C 
ATOM     44  C   UNL A   1      37.009  31.777  31.568  1.00  0.00     0.029 A 
ATOM     45  N   UNL A   1      38.729  31.327  32.923  1.00  0.00    -0.354 N 
ATOM     46  C   UNL A   1      39.249  33.464  36.647  1.00  0.00     0.074 A 
ATOM     47  C   UNL A   1      38.182  34.420  36.853  1.00  0.00     0.031 C 
ATOM     48  C   UNL A   1      37.747  30.823  30.977  1.00  0.00     0.029 A 
ATOM     49  C   UNL A   1      38.894  30.516  31.826  1.00  0.00     0.049 A 
ATOM     50  H   UNL A   1      39.352  31.334  33.685  1.00  0.00     0.167 HD
ATOM     51  C   UNL A   1      40.258  33.247  37.522  1.00  0.00     0.037 A 
ATOM     52  C   UNL A   1      39.866  29.629  31.538  1.00  0.00     0.037 A 
ATOM     53  C   UNL A   1      41.307  32.282  37.327  1.00  0.00     0.049 A 
ATOM     54  C   UNL A   1      40.985  29.423  32.522  1.00  0.00     0.074 A 
ATOM     55  C   UNL A   1      42.360  31.970  38.168  1.00  0.00     0.029 A 
ATOM     56  N   UNL A   1      41.427  31.467  36.211  1.00  0.00    -0.354 N 
ATOM     57  N   UNL A   1      41.179  29.995  33.684  1.00  0.00    -0.248 NA
ATOM     58  C   UNL A   1      42.017  28.443  32.153  1.00  0.00     0.031 C 
ATOM     59  C   UNL A   1      43.134  30.983  37.549  1.00  0.00     0.029 A 
ATOM     60  C   UNL A   1      42.542  30.656  36.340  1.00  0.00     0.049 A 
ATOM     61  H   UNL A   1      40.813  31.465  35.443  1.00  0.00     0.167 HD
ATOM     62  C   UNL A   1      42.334  29.421  34.201  1.00  0.00     0.074 A 
ATOM     63  C   UNL A   1      42.789  28.448  33.230  1.00  0.00     0.031 C 
ATOM     64  C   UNL A   1      42.964  29.678  35.373  1.00  0.00     0.037 A 
BRANCH  51  65
ATOM     65  C   UNL A   1      40.263  34.058  38.784  1.00  0.00     0.057 A 
ATOM     66  C   UNL A   1      40.939  35.283  38.862  1.00  0.00     0.134 A 
ATOM     67  C   UNL A   1      39.554  33.636  39.915  1.00  0.00     0.134 A 
ATOM     68  F   UNL A   1      41.649  35.735  37.817  1.00  0.00    -0.206 F 
ATOM     69  C   UNL A   1      40.924  36.052  40.026  1.00  0.00     0.040 A 
ATOM     70  C   UNL A   1      39.513  34.408  41.078  1.00  0.00     0.040 A 
ATOM     71  F   UNL A   1      38.884  32.474  39.906  1.00  0.00    -0.206 F 
ATOM     72  C   UNL A   1      40.202  35.618  41.136  1.00  0.00     0.006 A 
ENDBRANCH  51  65
BRANCH  52  73
ATOM     73  C   UNL A   1      39.824  28.850  30.276  1.00  0.00     0.057 A 
ATOM     74  C   UNL A   1      40.414  29.343  29.106  1.00  0.00     0.134 A 
ATOM     75  C   UNL A   1      39.164  27.618  30.195  1.00  0.00     0.134 A 
ATOM     76  F   UNL A   1      41.044  30.526  29.115  1.00  0.00    -0.206 F 
ATOM     77  C   UNL A   1      40.323  28.655  27.895  1.00  0.00     0.040 A 
ATOM     78  C   UNL A   1      39.087  26.907  28.996  1.00  0.00     0.040 A 
ATOM     79  F   UNL A   1      38.584  27.088  31.282  1.00  0.00    -0.206 F 
ATOM     80  C   UNL A   1      39.660  27.432  27.839  1.00  0.00     0.006 A 
ENDBRANCH  52  73
BRANCH  64  81
ATOM     81  C   UNL A   1      44.180  28.861  35.689  1.00  0.00     0.057 A 
ATOM     82  C   UNL A   1      45.463  29.262  35.296  1.00  0.00     0.134 A 
ATOM     83  C   UNL A   1      44.069  27.676  36.428  1.00  0.00     0.134 A 
ATOM     84  F   UNL A   1      45.633  30.380  34.574  1.00  0.00    -0.206 F 
ATOM     85  C   UNL A   1      46.590  28.501  35.607  1.00  0.00     0.040 A 
ATOM     86  C   UNL A   1      45.190  26.920  36.765  1.00  0.00     0.040 A 
ATOM     87  F   UNL A   1      42.868  27.242  36.841  1.00  0.00    -0.206 F 
ATOM     88  C   UNL A   1      46.456  27.330  36.350  1.00  0.00     0.006 A 
ENDBRANCH  64  81
ENDBRANCH  38  39
ENDBRANCH  30  33
ENDBRANCH  28  29
ENDBRANCH  27  28
ENDBRANCH   1  27
TORSDOF 14
ENDMDL
MODEL 2
REMARK VINA RESULT:     -12.3      3.672      5.328
REMARK SMILES Cc1noc(C[N@H+]2CCC[C@@H](c3ccc(C(=O)NCCCCNC(=O)c4ccc(-c5c6nc(c(-c7c(F)cccc7F)c7ccc([nH]7)c(-c7c(F)cccc7F)c7nc(c(-c8c(F)cccc8F)c8ccc5[nH]8)C=C7)C=C6)cc4)cc3)C2)n1
REMARK SMILES IDX 20 1 19 2 18 3 16 4 17 5 15 7 12 8 13 9 81 10 14 11 80 12
REMARK SMILES IDX 11 13 7 14 8 15 82 16 9 18 10 19 6 20 5 21 1 22 2 23 3 24
REMARK SMILES IDX 83 25 4 26 21 27 22 28 23 29 24 30 25 32 26 33 27 34 79 35
REMARK SMILES IDX 28 36 78 37 29 38 30 39 31 40 72 41 32 42 77 43 71 44 73 45
REMARK SMILES IDX 33 46 76 47 70 48 69 49 34 51 60 52 43 53 59 54 44 55 47 56
REMARK SMILES IDX 58 57 74 58 45 59 46 60 57 62 75 63 48 64 35 65 36 66 41 67
REMARK SMILES IDX 37 68 38 69 40 70 42 71 39 72 61 73 62 74 67 75 63 76 64 77
REMARK SMILES IDX 66 78 68 79 65 80 49 81 50 82 55 83 51 84 52 85 54 86 56 87
REMARK SMILES IDX 53 88
REMARK H PARENT 18 6 7 17 23 31 73 50 47 61
REMARK Flexibility Score: inf
ROOT
ATOM      1  C   UNL A   1      31.738  30.484  26.666  1.00  0.00     0.023 C 
ENDROOT
BRANCH   1   2
ATOM      2  C   UNL A   1      32.495  29.993  25.429  1.00  0.00     0.116 C 
BRANCH   2   3
ATOM      3  N   UNL A   1      31.572  29.697  24.354  1.00  0.00    -0.352 N 
ATOM      4  C   UNL A   1      31.030  28.510  23.930  1.00  0.00     0.251 C 
ATOM      5  O   UNL A   1      30.234  28.549  22.991  1.00  0.00    -0.269 OA
ATOM      6  H   UNL A   1      31.283  30.483  23.837  1.00  0.00     0.163 HD
BRANCH   4   7
ATOM      7  C   UNL A   1      31.314  27.205  24.589  1.00  0.00     0.039 A 
ATOM      8  C   UNL A   1      31.977  24.678  25.677  1.00  0.00    -0.039 A 
ATOM      9  C   UNL A   1      32.835  25.322  24.771  1.00  0.00     0.005 A 
ATOM     10  C   UNL A   1      30.822  25.348  26.084  1.00  0.00     0.005 A 
ATOM     11  C   UNL A   1      32.501  26.563  24.225  1.00  0.00     0.014 A 
ATOM     12  C   UNL A   1      30.509  26.608  25.562  1.00  0.00     0.014 A 
BRANCH   8  13
ATOM     13  C   UNL A   1      32.282  23.296  26.237  1.00  0.00     0.074 C 
ATOM     14  N   UNL A   1      32.606  20.867  25.588  1.00  0.00    -0.327 N 
ATOM     15  C   UNL A   1      33.948  20.892  26.188  1.00  0.00     0.262 C 
ATOM     16  C   UNL A   1      32.188  22.210  25.143  1.00  0.00     0.270 C 
ATOM     17  H   UNL A   1      31.958  20.562  26.315  1.00  0.00     0.348 HD
ATOM     18  C   UNL A   1      34.018  21.870  27.360  1.00  0.00     0.062 C 
ATOM     19  C   UNL A   1      33.657  23.283  26.914  1.00  0.00     0.020 C 
BRANCH  14  20
ATOM     20  C   UNL A   1      32.530  19.890  24.464  1.00  0.00     0.364 C 
BRANCH  20  21
ATOM     21  C   UNL A   1      32.916  18.483  24.808  1.00  0.00     0.281 A 
ATOM     22  C   UNL A   1      32.489  15.075  25.504  1.00  0.00     0.093 C 
ATOM     23  C   UNL A   1      32.977  16.430  25.185  1.00  0.00     0.169 A 
ATOM     24  N   UNL A   1      34.156  16.663  24.596  1.00  0.00    -0.063 NA
ATOM     25  N   UNL A   1      32.199  17.538  25.380  1.00  0.00    -0.191 NA
ATOM     26  O   UNL A   1      34.122  18.038  24.345  1.00  0.00    -0.333 OA
ENDBRANCH  20  21
ENDBRANCH  14  20
ENDBRANCH   8  13
ENDBRANCH   4   7
ENDBRANCH   2   3
ENDBRANCH   1   2
BRANCH   1  27
ATOM     27  C   UNL A   1      31.533  31.998  26.719  1.00  0.00     0.023 C 
BRANCH  27  28
ATOM     28  C   UNL A   1      32.735  32.785  27.221  1.00  0.00     0.116 C 
BRANCH  28  29
ATOM     29  N   UNL A   1      32.403  34.140  27.636  1.00  0.00    -0.352 N 
ATOM     30  C   UNL A   1      33.008  34.905  28.603  1.00  0.00     0.251 C 
ATOM     31  H   UNL A   1      31.649  34.561  27.163  1.00  0.00     0.163 HD
ATOM     32  O   UNL A   1      32.552  35.997  28.914  1.00  0.00    -0.269 OA
BRANCH  30  33
ATOM     33  C   UNL A   1      34.194  34.365  29.298  1.00  0.00     0.039 A 
ATOM     34  C   UNL A   1      34.009  33.642  30.478  1.00  0.00     0.014 A 
ATOM     35  C   UNL A   1      35.472  34.531  28.758  1.00  0.00     0.014 A 
ATOM     36  C   UNL A   1      35.104  33.026  31.083  1.00  0.00     0.010 A 
ATOM     37  C   UNL A   1      36.550  33.861  29.324  1.00  0.00     0.010 A 
ATOM     38  C   UNL A   1      36.374  33.100  30.490  1.00  0.00    -0.014 A 
BRANCH  38  39
ATOM     39  C   UNL A   1      37.537  32.393  31.077  1.00  0.00     0.031 A 
ATOM     40  C   UNL A   1      38.161  32.901  32.347  1.00  0.00     0.074 A 
ATOM     41  C   UNL A   1      38.064  31.331  30.438  1.00  0.00     0.049 A 
ATOM     42  N   UNL A   1      39.225  32.471  32.975  1.00  0.00    -0.248 NA
ATOM     43  C   UNL A   1      37.514  34.061  32.983  1.00  0.00     0.031 C 
ATOM     44  C   UNL A   1      37.572  30.768  29.179  1.00  0.00     0.029 A 
ATOM     45  N   UNL A   1      39.138  30.539  30.757  1.00  0.00    -0.354 N 
ATOM     46  C   UNL A   1      39.378  33.308  34.072  1.00  0.00     0.074 A 
ATOM     47  C   UNL A   1      38.332  34.305  33.996  1.00  0.00     0.031 C 
ATOM     48  C   UNL A   1      38.328  29.709  28.845  1.00  0.00     0.029 A 
ATOM     49  C   UNL A   1      39.377  29.540  29.846  1.00  0.00     0.049 A 
ATOM     50  H   UNL A   1      39.686  30.674  31.564  1.00  0.00     0.167 HD
ATOM     51  C   UNL A   1      40.291  33.235  35.068  1.00  0.00     0.037 A 
ATOM     52  C   UNL A   1      40.339  28.598  29.819  1.00  0.00     0.037 A 
ATOM     53  C   UNL A   1      41.318  32.232  35.154  1.00  0.00     0.049 A 
ATOM     54  C   UNL A   1      41.351  28.553  30.931  1.00  0.00     0.074 A 
ATOM     55  C   UNL A   1      42.275  32.058  36.138  1.00  0.00     0.029 A 
ATOM     56  N   UNL A   1      41.515  31.226  34.221  1.00  0.00    -0.354 N 
ATOM     57  N   UNL A   1      41.455  29.324  31.986  1.00  0.00    -0.248 NA
ATOM     58  C   UNL A   1      42.377  27.504  30.848  1.00  0.00     0.031 C 
ATOM     59  C   UNL A   1      43.069  30.961  35.788  1.00  0.00     0.029 A 
ATOM     60  C   UNL A   1      42.583  30.431  34.603  1.00  0.00     0.049 A 
ATOM     61  H   UNL A   1      40.977  31.095  33.407  1.00  0.00     0.167 HD
ATOM     62  C   UNL A   1      42.534  28.831  32.710  1.00  0.00     0.074 A 
ATOM     63  C   UNL A   1      43.044  27.690  31.979  1.00  0.00     0.031 C 
ATOM     64  C   UNL A   1      43.059  29.286  33.873  1.00  0.00     0.037 A 
BRANCH  51  65
ATOM     65  C   UNL A   1      40.206  34.261  36.159  1.00  0.00     0.057 A 
ATOM     66  C   UNL A   1      40.887  35.482  36.067  1.00  0.00     0.134 A 
ATOM     67  C   UNL A   1      39.405  34.049  37.287  1.00  0.00     0.134 A 
ATOM     68  F   UNL A   1      41.682  35.740  35.018  1.00  0.00    -0.206 F 
ATOM     69  C   UNL A   1      40.789  36.450  37.068  1.00  0.00     0.040 A 
ATOM     70  C   UNL A   1      39.280  35.019  38.284  1.00  0.00     0.040 A 
ATOM     71  F   UNL A   1      38.725  32.903  37.435  1.00  0.00    -0.206 F 
ATOM     72  C   UNL A   1      39.977  36.222  38.177  1.00  0.00     0.006 A 
ENDBRANCH  51  65
BRANCH  52  73
ATOM     73  C   UNL A   1      40.389  27.604  28.719  1.00  0.00     0.057 A 
ATOM     74  C   UNL A   1      41.155  27.838  27.571  1.00  0.00     0.134 A 
ATOM     75  C   UNL A   1      39.647  26.418  28.767  1.00  0.00     0.134 A 
ATOM     76  F   UNL A   1      41.872  28.965  27.458  1.00  0.00    -0.206 F 
ATOM     77  C   UNL A   1      41.158  26.945  26.498  1.00  0.00     0.040 A 
ATOM     78  C   UNL A   1      39.661  25.504  27.712  1.00  0.00     0.040 A 
ATOM     79  F   UNL A   1      38.898  26.131  29.842  1.00  0.00    -0.206 F 
ATOM     80  C   UNL A   1      40.410  25.772  26.569  1.00  0.00     0.006 A 
ENDBRANCH  52  73
BRANCH  64  81
ATOM     81  C   UNL A   1      44.209  28.517  34.451  1.00  0.00     0.057 A 
ATOM     82  C   UNL A   1      45.539  28.858  34.173  1.00  0.00     0.134 A 
ATOM     83  C   UNL A   1      43.982  27.446  35.324  1.00  0.00     0.134 A 
ATOM     84  F   UNL A   1      45.821  29.865  33.333  1.00  0.00    -0.206 F 
ATOM     85  C   UNL A   1      46.603  28.145  34.726  1.00  0.00     0.040 A 
ATOM     86  C   UNL A   1      45.037  26.742  35.902  1.00  0.00     0.040 A 
ATOM     87  F   UNL A   1      42.730  27.075  35.636  1.00  0.00    -0.206 F 
ATOM     88  C   UNL A   1      46.353  27.087  35.599  1.00  0.00     0.006 A 
ENDBRANCH  64  81
ENDBRANCH  38  39
ENDBRANCH  30  33
ENDBRANCH  28  29
ENDBRANCH  27  28
ENDBRANCH   1  27
TORSDOF 14
ENDMDL
MODEL 3
REMARK VINA RESULT:     -12.3      5.240      8.061
REMARK SMILES Cc1noc(C[N@H+]2CCC[C@@H](c3ccc(C(=O)NCCCCNC(=O)c4ccc(-c5c6nc(c(-c7c(F)cccc7F)c7ccc([nH]7)c(-c7c(F)cccc7F)c7nc(c(-c8c(F)cccc8F)c8ccc5[nH]8)C=C7)C=C6)cc4)cc3)C2)n1
REMARK SMILES IDX 20 1 19 2 18 3 16 4 17 5 15 7 12 8 13 9 81 10 14 11 80 12
REMARK SMILES IDX 11 13 7 14 8 15 82 16 9 18 10 19 6 20 5 21 1 22 2 23 3 24
REMARK SMILES IDX 83 25 4 26 21 27 22 28 23 29 24 30 25 32 26 33 27 34 79 35
REMARK SMILES IDX 28 36 78 37 29 38 30 39 31 40 72 41 32 42 77 43 71 44 73 45
REMARK SMILES IDX 33 46 76 47 70 48 69 49 34 51 60 52 43 53 59 54 44 55 47 56
REMARK SMILES IDX 58 57 74 58 45 59 46 60 57 62 75 63 48 64 35 65 36 66 41 67
REMARK SMILES IDX 37 68 38 69 40 70 42 71 39 72 61 73 62 74 67 75 63 76 64 77
REMARK SMILES IDX 66 78 68 79 65 80 49 81 50 82 55 83 51 84 52 85 54 86 56 87
REMARK SMILES IDX 53 88
REMARK H PARENT 18 6 7 17 23 31 73 50 47 61
REMARK Flexibility Score: inf
ROOT
ATOM      1  C   UNL A   1      32.996  29.649  25.022  1.00  0.00     0.023 C 
ENDROOT
BRANCH   1   2
ATOM      2  C   UNL A   1      31.472  29.744  25.134  1.00  0.00     0.116 C 
BRANCH   2   3
ATOM      3  N   UNL A   1      30.847  29.368  23.884  1.00  0.00    -0.352 N 
ATOM      4  C   UNL A   1      30.573  28.137  23.345  1.00  0.00     0.251 C 
ATOM      5  O   UNL A   1      29.997  28.105  22.257  1.00  0.00    -0.269 OA
ATOM      6  H   UNL A   1      30.571  30.128  23.322  1.00  0.00     0.163 HD
BRANCH   4   7
ATOM      7  C   UNL A   1      30.884  26.858  24.042  1.00  0.00     0.039 A 
ATOM      8  C   UNL A   1      31.557  24.357  25.183  1.00  0.00    -0.039 A 
ATOM      9  C   UNL A   1      32.254  24.854  24.070  1.00  0.00     0.005 A 
ATOM     10  C   UNL A   1      30.571  25.160  25.758  1.00  0.00     0.005 A 
ATOM     11  C   UNL A   1      31.912  26.081  23.499  1.00  0.00     0.014 A 
ATOM     12  C   UNL A   1      30.256  26.406  25.205  1.00  0.00     0.014 A 
BRANCH   8  13
ATOM     13  C   UNL A   1      31.862  22.993  25.784  1.00  0.00     0.074 C 
ATOM     14  N   UNL A   1      32.370  20.580  25.196  1.00  0.00    -0.327 N 
ATOM     15  C   UNL A   1      33.633  20.670  25.942  1.00  0.00     0.262 C 
ATOM     16  C   UNL A   1      31.942  21.900  24.696  1.00  0.00     0.270 C 
ATOM     17  H   UNL A   1      31.659  20.247  25.848  1.00  0.00     0.348 HD
ATOM     18  C   UNL A   1      33.525  21.654  27.107  1.00  0.00     0.062 C 
ATOM     19  C   UNL A   1      33.150  23.047  26.612  1.00  0.00     0.020 C 
BRANCH  14  20
ATOM     20  C   UNL A   1      32.466  19.597  24.078  1.00  0.00     0.364 C 
BRANCH  20  21
ATOM     21  C   UNL A   1      32.842  18.203  24.480  1.00  0.00     0.281 A 
ATOM     22  C   UNL A   1      32.402  14.933  25.662  1.00  0.00     0.093 C 
ATOM     23  C   UNL A   1      32.872  16.200  25.071  1.00  0.00     0.169 A 
ATOM     24  N   UNL A   1      33.870  16.266  24.182  1.00  0.00    -0.063 NA
ATOM     25  N   UNL A   1      32.241  17.387  25.322  1.00  0.00    -0.191 NA
ATOM     26  O   UNL A   1      33.856  17.607  23.785  1.00  0.00    -0.333 OA
ENDBRANCH  20  21
ENDBRANCH  14  20
ENDBRANCH   8  13
ENDBRANCH   4   7
ENDBRANCH   2   3
ENDBRANCH   1   2
BRANCH   1  27
ATOM     27  C   UNL A   1      33.607  28.446  25.742  1.00  0.00     0.023 C 
BRANCH  27  28
ATOM     28  C   UNL A   1      33.681  28.581  27.256  1.00  0.00     0.116 C 
BRANCH  28  29
ATOM     29  N   UNL A   1      33.612  29.961  27.714  1.00  0.00    -0.352 N 
ATOM     30  C   UNL A   1      34.600  30.709  28.307  1.00  0.00     0.251 C 
ATOM     31  H   UNL A   1      32.749  30.415  27.581  1.00  0.00     0.163 HD
ATOM     32  O   UNL A   1      34.365  31.832  28.733  1.00  0.00    -0.269 OA
BRANCH  30  33
ATOM     33  C   UNL A   1      35.943  30.117  28.466  1.00  0.00     0.039 A 
ATOM     34  C   UNL A   1      36.833  30.176  27.392  1.00  0.00     0.014 A 
ATOM     35  C   UNL A   1      36.334  29.555  29.684  1.00  0.00     0.014 A 
ATOM     36  C   UNL A   1      38.143  29.729  27.561  1.00  0.00     0.010 A 
ATOM     37  C   UNL A   1      37.658  29.173  29.871  1.00  0.00     0.010 A 
ATOM     38  C   UNL A   1      38.574  29.259  28.811  1.00  0.00    -0.014 A 
BRANCH  38  39
ATOM     39  C   UNL A   1      39.980  28.847  29.033  1.00  0.00     0.031 A 
ATOM     40  C   UNL A   1      40.952  29.805  29.662  1.00  0.00     0.074 A 
ATOM     41  C   UNL A   1      40.393  27.634  28.617  1.00  0.00     0.049 A 
ATOM     42  N   UNL A   1      42.236  29.664  29.869  1.00  0.00    -0.248 NA
ATOM     43  C   UNL A   1      40.413  31.105  30.094  1.00  0.00     0.031 C 
ATOM     44  C   UNL A   1      39.554  26.631  27.959  1.00  0.00     0.029 A 
ATOM     45  N   UNL A   1      41.629  27.042  28.680  1.00  0.00    -0.354 N 
ATOM     46  C   UNL A   1      42.658  30.853  30.448  1.00  0.00     0.074 A 
ATOM     47  C   UNL A   1      41.506  31.727  30.510  1.00  0.00     0.031 C 
ATOM     48  C   UNL A   1      40.293  25.540  27.699  1.00  0.00     0.029 A 
ATOM     49  C   UNL A   1      41.664  25.779  28.140  1.00  0.00     0.049 A 
ATOM     50  H   UNL A   1      42.417  27.479  29.076  1.00  0.00     0.167 HD
ATOM     51  C   UNL A   1      43.887  31.176  30.913  1.00  0.00     0.037 A 
ATOM     52  C   UNL A   1      42.689  24.916  28.010  1.00  0.00     0.037 A 
ATOM     53  C   UNL A   1      45.026  30.299  30.871  1.00  0.00     0.049 A 
ATOM     54  C   UNL A   1      44.048  25.311  28.520  1.00  0.00     0.074 A 
ATOM     55  C   UNL A   1      46.308  30.526  31.339  1.00  0.00     0.029 A 
ATOM     56  N   UNL A   1      45.015  29.022  30.332  1.00  0.00    -0.354 N 
ATOM     57  N   UNL A   1      44.420  26.422  29.107  1.00  0.00    -0.248 NA
ATOM     58  C   UNL A   1      45.128  24.328  28.351  1.00  0.00     0.031 C 
ATOM     59  C   UNL A   1      47.081  29.394  31.061  1.00  0.00     0.029 A 
ATOM     60  C   UNL A   1      46.271  28.450  30.452  1.00  0.00     0.049 A 
ATOM     61  H   UNL A   1      44.232  28.586  29.925  1.00  0.00     0.167 HD
ATOM     62  C   UNL A   1      45.766  26.258  29.409  1.00  0.00     0.074 A 
ATOM     63  C   UNL A   1      46.142  24.937  28.950  1.00  0.00     0.031 C 
ATOM     64  C   UNL A   1      46.617  27.125  30.010  1.00  0.00     0.037 A 
BRANCH  51  65
ATOM     65  C   UNL A   1      44.056  32.534  31.528  1.00  0.00     0.057 A 
ATOM     66  C   UNL A   1      43.872  32.741  32.902  1.00  0.00     0.134 A 
ATOM     67  C   UNL A   1      44.449  33.632  30.755  1.00  0.00     0.134 A 
ATOM     68  F   UNL A   1      43.481  31.732  33.695  1.00  0.00    -0.206 F 
ATOM     69  C   UNL A   1      44.055  33.997  33.481  1.00  0.00     0.040 A 
ATOM     70  C   UNL A   1      44.658  34.888  31.327  1.00  0.00     0.040 A 
ATOM     71  F   UNL A   1      44.646  33.501  29.434  1.00  0.00    -0.206 F 
ATOM     72  C   UNL A   1      44.457  35.073  32.694  1.00  0.00     0.006 A 
ENDBRANCH  51  65
BRANCH  52  73
ATOM     73  C   UNL A   1      42.478  23.583  27.392  1.00  0.00     0.057 A 
ATOM     74  C   UNL A   1      42.164  22.468  28.177  1.00  0.00     0.134 A 
ATOM     75  C   UNL A   1      42.621  23.382  26.015  1.00  0.00     0.134 A 
ATOM     76  F   UNL A   1      42.032  22.593  29.506  1.00  0.00    -0.206 F 
ATOM     77  C   UNL A   1      42.030  21.195  27.620  1.00  0.00     0.040 A 
ATOM     78  C   UNL A   1      42.466  22.119  25.440  1.00  0.00     0.040 A 
ATOM     79  F   UNL A   1      42.915  24.412  25.207  1.00  0.00    -0.206 F 
ATOM     80  C   UNL A   1      42.180  21.019  26.246  1.00  0.00     0.006 A 
ENDBRANCH  52  73
BRANCH  64  81
ATOM     81  C   UNL A   1      48.019  26.652  30.249  1.00  0.00     0.057 A 
ATOM     82  C   UNL A   1      49.046  26.890  29.327  1.00  0.00     0.134 A 
ATOM     83  C   UNL A   1      48.352  25.982  31.433  1.00  0.00     0.134 A 
ATOM     84  F   UNL A   1      48.787  27.514  28.168  1.00  0.00    -0.206 F 
ATOM     85  C   UNL A   1      50.351  26.458  29.565  1.00  0.00     0.040 A 
ATOM     86  C   UNL A   1      49.657  25.568  31.693  1.00  0.00     0.040 A 
ATOM     87  F   UNL A   1      47.414  25.732  32.360  1.00  0.00    -0.206 F 
ATOM     88  C   UNL A   1      50.661  25.800  30.754  1.00  0.00     0.006 A 
ENDBRANCH  64  81
ENDBRANCH  38  39
ENDBRANCH  30  33
ENDBRANCH  28  29
ENDBRANCH  27  28
ENDBRANCH   1  27
TORSDOF 14
ENDMDL
