MODEL 1
REMARK VINA RESULT:     -12.1      0.000      0.000
REMARK SMILES Cn1cc(-c2cc(C(F)(F)F)c3c(C4CC4)nn(CC(=O)NCCCCNC(=O)c4ccc(-c5c6nc(c(-c7c(F)cccc7F)c7ccc([nH]7)c(-c7c(F)cccc7F)c7nc(c(-c8c(F)cccc8F)c8ccc5[nH]8)C=C7)C=C6)cc4)c3n2)cn1
REMARK SMILES IDX 24 1 23 2 22 3 20 4 21 5 19 7 18 8 5 9 6 10 85 11 7 12 84 13
REMARK SMILES IDX 12 14 13 15 17 16 4 17 1 18 2 19 3 20 87 21 86 22 8 23 9 24
REMARK SMILES IDX 10 25 11 26 14 27 15 28 16 29 25 30 26 31 27 32 28 33 29 35
REMARK SMILES IDX 30 36 31 37 83 38 32 39 82 40 33 41 34 42 35 43 76 44 36 45
REMARK SMILES IDX 81 46 75 47 77 48 37 49 80 50 74 51 73 52 38 54 64 55 47 56
REMARK SMILES IDX 63 57 48 58 51 59 62 60 78 61 49 62 50 63 61 65 79 66 52 67
REMARK SMILES IDX 39 68 40 69 45 70 41 71 42 72 44 73 46 74 43 75 65 76 66 77
REMARK SMILES IDX 71 78 67 79 68 80 70 81 72 82 69 83 53 84 54 85 59 86 55 87
REMARK SMILES IDX 56 88 58 89 60 90 57 91
REMARK H PARENT 22 6 27 34 77 53 51 64
REMARK Flexibility Score: inf
ROOT
ATOM      1  C   UNL A   1      40.635  20.873  26.813  1.00  0.00     0.023 C 
ENDROOT
BRANCH   1   2
ATOM      2  C   UNL A   1      39.418  21.451  26.094  1.00  0.00     0.116 C 
BRANCH   2   3
ATOM      3  N   UNL A   1      39.269  22.876  26.306  1.00  0.00    -0.354 N 
ATOM      4  C   UNL A   1      38.143  23.624  26.088  1.00  0.00     0.241 C 
ATOM      5  O   UNL A   1      38.175  24.835  26.310  1.00  0.00    -0.273 OA
ATOM      6  H   UNL A   1      40.059  23.357  26.643  1.00  0.00     0.163 HD
BRANCH   4   7
ATOM      7  C   UNL A   1      36.877  22.925  25.690  1.00  0.00     0.246 C 
BRANCH   7   8
ATOM      8  N   UNL A   1      35.846  23.819  25.198  1.00  0.00    -0.237 N 
ATOM      9  C   UNL A   1      33.795  22.000  23.249  1.00  0.00     0.077 A 
ATOM     10  C   UNL A   1      32.891  22.947  22.774  1.00  0.00     0.043 A 
ATOM     11  N   UNL A   1      35.082  22.375  23.441  1.00  0.00    -0.228 NA
ATOM     12  C   UNL A   1      33.187  24.321  22.963  1.00  0.00     0.071 A 
ATOM     13  C   UNL A   1      35.086  23.544  24.105  1.00  0.00     0.159 A 
ATOM     14  C   UNL A   1      34.106  24.520  24.011  1.00  0.00     0.055 A 
ATOM     15  C   UNL A   1      34.249  25.226  25.236  1.00  0.00     0.076 A 
ATOM     16  N   UNL A   1      35.332  24.832  25.933  1.00  0.00    -0.175 NA
BRANCH   9  17
ATOM     17  C   UNL A   1      33.439  21.112  24.388  1.00  0.00     0.038 A 
ATOM     18  C   UNL A   1      33.866  17.589  24.730  1.00  0.00     0.173 C 
ATOM     19  N   UNL A   1      33.478  18.969  24.953  1.00  0.00    -0.275 N 
ATOM     20  C   UNL A   1      34.284  20.063  24.752  1.00  0.00     0.118 A 
ATOM     21  N   UNL A   1      32.177  19.298  25.047  1.00  0.00    -0.181 NA
ATOM     22  C   UNL A   1      32.147  20.573  24.639  1.00  0.00     0.145 A 
ENDBRANCH   9  17
BRANCH  12  23
ATOM     23  C   UNL A   1      32.807  25.369  21.955  1.00  0.00     0.417 C 
ATOM     24  F   UNL A   1      32.916  25.001  20.656  1.00  0.00    -0.166 F 
ATOM     25  F   UNL A   1      31.509  25.758  22.111  1.00  0.00    -0.166 F 
ATOM     26  F   UNL A   1      33.543  26.510  22.073  1.00  0.00    -0.166 F 
ENDBRANCH  12  23
BRANCH  15  27
ATOM     27  C   UNL A   1      33.235  26.106  25.967  1.00  0.00     0.041 C 
ATOM     28  C   UNL A   1      31.951  26.625  25.381  1.00  0.00     0.011 C 
ATOM     29  C   UNL A   1      31.895  25.487  26.338  1.00  0.00     0.011 C 
ENDBRANCH  15  27
ENDBRANCH   7   8
ENDBRANCH   4   7
ENDBRANCH   2   3
ENDBRANCH   1   2
BRANCH   1  30
ATOM     30  C   UNL A   1      41.349  19.729  26.093  1.00  0.00     0.023 C 
BRANCH  30  31
ATOM     31  C   UNL A   1      42.720  19.414  26.662  1.00  0.00     0.116 C 
BRANCH  31  32
ATOM     32  N   UNL A   1      43.748  19.402  25.626  1.00  0.00    -0.352 N 
ATOM     33  C   UNL A   1      44.242  20.462  24.899  1.00  0.00     0.251 C 
ATOM     34  H   UNL A   1      44.138  18.522  25.420  1.00  0.00     0.163 HD
ATOM     35  O   UNL A   1      44.848  20.290  23.854  1.00  0.00    -0.269 OA
BRANCH  33  36
ATOM     36  C   UNL A   1      44.049  21.816  25.431  1.00  0.00     0.039 A 
ATOM     37  C   UNL A   1      43.125  22.691  24.862  1.00  0.00     0.014 A 
ATOM     38  C   UNL A   1      44.829  22.198  26.522  1.00  0.00     0.014 A 
ATOM     39  C   UNL A   1      42.968  23.946  25.432  1.00  0.00     0.010 A 
ATOM     40  C   UNL A   1      44.577  23.372  27.173  1.00  0.00     0.010 A 
ATOM     41  C   UNL A   1      43.702  24.270  26.583  1.00  0.00    -0.014 A 
BRANCH  41  42
ATOM     42  C   UNL A   1      43.531  25.548  27.239  1.00  0.00     0.031 A 
ATOM     43  C   UNL A   1      44.545  26.561  26.869  1.00  0.00     0.074 A 
ATOM     44  C   UNL A   1      42.428  25.836  27.956  1.00  0.00     0.049 A 
ATOM     45  N   UNL A   1      45.535  26.973  27.585  1.00  0.00    -0.248 NA
ATOM     46  C   UNL A   1      44.569  27.049  25.480  1.00  0.00     0.031 C 
ATOM     47  C   UNL A   1      41.202  25.047  28.122  1.00  0.00     0.029 A 
ATOM     48  N   UNL A   1      42.151  26.969  28.650  1.00  0.00    -0.354 N 
ATOM     49  C   UNL A   1      46.175  27.946  26.825  1.00  0.00     0.074 A 
ATOM     50  C   UNL A   1      45.679  27.793  25.484  1.00  0.00     0.031 C 
ATOM     51  C   UNL A   1      40.244  25.810  28.695  1.00  0.00     0.029 A 
ATOM     52  C   UNL A   1      40.838  27.076  29.085  1.00  0.00     0.049 A 
ATOM     53  H   UNL A   1      42.829  27.659  28.831  1.00  0.00     0.167 HD
ATOM     54  C   UNL A   1      46.852  28.963  27.429  1.00  0.00     0.037 A 
ATOM     55  C   UNL A   1      40.288  28.148  29.705  1.00  0.00     0.037 A 
ATOM     56  C   UNL A   1      47.080  28.664  28.824  1.00  0.00     0.049 A 
ATOM     57  C   UNL A   1      41.403  28.965  30.249  1.00  0.00     0.074 A 
ATOM     58  C   UNL A   1      47.748  27.669  29.512  1.00  0.00     0.029 A 
ATOM     59  N   UNL A   1      46.234  29.244  29.739  1.00  0.00    -0.354 N 
ATOM     60  N   UNL A   1      42.173  28.565  31.226  1.00  0.00    -0.248 NA
ATOM     61  C   UNL A   1      41.978  29.984  29.384  1.00  0.00     0.031 C 
ATOM     62  C   UNL A   1      46.925  27.388  30.644  1.00  0.00     0.029 A 
ATOM     63  C   UNL A   1      45.846  28.273  30.626  1.00  0.00     0.049 A 
ATOM     64  H   UNL A   1      45.956  30.188  29.756  1.00  0.00     0.167 HD
ATOM     65  C   UNL A   1      43.454  28.945  30.850  1.00  0.00     0.074 A 
ATOM     66  C   UNL A   1      43.262  29.886  29.747  1.00  0.00     0.031 C 
ATOM     67  C   UNL A   1      44.550  28.243  31.267  1.00  0.00     0.037 A 
BRANCH  54  68
ATOM     68  C   UNL A   1      46.931  30.379  26.903  1.00  0.00     0.057 A 
ATOM     69  C   UNL A   1      45.823  31.216  26.664  1.00  0.00     0.134 A 
ATOM     70  C   UNL A   1      48.175  31.039  26.941  1.00  0.00     0.134 A 
ATOM     71  F   UNL A   1      44.565  30.763  26.628  1.00  0.00    -0.206 F 
ATOM     72  C   UNL A   1      45.932  32.604  26.546  1.00  0.00     0.040 A 
ATOM     73  C   UNL A   1      48.289  32.433  26.873  1.00  0.00     0.040 A 
ATOM     74  F   UNL A   1      49.312  30.357  27.140  1.00  0.00    -0.206 F 
ATOM     75  C   UNL A   1      47.162  33.222  26.693  1.00  0.00     0.006 A 
ENDBRANCH  54  68
BRANCH  55  76
ATOM     76  C   UNL A   1      38.899  28.642  29.602  1.00  0.00     0.057 A 
ATOM     77  C   UNL A   1      38.452  29.302  28.443  1.00  0.00     0.134 A 
ATOM     78  C   UNL A   1      38.053  28.710  30.716  1.00  0.00     0.134 A 
ATOM     79  F   UNL A   1      39.225  29.370  27.348  1.00  0.00    -0.206 F 
ATOM     80  C   UNL A   1      37.237  29.990  28.392  1.00  0.00     0.040 A 
ATOM     81  C   UNL A   1      36.832  29.398  30.679  1.00  0.00     0.040 A 
ATOM     82  F   UNL A   1      38.416  28.155  31.880  1.00  0.00    -0.206 F 
ATOM     83  C   UNL A   1      36.424  30.048  29.517  1.00  0.00     0.006 A 
ENDBRANCH  55  76
BRANCH  67  84
ATOM     84  C   UNL A   1      44.340  27.189  32.322  1.00  0.00     0.057 A 
ATOM     85  C   UNL A   1      44.432  27.553  33.668  1.00  0.00     0.134 A 
ATOM     86  C   UNL A   1      44.189  25.820  32.049  1.00  0.00     0.134 A 
ATOM     87  F   UNL A   1      44.641  28.834  34.007  1.00  0.00    -0.206 F 
ATOM     88  C   UNL A   1      44.362  26.609  34.695  1.00  0.00     0.040 A 
ATOM     89  C   UNL A   1      44.084  24.867  33.068  1.00  0.00     0.040 A 
ATOM     90  F   UNL A   1      44.194  25.358  30.794  1.00  0.00    -0.206 F 
ATOM     91  C   UNL A   1      44.174  25.262  34.398  1.00  0.00     0.006 A 
ENDBRANCH  67  84
ENDBRANCH  41  42
ENDBRANCH  33  36
ENDBRANCH  31  32
ENDBRANCH  30  31
ENDBRANCH   1  30
TORSDOF 15
ENDMDL
MODEL 2
REMARK VINA RESULT:     -11.9      3.076      4.888
REMARK SMILES Cn1cc(-c2cc(C(F)(F)F)c3c(C4CC4)nn(CC(=O)NCCCCNC(=O)c4ccc(-c5c6nc(c(-c7c(F)cccc7F)c7ccc([nH]7)c(-c7c(F)cccc7F)c7nc(c(-c8c(F)cccc8F)c8ccc5[nH]8)C=C7)C=C6)cc4)c3n2)cn1
REMARK SMILES IDX 24 1 23 2 22 3 20 4 21 5 19 7 18 8 5 9 6 10 85 11 7 12 84 13
REMARK SMILES IDX 12 14 13 15 17 16 4 17 1 18 2 19 3 20 87 21 86 22 8 23 9 24
REMARK SMILES IDX 10 25 11 26 14 27 15 28 16 29 25 30 26 31 27 32 28 33 29 35
REMARK SMILES IDX 30 36 31 37 83 38 32 39 82 40 33 41 34 42 35 43 76 44 36 45
REMARK SMILES IDX 81 46 75 47 77 48 37 49 80 50 74 51 73 52 38 54 64 55 47 56
REMARK SMILES IDX 63 57 48 58 51 59 62 60 78 61 49 62 50 63 61 65 79 66 52 67
REMARK SMILES IDX 39 68 40 69 45 70 41 71 42 72 44 73 46 74 43 75 65 76 66 77
REMARK SMILES IDX 71 78 67 79 68 80 70 81 72 82 69 83 53 84 54 85 59 86 55 87
REMARK SMILES IDX 56 88 58 89 60 90 57 91
REMARK H PARENT 22 6 27 34 77 53 51 64
REMARK Flexibility Score: inf
ROOT
ATOM      1  C   UNL A   1      34.504  23.004  26.478  1.00  0.00     0.023 C 
ENDROOT
BRANCH   1   2
ATOM      2  C   UNL A   1      33.250  22.286  25.986  1.00  0.00     0.116 C 
BRANCH   2   3
ATOM      3  N   UNL A   1      32.086  22.574  26.797  1.00  0.00    -0.354 N 
ATOM      4  C   UNL A   1      31.033  23.381  26.462  1.00  0.00     0.241 C 
ATOM      5  O   UNL A   1      30.113  23.533  27.266  1.00  0.00    -0.273 OA
ATOM      6  H   UNL A   1      32.047  22.143  27.681  1.00  0.00     0.163 HD
BRANCH   4   7
ATOM      7  C   UNL A   1      30.981  23.965  25.081  1.00  0.00     0.246 C 
BRANCH   7   8
ATOM      8  N   UNL A   1      30.791  25.403  25.062  1.00  0.00    -0.237 N 
ATOM      9  C   UNL A   1      33.839  26.811  24.860  1.00  0.00     0.077 A 
ATOM     10  C   UNL A   1      33.560  28.174  24.918  1.00  0.00     0.043 A 
ATOM     11  N   UNL A   1      33.066  25.963  25.579  1.00  0.00    -0.228 NA
ATOM     12  C   UNL A   1      32.256  28.583  25.297  1.00  0.00     0.071 A 
ATOM     13  C   UNL A   1      31.778  26.286  25.370  1.00  0.00     0.159 A 
ATOM     14  C   UNL A   1      31.308  27.562  25.100  1.00  0.00     0.055 A 
ATOM     15  C   UNL A   1      30.080  27.308  24.431  1.00  0.00     0.076 A 
ATOM     16  N   UNL A   1      29.744  26.004  24.451  1.00  0.00    -0.175 NA
BRANCH   9  17
ATOM     17  C   UNL A   1      34.102  26.142  23.557  1.00  0.00     0.038 A 
ATOM     18  C   UNL A   1      31.962  25.775  20.729  1.00  0.00     0.173 C 
ATOM     19  N   UNL A   1      33.076  25.662  21.652  1.00  0.00    -0.275 N 
ATOM     20  C   UNL A   1      33.619  26.698  22.372  1.00  0.00     0.118 A 
ATOM     21  N   UNL A   1      33.437  24.457  22.130  1.00  0.00    -0.181 NA
ATOM     22  C   UNL A   1      33.995  24.745  23.312  1.00  0.00     0.145 A 
ENDBRANCH   9  17
BRANCH  12  23
ATOM     23  C   UNL A   1      32.010  29.830  26.100  1.00  0.00     0.417 C 
ATOM     24  F   UNL A   1      33.105  30.574  26.381  1.00  0.00    -0.166 F 
ATOM     25  F   UNL A   1      31.157  30.676  25.452  1.00  0.00    -0.166 F 
ATOM     26  F   UNL A   1      31.421  29.577  27.304  1.00  0.00    -0.166 F 
ENDBRANCH  12  23
BRANCH  15  27
ATOM     27  C   UNL A   1      29.289  28.215  23.490  1.00  0.00     0.041 C 
ATOM     28  C   UNL A   1      29.544  29.681  23.274  1.00  0.00     0.011 C 
ATOM     29  C   UNL A   1      29.986  28.715  22.232  1.00  0.00     0.011 C 
ENDBRANCH  15  27
ENDBRANCH   7   8
ENDBRANCH   4   7
ENDBRANCH   2   3
ENDBRANCH   1   2
BRANCH   1  30
ATOM     30  C   UNL A   1      35.742  22.864  25.593  1.00  0.00     0.023 C 
BRANCH  30  31
ATOM     31  C   UNL A   1      36.969  23.563  26.146  1.00  0.00     0.116 C 
BRANCH  31  32
ATOM     32  N   UNL A   1      38.094  22.646  26.299  1.00  0.00    -0.352 N 
ATOM     33  C   UNL A   1      39.426  22.948  26.475  1.00  0.00     0.251 C 
ATOM     34  H   UNL A   1      37.872  21.687  26.273  1.00  0.00     0.163 HD
ATOM     35  O   UNL A   1      40.300  22.122  26.265  1.00  0.00    -0.269 OA
BRANCH  33  36
ATOM     36  C   UNL A   1      39.774  24.290  26.957  1.00  0.00     0.039 A 
ATOM     37  C   UNL A   1      40.309  25.249  26.097  1.00  0.00     0.014 A 
ATOM     38  C   UNL A   1      39.558  24.568  28.305  1.00  0.00     0.014 A 
ATOM     39  C   UNL A   1      40.586  26.509  26.608  1.00  0.00     0.010 A 
ATOM     40  C   UNL A   1      39.693  25.842  28.777  1.00  0.00     0.010 A 
ATOM     41  C   UNL A   1      40.275  26.787  27.948  1.00  0.00    -0.014 A 
BRANCH  41  42
ATOM     42  C   UNL A   1      40.501  28.102  28.506  1.00  0.00     0.031 A 
ATOM     43  C   UNL A   1      41.697  28.791  27.972  1.00  0.00     0.074 A 
ATOM     44  C   UNL A   1      39.585  28.710  29.284  1.00  0.00     0.049 A 
ATOM     45  N   UNL A   1      42.827  28.972  28.568  1.00  0.00    -0.248 NA
ATOM     46  C   UNL A   1      41.707  29.171  26.550  1.00  0.00     0.031 C 
ATOM     47  C   UNL A   1      38.221  28.280  29.613  1.00  0.00     0.029 A 
ATOM     48  N   UNL A   1      39.677  29.915  29.901  1.00  0.00    -0.354 N 
ATOM     49  C   UNL A   1      43.614  29.697  27.681  1.00  0.00     0.074 A 
ATOM     50  C   UNL A   1      42.964  29.599  26.402  1.00  0.00     0.031 C 
ATOM     51  C   UNL A   1      37.552  29.300  30.197  1.00  0.00     0.029 A 
ATOM     52  C   UNL A   1      38.484  30.387  30.430  1.00  0.00     0.049 A 
ATOM     53  H   UNL A   1      40.523  30.414  29.968  1.00  0.00     0.167 HD
ATOM     54  C   UNL A   1      44.584  30.536  28.141  1.00  0.00     0.037 A 
ATOM     55  C   UNL A   1      38.289  31.601  31.000  1.00  0.00     0.037 A 
ATOM     56  C   UNL A   1      44.867  30.271  29.533  1.00  0.00     0.049 A 
ATOM     57  C   UNL A   1      39.624  32.129  31.383  1.00  0.00     0.074 A 
ATOM     58  C   UNL A   1      45.324  29.179  30.245  1.00  0.00     0.029 A 
ATOM     59  N   UNL A   1      44.291  31.106  30.462  1.00  0.00    -0.354 N 
ATOM     60  N   UNL A   1      40.361  31.602  32.324  1.00  0.00    -0.248 NA
ATOM     61  C   UNL A   1      40.350  32.909  30.391  1.00  0.00     0.031 C 
ATOM     62  C   UNL A   1      44.574  29.191  31.460  1.00  0.00     0.029 A 
ATOM     63  C   UNL A   1      43.759  30.325  31.456  1.00  0.00     0.049 A 
ATOM     64  H   UNL A   1      44.266  32.089  30.422  1.00  0.00     0.167 HD
ATOM     65  C   UNL A   1      41.653  31.611  31.816  1.00  0.00     0.074 A 
ATOM     66  C   UNL A   1      41.597  32.501  30.657  1.00  0.00     0.031 C 
ATOM     67  C   UNL A   1      42.569  30.672  32.199  1.00  0.00     0.037 A 
BRANCH  54  68
ATOM     68  C   UNL A   1      44.969  31.848  27.494  1.00  0.00     0.057 A 
ATOM     69  C   UNL A   1      44.309  33.076  27.702  1.00  0.00     0.134 A 
ATOM     70  C   UNL A   1      46.238  31.952  26.892  1.00  0.00     0.134 A 
ATOM     71  F   UNL A   1      43.112  33.166  28.291  1.00  0.00    -0.206 F 
ATOM     72  C   UNL A   1      44.892  34.310  27.405  1.00  0.00     0.040 A 
ATOM     73  C   UNL A   1      46.851  33.185  26.636  1.00  0.00     0.040 A 
ATOM     74  F   UNL A   1      46.964  30.858  26.619  1.00  0.00    -0.206 F 
ATOM     75  C   UNL A   1      46.184  34.370  26.910  1.00  0.00     0.006 A 
ENDBRANCH  54  68
BRANCH  55  76
ATOM     76  C   UNL A   1      37.069  32.434  30.970  1.00  0.00     0.057 A 
ATOM     77  C   UNL A   1      36.090  32.314  31.973  1.00  0.00     0.134 A 
ATOM     78  C   UNL A   1      36.708  33.177  29.840  1.00  0.00     0.134 A 
ATOM     79  F   UNL A   1      36.304  31.553  33.057  1.00  0.00    -0.206 F 
ATOM     80  C   UNL A   1      34.825  32.898  31.861  1.00  0.00     0.040 A 
ATOM     81  C   UNL A   1      35.442  33.767  29.714  1.00  0.00     0.040 A 
ATOM     82  F   UNL A   1      37.556  33.304  28.811  1.00  0.00    -0.206 F 
ATOM     83  C   UNL A   1      34.493  33.621  30.722  1.00  0.00     0.006 A 
ENDBRANCH  55  76
BRANCH  67  84
ATOM     84  C   UNL A   1      42.205  29.775  33.352  1.00  0.00     0.057 A 
ATOM     85  C   UNL A   1      42.595  30.141  34.643  1.00  0.00     0.134 A 
ATOM     86  C   UNL A   1      41.609  28.511  33.210  1.00  0.00     0.134 A 
ATOM     87  F   UNL A   1      43.228  31.306  34.851  1.00  0.00    -0.206 F 
ATOM     88  C   UNL A   1      42.391  29.304  35.742  1.00  0.00     0.040 A 
ATOM     89  C   UNL A   1      41.368  27.676  34.306  1.00  0.00     0.040 A 
ATOM     90  F   UNL A   1      41.294  28.026  32.004  1.00  0.00    -0.206 F 
ATOM     91  C   UNL A   1      41.763  28.072  35.579  1.00  0.00     0.006 A 
ENDBRANCH  67  84
ENDBRANCH  41  42
ENDBRANCH  33  36
ENDBRANCH  31  32
ENDBRANCH  30  31
ENDBRANCH   1  30
TORSDOF 15
ENDMDL
MODEL 3
REMARK VINA RESULT:     -11.8      2.644      3.619
REMARK SMILES Cn1cc(-c2cc(C(F)(F)F)c3c(C4CC4)nn(CC(=O)NCCCCNC(=O)c4ccc(-c5c6nc(c(-c7c(F)cccc7F)c7ccc([nH]7)c(-c7c(F)cccc7F)c7nc(c(-c8c(F)cccc8F)c8ccc5[nH]8)C=C7)C=C6)cc4)c3n2)cn1
REMARK SMILES IDX 24 1 23 2 22 3 20 4 21 5 19 7 18 8 5 9 6 10 85 11 7 12 84 13
REMARK SMILES IDX 12 14 13 15 17 16 4 17 1 18 2 19 3 20 87 21 86 22 8 23 9 24
REMARK SMILES IDX 10 25 11 26 14 27 15 28 16 29 25 30 26 31 27 32 28 33 29 35
REMARK SMILES IDX 30 36 31 37 83 38 32 39 82 40 33 41 34 42 35 43 76 44 36 45
REMARK SMILES IDX 81 46 75 47 77 48 37 49 80 50 74 51 73 52 38 54 64 55 47 56
REMARK SMILES IDX 63 57 48 58 51 59 62 60 78 61 49 62 50 63 61 65 79 66 52 67
REMARK SMILES IDX 39 68 40 69 45 70 41 71 42 72 44 73 46 74 43 75 65 76 66 77
REMARK SMILES IDX 71 78 67 79 68 80 70 81 72 82 69 83 53 84 54 85 59 86 55 87
REMARK SMILES IDX 56 88 58 89 60 90 57 91
REMARK H PARENT 22 6 27 34 77 53 51 64
REMARK Flexibility Score: inf
ROOT
ATOM      1  C   UNL A   1      39.021  23.516  26.770  1.00  0.00     0.023 C 
ENDROOT
BRANCH   1   2
ATOM      2  C   UNL A   1      37.608  23.433  26.198  1.00  0.00     0.116 C 
BRANCH   2   3
ATOM      3  N   UNL A   1      37.596  23.245  24.762  1.00  0.00    -0.354 N 
ATOM      4  C   UNL A   1      36.493  23.114  23.962  1.00  0.00     0.241 C 
ATOM      5  O   UNL A   1      36.647  22.953  22.751  1.00  0.00    -0.273 OA
ATOM      6  H   UNL A   1      38.472  23.210  24.315  1.00  0.00     0.163 HD
BRANCH   4   7
ATOM      7  C   UNL A   1      35.133  23.280  24.572  1.00  0.00     0.246 C 
BRANCH   7   8
ATOM      8  N   UNL A   1      34.672  24.655  24.607  1.00  0.00    -0.237 N 
ATOM      9  C   UNL A   1      32.338  24.985  22.208  1.00  0.00     0.077 A 
ATOM     10  C   UNL A   1      32.011  26.338  22.272  1.00  0.00     0.043 A 
ATOM     11  N   UNL A   1      33.618  24.618  22.452  1.00  0.00    -0.228 NA
ATOM     12  C   UNL A   1      32.842  27.200  23.030  1.00  0.00     0.071 A 
ATOM     13  C   UNL A   1      34.033  25.249  23.565  1.00  0.00     0.159 A 
ATOM     14  C   UNL A   1      33.597  26.495  23.986  1.00  0.00     0.055 A 
ATOM     15  C   UNL A   1      33.855  26.461  25.384  1.00  0.00     0.076 A 
ATOM     16  N   UNL A   1      34.549  25.366  25.751  1.00  0.00    -0.175 NA
BRANCH   9  17
ATOM     17  C   UNL A   1      31.474  23.962  22.856  1.00  0.00     0.038 A 
ATOM     18  C   UNL A   1      30.827  23.410  26.319  1.00  0.00     0.173 C 
ATOM     19  N   UNL A   1      30.873  23.272  24.876  1.00  0.00    -0.275 N 
ATOM     20  C   UNL A   1      30.708  24.295  23.974  1.00  0.00     0.118 A 
ATOM     21  N   UNL A   1      31.428  22.180  24.319  1.00  0.00    -0.181 NA
ATOM     22  C   UNL A   1      31.852  22.617  23.127  1.00  0.00     0.145 A 
ENDBRANCH   9  17
BRANCH  12  23
ATOM     23  C   UNL A   1      33.101  28.624  22.623  1.00  0.00     0.417 C 
ATOM     24  F   UNL A   1      32.021  29.318  22.193  1.00  0.00    -0.166 F 
ATOM     25  F   UNL A   1      33.606  29.351  23.662  1.00  0.00    -0.166 F 
ATOM     26  F   UNL A   1      34.025  28.731  21.626  1.00  0.00    -0.166 F 
ENDBRANCH  12  23
BRANCH  15  27
ATOM     27  C   UNL A   1      33.229  27.294  26.501  1.00  0.00     0.041 C 
ATOM     28  C   UNL A   1      32.177  28.352  26.314  1.00  0.00     0.011 C 
ATOM     29  C   UNL A   1      31.773  27.027  26.857  1.00  0.00     0.011 C 
ENDBRANCH  15  27
ENDBRANCH   7   8
ENDBRANCH   4   7
ENDBRANCH   2   3
ENDBRANCH   1   2
BRANCH   1  30
ATOM     30  C   UNL A   1      39.820  22.213  26.758  1.00  0.00     0.023 C 
BRANCH  30  31
ATOM     31  C   UNL A   1      41.188  22.332  27.402  1.00  0.00     0.116 C 
BRANCH  31  32
ATOM     32  N   UNL A   1      42.253  22.408  26.405  1.00  0.00    -0.352 N 
ATOM     33  C   UNL A   1      42.731  23.519  25.748  1.00  0.00     0.251 C 
ATOM     34  H   UNL A   1      42.684  21.554  26.174  1.00  0.00     0.163 HD
ATOM     35  O   UNL A   1      43.380  23.420  24.719  1.00  0.00    -0.269 OA
BRANCH  33  36
ATOM     36  C   UNL A   1      42.466  24.838  26.335  1.00  0.00     0.039 A 
ATOM     37  C   UNL A   1      41.557  25.718  25.751  1.00  0.00     0.014 A 
ATOM     38  C   UNL A   1      43.163  25.181  27.492  1.00  0.00     0.014 A 
ATOM     39  C   UNL A   1      41.328  26.937  26.373  1.00  0.00     0.010 A 
ATOM     40  C   UNL A   1      42.837  26.312  28.184  1.00  0.00     0.010 A 
ATOM     41  C   UNL A   1      41.978  27.218  27.585  1.00  0.00    -0.014 A 
BRANCH  41  42
ATOM     42  C   UNL A   1      41.729  28.456  28.292  1.00  0.00     0.031 A 
ATOM     43  C   UNL A   1      42.763  29.494  28.082  1.00  0.00     0.074 A 
ATOM     44  C   UNL A   1      40.558  28.696  28.912  1.00  0.00     0.049 A 
ATOM     45  N   UNL A   1      43.674  29.869  28.915  1.00  0.00    -0.248 NA
ATOM     46  C   UNL A   1      42.919  30.060  26.733  1.00  0.00     0.031 C 
ATOM     47  C   UNL A   1      39.330  27.892  28.910  1.00  0.00     0.029 A 
ATOM     48  N   UNL A   1      40.202  29.785  29.639  1.00  0.00    -0.354 N 
ATOM     49  C   UNL A   1      44.375  30.887  28.278  1.00  0.00     0.074 A 
ATOM     50  C   UNL A   1      44.014  30.809  26.888  1.00  0.00     0.031 C 
ATOM     51  C   UNL A   1      38.312  28.616  29.429  1.00  0.00     0.029 A 
ATOM     52  C   UNL A   1      38.851  29.860  29.947  1.00  0.00     0.049 A 
ATOM     53  H   UNL A   1      40.851  30.468  29.924  1.00  0.00     0.167 HD
ATOM     54  C   UNL A   1      44.978  31.871  29.003  1.00  0.00     0.037 A 
ATOM     55  C   UNL A   1      38.231  30.892  30.569  1.00  0.00     0.037 A 
ATOM     56  C   UNL A   1      45.071  31.493  30.395  1.00  0.00     0.049 A 
ATOM     57  C   UNL A   1      39.278  31.682  31.267  1.00  0.00     0.074 A 
ATOM     58  C   UNL A   1      45.679  30.464  31.087  1.00  0.00     0.029 A 
ATOM     59  N   UNL A   1      44.133  32.015  31.253  1.00  0.00    -0.354 N 
ATOM     60  N   UNL A   1      39.952  31.231  32.291  1.00  0.00    -0.248 NA
ATOM     61  C   UNL A   1      39.924  32.752  30.522  1.00  0.00     0.031 C 
ATOM     62  C   UNL A   1      44.752  30.113  32.115  1.00  0.00     0.029 A 
ATOM     63  C   UNL A   1      43.670  30.992  32.041  1.00  0.00     0.049 A 
ATOM     64  H   UNL A   1      43.844  32.955  31.296  1.00  0.00     0.167 HD
ATOM     65  C   UNL A   1      41.261  31.638  32.066  1.00  0.00     0.074 A 
ATOM     66  C   UNL A   1      41.167  32.640  31.004  1.00  0.00     0.031 C 
ATOM     67  C   UNL A   1      42.318  30.918  32.547  1.00  0.00     0.037 A 
BRANCH  54  68
ATOM     68  C   UNL A   1      45.093  33.315  28.569  1.00  0.00     0.057 A 
ATOM     69  C   UNL A   1      46.272  33.924  28.094  1.00  0.00     0.134 A 
ATOM     70  C   UNL A   1      43.910  34.035  28.313  1.00  0.00     0.134 A 
ATOM     71  F   UNL A   1      47.480  33.366  28.220  1.00  0.00    -0.206 F 
ATOM     72  C   UNL A   1      46.269  35.114  27.361  1.00  0.00     0.040 A 
ATOM     73  C   UNL A   1      43.890  35.202  27.539  1.00  0.00     0.040 A 
ATOM     74  F   UNL A   1      42.720  33.577  28.731  1.00  0.00    -0.206 F 
ATOM     75  C   UNL A   1      45.072  35.735  27.044  1.00  0.00     0.006 A 
ENDBRANCH  54  68
BRANCH  55  76
ATOM     76  C   UNL A   1      36.854  31.384  30.359  1.00  0.00     0.057 A 
ATOM     77  C   UNL A   1      36.443  31.861  29.100  1.00  0.00     0.134 A 
ATOM     78  C   UNL A   1      35.986  31.637  31.428  1.00  0.00     0.134 A 
ATOM     79  F   UNL A   1      37.240  31.747  28.027  1.00  0.00    -0.206 F 
ATOM     80  C   UNL A   1      35.242  32.550  28.914  1.00  0.00     0.040 A 
ATOM     81  C   UNL A   1      34.778  32.328  31.255  1.00  0.00     0.040 A 
ATOM     82  F   UNL A   1      36.315  31.265  32.672  1.00  0.00    -0.206 F 
ATOM     83  C   UNL A   1      34.407  32.794  29.997  1.00  0.00     0.006 A 
ENDBRANCH  55  76
BRANCH  67  84
ATOM     84  C   UNL A   1      42.017  29.804  33.515  1.00  0.00     0.057 A 
ATOM     85  C   UNL A   1      42.087  30.063  34.887  1.00  0.00     0.134 A 
ATOM     86  C   UNL A   1      41.798  28.470  33.137  1.00  0.00     0.134 A 
ATOM     87  F   UNL A   1      42.356  31.302  35.326  1.00  0.00    -0.206 F 
ATOM     88  C   UNL A   1      41.932  29.052  35.838  1.00  0.00     0.040 A 
ATOM     89  C   UNL A   1      41.608  27.453  34.079  1.00  0.00     0.040 A 
ATOM     90  F   UNL A   1      41.816  28.102  31.852  1.00  0.00    -0.206 F 
ATOM     91  C   UNL A   1      41.678  27.744  35.437  1.00  0.00     0.006 A 
ENDBRANCH  67  84
ENDBRANCH  41  42
ENDBRANCH  33  36
ENDBRANCH  31  32
ENDBRANCH  30  31
ENDBRANCH   1  30
TORSDOF 15
ENDMDL
