MODEL 1
REMARK VINA RESULT:     -11.8      0.000      0.000
REMARK SMILES C[C@@H](C(=O)NCCCCNC(=O)c1ccc(-c2c3nc(c(-c4c(F)cccc4F)c4ccc([nH]4)c(-c4c(F)cccc4F)c4nc(c(-c5c(F)cccc5F)c5ccc2[nH]5)C=C4)C=C3)cc1)c1ccc(C[C@H]2CCC[C@@H]2O)cc1
REMARK SMILES IDX 6 1 5 2 3 3 4 4 2 6 1 7 67 8 68 9 79 10 69 11 78 12 70 13
REMARK SMILES IDX 71 14 72 15 73 16 76 17 74 18 75 19 77 20 7 22 8 23 9 24
REMARK SMILES IDX 10 25 11 26 12 28 13 29 14 30 66 31 15 32 65 33 16 34 17 35
REMARK SMILES IDX 18 36 59 37 19 38 64 39 58 40 60 41 20 42 63 43 57 44 56 45
REMARK SMILES IDX 21 47 47 48 30 49 46 50 31 51 34 52 45 53 61 54 32 55 33 56
REMARK SMILES IDX 44 58 62 59 35 60 22 61 23 62 28 63 24 64 25 65 27 66 29 67
REMARK SMILES IDX 26 68 48 69 49 70 54 71 50 72 51 73 53 74 55 75 52 76 36 77
REMARK SMILES IDX 37 78 42 79 38 80 39 81 41 82 43 83 40 84
REMARK H PARENT 5 5 77 21 10 27 60 46 34 57
REMARK Flexibility Score: inf
ROOT
ATOM      1  C   UNL A   1      32.837  29.734  26.398  1.00  0.00     0.116 C 
ENDROOT
BRANCH   1   2
ATOM      2  N   UNL A   1      33.638  29.612  25.197  1.00  0.00    -0.356 N 
ATOM      3  C   UNL A   1      33.802  28.539  24.365  1.00  0.00     0.227 C 
ATOM      4  O   UNL A   1      34.779  28.586  23.614  1.00  0.00    -0.274 OA
ATOM      5  H   UNL A   1      34.139  30.421  24.943  1.00  0.00     0.163 HD
BRANCH   3   6
ATOM      6  C   UNL A   1      32.800  27.367  24.419  1.00  0.00     0.105 C 
ATOM      7  C   UNL A   1      33.456  26.167  23.712  1.00  0.00     0.023 C 
BRANCH   6   8
ATOM      8  C   UNL A   1      31.411  27.647  23.830  1.00  0.00    -0.036 A 
ATOM      9  C   UNL A   1      31.261  28.585  22.793  1.00  0.00     0.005 A 
ATOM     10  C   UNL A   1      30.250  27.005  24.281  1.00  0.00     0.005 A 
ATOM     11  C   UNL A   1      30.000  28.999  22.368  1.00  0.00     0.004 A 
ATOM     12  C   UNL A   1      28.983  27.438  23.876  1.00  0.00     0.004 A 
ATOM     13  C   UNL A   1      28.850  28.492  22.971  1.00  0.00    -0.048 A 
BRANCH  13  14
ATOM     14  C   UNL A   1      27.506  29.123  22.713  1.00  0.00     0.041 C 
BRANCH  14  15
ATOM     15  C   UNL A   1      27.520  30.660  22.578  1.00  0.00     0.022 C 
ATOM     16  C   UNL A   1      28.138  31.447  23.747  1.00  0.00     0.007 C 
ATOM     17  C   UNL A   1      28.237  31.218  21.344  1.00  0.00     0.117 C 
ATOM     18  C   UNL A   1      28.778  32.696  23.126  1.00  0.00     0.003 C 
ATOM     19  C   UNL A   1      28.346  32.700  21.666  1.00  0.00     0.032 C 
BRANCH  17  20
ATOM     20  O   UNL A   1      27.518  30.980  20.149  1.00  0.00    -0.393 OA
ATOM     21  H   UNL A   1      28.081  31.184  19.387  1.00  0.00     0.210 HD
ENDBRANCH  17  20
ENDBRANCH  14  15
ENDBRANCH  13  14
ENDBRANCH   6   8
ENDBRANCH   3   6
ENDBRANCH   1   2
BRANCH   1  22
ATOM     22  C   UNL A   1      31.472  30.353  26.079  1.00  0.00     0.023 C 
BRANCH  22  23
ATOM     23  C   UNL A   1      31.359  31.853  26.366  1.00  0.00     0.023 C 
BRANCH  23  24
ATOM     24  C   UNL A   1      32.542  32.460  27.107  1.00  0.00     0.116 C 
BRANCH  24  25
ATOM     25  N   UNL A   1      32.299  33.831  27.523  1.00  0.00    -0.352 N 
ATOM     26  C   UNL A   1      32.973  34.600  28.436  1.00  0.00     0.251 C 
ATOM     27  H   UNL A   1      31.537  34.273  27.084  1.00  0.00     0.163 HD
ATOM     28  O   UNL A   1      32.528  35.699  28.751  1.00  0.00    -0.269 OA
BRANCH  26  29
ATOM     29  C   UNL A   1      34.212  34.097  29.067  1.00  0.00     0.039 A 
ATOM     30  C   UNL A   1      34.097  33.268  30.186  1.00  0.00     0.014 A 
ATOM     31  C   UNL A   1      35.476  34.442  28.579  1.00  0.00     0.014 A 
ATOM     32  C   UNL A   1      35.243  32.740  30.779  1.00  0.00     0.010 A 
ATOM     33  C   UNL A   1      36.617  33.856  29.126  1.00  0.00     0.010 A 
ATOM     34  C   UNL A   1      36.511  33.002  30.233  1.00  0.00    -0.014 A 
BRANCH  34  35
ATOM     35  C   UNL A   1      37.721  32.365  30.809  1.00  0.00     0.031 A 
ATOM     36  C   UNL A   1      38.327  32.880  32.086  1.00  0.00     0.074 A 
ATOM     37  C   UNL A   1      38.291  31.331  30.161  1.00  0.00     0.049 A 
ATOM     38  N   UNL A   1      39.368  32.435  32.742  1.00  0.00    -0.248 NA
ATOM     39  C   UNL A   1      37.694  34.060  32.695  1.00  0.00     0.031 C 
ATOM     40  C   UNL A   1      37.837  30.783  28.881  1.00  0.00     0.029 A 
ATOM     41  N   UNL A   1      39.373  30.553  30.489  1.00  0.00    -0.354 N 
ATOM     42  C   UNL A   1      39.513  33.274  33.839  1.00  0.00     0.074 A 
ATOM     43  C   UNL A   1      38.491  34.293  33.727  1.00  0.00     0.031 C 
ATOM     44  C   UNL A   1      38.616  29.740  28.547  1.00  0.00     0.029 A 
ATOM     45  C   UNL A   1      39.637  29.564  29.574  1.00  0.00     0.049 A 
ATOM     46  H   UNL A   1      39.909  30.693  31.303  1.00  0.00     0.167 HD
ATOM     47  C   UNL A   1      40.396  33.187  34.862  1.00  0.00     0.037 A 
ATOM     48  C   UNL A   1      40.593  28.617  29.566  1.00  0.00     0.037 A 
ATOM     49  C   UNL A   1      41.405  32.167  34.977  1.00  0.00     0.049 A 
ATOM     50  C   UNL A   1      41.553  28.535  30.720  1.00  0.00     0.074 A 
ATOM     51  C   UNL A   1      42.324  31.971  35.994  1.00  0.00     0.029 A 
ATOM     52  N   UNL A   1      41.629  31.168  34.041  1.00  0.00    -0.354 N 
ATOM     53  N   UNL A   1      41.630  29.295  31.786  1.00  0.00    -0.248 NA
ATOM     54  C   UNL A   1      42.549  27.456  30.676  1.00  0.00     0.031 C 
ATOM     55  C   UNL A   1      43.127  30.876  35.657  1.00  0.00     0.029 A 
ATOM     56  C   UNL A   1      42.680  30.363  34.451  1.00  0.00     0.049 A 
ATOM     57  H   UNL A   1      41.118  31.050  33.208  1.00  0.00     0.167 HD
ATOM     58  C   UNL A   1      42.670  28.775  32.547  1.00  0.00     0.074 A 
ATOM     59  C   UNL A   1      43.171  27.618  31.835  1.00  0.00     0.031 C 
ATOM     60  C   UNL A   1      43.170  29.218  33.727  1.00  0.00     0.037 A 
BRANCH  47  61
ATOM     61  C   UNL A   1      40.297  34.214  35.952  1.00  0.00     0.057 A 
ATOM     62  C   UNL A   1      40.948  35.451  35.853  1.00  0.00     0.134 A 
ATOM     63  C   UNL A   1      39.506  33.989  37.085  1.00  0.00     0.134 A 
ATOM     64  F   UNL A   1      41.730  35.726  34.798  1.00  0.00    -0.206 F 
ATOM     65  C   UNL A   1      40.831  36.420  36.851  1.00  0.00     0.040 A 
ATOM     66  C   UNL A   1      39.362  34.960  38.079  1.00  0.00     0.040 A 
ATOM     67  F   UNL A   1      38.853  32.829  37.241  1.00  0.00    -0.206 F 
ATOM     68  C   UNL A   1      40.029  36.179  37.965  1.00  0.00     0.006 A 
ENDBRANCH  47  61
BRANCH  48  69
ATOM     69  C   UNL A   1      40.680  27.653  28.441  1.00  0.00     0.057 A 
ATOM     70  C   UNL A   1      41.474  27.918  27.319  1.00  0.00     0.134 A 
ATOM     71  C   UNL A   1      39.955  26.455  28.450  1.00  0.00     0.134 A 
ATOM     72  F   UNL A   1      42.179  29.056  27.244  1.00  0.00    -0.206 F 
ATOM     73  C   UNL A   1      41.523  27.040  26.233  1.00  0.00     0.040 A 
ATOM     74  C   UNL A   1      40.016  25.556  27.384  1.00  0.00     0.040 A 
ATOM     75  F   UNL A   1      39.183  26.139  29.501  1.00  0.00    -0.206 F 
ATOM     76  C   UNL A   1      40.793  25.853  26.268  1.00  0.00     0.006 A 
ENDBRANCH  48  69
BRANCH  60  77
ATOM     77  C   UNL A   1      44.304  28.434  34.320  1.00  0.00     0.057 A 
ATOM     78  C   UNL A   1      44.081  27.348  35.176  1.00  0.00     0.134 A 
ATOM     79  C   UNL A   1      45.633  28.768  34.030  1.00  0.00     0.134 A 
ATOM     80  F   UNL A   1      42.832  26.986  35.503  1.00  0.00    -0.206 F 
ATOM     81  C   UNL A   1      45.140  26.643  35.750  1.00  0.00     0.040 A 
ATOM     82  C   UNL A   1      46.699  28.053  34.576  1.00  0.00     0.040 A 
ATOM     83  F   UNL A   1      45.917  29.792  33.211  1.00  0.00    -0.206 F 
ATOM     84  C   UNL A   1      46.454  26.993  35.447  1.00  0.00     0.006 A 
ENDBRANCH  60  77
ENDBRANCH  34  35
ENDBRANCH  26  29
ENDBRANCH  24  25
ENDBRANCH  23  24
ENDBRANCH  22  23
ENDBRANCH   1  22
TORSDOF 15
ENDMDL
MODEL 2
REMARK VINA RESULT:     -11.6      0.578      6.378
REMARK SMILES C[C@@H](C(=O)NCCCCNC(=O)c1ccc(-c2c3nc(c(-c4c(F)cccc4F)c4ccc([nH]4)c(-c4c(F)cccc4F)c4nc(c(-c5c(F)cccc5F)c5ccc2[nH]5)C=C4)C=C3)cc1)c1ccc(C[C@H]2CCC[C@@H]2O)cc1
REMARK SMILES IDX 6 1 5 2 3 3 4 4 2 6 1 7 67 8 68 9 79 10 69 11 78 12 70 13
REMARK SMILES IDX 71 14 72 15 73 16 76 17 74 18 75 19 77 20 7 22 8 23 9 24
REMARK SMILES IDX 10 25 11 26 12 28 13 29 14 30 66 31 15 32 65 33 16 34 17 35
REMARK SMILES IDX 18 36 59 37 19 38 64 39 58 40 60 41 20 42 63 43 57 44 56 45
REMARK SMILES IDX 21 47 47 48 30 49 46 50 31 51 34 52 45 53 61 54 32 55 33 56
REMARK SMILES IDX 44 58 62 59 35 60 22 61 23 62 28 63 24 64 25 65 27 66 29 67
REMARK SMILES IDX 26 68 48 69 49 70 54 71 50 72 51 73 53 74 55 75 52 76 36 77
REMARK SMILES IDX 37 78 42 79 38 80 39 81 41 82 43 83 40 84
REMARK H PARENT 5 5 77 21 10 27 60 46 34 57
REMARK Flexibility Score: inf
ROOT
ATOM      1  C   UNL A   1      32.867  29.779  26.325  1.00  0.00     0.116 C 
ENDROOT
BRANCH   1   2
ATOM      2  N   UNL A   1      33.651  29.628  25.117  1.00  0.00    -0.356 N 
ATOM      3  C   UNL A   1      33.807  28.534  24.311  1.00  0.00     0.227 C 
ATOM      4  O   UNL A   1      34.772  28.564  23.545  1.00  0.00    -0.274 OA
ATOM      5  H   UNL A   1      34.145  30.432  24.833  1.00  0.00     0.163 HD
BRANCH   3   6
ATOM      6  C   UNL A   1      32.811  27.359  24.412  1.00  0.00     0.105 C 
ATOM      7  C   UNL A   1      33.470  26.137  23.747  1.00  0.00     0.023 C 
BRANCH   6   8
ATOM      8  C   UNL A   1      31.419  27.612  23.817  1.00  0.00    -0.036 A 
ATOM      9  C   UNL A   1      31.258  28.525  22.761  1.00  0.00     0.005 A 
ATOM     10  C   UNL A   1      30.265  26.967  24.282  1.00  0.00     0.005 A 
ATOM     11  C   UNL A   1      29.992  28.915  22.327  1.00  0.00     0.004 A 
ATOM     12  C   UNL A   1      28.993  27.376  23.869  1.00  0.00     0.004 A 
ATOM     13  C   UNL A   1      28.848  28.409  22.942  1.00  0.00    -0.048 A 
BRANCH  13  14
ATOM     14  C   UNL A   1      27.497  29.019  22.671  1.00  0.00     0.041 C 
BRANCH  14  15
ATOM     15  C   UNL A   1      27.483  30.559  22.571  1.00  0.00     0.022 C 
ATOM     16  C   UNL A   1      28.084  31.330  23.760  1.00  0.00     0.007 C 
ATOM     17  C   UNL A   1      28.192  31.159  21.352  1.00  0.00     0.117 C 
ATOM     18  C   UNL A   1      28.702  32.605  23.170  1.00  0.00     0.003 C 
ATOM     19  C   UNL A   1      28.272  32.635  21.709  1.00  0.00     0.032 C 
BRANCH  17  20
ATOM     20  O   UNL A   1      27.479  30.936  20.150  1.00  0.00    -0.393 OA
ATOM     21  H   UNL A   1      26.736  30.338  20.322  1.00  0.00     0.210 HD
ENDBRANCH  17  20
ENDBRANCH  14  15
ENDBRANCH  13  14
ENDBRANCH   6   8
ENDBRANCH   3   6
ENDBRANCH   1   2
BRANCH   1  22
ATOM     22  C   UNL A   1      31.521  30.443  26.019  1.00  0.00     0.023 C 
BRANCH  22  23
ATOM     23  C   UNL A   1      31.394  31.896  26.487  1.00  0.00     0.023 C 
BRANCH  23  24
ATOM     24  C   UNL A   1      32.625  32.460  27.184  1.00  0.00     0.116 C 
BRANCH  24  25
ATOM     25  N   UNL A   1      32.467  33.854  27.559  1.00  0.00    -0.352 N 
ATOM     26  C   UNL A   1      33.154  34.594  28.487  1.00  0.00     0.251 C 
ATOM     27  H   UNL A   1      31.761  34.341  27.075  1.00  0.00     0.163 HD
ATOM     28  O   UNL A   1      32.780  35.731  28.757  1.00  0.00    -0.269 OA
BRANCH  26  29
ATOM     29  C   UNL A   1      34.322  34.017  29.187  1.00  0.00     0.039 A 
ATOM     30  C   UNL A   1      34.091  33.193  30.291  1.00  0.00     0.014 A 
ATOM     31  C   UNL A   1      35.631  34.286  28.776  1.00  0.00     0.014 A 
ATOM     32  C   UNL A   1      35.167  32.596  30.947  1.00  0.00     0.010 A 
ATOM     33  C   UNL A   1      36.700  33.631  29.385  1.00  0.00     0.010 A 
ATOM     34  C   UNL A   1      36.479  32.782  30.478  1.00  0.00    -0.014 A 
BRANCH  34  35
ATOM     35  C   UNL A   1      37.613  32.073  31.121  1.00  0.00     0.031 A 
ATOM     36  C   UNL A   1      38.339  30.971  30.401  1.00  0.00     0.074 A 
ATOM     37  C   UNL A   1      37.972  32.412  32.375  1.00  0.00     0.049 A 
ATOM     38  N   UNL A   1      39.361  30.259  30.801  1.00  0.00    -0.248 NA
ATOM     39  C   UNL A   1      37.839  30.606  29.066  1.00  0.00     0.031 C 
ATOM     40  C   UNL A   1      37.304  33.418  33.203  1.00  0.00     0.029 A 
ATOM     41  N   UNL A   1      38.990  31.949  33.171  1.00  0.00    -0.354 N 
ATOM     42  C   UNL A   1      39.630  29.368  29.769  1.00  0.00     0.074 A 
ATOM     43  C   UNL A   1      38.624  29.586  28.752  1.00  0.00     0.031 C 
ATOM     44  C   UNL A   1      37.947  33.517  34.378  1.00  0.00     0.029 A 
ATOM     45  C   UNL A   1      39.053  32.566  34.397  1.00  0.00     0.049 A 
ATOM     46  H   UNL A   1      39.614  31.242  32.890  1.00  0.00     0.167 HD
ATOM     47  C   UNL A   1      40.639  28.472  29.666  1.00  0.00     0.037 A 
ATOM     48  C   UNL A   1      39.909  32.388  35.419  1.00  0.00     0.037 A 
ATOM     49  C   UNL A   1      41.645  28.263  30.675  1.00  0.00     0.049 A 
ATOM     50  C   UNL A   1      41.028  31.394  35.273  1.00  0.00     0.074 A 
ATOM     51  C   UNL A   1      42.730  27.404  30.648  1.00  0.00     0.029 A 
ATOM     52  N   UNL A   1      41.689  28.921  31.895  1.00  0.00    -0.354 N 
ATOM     53  N   UNL A   1      41.310  30.610  34.261  1.00  0.00    -0.248 NA
ATOM     54  C   UNL A   1      41.955  31.273  36.406  1.00  0.00     0.031 C 
ATOM     55  C   UNL A   1      43.411  27.516  31.865  1.00  0.00     0.029 A 
ATOM     56  C   UNL A   1      42.774  28.477  32.633  1.00  0.00     0.049 A 
ATOM     57  H   UNL A   1      41.043  29.602  32.193  1.00  0.00     0.167 HD
ATOM     58  C   UNL A   1      42.455  29.916  34.627  1.00  0.00     0.074 A 
ATOM     59  C   UNL A   1      42.832  30.395  35.941  1.00  0.00     0.031 C 
ATOM     60  C   UNL A   1      43.132  28.961  33.942  1.00  0.00     0.037 A 
BRANCH  47  61
ATOM     61  C   UNL A   1      40.718  27.659  28.406  1.00  0.00     0.057 A 
ATOM     62  C   UNL A   1      40.028  26.447  28.273  1.00  0.00     0.134 A 
ATOM     63  C   UNL A   1      41.446  28.114  27.300  1.00  0.00     0.134 A 
ATOM     64  F   UNL A   1      39.321  25.950  29.299  1.00  0.00    -0.206 F 
ATOM     65  C   UNL A   1      40.075  25.706  27.090  1.00  0.00     0.040 A 
ATOM     66  C   UNL A   1      41.481  27.394  26.104  1.00  0.00     0.040 A 
ATOM     67  F   UNL A   1      42.126  29.268  27.359  1.00  0.00    -0.206 F 
ATOM     68  C   UNL A   1      40.796  26.184  25.998  1.00  0.00     0.006 A 
ENDBRANCH  47  61
BRANCH  48  69
ATOM     69  C   UNL A   1      39.760  33.182  36.664  1.00  0.00     0.057 A 
ATOM     70  C   UNL A   1      38.877  32.786  37.676  1.00  0.00     0.134 A 
ATOM     71  C   UNL A   1      40.481  34.365  36.865  1.00  0.00     0.134 A 
ATOM     72  F   UNL A   1      38.146  31.670  37.535  1.00  0.00    -0.206 F 
ATOM     73  C   UNL A   1      38.693  33.552  38.829  1.00  0.00     0.040 A 
ATOM     74  C   UNL A   1      40.328  35.127  38.024  1.00  0.00     0.040 A 
ATOM     75  F   UNL A   1      41.351  34.793  35.937  1.00  0.00    -0.206 F 
ATOM     76  C   UNL A   1      39.424  34.726  39.005  1.00  0.00     0.006 A 
ENDBRANCH  48  69
BRANCH  60  77
ATOM     77  C   UNL A   1      44.355  28.393  34.600  1.00  0.00     0.057 A 
ATOM     78  C   UNL A   1      45.617  28.982  34.446  1.00  0.00     0.134 A 
ATOM     79  C   UNL A   1      44.270  27.245  35.398  1.00  0.00     0.134 A 
ATOM     80  F   UNL A   1      45.767  30.076  33.684  1.00  0.00    -0.206 F 
ATOM     81  C   UNL A   1      46.756  28.430  35.034  1.00  0.00     0.040 A 
ATOM     82  C   UNL A   1      45.397  26.700  36.013  1.00  0.00     0.040 A 
ATOM     83  F   UNL A   1      43.091  26.636  35.594  1.00  0.00    -0.206 F 
ATOM     84  C   UNL A   1      46.647  27.287  35.824  1.00  0.00     0.006 A 
ENDBRANCH  60  77
ENDBRANCH  34  35
ENDBRANCH  26  29
ENDBRANCH  24  25
ENDBRANCH  23  24
ENDBRANCH  22  23
ENDBRANCH   1  22
TORSDOF 15
ENDMDL
MODEL 3
REMARK VINA RESULT:     -11.5      6.062     11.007
REMARK SMILES C[C@@H](C(=O)NCCCCNC(=O)c1ccc(-c2c3nc(c(-c4c(F)cccc4F)c4ccc([nH]4)c(-c4c(F)cccc4F)c4nc(c(-c5c(F)cccc5F)c5ccc2[nH]5)C=C4)C=C3)cc1)c1ccc(C[C@H]2CCC[C@@H]2O)cc1
REMARK SMILES IDX 6 1 5 2 3 3 4 4 2 6 1 7 67 8 68 9 79 10 69 11 78 12 70 13
REMARK SMILES IDX 71 14 72 15 73 16 76 17 74 18 75 19 77 20 7 22 8 23 9 24
REMARK SMILES IDX 10 25 11 26 12 28 13 29 14 30 66 31 15 32 65 33 16 34 17 35
REMARK SMILES IDX 18 36 59 37 19 38 64 39 58 40 60 41 20 42 63 43 57 44 56 45
REMARK SMILES IDX 21 47 47 48 30 49 46 50 31 51 34 52 45 53 61 54 32 55 33 56
REMARK SMILES IDX 44 58 62 59 35 60 22 61 23 62 28 63 24 64 25 65 27 66 29 67
REMARK SMILES IDX 26 68 48 69 49 70 54 71 50 72 51 73 53 74 55 75 52 76 36 77
REMARK SMILES IDX 37 78 42 79 38 80 39 81 41 82 43 83 40 84
REMARK H PARENT 5 5 77 21 10 27 60 46 34 57
REMARK Flexibility Score: inf
ROOT
ATOM      1  C   UNL A   1      36.732  21.950  25.379  1.00  0.00     0.116 C 
ENDROOT
BRANCH   1   2
ATOM      2  N   UNL A   1      35.911  22.264  26.530  1.00  0.00    -0.356 N 
ATOM      3  C   UNL A   1      34.699  22.896  26.589  1.00  0.00     0.227 C 
ATOM      4  O   UNL A   1      34.374  23.331  27.696  1.00  0.00    -0.274 OA
ATOM      5  H   UNL A   1      36.280  21.982  27.398  1.00  0.00     0.163 HD
BRANCH   3   6
ATOM      6  C   UNL A   1      33.845  23.036  25.312  1.00  0.00     0.105 C 
ATOM      7  C   UNL A   1      32.784  24.118  25.583  1.00  0.00     0.023 C 
BRANCH   6   8
ATOM      8  C   UNL A   1      33.184  21.748  24.806  1.00  0.00    -0.036 A 
ATOM      9  C   UNL A   1      32.906  20.699  25.700  1.00  0.00     0.005 A 
ATOM     10  C   UNL A   1      32.833  21.549  23.463  1.00  0.00     0.005 A 
ATOM     11  C   UNL A   1      32.482  19.452  25.245  1.00  0.00     0.004 A 
ATOM     12  C   UNL A   1      32.435  20.291  23.000  1.00  0.00     0.004 A 
ATOM     13  C   UNL A   1      32.331  19.213  23.880  1.00  0.00    -0.048 A 
BRANCH  13  14
ATOM     14  C   UNL A   1      32.140  17.810  23.363  1.00  0.00     0.041 C 
BRANCH  14  15
ATOM     15  C   UNL A   1      33.237  16.807  23.774  1.00  0.00     0.022 C 
ATOM     16  C   UNL A   1      34.677  17.347  23.830  1.00  0.00     0.007 C 
ATOM     17  C   UNL A   1      33.050  16.128  25.135  1.00  0.00     0.117 C 
ATOM     18  C   UNL A   1      35.379  16.569  24.951  1.00  0.00     0.003 C 
ATOM     19  C   UNL A   1      34.405  15.477  25.370  1.00  0.00     0.032 C 
BRANCH  17  20
ATOM     20  O   UNL A   1      31.996  15.184  25.126  1.00  0.00    -0.393 OA
ATOM     21  H   UNL A   1      31.150  15.644  25.241  1.00  0.00     0.210 HD
ENDBRANCH  17  20
ENDBRANCH  14  15
ENDBRANCH  13  14
ENDBRANCH   6   8
ENDBRANCH   3   6
ENDBRANCH   1   2
BRANCH   1  22
ATOM     22  C   UNL A   1      36.603  20.469  25.008  1.00  0.00     0.023 C 
BRANCH  22  23
ATOM     23  C   UNL A   1      37.932  19.735  24.802  1.00  0.00     0.023 C 
BRANCH  23  24
ATOM     24  C   UNL A   1      39.025  20.085  25.803  1.00  0.00     0.116 C 
BRANCH  24  25
ATOM     25  N   UNL A   1      40.109  19.118  25.809  1.00  0.00    -0.352 N 
ATOM     26  C   UNL A   1      41.444  19.303  26.061  1.00  0.00     0.251 C 
ATOM     27  H   UNL A   1      39.847  18.192  25.600  1.00  0.00     0.163 HD
ATOM     28  O   UNL A   1      42.230  18.377  25.883  1.00  0.00    -0.269 OA
BRANCH  26  29
ATOM     29  C   UNL A   1      41.944  20.619  26.513  1.00  0.00     0.039 A 
ATOM     30  C   UNL A   1      42.267  21.573  25.545  1.00  0.00     0.014 A 
ATOM     31  C   UNL A   1      42.108  20.915  27.870  1.00  0.00     0.014 A 
ATOM     32  C   UNL A   1      42.699  22.839  25.938  1.00  0.00     0.010 A 
ATOM     33  C   UNL A   1      42.469  22.203  28.262  1.00  0.00     0.010 A 
ATOM     34  C   UNL A   1      42.770  23.177  27.300  1.00  0.00    -0.014 A 
BRANCH  34  35
ATOM     35  C   UNL A   1      43.142  24.553  27.713  1.00  0.00     0.031 A 
ATOM     36  C   UNL A   1      44.581  24.986  27.738  1.00  0.00     0.074 A 
ATOM     37  C   UNL A   1      42.173  25.408  28.092  1.00  0.00     0.049 A 
ATOM     38  N   UNL A   1      45.085  26.152  28.053  1.00  0.00    -0.248 NA
ATOM     39  C   UNL A   1      45.588  23.973  27.386  1.00  0.00     0.031 C 
ATOM     40  C   UNL A   1      40.746  25.087  28.174  1.00  0.00     0.029 A 
ATOM     41  N   UNL A   1      42.238  26.724  28.476  1.00  0.00    -0.354 N 
ATOM     42  C   UNL A   1      46.463  26.015  27.931  1.00  0.00     0.074 A 
ATOM     43  C   UNL A   1      46.719  24.636  27.576  1.00  0.00     0.031 C 
ATOM     44  C   UNL A   1      40.069  26.182  28.554  1.00  0.00     0.029 A 
ATOM     45  C   UNL A   1      41.014  27.273  28.768  1.00  0.00     0.049 A 
ATOM     46  H   UNL A   1      43.083  27.225  28.538  1.00  0.00     0.167 HD
ATOM     47  C   UNL A   1      47.423  26.959  28.073  1.00  0.00     0.037 A 
ATOM     48  C   UNL A   1      40.688  28.519  29.159  1.00  0.00     0.037 A 
ATOM     49  C   UNL A   1      47.165  28.334  28.417  1.00  0.00     0.049 A 
ATOM     50  C   UNL A   1      41.774  29.550  29.298  1.00  0.00     0.074 A 
ATOM     51  C   UNL A   1      48.068  29.375  28.548  1.00  0.00     0.029 A 
ATOM     52  N   UNL A   1      45.910  28.858  28.684  1.00  0.00    -0.354 N 
ATOM     53  N   UNL A   1      43.065  29.422  29.109  1.00  0.00    -0.248 NA
ATOM     54  C   UNL A   1      41.353  30.903  29.688  1.00  0.00     0.031 C 
ATOM     55  C   UNL A   1      47.364  30.522  28.930  1.00  0.00     0.029 A 
ATOM     56  C   UNL A   1      46.017  30.206  28.993  1.00  0.00     0.049 A 
ATOM     57  H   UNL A   1      45.068  28.350  28.659  1.00  0.00     0.167 HD
ATOM     58  C   UNL A   1      43.608  30.679  29.341  1.00  0.00     0.074 A 
ATOM     59  C   UNL A   1      42.503  31.561  29.653  1.00  0.00     0.031 C 
ATOM     60  C   UNL A   1      44.906  31.068  29.306  1.00  0.00     0.037 A 
BRANCH  47  61
ATOM     61  C   UNL A   1      48.845  26.541  27.836  1.00  0.00     0.057 A 
ATOM     62  C   UNL A   1      49.671  26.126  28.890  1.00  0.00     0.134 A 
ATOM     63  C   UNL A   1      49.381  26.504  26.544  1.00  0.00     0.134 A 
ATOM     64  F   UNL A   1      49.222  26.148  30.155  1.00  0.00    -0.206 F 
ATOM     65  C   UNL A   1      50.983  25.706  28.668  1.00  0.00     0.040 A 
ATOM     66  C   UNL A   1      50.685  26.063  26.306  1.00  0.00     0.040 A 
ATOM     67  F   UNL A   1      48.643  26.884  25.490  1.00  0.00    -0.206 F 
ATOM     68  C   UNL A   1      51.491  25.666  27.371  1.00  0.00     0.006 A 
ENDBRANCH  47  61
BRANCH  48  69
ATOM     69  C   UNL A   1      39.272  28.871  29.428  1.00  0.00     0.057 A 
ATOM     70  C   UNL A   1      38.703  28.677  30.692  1.00  0.00     0.134 A 
ATOM     71  C   UNL A   1      38.446  29.389  28.423  1.00  0.00     0.134 A 
ATOM     72  F   UNL A   1      39.438  28.168  31.692  1.00  0.00    -0.206 F 
ATOM     73  C   UNL A   1      37.358  28.959  30.941  1.00  0.00     0.040 A 
ATOM     74  C   UNL A   1      37.108  29.701  28.664  1.00  0.00     0.040 A 
ATOM     75  F   UNL A   1      38.934  29.607  27.192  1.00  0.00    -0.206 F 
ATOM     76  C   UNL A   1      36.558  29.476  29.924  1.00  0.00     0.006 A 
ENDBRANCH  48  69
BRANCH  60  77
ATOM     77  C   UNL A   1      45.189  32.513  29.596  1.00  0.00     0.057 A 
ATOM     78  C   UNL A   1      45.188  33.482  28.584  1.00  0.00     0.134 A 
ATOM     79  C   UNL A   1      45.463  32.940  30.901  1.00  0.00     0.134 A 
ATOM     80  F   UNL A   1      44.945  33.135  27.312  1.00  0.00    -0.206 F 
ATOM     81  C   UNL A   1      45.483  34.819  28.855  1.00  0.00     0.040 A 
ATOM     82  C   UNL A   1      45.733  34.279  31.188  1.00  0.00     0.040 A 
ATOM     83  F   UNL A   1      45.472  32.065  31.919  1.00  0.00    -0.206 F 
ATOM     84  C   UNL A   1      45.753  35.221  30.162  1.00  0.00     0.006 A 
ENDBRANCH  60  77
ENDBRANCH  34  35
ENDBRANCH  26  29
ENDBRANCH  24  25
ENDBRANCH  23  24
ENDBRANCH  22  23
ENDBRANCH   1  22
TORSDOF 15
ENDMDL
