MODEL 1
REMARK VINA RESULT:     -12.4      0.000      0.000
REMARK SMILES Cc1[nH]c2c(C(=O)N3CC[C@H](O)C[C@@H]3C(=O)NCCCCNC(=O)c3ccc(-c4c5nc(c(-c6c(F)cccc6F)c6ccc([nH]6)c(-c6c(F)cccc6F)c6nc(c(-c7c(F)cccc7F)c7ccc4[nH]7)C=C6)C=C5)cc3)cccc2c1C
REMARK SMILES IDX 19 1 18 2 17 3 15 4 16 5 14 7 8 8 9 9 10 10 13 11 11 12 6 13
REMARK SMILES IDX 7 14 5 15 1 16 2 17 3 18 83 19 4 20 82 22 84 23 81 24 79 25
REMARK SMILES IDX 80 26 12 27 20 29 21 30 22 31 23 32 24 34 25 35 26 36 78 37
REMARK SMILES IDX 27 38 77 39 28 40 29 41 30 42 71 43 31 44 76 45 70 46 72 47
REMARK SMILES IDX 32 48 75 49 69 50 68 51 33 53 59 54 42 55 58 56 43 57 46 58
REMARK SMILES IDX 57 59 73 60 44 61 45 62 56 64 74 65 47 66 34 67 35 68 40 69
REMARK SMILES IDX 36 70 37 71 39 72 41 73 38 74 60 75 61 76 66 77 62 78 63 79
REMARK SMILES IDX 65 80 67 81 64 82 48 83 49 84 54 85 50 86 51 87 53 88 55 89
REMARK SMILES IDX 52 90
REMARK H PARENT 17 6 3 21 12 28 22 33 72 52 46 63
REMARK Flexibility Score: inf
ROOT
ATOM      1  C   UNL A   1      31.819  29.274  27.368  1.00  0.00     0.023 C 
ENDROOT
BRANCH   1   2
ATOM      2  C   UNL A   1      32.153  27.965  26.655  1.00  0.00     0.116 C 
BRANCH   2   3
ATOM      3  N   UNL A   1      31.167  26.929  26.861  1.00  0.00    -0.354 N 
ATOM      4  C   UNL A   1      31.037  25.689  26.314  1.00  0.00     0.242 C 
ATOM      5  O   UNL A   1      29.911  25.184  26.437  1.00  0.00    -0.273 OA
ATOM      6  H   UNL A   1      30.466  27.160  27.513  1.00  0.00     0.163 HD
BRANCH   4   7
ATOM      7  C   UNL A   1      32.122  24.932  25.481  1.00  0.00     0.177 C 
ATOM      8  N   UNL A   1      31.779  24.306  24.196  1.00  0.00    -0.326 N 
ATOM      9  C   UNL A   1      31.469  22.880  24.122  1.00  0.00     0.123 C 
ATOM     10  C   UNL A   1      31.890  21.999  25.315  1.00  0.00     0.053 C 
ATOM     11  C   UNL A   1      33.021  24.040  26.325  1.00  0.00     0.067 C 
ATOM     12  C   UNL A   1      32.385  22.692  26.585  1.00  0.00     0.118 C 
BRANCH   8  13
ATOM     13  C   UNL A   1      32.299  24.904  23.041  1.00  0.00     0.256 C 
ATOM     14  O   UNL A   1      32.736  24.257  22.094  1.00  0.00    -0.269 OA
BRANCH  13  15
ATOM     15  C   UNL A   1      32.373  26.380  22.998  1.00  0.00     0.064 A 
ATOM     16  C   UNL A   1      27.622  27.831  23.416  1.00  0.00     0.064 C 
ATOM     17  C   UNL A   1      29.098  27.939  23.302  1.00  0.00     0.016 A 
ATOM     18  N   UNL A   1      29.890  26.828  23.169  1.00  0.00    -0.358 N 
ATOM     19  C   UNL A   1      29.931  29.046  23.333  1.00  0.00    -0.023 A 
ATOM     20  C   UNL A   1      31.218  27.175  23.092  1.00  0.00     0.059 A 
ATOM     21  H   UNL A   1      29.554  25.904  23.132  1.00  0.00     0.166 HD
ATOM     22  C   UNL A   1      31.275  28.564  23.215  1.00  0.00     0.003 A 
ATOM     23  C   UNL A   1      29.520  30.465  23.507  1.00  0.00     0.047 C 
ATOM     24  C   UNL A   1      32.541  29.187  23.239  1.00  0.00     0.010 A 
ATOM     25  C   UNL A   1      33.618  27.021  23.053  1.00  0.00     0.016 A 
ATOM     26  C   UNL A   1      33.702  28.408  23.162  1.00  0.00     0.002 A 
ENDBRANCH  13  15
ENDBRANCH   8  13
BRANCH  12  27
ATOM     27  O   UNL A   1      31.316  22.828  27.512  1.00  0.00    -0.393 OA
ATOM     28  H   UNL A   1      30.922  21.958  27.682  1.00  0.00     0.210 HD
ENDBRANCH  12  27
ENDBRANCH   4   7
ENDBRANCH   2   3
ENDBRANCH   1   2
BRANCH   1  29
ATOM     29  C   UNL A   1      32.048  30.545  26.564  1.00  0.00     0.023 C 
BRANCH  29  30
ATOM     30  C   UNL A   1      33.044  31.532  27.155  1.00  0.00     0.116 C 
BRANCH  30  31
ATOM     31  N   UNL A   1      32.493  32.843  27.471  1.00  0.00    -0.352 N 
ATOM     32  C   UNL A   1      33.070  33.843  28.223  1.00  0.00     0.251 C 
ATOM     33  H   UNL A   1      31.602  33.038  27.102  1.00  0.00     0.163 HD
ATOM     34  O   UNL A   1      32.483  34.896  28.439  1.00  0.00    -0.269 OA
BRANCH  32  35
ATOM     35  C   UNL A   1      34.393  33.586  28.824  1.00  0.00     0.039 A 
ATOM     36  C   UNL A   1      34.456  32.900  30.037  1.00  0.00     0.014 A 
ATOM     37  C   UNL A   1      35.555  33.894  28.113  1.00  0.00     0.014 A 
ATOM     38  C   UNL A   1      35.687  32.425  30.489  1.00  0.00     0.010 A 
ATOM     39  C   UNL A   1      36.766  33.350  28.522  1.00  0.00     0.010 A 
ATOM     40  C   UNL A   1      36.840  32.597  29.705  1.00  0.00    -0.014 A 
BRANCH  40  41
ATOM     41  C   UNL A   1      38.130  31.974  30.092  1.00  0.00     0.031 A 
ATOM     42  C   UNL A   1      39.064  32.695  31.021  1.00  0.00     0.074 A 
ATOM     43  C   UNL A   1      38.495  30.798  29.545  1.00  0.00     0.049 A 
ATOM     44  N   UNL A   1      40.262  32.353  31.417  1.00  0.00    -0.248 NA
ATOM     45  C   UNL A   1      38.602  33.990  31.547  1.00  0.00     0.031 C 
ATOM     46  C   UNL A   1      37.709  30.031  28.574  1.00  0.00     0.029 A 
ATOM     47  N   UNL A   1      39.629  30.045  29.719  1.00  0.00    -0.354 N 
ATOM     48  C   UNL A   1      40.703  33.396  32.220  1.00  0.00     0.074 A 
ATOM     49  C   UNL A   1      39.669  34.407  32.212  1.00  0.00     0.031 C 
ATOM     50  C   UNL A   1      38.372  28.905  28.263  1.00  0.00     0.029 A 
ATOM     51  C   UNL A   1      39.639  28.883  28.986  1.00  0.00     0.049 A 
ATOM     52  H   UNL A   1      40.367  30.312  30.315  1.00  0.00     0.167 HD
ATOM     53  C   UNL A   1      41.856  33.491  32.924  1.00  0.00     0.037 A 
ATOM     54  C   UNL A   1      40.565  27.909  28.908  1.00  0.00     0.037 A 
ATOM     55  C   UNL A   1      42.866  32.469  32.964  1.00  0.00     0.049 A 
ATOM     56  C   UNL A   1      41.818  28.020  29.731  1.00  0.00     0.074 A 
ATOM     57  C   UNL A   1      44.039  32.445  33.698  1.00  0.00     0.029 A 
ATOM     58  N   UNL A   1      42.818  31.286  32.245  1.00  0.00    -0.354 N 
ATOM     59  N   UNL A   1      42.193  28.982  30.537  1.00  0.00    -0.248 NA
ATOM     60  C   UNL A   1      42.774  26.906  29.637  1.00  0.00     0.031 C 
ATOM     61  C   UNL A   1      44.713  31.255  33.402  1.00  0.00     0.029 A 
ATOM     62  C   UNL A   1      43.943  30.526  32.511  1.00  0.00     0.049 A 
ATOM     63  H   UNL A   1      42.090  31.024  31.635  1.00  0.00     0.167 HD
ATOM     64  C   UNL A   1      43.412  28.581  31.066  1.00  0.00     0.074 A 
ATOM     65  C   UNL A   1      43.709  27.282  30.499  1.00  0.00     0.031 C 
ATOM     66  C   UNL A   1      44.215  29.231  31.943  1.00  0.00     0.037 A 
BRANCH  53  67
ATOM     67  C   UNL A   1      42.068  34.743  33.722  1.00  0.00     0.057 A 
ATOM     68  C   UNL A   1      41.635  34.848  35.051  1.00  0.00     0.134 A 
ATOM     69  C   UNL A   1      42.724  35.846  33.165  1.00  0.00     0.134 A 
ATOM     70  F   UNL A   1      40.985  33.831  35.636  1.00  0.00    -0.206 F 
ATOM     71  C   UNL A   1      41.824  36.017  35.789  1.00  0.00     0.040 A 
ATOM     72  C   UNL A   1      42.940  37.013  33.900  1.00  0.00     0.040 A 
ATOM     73  F   UNL A   1      43.165  35.810  31.898  1.00  0.00    -0.206 F 
ATOM     74  C   UNL A   1      42.483  37.102  35.214  1.00  0.00     0.006 A 
ENDBRANCH  53  67
BRANCH  54  75
ATOM     75  C   UNL A   1      40.327  26.723  28.049  1.00  0.00     0.057 A 
ATOM     76  C   UNL A   1      39.517  25.668  28.488  1.00  0.00     0.134 A 
ATOM     77  C   UNL A   1      40.904  26.609  26.779  1.00  0.00     0.134 A 
ATOM     78  F   UNL A   1      38.952  25.713  29.703  1.00  0.00    -0.206 F 
ATOM     79  C   UNL A   1      39.303  24.535  27.703  1.00  0.00     0.040 A 
ATOM     80  C   UNL A   1      40.683  25.490  25.975  1.00  0.00     0.040 A 
ATOM     81  F   UNL A   1      41.683  27.590  26.300  1.00  0.00    -0.206 F 
ATOM     82  C   UNL A   1      39.885  24.447  26.439  1.00  0.00     0.006 A 
ENDBRANCH  54  75
BRANCH  66  83
ATOM     83  C   UNL A   1      45.474  28.535  32.364  1.00  0.00     0.057 A 
ATOM     84  C   UNL A   1      45.500  27.655  33.451  1.00  0.00     0.134 A 
ATOM     85  C   UNL A   1      46.661  28.713  31.642  1.00  0.00     0.134 A 
ATOM     86  F   UNL A   1      44.397  27.453  34.189  1.00  0.00    -0.206 F 
ATOM     87  C   UNL A   1      46.668  26.987  33.819  1.00  0.00     0.040 A 
ATOM     88  C   UNL A   1      47.831  28.035  31.987  1.00  0.00     0.040 A 
ATOM     89  F   UNL A   1      46.699  29.538  30.585  1.00  0.00    -0.206 F 
ATOM     90  C   UNL A   1      47.837  27.171  33.080  1.00  0.00     0.006 A 
ENDBRANCH  66  83
ENDBRANCH  40  41
ENDBRANCH  32  35
ENDBRANCH  30  31
ENDBRANCH  29  30
ENDBRANCH   1  29
TORSDOF 14
ENDMDL
MODEL 2
REMARK VINA RESULT:     -12.3      3.122      8.535
REMARK SMILES Cc1[nH]c2c(C(=O)N3CC[C@H](O)C[C@@H]3C(=O)NCCCCNC(=O)c3ccc(-c4c5nc(c(-c6c(F)cccc6F)c6ccc([nH]6)c(-c6c(F)cccc6F)c6nc(c(-c7c(F)cccc7F)c7ccc4[nH]7)C=C6)C=C5)cc3)cccc2c1C
REMARK SMILES IDX 19 1 18 2 17 3 15 4 16 5 14 7 8 8 9 9 10 10 13 11 11 12 6 13
REMARK SMILES IDX 7 14 5 15 1 16 2 17 3 18 83 19 4 20 82 22 84 23 81 24 79 25
REMARK SMILES IDX 80 26 12 27 20 29 21 30 22 31 23 32 24 34 25 35 26 36 78 37
REMARK SMILES IDX 27 38 77 39 28 40 29 41 30 42 71 43 31 44 76 45 70 46 72 47
REMARK SMILES IDX 32 48 75 49 69 50 68 51 33 53 59 54 42 55 58 56 43 57 46 58
REMARK SMILES IDX 57 59 73 60 44 61 45 62 56 64 74 65 47 66 34 67 35 68 40 69
REMARK SMILES IDX 36 70 37 71 39 72 41 73 38 74 60 75 61 76 66 77 62 78 63 79
REMARK SMILES IDX 65 80 67 81 64 82 48 83 49 84 54 85 50 86 51 87 53 88 55 89
REMARK SMILES IDX 52 90
REMARK H PARENT 17 6 3 21 12 28 22 33 72 52 46 63
REMARK Flexibility Score: inf
ROOT
ATOM      1  C   UNL A   1      37.154  22.170  23.997  1.00  0.00     0.023 C 
ENDROOT
BRANCH   1   2
ATOM      2  C   UNL A   1      35.879  22.987  24.191  1.00  0.00     0.116 C 
BRANCH   2   3
ATOM      3  N   UNL A   1      35.162  23.237  22.961  1.00  0.00    -0.354 N 
ATOM      4  C   UNL A   1      33.987  23.881  22.719  1.00  0.00     0.242 C 
ATOM      5  O   UNL A   1      33.476  23.631  21.618  1.00  0.00    -0.273 OA
ATOM      6  H   UNL A   1      35.601  22.878  22.156  1.00  0.00     0.163 HD
BRANCH   4   7
ATOM      7  C   UNL A   1      33.212  24.790  23.727  1.00  0.00     0.177 C 
ATOM      8  N   UNL A   1      31.775  24.587  23.966  1.00  0.00    -0.326 N 
ATOM      9  C   UNL A   1      30.782  25.400  23.267  1.00  0.00     0.123 C 
ATOM     10  C   UNL A   1      31.272  26.701  22.602  1.00  0.00     0.053 C 
ATOM     11  C   UNL A   1      33.564  26.265  23.610  1.00  0.00     0.067 C 
ATOM     12  C   UNL A   1      32.779  26.942  22.509  1.00  0.00     0.118 C 
BRANCH   8  13
ATOM     13  C   UNL A   1      31.407  24.069  25.214  1.00  0.00     0.256 C 
ATOM     14  O   UNL A   1      30.452  24.492  25.858  1.00  0.00    -0.269 OA
BRANCH  13  15
ATOM     15  C   UNL A   1      32.250  23.004  25.799  1.00  0.00     0.064 A 
ATOM     16  C   UNL A   1      32.148  19.380  22.377  1.00  0.00     0.064 C 
ATOM     17  C   UNL A   1      32.516  20.099  23.623  1.00  0.00     0.016 A 
ATOM     18  N   UNL A   1      31.980  21.323  23.930  1.00  0.00    -0.358 N 
ATOM     19  C   UNL A   1      33.404  19.765  24.632  1.00  0.00    -0.023 A 
ATOM     20  C   UNL A   1      32.477  21.793  25.122  1.00  0.00     0.059 A 
ATOM     21  H   UNL A   1      31.326  21.801  23.372  1.00  0.00     0.166 HD
ATOM     22  C   UNL A   1      33.393  20.843  25.576  1.00  0.00     0.003 A 
ATOM     23  C   UNL A   1      34.253  18.545  24.706  1.00  0.00     0.047 C 
ATOM     24  C   UNL A   1      34.111  21.111  26.761  1.00  0.00     0.010 A 
ATOM     25  C   UNL A   1      32.997  23.258  26.958  1.00  0.00     0.016 A 
ATOM     26  C   UNL A   1      33.908  22.320  27.439  1.00  0.00     0.002 A 
ENDBRANCH  13  15
ENDBRANCH   8  13
BRANCH  12  27
ATOM     27  O   UNL A   1      33.260  26.523  21.238  1.00  0.00    -0.393 OA
ATOM     28  H   UNL A   1      33.863  27.194  20.883  1.00  0.00     0.210 HD
ENDBRANCH  12  27
ENDBRANCH   4   7
ENDBRANCH   2   3
ENDBRANCH   1   2
BRANCH   1  29
ATOM     29  C   UNL A   1      37.377  21.042  24.994  1.00  0.00     0.023 C 
BRANCH  29  30
ATOM     30  C   UNL A   1      38.677  21.103  25.782  1.00  0.00     0.116 C 
BRANCH  30  31
ATOM     31  N   UNL A   1      39.538  19.937  25.634  1.00  0.00    -0.352 N 
ATOM     32  C   UNL A   1      40.864  19.816  25.988  1.00  0.00     0.251 C 
ATOM     33  H   UNL A   1      39.123  19.141  25.232  1.00  0.00     0.163 HD
ATOM     34  O   UNL A   1      41.486  18.780  25.781  1.00  0.00    -0.269 OA
BRANCH  32  35
ATOM     35  C   UNL A   1      41.540  20.993  26.566  1.00  0.00     0.039 A 
ATOM     36  C   UNL A   1      42.081  21.946  25.703  1.00  0.00     0.014 A 
ATOM     37  C   UNL A   1      41.502  21.214  27.945  1.00  0.00     0.014 A 
ATOM     38  C   UNL A   1      42.491  23.176  26.216  1.00  0.00     0.010 A 
ATOM     39  C   UNL A   1      41.834  22.468  28.442  1.00  0.00     0.010 A 
ATOM     40  C   UNL A   1      42.315  23.467  27.579  1.00  0.00    -0.014 A 
BRANCH  40  41
ATOM     41  C   UNL A   1      42.605  24.818  28.119  1.00  0.00     0.031 A 
ATOM     42  C   UNL A   1      43.999  25.169  28.554  1.00  0.00     0.074 A 
ATOM     43  C   UNL A   1      41.600  25.698  28.292  1.00  0.00     0.049 A 
ATOM     44  N   UNL A   1      44.436  26.265  29.118  1.00  0.00    -0.248 NA
ATOM     45  C   UNL A   1      45.031  24.138  28.361  1.00  0.00     0.031 C 
ATOM     46  C   UNL A   1      40.190  25.452  27.976  1.00  0.00     0.029 A 
ATOM     47  N   UNL A   1      41.608  26.977  28.788  1.00  0.00    -0.354 N 
ATOM     48  C   UNL A   1      45.785  26.048  29.364  1.00  0.00     0.074 A 
ATOM     49  C   UNL A   1      46.083  24.698  28.940  1.00  0.00     0.031 C 
ATOM     50  C   UNL A   1      39.477  26.555  28.258  1.00  0.00     0.029 A 
ATOM     51  C   UNL A   1      40.370  27.573  28.802  1.00  0.00     0.049 A 
ATOM     52  H   UNL A   1      42.426  27.428  29.104  1.00  0.00     0.167 HD
ATOM     53  C   UNL A   1      46.700  26.906  29.872  1.00  0.00     0.037 A 
ATOM     54  C   UNL A   1      39.998  28.802  29.206  1.00  0.00     0.037 A 
ATOM     55  C   UNL A   1      46.413  28.261  30.257  1.00  0.00     0.049 A 
ATOM     56  C   UNL A   1      41.040  29.750  29.729  1.00  0.00     0.074 A 
ATOM     57  C   UNL A   1      47.285  29.228  30.723  1.00  0.00     0.029 A 
ATOM     58  N   UNL A   1      45.155  28.842  30.212  1.00  0.00    -0.354 N 
ATOM     59  N   UNL A   1      42.325  29.553  29.895  1.00  0.00    -0.248 NA
ATOM     60  C   UNL A   1      40.582  31.092  30.116  1.00  0.00     0.031 C 
ATOM     61  C   UNL A   1      46.550  30.390  30.984  1.00  0.00     0.029 A 
ATOM     62  C   UNL A   1      45.226  30.154  30.648  1.00  0.00     0.049 A 
ATOM     63  H   UNL A   1      44.333  28.390  29.913  1.00  0.00     0.167 HD
ATOM     64  C   UNL A   1      42.834  30.750  30.380  1.00  0.00     0.074 A 
ATOM     65  C   UNL A   1      41.721  31.673  30.470  1.00  0.00     0.031 C 
ATOM     66  C   UNL A   1      44.108  31.058  30.721  1.00  0.00     0.037 A 
BRANCH  53  67
ATOM     67  C   UNL A   1      48.104  26.400  30.021  1.00  0.00     0.057 A 
ATOM     68  C   UNL A   1      49.048  26.543  28.995  1.00  0.00     0.134 A 
ATOM     69  C   UNL A   1      48.520  25.778  31.203  1.00  0.00     0.134 A 
ATOM     70  F   UNL A   1      48.704  27.114  27.830  1.00  0.00    -0.206 F 
ATOM     71  C   UNL A   1      50.350  26.061  29.130  1.00  0.00     0.040 A 
ATOM     72  C   UNL A   1      49.827  25.314  31.360  1.00  0.00     0.040 A 
ATOM     73  F   UNL A   1      47.667  25.612  32.225  1.00  0.00    -0.206 F 
ATOM     74  C   UNL A   1      50.744  25.449  30.319  1.00  0.00     0.006 A 
ENDBRANCH  53  67
BRANCH  54  75
ATOM     75  C   UNL A   1      38.580  29.224  29.094  1.00  0.00     0.057 A 
ATOM     76  C   UNL A   1      38.059  29.681  27.878  1.00  0.00     0.134 A 
ATOM     77  C   UNL A   1      37.716  29.190  30.195  1.00  0.00     0.134 A 
ATOM     78  F   UNL A   1      38.845  29.753  26.793  1.00  0.00    -0.206 F 
ATOM     79  C   UNL A   1      36.735  30.105  27.763  1.00  0.00     0.040 A 
ATOM     80  C   UNL A   1      36.384  29.592  30.089  1.00  0.00     0.040 A 
ATOM     81  F   UNL A   1      38.154  28.755  31.385  1.00  0.00    -0.206 F 
ATOM     82  C   UNL A   1      35.892  30.057  28.872  1.00  0.00     0.006 A 
ENDBRANCH  54  75
BRANCH  66  83
ATOM     83  C   UNL A   1      44.372  32.456  31.194  1.00  0.00     0.057 A 
ATOM     84  C   UNL A   1      44.338  32.791  32.552  1.00  0.00     0.134 A 
ATOM     85  C   UNL A   1      44.709  33.465  30.283  1.00  0.00     0.134 A 
ATOM     86  F   UNL A   1      44.010  31.870  33.472  1.00  0.00    -0.206 F 
ATOM     87  C   UNL A   1      44.614  34.087  32.989  1.00  0.00     0.040 A 
ATOM     88  C   UNL A   1      45.007  34.759  30.708  1.00  0.00     0.040 A 
ATOM     89  F   UNL A   1      44.764  33.205  28.968  1.00  0.00    -0.206 F 
ATOM     90  C   UNL A   1      44.957  35.074  32.065  1.00  0.00     0.006 A 
ENDBRANCH  66  83
ENDBRANCH  40  41
ENDBRANCH  32  35
ENDBRANCH  30  31
ENDBRANCH  29  30
ENDBRANCH   1  29
TORSDOF 14
ENDMDL
MODEL 3
REMARK VINA RESULT:     -12.3      1.527      3.644
REMARK SMILES Cc1[nH]c2c(C(=O)N3CC[C@H](O)C[C@@H]3C(=O)NCCCCNC(=O)c3ccc(-c4c5nc(c(-c6c(F)cccc6F)c6ccc([nH]6)c(-c6c(F)cccc6F)c6nc(c(-c7c(F)cccc7F)c7ccc4[nH]7)C=C6)C=C5)cc3)cccc2c1C
REMARK SMILES IDX 19 1 18 2 17 3 15 4 16 5 14 7 8 8 9 9 10 10 13 11 11 12 6 13
REMARK SMILES IDX 7 14 5 15 1 16 2 17 3 18 83 19 4 20 82 22 84 23 81 24 79 25
REMARK SMILES IDX 80 26 12 27 20 29 21 30 22 31 23 32 24 34 25 35 26 36 78 37
REMARK SMILES IDX 27 38 77 39 28 40 29 41 30 42 71 43 31 44 76 45 70 46 72 47
REMARK SMILES IDX 32 48 75 49 69 50 68 51 33 53 59 54 42 55 58 56 43 57 46 58
REMARK SMILES IDX 57 59 73 60 44 61 45 62 56 64 74 65 47 66 34 67 35 68 40 69
REMARK SMILES IDX 36 70 37 71 39 72 41 73 38 74 60 75 61 76 66 77 62 78 63 79
REMARK SMILES IDX 65 80 67 81 64 82 48 83 49 84 54 85 50 86 51 87 53 88 55 89
REMARK SMILES IDX 52 90
REMARK H PARENT 17 6 3 21 12 28 22 33 72 52 46 63
REMARK Flexibility Score: inf
ROOT
ATOM      1  C   UNL A   1      32.234  29.641  27.261  1.00  0.00     0.023 C 
ENDROOT
BRANCH   1   2
ATOM      2  C   UNL A   1      33.544  28.912  26.969  1.00  0.00     0.116 C 
BRANCH   2   3
ATOM      3  N   UNL A   1      33.926  28.949  25.576  1.00  0.00    -0.354 N 
ATOM      4  C   UNL A   1      33.581  28.153  24.527  1.00  0.00     0.242 C 
ATOM      5  O   UNL A   1      34.333  28.233  23.545  1.00  0.00    -0.273 OA
ATOM      6  H   UNL A   1      34.546  29.678  25.345  1.00  0.00     0.163 HD
BRANCH   4   7
ATOM      7  C   UNL A   1      32.418  27.109  24.509  1.00  0.00     0.177 C 
ATOM      8  N   UNL A   1      32.638  25.751  23.990  1.00  0.00    -0.326 N 
ATOM      9  C   UNL A   1      32.274  25.411  22.616  1.00  0.00     0.123 C 
ATOM     10  C   UNL A   1      31.314  26.366  21.879  1.00  0.00     0.053 C 
ATOM     11  C   UNL A   1      31.090  27.686  24.040  1.00  0.00     0.067 C 
ATOM     12  C   UNL A   1      30.993  27.711  22.531  1.00  0.00     0.118 C 
BRANCH   8  13
ATOM     13  C   UNL A   1      32.638  24.707  24.924  1.00  0.00     0.256 C 
ATOM     14  O   UNL A   1      31.649  24.400  25.582  1.00  0.00    -0.269 OA
BRANCH  13  15
ATOM     15  C   UNL A   1      33.909  23.989  25.161  1.00  0.00     0.064 A 
ATOM     16  C   UNL A   1      32.734  19.200  24.431  1.00  0.00     0.064 C 
ATOM     17  C   UNL A   1      33.570  20.393  24.712  1.00  0.00     0.016 A 
ATOM     18  N   UNL A   1      33.027  21.649  24.787  1.00  0.00    -0.358 N 
ATOM     19  C   UNL A   1      34.936  20.515  24.909  1.00  0.00    -0.023 A 
ATOM     20  C   UNL A   1      33.994  22.591  25.046  1.00  0.00     0.059 A 
ATOM     21  H   UNL A   1      32.070  21.851  24.671  1.00  0.00     0.166 HD
ATOM     22  C   UNL A   1      35.209  21.908  25.106  1.00  0.00     0.003 A 
ATOM     23  C   UNL A   1      35.944  19.421  24.874  1.00  0.00     0.047 C 
ATOM     24  C   UNL A   1      36.393  22.654  25.295  1.00  0.00     0.010 A 
ATOM     25  C   UNL A   1      35.101  24.709  25.319  1.00  0.00     0.016 A 
ATOM     26  C   UNL A   1      36.327  24.050  25.396  1.00  0.00     0.002 A 
ENDBRANCH  13  15
ENDBRANCH   8  13
BRANCH  12  27
ATOM     27  O   UNL A   1      31.844  28.721  22.004  1.00  0.00    -0.393 OA
ATOM     28  H   UNL A   1      32.742  28.368  21.903  1.00  0.00     0.210 HD
ENDBRANCH  12  27
ENDBRANCH   4   7
ENDBRANCH   2   3
ENDBRANCH   1   2
BRANCH   1  29
ATOM     29  C   UNL A   1      32.132  31.063  26.727  1.00  0.00     0.023 C 
BRANCH  29  30
ATOM     30  C   UNL A   1      33.164  32.046  27.260  1.00  0.00     0.116 C 
BRANCH  30  31
ATOM     31  N   UNL A   1      32.632  33.349  27.634  1.00  0.00    -0.352 N 
ATOM     32  C   UNL A   1      33.200  34.286  28.470  1.00  0.00     0.251 C 
ATOM     33  H   UNL A   1      31.761  33.589  27.244  1.00  0.00     0.163 HD
ATOM     34  O   UNL A   1      32.629  35.339  28.727  1.00  0.00    -0.269 OA
BRANCH  32  35
ATOM     35  C   UNL A   1      34.491  33.959  29.104  1.00  0.00     0.039 A 
ATOM     36  C   UNL A   1      34.490  33.183  30.263  1.00  0.00     0.014 A 
ATOM     37  C   UNL A   1      35.688  34.297  28.468  1.00  0.00     0.014 A 
ATOM     38  C   UNL A   1      35.693  32.652  30.729  1.00  0.00     0.010 A 
ATOM     39  C   UNL A   1      36.871  33.701  28.886  1.00  0.00     0.010 A 
ATOM     40  C   UNL A   1      36.882  32.859  30.011  1.00  0.00    -0.014 A 
BRANCH  40  41
ATOM     41  C   UNL A   1      38.143  32.185  30.403  1.00  0.00     0.031 A 
ATOM     42  C   UNL A   1      39.062  32.831  31.400  1.00  0.00     0.074 A 
ATOM     43  C   UNL A   1      38.499  31.032  29.803  1.00  0.00     0.049 A 
ATOM     44  N   UNL A   1      40.238  32.438  31.815  1.00  0.00    -0.248 NA
ATOM     45  C   UNL A   1      38.613  34.105  31.982  1.00  0.00     0.031 C 
ATOM     46  C   UNL A   1      37.729  30.339  28.767  1.00  0.00     0.029 A 
ATOM     47  N   UNL A   1      39.609  30.242  29.972  1.00  0.00    -0.354 N 
ATOM     48  C   UNL A   1      40.676  33.424  32.688  1.00  0.00     0.074 A 
ATOM     49  C   UNL A   1      39.667  34.459  32.703  1.00  0.00     0.031 C 
ATOM     50  C   UNL A   1      38.375  29.215  28.415  1.00  0.00     0.029 A 
ATOM     51  C   UNL A   1      39.616  29.123  29.176  1.00  0.00     0.049 A 
ATOM     52  H   UNL A   1      40.332  30.458  30.605  1.00  0.00     0.167 HD
ATOM     53  C   UNL A   1      41.807  33.452  33.433  1.00  0.00     0.037 A 
ATOM     54  C   UNL A   1      40.522  28.132  29.074  1.00  0.00     0.037 A 
ATOM     55  C   UNL A   1      42.791  32.405  33.449  1.00  0.00     0.049 A 
ATOM     56  C   UNL A   1      41.749  28.166  29.941  1.00  0.00     0.074 A 
ATOM     57  C   UNL A   1      43.938  32.311  34.217  1.00  0.00     0.029 A 
ATOM     58  N   UNL A   1      42.740  31.263  32.663  1.00  0.00    -0.354 N 
ATOM     59  N   UNL A   1      42.119  29.073  30.811  1.00  0.00    -0.248 NA
ATOM     60  C   UNL A   1      42.681  27.036  29.816  1.00  0.00     0.031 C 
ATOM     61  C   UNL A   1      44.595  31.123  33.877  1.00  0.00     0.029 A 
ATOM     62  C   UNL A   1      43.838  30.462  32.923  1.00  0.00     0.049 A 
ATOM     63  H   UNL A   1      42.027  31.054  32.017  1.00  0.00     0.167 HD
ATOM     64  C   UNL A   1      43.311  28.613  31.356  1.00  0.00     0.074 A 
ATOM     65  C   UNL A   1      43.596  27.341  30.727  1.00  0.00     0.031 C 
ATOM     66  C   UNL A   1      44.099  29.194  32.292  1.00  0.00     0.037 A 
BRANCH  53  67
ATOM     67  C   UNL A   1      42.021  34.652  34.306  1.00  0.00     0.057 A 
ATOM     68  C   UNL A   1      42.702  35.785  33.841  1.00  0.00     0.134 A 
ATOM     69  C   UNL A   1      41.531  34.682  35.616  1.00  0.00     0.134 A 
ATOM     70  F   UNL A   1      43.211  35.811  32.600  1.00  0.00    -0.206 F 
ATOM     71  C   UNL A   1      42.910  36.897  34.659  1.00  0.00     0.040 A 
ATOM     72  C   UNL A   1      41.712  35.797  36.436  1.00  0.00     0.040 A 
ATOM     73  F   UNL A   1      40.868  33.630  36.121  1.00  0.00    -0.206 F 
ATOM     74  C   UNL A   1      42.410  36.906  35.959  1.00  0.00     0.006 A 
ENDBRANCH  53  67
BRANCH  54  75
ATOM     75  C   UNL A   1      40.285  27.001  28.143  1.00  0.00     0.057 A 
ATOM     76  C   UNL A   1      39.482  25.917  28.518  1.00  0.00     0.134 A 
ATOM     77  C   UNL A   1      40.858  26.970  26.866  1.00  0.00     0.134 A 
ATOM     78  F   UNL A   1      38.922  25.883  29.736  1.00  0.00    -0.206 F 
ATOM     79  C   UNL A   1      39.270  24.834  27.664  1.00  0.00     0.040 A 
ATOM     80  C   UNL A   1      40.638  25.902  25.994  1.00  0.00     0.040 A 
ATOM     81  F   UNL A   1      41.630  27.982  26.446  1.00  0.00    -0.206 F 
ATOM     82  C   UNL A   1      39.847  24.828  26.395  1.00  0.00     0.006 A 
ENDBRANCH  54  75
BRANCH  66  83
ATOM     83  C   UNL A   1      45.327  28.446  32.714  1.00  0.00     0.057 A 
ATOM     84  C   UNL A   1      46.566  28.660  32.099  1.00  0.00     0.134 A 
ATOM     85  C   UNL A   1      45.277  27.536  33.777  1.00  0.00     0.134 A 
ATOM     86  F   UNL A   1      46.674  29.511  31.066  1.00  0.00    -0.206 F 
ATOM     87  C   UNL A   1      47.711  27.982  32.516  1.00  0.00     0.040 A 
ATOM     88  C   UNL A   1      46.419  26.867  34.217  1.00  0.00     0.040 A 
ATOM     89  F   UNL A   1      44.120  27.292  34.412  1.00  0.00    -0.206 F 
ATOM     90  C   UNL A   1      47.641  27.087  33.583  1.00  0.00     0.006 A 
ENDBRANCH  66  83
ENDBRANCH  40  41
ENDBRANCH  32  35
ENDBRANCH  30  31
ENDBRANCH  29  30
ENDBRANCH   1  29
TORSDOF 14
ENDMDL
