MODEL 1
REMARK VINA RESULT:      -9.9      0.000      0.000
REMARK SMILES C[C@@H](CCO)SCc1cccc(/C=C/C(=O)NCCCCNC(=O)c2ccc(-c3c4nc(c(-c5c(F)cccc5F)c5ccc([nH]5)c(-c5c(F)cccc5F)c5nc(c(-c6c(F)cccc6F)c6ccc3[nH]6)C=C5)C=C4)cc2)c1
REMARK SMILES IDX 15 1 16 2 17 3 14 5 13 6 12 7 8 8 9 9 79 10 10 11 11 12 7 13
REMARK SMILES IDX 6 14 2 15 1 16 3 17 4 18 5 19 18 21 19 22 20 23 21 24 22 25
REMARK SMILES IDX 23 26 24 28 25 29 26 30 78 31 27 32 77 33 28 34 29 35 30 36
REMARK SMILES IDX 71 37 31 38 76 39 70 40 72 41 32 42 75 43 69 44 68 45 33 47
REMARK SMILES IDX 59 48 42 49 58 50 43 51 46 52 57 53 73 54 44 55 45 56 56 58
REMARK SMILES IDX 74 59 47 60 34 61 35 62 40 63 36 64 37 65 39 66 41 67 38 68
REMARK SMILES IDX 60 69 61 70 66 71 62 72 63 73 65 74 67 75 64 76 48 77 49 78
REMARK SMILES IDX 54 79 50 80 51 81 53 82 55 83 52 84
REMARK H PARENT 17 4 5 20 22 27 72 46 46 57
REMARK Flexibility Score: inf
ROOT
ATOM      1  C   UNL A   1      39.070  23.959  27.163  1.00  0.00     0.243 C 
ATOM      2  O   UNL A   1      39.107  24.802  28.054  1.00  0.00    -0.270 OA
ATOM      3  N   UNL A   1      39.866  22.858  27.235  1.00  0.00    -0.353 N 
ATOM      4  H   UNL A   1      40.489  22.844  27.998  1.00  0.00     0.163 HD
ENDROOT
BRANCH   1   5
ATOM      5  C   UNL A   1      38.081  24.087  26.072  1.00  0.00     0.072 C 
ATOM      6  C   UNL A   1      36.841  23.579  26.141  1.00  0.00     0.014 C 
BRANCH   6   7
ATOM      7  C   UNL A   1      35.822  23.731  25.096  1.00  0.00    -0.025 A 
ATOM      8  C   UNL A   1      34.063  25.131  24.125  1.00  0.00    -0.037 A 
ATOM      9  C   UNL A   1      33.732  24.090  23.250  1.00  0.00     0.004 A 
ATOM     10  C   UNL A   1      35.149  24.958  25.002  1.00  0.00     0.012 A 
ATOM     11  C   UNL A   1      34.410  22.872  23.320  1.00  0.00     0.001 A 
ATOM     12  C   UNL A   1      35.431  22.686  24.255  1.00  0.00     0.008 A 
BRANCH   8  13
ATOM     13  C   UNL A   1      33.243  26.395  24.176  1.00  0.00     0.105 C 
BRANCH  13  14
ATOM     14  S   UNL A   1      32.490  26.667  25.831  1.00  0.00    -0.154 SA
BRANCH  14  15
ATOM     15  C   UNL A   1      31.157  25.399  25.975  1.00  0.00     0.046 C 
ATOM     16  C   UNL A   1      30.290  25.206  24.736  1.00  0.00     0.019 C 
BRANCH  15  17
ATOM     17  C   UNL A   1      31.600  24.063  26.611  1.00  0.00     0.042 C 
BRANCH  17  18
ATOM     18  C   UNL A   1      30.645  22.885  26.497  1.00  0.00     0.157 C 
BRANCH  18  19
ATOM     19  O   UNL A   1      29.784  22.842  27.623  1.00  0.00    -0.396 OA
ATOM     20  H   UNL A   1      30.204  23.296  28.370  1.00  0.00     0.210 HD
ENDBRANCH  18  19
ENDBRANCH  17  18
ENDBRANCH  15  17
ENDBRANCH  14  15
ENDBRANCH  13  14
ENDBRANCH   8  13
ENDBRANCH   6   7
ENDBRANCH   1   5
BRANCH   3  21
ATOM     21  C   UNL A   1      39.944  21.697  26.364  1.00  0.00     0.116 C 
BRANCH  21  22
ATOM     22  C   UNL A   1      41.394  21.255  26.183  1.00  0.00     0.023 C 
BRANCH  22  23
ATOM     23  C   UNL A   1      41.572  19.737  26.069  1.00  0.00     0.023 C 
BRANCH  23  24
ATOM     24  C   UNL A   1      42.995  19.236  26.301  1.00  0.00     0.116 C 
BRANCH  24  25
ATOM     25  N   UNL A   1      43.661  18.806  25.081  1.00  0.00    -0.352 N 
ATOM     26  C   UNL A   1      44.486  19.530  24.253  1.00  0.00     0.251 C 
ATOM     27  H   UNL A   1      43.498  17.873  24.813  1.00  0.00     0.163 HD
ATOM     28  O   UNL A   1      44.886  19.055  23.203  1.00  0.00    -0.269 OA
BRANCH  26  29
ATOM     29  C   UNL A   1      44.849  20.913  24.631  1.00  0.00     0.039 A 
ATOM     30  C   UNL A   1      44.509  21.953  23.765  1.00  0.00     0.014 A 
ATOM     31  C   UNL A   1      45.483  21.180  25.847  1.00  0.00     0.014 A 
ATOM     32  C   UNL A   1      44.742  23.273  24.153  1.00  0.00     0.010 A 
ATOM     33  C   UNL A   1      45.653  22.497  26.260  1.00  0.00     0.010 A 
ATOM     34  C   UNL A   1      45.279  23.556  25.420  1.00  0.00    -0.014 A 
BRANCH  34  35
ATOM     35  C   UNL A   1      45.430  24.955  25.888  1.00  0.00     0.031 A 
ATOM     36  C   UNL A   1      46.775  25.625  25.862  1.00  0.00     0.074 A 
ATOM     37  C   UNL A   1      44.362  25.602  26.393  1.00  0.00     0.049 A 
ATOM     38  N   UNL A   1      47.108  26.825  26.264  1.00  0.00    -0.248 NA
ATOM     39  C   UNL A   1      47.900  24.832  25.341  1.00  0.00     0.031 C 
ATOM     40  C   UNL A   1      43.017  25.039  26.526  1.00  0.00     0.029 A 
ATOM     41  N   UNL A   1      44.240  26.872  26.897  1.00  0.00    -0.354 N 
ATOM     42  C   UNL A   1      48.476  26.928  26.053  1.00  0.00     0.074 A 
ATOM     43  C   UNL A   1      48.923  25.651  25.540  1.00  0.00     0.031 C 
ATOM     44  C   UNL A   1      42.201  25.966  27.050  1.00  0.00     0.029 A 
ATOM     45  C   UNL A   1      42.970  27.177  27.321  1.00  0.00     0.049 A 
ATOM     46  H   UNL A   1      44.992  27.506  26.948  1.00  0.00     0.167 HD
ATOM     47  C   UNL A   1      49.283  27.999  26.248  1.00  0.00     0.037 A 
ATOM     48  C   UNL A   1      42.481  28.306  27.867  1.00  0.00     0.037 A 
ATOM     49  C   UNL A   1      48.832  29.274  26.739  1.00  0.00     0.049 A 
ATOM     50  C   UNL A   1      43.397  29.479  28.070  1.00  0.00     0.074 A 
ATOM     51  C   UNL A   1      49.559  30.439  26.910  1.00  0.00     0.029 A 
ATOM     52  N   UNL A   1      47.534  29.550  27.143  1.00  0.00    -0.354 N 
ATOM     53  N   UNL A   1      44.674  29.589  27.793  1.00  0.00    -0.248 NA
ATOM     54  C   UNL A   1      42.803  30.689  28.656  1.00  0.00     0.031 C 
ATOM     55  C   UNL A   1      48.711  31.408  27.457  1.00  0.00     0.029 A 
ATOM     56  C   UNL A   1      47.445  30.861  27.584  1.00  0.00     0.049 A 
ATOM     57  H   UNL A   1      46.787  28.910  27.120  1.00  0.00     0.167 HD
ATOM     58  C   UNL A   1      45.031  30.884  28.147  1.00  0.00     0.074 A 
ATOM     59  C   UNL A   1      43.830  31.527  28.642  1.00  0.00     0.031 C 
ATOM     60  C   UNL A   1      46.243  31.485  28.073  1.00  0.00     0.037 A 
BRANCH  47  61
ATOM     61  C   UNL A   1      50.739  27.835  25.920  1.00  0.00     0.057 A 
ATOM     62  C   UNL A   1      51.674  27.451  26.889  1.00  0.00     0.134 A 
ATOM     63  C   UNL A   1      51.204  28.028  24.613  1.00  0.00     0.134 A 
ATOM     64  F   UNL A   1      51.296  27.261  28.162  1.00  0.00    -0.206 F 
ATOM     65  C   UNL A   1      53.026  27.290  26.577  1.00  0.00     0.040 A 
ATOM     66  C   UNL A   1      52.548  27.844  24.283  1.00  0.00     0.040 A 
ATOM     67  F   UNL A   1      50.362  28.391  23.635  1.00  0.00    -0.206 F 
ATOM     68  C   UNL A   1      53.465  27.480  25.268  1.00  0.00     0.006 A 
ENDBRANCH  47  61
BRANCH  48  69
ATOM     69  C   UNL A   1      41.046  28.392  28.239  1.00  0.00     0.057 A 
ATOM     70  C   UNL A   1      40.097  28.895  27.341  1.00  0.00     0.134 A 
ATOM     71  C   UNL A   1      40.591  27.984  29.498  1.00  0.00     0.134 A 
ATOM     72  F   UNL A   1      40.476  29.318  26.127  1.00  0.00    -0.206 F 
ATOM     73  C   UNL A   1      38.750  29.011  27.689  1.00  0.00     0.040 A 
ATOM     74  C   UNL A   1      39.243  28.070  29.850  1.00  0.00     0.040 A 
ATOM     75  F   UNL A   1      41.449  27.485  30.400  1.00  0.00    -0.206 F 
ATOM     76  C   UNL A   1      38.319  28.593  28.947  1.00  0.00     0.006 A 
ENDBRANCH  48  69
BRANCH  60  77
ATOM     77  C   UNL A   1      46.321  32.917  28.513  1.00  0.00     0.057 A 
ATOM     78  C   UNL A   1      46.087  33.976  27.626  1.00  0.00     0.134 A 
ATOM     79  C   UNL A   1      46.607  33.241  29.845  1.00  0.00     0.134 A 
ATOM     80  F   UNL A   1      45.821  33.734  26.333  1.00  0.00    -0.206 F 
ATOM     81  C   UNL A   1      46.161  35.306  28.043  1.00  0.00     0.040 A 
ATOM     82  C   UNL A   1      46.656  34.566  30.280  1.00  0.00     0.040 A 
ATOM     83  F   UNL A   1      46.833  32.274  30.749  1.00  0.00    -0.206 F 
ATOM     84  C   UNL A   1      46.440  35.604  29.375  1.00  0.00     0.006 A 
ENDBRANCH  60  77
ENDBRANCH  34  35
ENDBRANCH  26  29
ENDBRANCH  24  25
ENDBRANCH  23  24
ENDBRANCH  22  23
ENDBRANCH  21  22
ENDBRANCH   3  21
TORSDOF 18
ENDMDL
MODEL 2
REMARK VINA RESULT:      -9.9      2.022      2.955
REMARK SMILES C[C@@H](CCO)SCc1cccc(/C=C/C(=O)NCCCCNC(=O)c2ccc(-c3c4nc(c(-c5c(F)cccc5F)c5ccc([nH]5)c(-c5c(F)cccc5F)c5nc(c(-c6c(F)cccc6F)c6ccc3[nH]6)C=C5)C=C4)cc2)c1
REMARK SMILES IDX 15 1 16 2 17 3 14 5 13 6 12 7 8 8 9 9 79 10 10 11 11 12 7 13
REMARK SMILES IDX 6 14 2 15 1 16 3 17 4 18 5 19 18 21 19 22 20 23 21 24 22 25
REMARK SMILES IDX 23 26 24 28 25 29 26 30 78 31 27 32 77 33 28 34 29 35 30 36
REMARK SMILES IDX 71 37 31 38 76 39 70 40 72 41 32 42 75 43 69 44 68 45 33 47
REMARK SMILES IDX 59 48 42 49 58 50 43 51 46 52 57 53 73 54 44 55 45 56 56 58
REMARK SMILES IDX 74 59 47 60 34 61 35 62 40 63 36 64 37 65 39 66 41 67 38 68
REMARK SMILES IDX 60 69 61 70 66 71 62 72 63 73 65 74 67 75 64 76 48 77 49 78
REMARK SMILES IDX 54 79 50 80 51 81 53 82 55 83 52 84
REMARK H PARENT 17 4 5 20 22 27 72 46 46 57
REMARK Flexibility Score: inf
ROOT
ATOM      1  C   UNL A   1      38.336  23.763  26.481  1.00  0.00     0.243 C 
ATOM      2  O   UNL A   1      38.283  24.823  27.098  1.00  0.00    -0.270 OA
ATOM      3  N   UNL A   1      39.409  22.939  26.635  1.00  0.00    -0.353 N 
ATOM      4  H   UNL A   1      40.127  23.296  27.206  1.00  0.00     0.163 HD
ENDROOT
BRANCH   1   5
ATOM      5  C   UNL A   1      37.185  23.332  25.661  1.00  0.00     0.072 C 
ATOM      6  C   UNL A   1      36.106  24.101  25.449  1.00  0.00     0.014 C 
BRANCH   6   7
ATOM      7  C   UNL A   1      34.970  23.721  24.600  1.00  0.00    -0.025 A 
ATOM      8  C   UNL A   1      33.263  22.047  24.071  1.00  0.00    -0.037 A 
ATOM      9  C   UNL A   1      32.887  22.799  22.952  1.00  0.00     0.004 A 
ATOM     10  C   UNL A   1      34.266  22.552  24.918  1.00  0.00     0.012 A 
ATOM     11  C   UNL A   1      33.566  23.977  22.637  1.00  0.00     0.001 A 
ATOM     12  C   UNL A   1      34.618  24.421  23.441  1.00  0.00     0.008 A 
BRANCH   8  13
ATOM     13  C   UNL A   1      32.652  20.696  24.342  1.00  0.00     0.105 C 
BRANCH  13  14
ATOM     14  S   UNL A   1      33.927  19.414  24.676  1.00  0.00    -0.154 SA
BRANCH  14  15
ATOM     15  C   UNL A   1      33.243  17.852  23.970  1.00  0.00     0.046 C 
ATOM     16  C   UNL A   1      32.450  18.000  22.678  1.00  0.00     0.019 C 
BRANCH  15  17
ATOM     17  C   UNL A   1      34.236  16.669  23.932  1.00  0.00     0.042 C 
BRANCH  17  18
ATOM     18  C   UNL A   1      34.227  15.711  25.113  1.00  0.00     0.157 C 
BRANCH  18  19
ATOM     19  O   UNL A   1      35.448  14.993  25.171  1.00  0.00    -0.396 OA
ATOM     20  H   UNL A   1      35.670  14.806  26.097  1.00  0.00     0.210 HD
ENDBRANCH  18  19
ENDBRANCH  17  18
ENDBRANCH  15  17
ENDBRANCH  14  15
ENDBRANCH  13  14
ENDBRANCH   8  13
ENDBRANCH   6   7
ENDBRANCH   1   5
BRANCH   3  21
ATOM     21  C   UNL A   1      39.662  21.617  26.090  1.00  0.00     0.116 C 
BRANCH  21  22
ATOM     22  C   UNL A   1      41.133  21.239  26.253  1.00  0.00     0.023 C 
BRANCH  22  23
ATOM     23  C   UNL A   1      41.426  19.757  25.998  1.00  0.00     0.023 C 
BRANCH  23  24
ATOM     24  C   UNL A   1      42.860  19.324  26.292  1.00  0.00     0.116 C 
BRANCH  24  25
ATOM     25  N   UNL A   1      43.581  18.880  25.109  1.00  0.00    -0.352 N 
ATOM     26  C   UNL A   1      44.457  19.589  24.321  1.00  0.00     0.251 C 
ATOM     27  H   UNL A   1      43.421  17.947  24.837  1.00  0.00     0.163 HD
ATOM     28  O   UNL A   1      44.903  19.102  23.294  1.00  0.00    -0.269 OA
BRANCH  26  29
ATOM     29  C   UNL A   1      44.819  20.968  24.711  1.00  0.00     0.039 A 
ATOM     30  C   UNL A   1      44.444  22.019  23.871  1.00  0.00     0.014 A 
ATOM     31  C   UNL A   1      45.485  21.222  25.912  1.00  0.00     0.014 A 
ATOM     32  C   UNL A   1      44.677  23.335  24.274  1.00  0.00     0.010 A 
ATOM     33  C   UNL A   1      45.655  22.533  26.341  1.00  0.00     0.010 A 
ATOM     34  C   UNL A   1      45.248  23.602  25.529  1.00  0.00    -0.014 A 
BRANCH  34  35
ATOM     35  C   UNL A   1      45.400  24.995  26.015  1.00  0.00     0.031 A 
ATOM     36  C   UNL A   1      46.742  25.670  25.982  1.00  0.00     0.074 A 
ATOM     37  C   UNL A   1      44.336  25.631  26.543  1.00  0.00     0.049 A 
ATOM     38  N   UNL A   1      47.075  26.866  26.396  1.00  0.00    -0.248 NA
ATOM     39  C   UNL A   1      47.863  24.890  25.434  1.00  0.00     0.031 C 
ATOM     40  C   UNL A   1      42.995  25.060  26.686  1.00  0.00     0.029 A 
ATOM     41  N   UNL A   1      44.216  26.893  27.067  1.00  0.00    -0.354 N 
ATOM     42  C   UNL A   1      48.440  26.977  26.170  1.00  0.00     0.074 A 
ATOM     43  C   UNL A   1      48.885  25.710  25.632  1.00  0.00     0.031 C 
ATOM     44  C   UNL A   1      42.182  25.977  27.234  1.00  0.00     0.029 A 
ATOM     45  C   UNL A   1      42.950  27.187  27.512  1.00  0.00     0.049 A 
ATOM     46  H   UNL A   1      44.966  27.528  27.117  1.00  0.00     0.167 HD
ATOM     47  C   UNL A   1      49.246  28.048  26.369  1.00  0.00     0.037 A 
ATOM     48  C   UNL A   1      42.464  28.306  28.080  1.00  0.00     0.037 A 
ATOM     49  C   UNL A   1      48.796  29.314  26.885  1.00  0.00     0.049 A 
ATOM     50  C   UNL A   1      43.379  29.480  28.288  1.00  0.00     0.074 A 
ATOM     51  C   UNL A   1      49.521  30.480  27.062  1.00  0.00     0.029 A 
ATOM     52  N   UNL A   1      47.503  29.580  27.309  1.00  0.00    -0.354 N 
ATOM     53  N   UNL A   1      44.652  29.598  27.996  1.00  0.00    -0.248 NA
ATOM     54  C   UNL A   1      42.787  30.679  28.899  1.00  0.00     0.031 C 
ATOM     55  C   UNL A   1      48.678  31.437  27.634  1.00  0.00     0.029 A 
ATOM     56  C   UNL A   1      47.415  30.883  27.770  1.00  0.00     0.049 A 
ATOM     57  H   UNL A   1      46.758  28.937  27.286  1.00  0.00     0.167 HD
ATOM     58  C   UNL A   1      45.008  30.889  28.365  1.00  0.00     0.074 A 
ATOM     59  C   UNL A   1      43.812  31.520  28.884  1.00  0.00     0.031 C 
ATOM     60  C   UNL A   1      46.217  31.496  28.283  1.00  0.00     0.037 A 
BRANCH  47  61
ATOM     61  C   UNL A   1      50.698  27.894  26.019  1.00  0.00     0.057 A 
ATOM     62  C   UNL A   1      51.158  28.037  24.704  1.00  0.00     0.134 A 
ATOM     63  C   UNL A   1      51.650  27.636  27.014  1.00  0.00     0.134 A 
ATOM     64  F   UNL A   1      50.297  28.272  23.703  1.00  0.00    -0.206 F 
ATOM     65  C   UNL A   1      52.512  27.903  24.385  1.00  0.00     0.040 A 
ATOM     66  C   UNL A   1      53.008  27.527  26.711  1.00  0.00     0.040 A 
ATOM     67  F   UNL A   1      51.279  27.495  28.294  1.00  0.00    -0.206 F 
ATOM     68  C   UNL A   1      53.442  27.654  25.392  1.00  0.00     0.006 A 
ENDBRANCH  47  61
BRANCH  48  69
ATOM     69  C   UNL A   1      41.034  28.381  28.472  1.00  0.00     0.057 A 
ATOM     70  C   UNL A   1      40.621  28.031  29.764  1.00  0.00     0.134 A 
ATOM     71  C   UNL A   1      40.048  28.794  27.569  1.00  0.00     0.134 A 
ATOM     72  F   UNL A   1      41.518  27.611  30.668  1.00  0.00    -0.206 F 
ATOM     73  C   UNL A   1      39.276  28.067  30.137  1.00  0.00     0.040 A 
ATOM     74  C   UNL A   1      38.703  28.859  27.936  1.00  0.00     0.040 A 
ATOM     75  F   UNL A   1      40.380  29.150  26.320  1.00  0.00    -0.206 F 
ATOM     76  C   UNL A   1      38.313  28.487  29.221  1.00  0.00     0.006 A 
ENDBRANCH  48  69
BRANCH  60  77
ATOM     77  C   UNL A   1      46.296  32.922  28.742  1.00  0.00     0.057 A 
ATOM     78  C   UNL A   1      46.633  33.256  30.060  1.00  0.00     0.134 A 
ATOM     79  C   UNL A   1      46.058  33.974  27.848  1.00  0.00     0.134 A 
ATOM     80  F   UNL A   1      46.859  32.295  30.969  1.00  0.00    -0.206 F 
ATOM     81  C   UNL A   1      46.706  34.586  30.480  1.00  0.00     0.040 A 
ATOM     82  C   UNL A   1      46.155  35.308  28.249  1.00  0.00     0.040 A 
ATOM     83  F   UNL A   1      45.740  33.724  26.569  1.00  0.00    -0.206 F 
ATOM     84  C   UNL A   1      46.472  35.616  29.570  1.00  0.00     0.006 A 
ENDBRANCH  60  77
ENDBRANCH  34  35
ENDBRANCH  26  29
ENDBRANCH  24  25
ENDBRANCH  23  24
ENDBRANCH  22  23
ENDBRANCH  21  22
ENDBRANCH   3  21
TORSDOF 18
ENDMDL
MODEL 3
REMARK VINA RESULT:      -9.8      6.467     11.098
REMARK SMILES C[C@@H](CCO)SCc1cccc(/C=C/C(=O)NCCCCNC(=O)c2ccc(-c3c4nc(c(-c5c(F)cccc5F)c5ccc([nH]5)c(-c5c(F)cccc5F)c5nc(c(-c6c(F)cccc6F)c6ccc3[nH]6)C=C5)C=C4)cc2)c1
REMARK SMILES IDX 15 1 16 2 17 3 14 5 13 6 12 7 8 8 9 9 79 10 10 11 11 12 7 13
REMARK SMILES IDX 6 14 2 15 1 16 3 17 4 18 5 19 18 21 19 22 20 23 21 24 22 25
REMARK SMILES IDX 23 26 24 28 25 29 26 30 78 31 27 32 77 33 28 34 29 35 30 36
REMARK SMILES IDX 71 37 31 38 76 39 70 40 72 41 32 42 75 43 69 44 68 45 33 47
REMARK SMILES IDX 59 48 42 49 58 50 43 51 46 52 57 53 73 54 44 55 45 56 56 58
REMARK SMILES IDX 74 59 47 60 34 61 35 62 40 63 36 64 37 65 39 66 41 67 38 68
REMARK SMILES IDX 60 69 61 70 66 71 62 72 63 73 65 74 67 75 64 76 48 77 49 78
REMARK SMILES IDX 54 79 50 80 51 81 53 82 55 83 52 84
REMARK H PARENT 17 4 5 20 22 27 72 46 46 57
REMARK Flexibility Score: inf
ROOT
ATOM      1  C   UNL A   1      30.632  28.463  23.718  1.00  0.00     0.243 C 
ATOM      2  O   UNL A   1      30.104  28.351  22.615  1.00  0.00    -0.270 OA
ATOM      3  N   UNL A   1      31.098  29.674  24.128  1.00  0.00    -0.353 N 
ATOM      4  H   UNL A   1      31.033  30.393  23.459  1.00  0.00     0.163 HD
ENDROOT
BRANCH   1   5
ATOM      5  C   UNL A   1      30.661  27.308  24.640  1.00  0.00     0.072 C 
ATOM      6  C   UNL A   1      31.467  26.250  24.466  1.00  0.00     0.014 C 
BRANCH   6   7
ATOM      7  C   UNL A   1      31.554  25.112  25.389  1.00  0.00    -0.025 A 
ATOM      8  C   UNL A   1      32.924  23.296  26.296  1.00  0.00    -0.037 A 
ATOM      9  C   UNL A   1      31.810  22.818  26.994  1.00  0.00     0.004 A 
ATOM     10  C   UNL A   1      32.795  24.478  25.544  1.00  0.00     0.012 A 
ATOM     11  C   UNL A   1      30.574  23.454  26.865  1.00  0.00     0.001 A 
ATOM     12  C   UNL A   1      30.442  24.578  26.046  1.00  0.00     0.008 A 
BRANCH   8  13
ATOM     13  C   UNL A   1      34.227  22.537  26.294  1.00  0.00     0.105 C 
BRANCH  13  14
ATOM     14  S   UNL A   1      34.455  21.555  24.756  1.00  0.00    -0.154 SA
BRANCH  14  15
ATOM     15  C   UNL A   1      32.759  21.030  24.256  1.00  0.00     0.046 C 
ATOM     16  C   UNL A   1      32.197  21.703  23.010  1.00  0.00     0.019 C 
BRANCH  15  17
ATOM     17  C   UNL A   1      32.522  19.504  24.273  1.00  0.00     0.042 C 
BRANCH  17  18
ATOM     18  C   UNL A   1      33.310  18.685  25.282  1.00  0.00     0.157 C 
BRANCH  18  19
ATOM     19  O   UNL A   1      32.528  18.452  26.442  1.00  0.00    -0.396 OA
ATOM     20  H   UNL A   1      32.068  19.269  26.692  1.00  0.00     0.210 HD
ENDBRANCH  18  19
ENDBRANCH  17  18
ENDBRANCH  15  17
ENDBRANCH  14  15
ENDBRANCH  13  14
ENDBRANCH   8  13
ENDBRANCH   6   7
ENDBRANCH   1   5
BRANCH   3  21
ATOM     21  C   UNL A   1      31.678  30.075  25.399  1.00  0.00     0.116 C 
BRANCH  21  22
ATOM     22  C   UNL A   1      31.129  31.431  25.839  1.00  0.00     0.023 C 
BRANCH  22  23
ATOM     23  C   UNL A   1      31.589  31.865  27.234  1.00  0.00     0.023 C 
BRANCH  23  24
ATOM     24  C   UNL A   1      32.791  32.806  27.251  1.00  0.00     0.116 C 
BRANCH  24  25
ATOM     25  N   UNL A   1      32.444  34.177  27.596  1.00  0.00    -0.352 N 
ATOM     26  C   UNL A   1      33.007  34.990  28.551  1.00  0.00     0.251 C 
ATOM     27  H   UNL A   1      31.709  34.574  27.075  1.00  0.00     0.163 HD
ATOM     28  O   UNL A   1      32.531  36.088  28.792  1.00  0.00    -0.269 OA
BRANCH  26  29
ATOM     29  C   UNL A   1      34.173  34.499  29.316  1.00  0.00     0.039 A 
ATOM     30  C   UNL A   1      33.952  33.893  30.554  1.00  0.00     0.014 A 
ATOM     31  C   UNL A   1      35.465  34.601  28.796  1.00  0.00     0.014 A 
ATOM     32  C   UNL A   1      35.025  33.324  31.241  1.00  0.00     0.010 A 
ATOM     33  C   UNL A   1      36.522  33.974  29.449  1.00  0.00     0.010 A 
ATOM     34  C   UNL A   1      36.311  33.325  30.674  1.00  0.00    -0.014 A 
BRANCH  34  35
ATOM     35  C   UNL A   1      37.437  32.628  31.341  1.00  0.00     0.031 A 
ATOM     36  C   UNL A   1      38.125  31.475  30.666  1.00  0.00     0.074 A 
ATOM     37  C   UNL A   1      37.800  32.997  32.585  1.00  0.00     0.049 A 
ATOM     38  N   UNL A   1      39.100  30.722  31.107  1.00  0.00    -0.248 NA
ATOM     39  C   UNL A   1      37.636  31.103  29.328  1.00  0.00     0.031 C 
ATOM     40  C   UNL A   1      37.170  34.062  33.369  1.00  0.00     0.029 A 
ATOM     41  N   UNL A   1      38.781  32.513  33.412  1.00  0.00    -0.354 N 
ATOM     42  C   UNL A   1      39.333  29.785  30.110  1.00  0.00     0.074 A 
ATOM     43  C   UNL A   1      38.364  30.028  29.064  1.00  0.00     0.031 C 
ATOM     44  C   UNL A   1      37.797  34.168  34.551  1.00  0.00     0.029 A 
ATOM     45  C   UNL A   1      38.850  33.159  34.623  1.00  0.00     0.049 A 
ATOM     46  H   UNL A   1      39.381  31.774  33.161  1.00  0.00     0.167 HD
ATOM     47  C   UNL A   1      40.287  28.823  30.060  1.00  0.00     0.037 A 
ATOM     48  C   UNL A   1      39.668  32.959  35.672  1.00  0.00     0.037 A 
ATOM     49  C   UNL A   1      41.263  28.597  31.093  1.00  0.00     0.049 A 
ATOM     50  C   UNL A   1      40.718  31.888  35.590  1.00  0.00     0.074 A 
ATOM     51  C   UNL A   1      42.310  27.691  31.108  1.00  0.00     0.029 A 
ATOM     52  N   UNL A   1      41.311  29.283  32.298  1.00  0.00    -0.354 N 
ATOM     53  N   UNL A   1      40.979  31.059  34.607  1.00  0.00    -0.248 NA
ATOM     54  C   UNL A   1      41.592  31.727  36.761  1.00  0.00     0.031 C 
ATOM     55  C   UNL A   1      42.964  27.798  32.339  1.00  0.00     0.029 A 
ATOM     56  C   UNL A   1      42.355  28.803  33.073  1.00  0.00     0.049 A 
ATOM     57  H   UNL A   1      40.694  30.003  32.563  1.00  0.00     0.167 HD
ATOM     58  C   UNL A   1      42.060  30.296  35.030  1.00  0.00     0.074 A 
ATOM     59  C   UNL A   1      42.417  30.774  36.350  1.00  0.00     0.031 C 
ATOM     60  C   UNL A   1      42.697  29.290  34.385  1.00  0.00     0.037 A 
BRANCH  47  61
ATOM     61  C   UNL A   1      40.321  27.947  28.841  1.00  0.00     0.057 A 
ATOM     62  C   UNL A   1      41.064  28.294  27.706  1.00  0.00     0.134 A 
ATOM     63  C   UNL A   1      39.633  26.728  28.816  1.00  0.00     0.134 A 
ATOM     64  F   UNL A   1      41.736  29.455  27.660  1.00  0.00    -0.206 F 
ATOM     65  C   UNL A   1      41.102  27.472  26.577  1.00  0.00     0.040 A 
ATOM     66  C   UNL A   1      39.685  25.885  27.705  1.00  0.00     0.040 A 
ATOM     67  F   UNL A   1      38.908  26.332  29.871  1.00  0.00    -0.206 F 
ATOM     68  C   UNL A   1      40.415  26.259  26.578  1.00  0.00     0.006 A 
ENDBRANCH  47  61
BRANCH  48  69
ATOM     69  C   UNL A   1      39.546  33.809  36.884  1.00  0.00     0.057 A 
ATOM     70  C   UNL A   1      38.753  33.409  37.968  1.00  0.00     0.134 A 
ATOM     71  C   UNL A   1      40.206  35.038  36.986  1.00  0.00     0.134 A 
ATOM     72  F   UNL A   1      38.082  32.249  37.921  1.00  0.00    -0.206 F 
ATOM     73  C   UNL A   1      38.605  34.212  39.100  1.00  0.00     0.040 A 
ATOM     74  C   UNL A   1      40.086  35.839  38.123  1.00  0.00     0.040 A 
ATOM     75  F   UNL A   1      40.986  35.473  35.986  1.00  0.00    -0.206 F 
ATOM     76  C   UNL A   1      39.277  35.430  39.181  1.00  0.00     0.006 A 
ENDBRANCH  48  69
BRANCH  60  77
ATOM     77  C   UNL A   1      43.861  28.658  35.089  1.00  0.00     0.057 A 
ATOM     78  C   UNL A   1      43.707  27.531  35.907  1.00  0.00     0.134 A 
ATOM     79  C   UNL A   1      45.157  29.166  34.925  1.00  0.00     0.134 A 
ATOM     80  F   UNL A   1      42.491  27.004  36.116  1.00  0.00    -0.206 F 
ATOM     81  C   UNL A   1      44.796  26.948  36.558  1.00  0.00     0.040 A 
ATOM     82  C   UNL A   1      46.257  28.575  35.548  1.00  0.00     0.040 A 
ATOM     83  F   UNL A   1      45.376  30.238  34.148  1.00  0.00    -0.206 F 
ATOM     84  C   UNL A   1      46.076  27.467  36.374  1.00  0.00     0.006 A 
ENDBRANCH  60  77
ENDBRANCH  34  35
ENDBRANCH  26  29
ENDBRANCH  24  25
ENDBRANCH  23  24
ENDBRANCH  22  23
ENDBRANCH  21  22
ENDBRANCH   3  21
TORSDOF 18
ENDMDL
