MODEL 1
REMARK VINA RESULT:     -11.9      0.000      0.000
REMARK SMILES C[C@@H](NC(=O)[C@H]1CC=CC[C@@H]1C(=O)NCCCCNC(=O)c1ccc(-c2c3nc(c(-c4c(F)cccc4F)c4ccc([nH]4)c(-c4c(F)cccc4F)c4nc(c(-c5c(F)cccc5F)c5ccc2[nH]5)C=C4)C=C3)cc1)c1ccc(-n2ccnc2)cc1
REMARK SMILES IDX 15 1 14 2 12 3 13 4 11 6 6 7 7 8 8 9 10 10 9 11 4 12 3 13
REMARK SMILES IDX 5 15 2 16 1 17 76 18 77 19 86 20 78 21 85 22 79 23 80 24
REMARK SMILES IDX 81 25 84 26 82 27 83 28 16 29 17 30 18 31 19 32 20 33 21 35
REMARK SMILES IDX 22 36 23 37 75 38 24 39 74 40 25 41 26 42 27 43 68 44 28 45
REMARK SMILES IDX 73 46 67 47 69 48 29 49 72 50 66 51 65 52 30 54 56 55 39 56
REMARK SMILES IDX 55 57 40 58 43 59 54 60 70 61 41 62 42 63 53 65 71 66 44 67
REMARK SMILES IDX 31 68 32 69 37 70 33 71 34 72 36 73 38 74 35 75 57 76 58 77
REMARK SMILES IDX 63 78 59 79 60 80 62 81 64 82 61 83 45 84 46 85 51 86 47 87
REMARK SMILES IDX 48 88 50 89 52 90 49 91
REMARK H PARENT 14 5 3 14 19 34 69 53 43 64
REMARK Flexibility Score: inf
ROOT
ATOM      1  C   UNL A   1      33.742  28.005  26.134  1.00  0.00     0.116 C 
ENDROOT
BRANCH   1   2
ATOM      2  N   UNL A   1      32.580  27.429  26.782  1.00  0.00    -0.356 N 
ATOM      3  C   UNL A   1      31.890  26.289  26.494  1.00  0.00     0.224 C 
ATOM      4  O   UNL A   1      30.858  26.089  27.135  1.00  0.00    -0.275 OA
ATOM      5  H   UNL A   1      32.236  27.940  27.549  1.00  0.00     0.163 HD
BRANCH   3   6
ATOM      6  C   UNL A   1      32.409  25.323  25.423  1.00  0.00     0.095 C 
ATOM      7  C   UNL A   1      31.278  24.383  24.930  1.00  0.00     0.095 C 
ATOM      8  C   UNL A   1      30.991  23.258  25.948  1.00  0.00     0.041 C 
ATOM      9  C   UNL A   1      32.140  22.772  26.771  1.00  0.00    -0.030 C 
ATOM     10  C   UNL A   1      33.649  24.576  25.963  1.00  0.00     0.041 C 
ATOM     11  C   UNL A   1      33.344  23.350  26.765  1.00  0.00    -0.030 C 
BRANCH   7  12
ATOM     12  C   UNL A   1      31.584  23.780  23.558  1.00  0.00     0.224 C 
ATOM     13  N   UNL A   1      31.540  24.509  22.403  1.00  0.00    -0.349 N 
ATOM     14  H   UNL A   1      31.048  24.044  21.689  1.00  0.00     0.164 HD
ATOM     15  O   UNL A   1      31.778  22.569  23.421  1.00  0.00    -0.275 OA
BRANCH  13  16
ATOM     16  C   UNL A   1      32.053  25.833  21.962  1.00  0.00     0.109 C 
ATOM     17  C   UNL A   1      33.568  25.867  22.210  1.00  0.00     0.036 C 
BRANCH  16  18
ATOM     18  C   UNL A   1      31.301  27.067  22.428  1.00  0.00    -0.026 A 
ATOM     19  C   UNL A   1      31.949  28.303  22.475  1.00  0.00     0.008 A 
ATOM     20  C   UNL A   1      29.962  27.032  22.860  1.00  0.00     0.008 A 
ATOM     21  C   UNL A   1      31.220  29.487  22.592  1.00  0.00     0.027 A 
ATOM     22  C   UNL A   1      29.239  28.209  23.088  1.00  0.00     0.027 A 
ATOM     23  C   UNL A   1      29.844  29.436  22.817  1.00  0.00     0.046 A 
BRANCH  23  24
ATOM     24  N   UNL A   1      29.042  30.581  22.588  1.00  0.00    -0.306 N 
ATOM     25  C   UNL A   1      28.559  31.052  21.389  1.00  0.00     0.113 A 
ATOM     26  C   UNL A   1      28.764  31.562  23.517  1.00  0.00     0.204 A 
ATOM     27  C   UNL A   1      28.028  32.292  21.658  1.00  0.00     0.131 A 
ATOM     28  N   UNL A   1      28.161  32.601  22.983  1.00  0.00    -0.245 NA
ENDBRANCH  23  24
ENDBRANCH  16  18
ENDBRANCH  13  16
ENDBRANCH   7  12
ENDBRANCH   3   6
ENDBRANCH   1   2
BRANCH   1  29
ATOM     29  C   UNL A   1      33.854  29.486  26.481  1.00  0.00     0.023 C 
BRANCH  29  30
ATOM     30  C   UNL A   1      32.771  30.347  25.829  1.00  0.00     0.023 C 
BRANCH  30  31
ATOM     31  C   UNL A   1      31.779  30.887  26.848  1.00  0.00     0.116 C 
BRANCH  31  32
ATOM     32  N   UNL A   1      31.813  32.343  26.923  1.00  0.00    -0.352 N 
ATOM     33  C   UNL A   1      32.644  33.236  27.557  1.00  0.00     0.251 C 
ATOM     34  H   UNL A   1      31.090  32.777  26.413  1.00  0.00     0.163 HD
ATOM     35  O   UNL A   1      32.267  34.406  27.628  1.00  0.00    -0.269 OA
BRANCH  33  36
ATOM     36  C   UNL A   1      33.944  32.860  28.179  1.00  0.00     0.039 A 
ATOM     37  C   UNL A   1      35.114  33.483  27.713  1.00  0.00     0.014 A 
ATOM     38  C   UNL A   1      34.074  31.861  29.139  1.00  0.00     0.014 A 
ATOM     39  C   UNL A   1      36.370  33.144  28.238  1.00  0.00     0.010 A 
ATOM     40  C   UNL A   1      35.304  31.608  29.747  1.00  0.00     0.010 A 
ATOM     41  C   UNL A   1      36.475  32.226  29.291  1.00  0.00    -0.014 A 
BRANCH  41  42
ATOM     42  C   UNL A   1      37.775  31.843  29.912  1.00  0.00     0.031 A 
ATOM     43  C   UNL A   1      38.531  30.644  29.392  1.00  0.00     0.074 A 
ATOM     44  C   UNL A   1      38.227  32.485  31.007  1.00  0.00     0.049 A 
ATOM     45  N   UNL A   1      39.536  29.996  29.927  1.00  0.00    -0.248 NA
ATOM     46  C   UNL A   1      38.063  30.068  28.120  1.00  0.00     0.031 C 
ATOM     47  C   UNL A   1      37.589  33.639  31.643  1.00  0.00     0.029 A 
ATOM     48  N   UNL A   1      39.320  32.233  31.801  1.00  0.00    -0.354 N 
ATOM     49  C   UNL A   1      39.773  28.906  29.097  1.00  0.00     0.074 A 
ATOM     50  C   UNL A   1      38.792  28.965  28.035  1.00  0.00     0.031 C 
ATOM     51  C   UNL A   1      38.303  33.999  32.721  1.00  0.00     0.029 A 
ATOM     52  C   UNL A   1      39.418  33.070  32.886  1.00  0.00     0.049 A 
ATOM     53  H   UNL A   1      39.971  31.519  31.611  1.00  0.00     0.167 HD
ATOM     54  C   UNL A   1      40.728  27.952  29.199  1.00  0.00     0.037 A 
ATOM     55  C   UNL A   1      40.287  33.076  33.915  1.00  0.00     0.037 A 
ATOM     56  C   UNL A   1      41.760  27.942  30.201  1.00  0.00     0.049 A 
ATOM     57  C   UNL A   1      41.363  32.028  33.986  1.00  0.00     0.074 A 
ATOM     58  C   UNL A   1      42.839  27.083  30.317  1.00  0.00     0.029 A 
ATOM     59  N   UNL A   1      41.850  28.843  31.250  1.00  0.00    -0.354 N 
ATOM     60  N   UNL A   1      41.603  31.034  33.166  1.00  0.00    -0.248 NA
ATOM     61  C   UNL A   1      42.286  32.100  35.128  1.00  0.00     0.031 C 
ATOM     62  C   UNL A   1      43.565  27.444  31.457  1.00  0.00     0.029 A 
ATOM     63  C   UNL A   1      42.956  28.548  32.029  1.00  0.00     0.049 A 
ATOM     64  H   UNL A   1      41.220  29.581  31.418  1.00  0.00     0.167 HD
ATOM     65  C   UNL A   1      42.714  30.378  33.681  1.00  0.00     0.074 A 
ATOM     66  C   UNL A   1      43.110  31.093  34.875  1.00  0.00     0.031 C 
ATOM     67  C   UNL A   1      43.347  29.278  33.207  1.00  0.00     0.037 A 
BRANCH  54  68
ATOM     68  C   UNL A   1      40.714  26.835  28.195  1.00  0.00     0.057 A 
ATOM     69  C   UNL A   1      41.563  26.824  27.082  1.00  0.00     0.134 A 
ATOM     70  C   UNL A   1      39.873  25.729  28.376  1.00  0.00     0.134 A 
ATOM     71  F   UNL A   1      42.386  27.857  26.846  1.00  0.00    -0.206 F 
ATOM     72  C   UNL A   1      41.559  25.767  26.171  1.00  0.00     0.040 A 
ATOM     73  C   UNL A   1      39.878  24.653  27.487  1.00  0.00     0.040 A 
ATOM     74  F   UNL A   1      39.040  25.670  29.427  1.00  0.00    -0.206 F 
ATOM     75  C   UNL A   1      40.720  24.673  26.377  1.00  0.00     0.006 A 
ENDBRANCH  54  68
BRANCH  55  76
ATOM     76  C   UNL A   1      40.179  34.112  34.972  1.00  0.00     0.057 A 
ATOM     77  C   UNL A   1      40.835  35.342  34.841  1.00  0.00     0.134 A 
ATOM     78  C   UNL A   1      39.434  33.897  36.137  1.00  0.00     0.134 A 
ATOM     79  F   UNL A   1      41.582  35.596  33.756  1.00  0.00    -0.206 F 
ATOM     80  C   UNL A   1      40.768  36.315  35.839  1.00  0.00     0.040 A 
ATOM     81  C   UNL A   1      39.340  34.871  37.133  1.00  0.00     0.040 A 
ATOM     82  F   UNL A   1      38.782  32.741  36.320  1.00  0.00    -0.206 F 
ATOM     83  C   UNL A   1      40.014  36.083  36.987  1.00  0.00     0.006 A 
ENDBRANCH  55  76
BRANCH  67  84
ATOM     84  C   UNL A   1      44.553  28.800  33.956  1.00  0.00     0.057 A 
ATOM     85  C   UNL A   1      44.459  27.824  34.956  1.00  0.00     0.134 A 
ATOM     86  C   UNL A   1      45.829  29.283  33.637  1.00  0.00     0.134 A 
ATOM     87  F   UNL A   1      43.264  27.332  35.315  1.00  0.00    -0.206 F 
ATOM     88  C   UNL A   1      45.592  27.355  35.623  1.00  0.00     0.040 A 
ATOM     89  C   UNL A   1      46.970  28.806  34.283  1.00  0.00     0.040 A 
ATOM     90  F   UNL A   1      45.987  30.213  32.684  1.00  0.00    -0.206 F 
ATOM     91  C   UNL A   1      46.853  27.841  35.281  1.00  0.00     0.006 A 
ENDBRANCH  67  84
ENDBRANCH  41  42
ENDBRANCH  33  36
ENDBRANCH  31  32
ENDBRANCH  30  31
ENDBRANCH  29  30
ENDBRANCH   1  29
TORSDOF 15
ENDMDL
MODEL 2
REMARK VINA RESULT:     -11.7      4.776      9.302
REMARK SMILES C[C@@H](NC(=O)[C@H]1CC=CC[C@@H]1C(=O)NCCCCNC(=O)c1ccc(-c2c3nc(c(-c4c(F)cccc4F)c4ccc([nH]4)c(-c4c(F)cccc4F)c4nc(c(-c5c(F)cccc5F)c5ccc2[nH]5)C=C4)C=C3)cc1)c1ccc(-n2ccnc2)cc1
REMARK SMILES IDX 15 1 14 2 12 3 13 4 11 6 6 7 7 8 8 9 10 10 9 11 4 12 3 13
REMARK SMILES IDX 5 15 2 16 1 17 76 18 77 19 86 20 78 21 85 22 79 23 80 24
REMARK SMILES IDX 81 25 84 26 82 27 83 28 16 29 17 30 18 31 19 32 20 33 21 35
REMARK SMILES IDX 22 36 23 37 75 38 24 39 74 40 25 41 26 42 27 43 68 44 28 45
REMARK SMILES IDX 73 46 67 47 69 48 29 49 72 50 66 51 65 52 30 54 56 55 39 56
REMARK SMILES IDX 55 57 40 58 43 59 54 60 70 61 41 62 42 63 53 65 71 66 44 67
REMARK SMILES IDX 31 68 32 69 37 70 33 71 34 72 36 73 38 74 35 75 57 76 58 77
REMARK SMILES IDX 63 78 59 79 60 80 62 81 64 82 61 83 45 84 46 85 51 86 47 87
REMARK SMILES IDX 48 88 50 89 52 90 49 91
REMARK H PARENT 14 5 3 14 19 34 69 53 43 64
REMARK Flexibility Score: inf
ROOT
ATOM      1  C   UNL A   1      36.770  21.553  25.361  1.00  0.00     0.116 C 
ENDROOT
BRANCH   1   2
ATOM      2  N   UNL A   1      35.935  21.858  26.505  1.00  0.00    -0.356 N 
ATOM      3  C   UNL A   1      34.796  22.604  26.587  1.00  0.00     0.224 C 
ATOM      4  O   UNL A   1      34.345  22.804  27.715  1.00  0.00    -0.275 OA
ATOM      5  H   UNL A   1      36.236  21.465  27.357  1.00  0.00     0.163 HD
BRANCH   3   6
ATOM      6  C   UNL A   1      34.137  23.145  25.314  1.00  0.00     0.095 C 
ATOM      7  C   UNL A   1      33.279  24.401  25.625  1.00  0.00     0.095 C 
ATOM      8  C   UNL A   1      31.934  24.021  26.282  1.00  0.00     0.041 C 
ATOM      9  C   UNL A   1      31.331  22.710  25.894  1.00  0.00    -0.030 C 
ATOM     10  C   UNL A   1      33.349  22.009  24.622  1.00  0.00     0.041 C 
ATOM     11  C   UNL A   1      31.956  21.811  25.130  1.00  0.00    -0.030 C 
BRANCH   7  12
ATOM     12  C   UNL A   1      33.031  25.253  24.379  1.00  0.00     0.224 C 
ATOM     13  N   UNL A   1      31.798  25.744  24.053  1.00  0.00    -0.349 N 
ATOM     14  H   UNL A   1      31.577  25.596  23.106  1.00  0.00     0.164 HD
ATOM     15  O   UNL A   1      33.921  25.441  23.546  1.00  0.00    -0.275 OA
BRANCH  13  16
ATOM     16  C   UNL A   1      30.709  26.447  24.780  1.00  0.00     0.109 C 
ATOM     17  C   UNL A   1      29.488  26.530  23.851  1.00  0.00     0.036 C 
BRANCH  16  18
ATOM     18  C   UNL A   1      31.060  27.743  25.489  1.00  0.00    -0.026 A 
ATOM     19  C   UNL A   1      31.407  27.726  26.842  1.00  0.00     0.008 A 
ATOM     20  C   UNL A   1      31.023  28.998  24.856  1.00  0.00     0.008 A 
ATOM     21  C   UNL A   1      32.029  28.827  27.434  1.00  0.00     0.027 A 
ATOM     22  C   UNL A   1      31.545  30.142  25.473  1.00  0.00     0.027 A 
ATOM     23  C   UNL A   1      32.171  30.013  26.713  1.00  0.00     0.046 A 
BRANCH  23  24
ATOM     24  N   UNL A   1      33.089  31.003  27.143  1.00  0.00    -0.306 N 
ATOM     25  C   UNL A   1      34.384  30.826  27.575  1.00  0.00     0.113 A 
ATOM     26  C   UNL A   1      32.781  32.321  27.407  1.00  0.00     0.204 A 
ATOM     27  C   UNL A   1      34.780  32.042  28.082  1.00  0.00     0.131 A 
ATOM     28  N   UNL A   1      33.777  32.964  27.975  1.00  0.00    -0.245 NA
ENDBRANCH  23  24
ENDBRANCH  16  18
ENDBRANCH  13  16
ENDBRANCH   7  12
ENDBRANCH   3   6
ENDBRANCH   1   2
BRANCH   1  29
ATOM     29  C   UNL A   1      36.527  20.119  24.902  1.00  0.00     0.023 C 
BRANCH  29  30
ATOM     30  C   UNL A   1      37.769  19.232  24.991  1.00  0.00     0.023 C 
BRANCH  30  31
ATOM     31  C   UNL A   1      38.943  19.956  25.634  1.00  0.00     0.116 C 
BRANCH  31  32
ATOM     32  N   UNL A   1      40.091  19.076  25.819  1.00  0.00    -0.352 N 
ATOM     33  C   UNL A   1      41.426  19.303  26.060  1.00  0.00     0.251 C 
ATOM     34  H   UNL A   1      39.863  18.120  25.759  1.00  0.00     0.163 HD
ATOM     35  O   UNL A   1      42.194  18.351  25.926  1.00  0.00    -0.269 OA
BRANCH  33  36
ATOM     36  C   UNL A   1      41.985  20.631  26.439  1.00  0.00     0.039 A 
ATOM     37  C   UNL A   1      42.236  20.887  27.797  1.00  0.00     0.014 A 
ATOM     38  C   UNL A   1      42.191  21.663  25.529  1.00  0.00     0.014 A 
ATOM     39  C   UNL A   1      42.731  22.132  28.216  1.00  0.00     0.010 A 
ATOM     40  C   UNL A   1      42.795  22.857  25.926  1.00  0.00     0.010 A 
ATOM     41  C   UNL A   1      43.052  23.121  27.277  1.00  0.00    -0.014 A 
BRANCH  41  42
ATOM     42  C   UNL A   1      43.606  24.452  27.653  1.00  0.00     0.031 A 
ATOM     43  C   UNL A   1      42.678  25.547  28.124  1.00  0.00     0.074 A 
ATOM     44  C   UNL A   1      44.913  24.728  27.469  1.00  0.00     0.049 A 
ATOM     45  N   UNL A   1      42.905  26.829  28.265  1.00  0.00    -0.248 NA
ATOM     46  C   UNL A   1      41.293  25.151  28.433  1.00  0.00     0.031 C 
ATOM     47  C   UNL A   1      45.924  23.785  26.990  1.00  0.00     0.029 A 
ATOM     48  N   UNL A   1      45.608  25.903  27.632  1.00  0.00    -0.354 N 
ATOM     49  C   UNL A   1      41.684  27.397  28.611  1.00  0.00     0.074 A 
ATOM     50  C   UNL A   1      40.713  26.325  28.636  1.00  0.00     0.031 C 
ATOM     51  C   UNL A   1      47.108  24.412  26.906  1.00  0.00     0.029 A 
ATOM     52  C   UNL A   1      46.931  25.815  27.272  1.00  0.00     0.049 A 
ATOM     53  H   UNL A   1      45.197  26.729  27.975  1.00  0.00     0.167 HD
ATOM     54  C   UNL A   1      41.399  28.689  28.898  1.00  0.00     0.037 A 
ATOM     55  C   UNL A   1      47.889  26.759  27.212  1.00  0.00     0.037 A 
ATOM     56  C   UNL A   1      42.379  29.740  28.964  1.00  0.00     0.049 A 
ATOM     57  C   UNL A   1      47.557  28.180  27.573  1.00  0.00     0.074 A 
ATOM     58  C   UNL A   1      42.205  31.056  29.359  1.00  0.00     0.029 A 
ATOM     59  N   UNL A   1      43.718  29.591  28.642  1.00  0.00    -0.354 N 
ATOM     60  N   UNL A   1      46.409  28.691  27.945  1.00  0.00    -0.248 NA
ATOM     61  C   UNL A   1      48.653  29.158  27.500  1.00  0.00     0.031 C 
ATOM     62  C   UNL A   1      43.435  31.712  29.243  1.00  0.00     0.029 A 
ATOM     63  C   UNL A   1      44.379  30.797  28.811  1.00  0.00     0.049 A 
ATOM     64  H   UNL A   1      44.137  28.754  28.337  1.00  0.00     0.167 HD
ATOM     65  C   UNL A   1      46.649  30.040  28.171  1.00  0.00     0.074 A 
ATOM     66  C   UNL A   1      48.053  30.268  27.907  1.00  0.00     0.031 C 
ATOM     67  C   UNL A   1      45.781  31.005  28.559  1.00  0.00     0.037 A 
BRANCH  54  68
ATOM     68  C   UNL A   1      39.967  29.047  29.173  1.00  0.00     0.057 A 
ATOM     69  C   UNL A   1      39.452  29.105  30.474  1.00  0.00     0.134 A 
ATOM     70  C   UNL A   1      39.106  29.389  28.122  1.00  0.00     0.134 A 
ATOM     71  F   UNL A   1      40.221  28.781  31.525  1.00  0.00    -0.206 F 
ATOM     72  C   UNL A   1      38.125  29.465  30.718  1.00  0.00     0.040 A 
ATOM     73  C   UNL A   1      37.786  29.776  28.355  1.00  0.00     0.040 A 
ATOM     74  F   UNL A   1      39.538  29.363  26.852  1.00  0.00    -0.206 F 
ATOM     75  C   UNL A   1      37.290  29.810  29.656  1.00  0.00     0.006 A 
ENDBRANCH  54  68
BRANCH  55  76
ATOM     76  C   UNL A   1      49.265  26.394  26.792  1.00  0.00     0.057 A 
ATOM     77  C   UNL A   1      50.187  25.887  27.715  1.00  0.00     0.134 A 
ATOM     78  C   UNL A   1      49.696  26.555  25.470  1.00  0.00     0.134 A 
ATOM     79  F   UNL A   1      49.839  25.733  29.001  1.00  0.00    -0.206 F 
ATOM     80  C   UNL A   1      51.494  25.567  27.342  1.00  0.00     0.040 A 
ATOM     81  C   UNL A   1      50.992  26.217  25.079  1.00  0.00     0.040 A 
ATOM     82  F   UNL A   1      48.859  27.034  24.539  1.00  0.00    -0.206 F 
ATOM     83  C   UNL A   1      51.897  25.727  26.019  1.00  0.00     0.006 A 
ENDBRANCH  55  76
BRANCH  67  84
ATOM     84  C   UNL A   1      46.328  32.386  28.756  1.00  0.00     0.057 A 
ATOM     85  C   UNL A   1      46.786  32.823  30.005  1.00  0.00     0.134 A 
ATOM     86  C   UNL A   1      46.447  33.268  27.675  1.00  0.00     0.134 A 
ATOM     87  F   UNL A   1      46.688  32.029  31.081  1.00  0.00    -0.206 F 
ATOM     88  C   UNL A   1      47.332  34.097  30.174  1.00  0.00     0.040 A 
ATOM     89  C   UNL A   1      47.010  34.536  27.828  1.00  0.00     0.040 A 
ATOM     90  F   UNL A   1      46.033  32.906  26.452  1.00  0.00    -0.206 F 
ATOM     91  C   UNL A   1      47.451  34.954  29.081  1.00  0.00     0.006 A 
ENDBRANCH  67  84
ENDBRANCH  41  42
ENDBRANCH  33  36
ENDBRANCH  31  32
ENDBRANCH  30  31
ENDBRANCH  29  30
ENDBRANCH   1  29
TORSDOF 15
ENDMDL
MODEL 3
REMARK VINA RESULT:     -11.7      3.525      7.096
REMARK SMILES C[C@@H](NC(=O)[C@H]1CC=CC[C@@H]1C(=O)NCCCCNC(=O)c1ccc(-c2c3nc(c(-c4c(F)cccc4F)c4ccc([nH]4)c(-c4c(F)cccc4F)c4nc(c(-c5c(F)cccc5F)c5ccc2[nH]5)C=C4)C=C3)cc1)c1ccc(-n2ccnc2)cc1
REMARK SMILES IDX 15 1 14 2 12 3 13 4 11 6 6 7 7 8 8 9 10 10 9 11 4 12 3 13
REMARK SMILES IDX 5 15 2 16 1 17 76 18 77 19 86 20 78 21 85 22 79 23 80 24
REMARK SMILES IDX 81 25 84 26 82 27 83 28 16 29 17 30 18 31 19 32 20 33 21 35
REMARK SMILES IDX 22 36 23 37 75 38 24 39 74 40 25 41 26 42 27 43 68 44 28 45
REMARK SMILES IDX 73 46 67 47 69 48 29 49 72 50 66 51 65 52 30 54 56 55 39 56
REMARK SMILES IDX 55 57 40 58 43 59 54 60 70 61 41 62 42 63 53 65 71 66 44 67
REMARK SMILES IDX 31 68 32 69 37 70 33 71 34 72 36 73 38 74 35 75 57 76 58 77
REMARK SMILES IDX 63 78 59 79 60 80 62 81 64 82 61 83 45 84 46 85 51 86 47 87
REMARK SMILES IDX 48 88 50 89 52 90 49 91
REMARK H PARENT 14 5 3 14 19 34 69 53 43 64
REMARK Flexibility Score: inf
ROOT
ATOM      1  C   UNL A   1      33.658  28.277  25.874  1.00  0.00     0.116 C 
ENDROOT
BRANCH   1   2
ATOM      2  N   UNL A   1      32.546  27.706  26.607  1.00  0.00    -0.356 N 
ATOM      3  C   UNL A   1      31.883  26.530  26.421  1.00  0.00     0.224 C 
ATOM      4  O   UNL A   1      30.886  26.339  27.119  1.00  0.00    -0.275 OA
ATOM      5  H   UNL A   1      32.217  28.254  27.357  1.00  0.00     0.163 HD
BRANCH   3   6
ATOM      6  C   UNL A   1      32.387  25.516  25.388  1.00  0.00     0.095 C 
ATOM      7  C   UNL A   1      31.247  24.561  24.945  1.00  0.00     0.095 C 
ATOM      8  C   UNL A   1      30.962  23.483  26.014  1.00  0.00     0.041 C 
ATOM      9  C   UNL A   1      32.115  23.028  26.848  1.00  0.00    -0.030 C 
ATOM     10  C   UNL A   1      33.628  24.785  25.951  1.00  0.00     0.041 C 
ATOM     11  C   UNL A   1      33.322  23.597  26.807  1.00  0.00    -0.030 C 
BRANCH   7  12
ATOM     12  C   UNL A   1      31.539  23.898  23.599  1.00  0.00     0.224 C 
ATOM     13  N   UNL A   1      31.454  24.567  22.410  1.00  0.00    -0.349 N 
ATOM     14  H   UNL A   1      30.958  24.057  21.731  1.00  0.00     0.164 HD
ATOM     15  O   UNL A   1      31.758  22.686  23.518  1.00  0.00    -0.275 OA
BRANCH  13  16
ATOM     16  C   UNL A   1      31.927  25.878  21.894  1.00  0.00     0.109 C 
ATOM     17  C   UNL A   1      33.457  25.920  22.019  1.00  0.00     0.036 C 
BRANCH  16  18
ATOM     18  C   UNL A   1      31.212  27.125  22.384  1.00  0.00    -0.026 A 
ATOM     19  C   UNL A   1      31.899  28.338  22.462  1.00  0.00     0.008 A 
ATOM     20  C   UNL A   1      29.871  27.123  22.810  1.00  0.00     0.008 A 
ATOM     21  C   UNL A   1      31.207  29.543  22.603  1.00  0.00     0.027 A 
ATOM     22  C   UNL A   1      29.184  28.317  23.062  1.00  0.00     0.027 A 
ATOM     23  C   UNL A   1      29.829  29.530  22.821  1.00  0.00     0.046 A 
BRANCH  23  24
ATOM     24  N   UNL A   1      29.064  30.705  22.616  1.00  0.00    -0.306 N 
ATOM     25  C   UNL A   1      28.595  31.212  21.426  1.00  0.00     0.113 A 
ATOM     26  C   UNL A   1      28.821  31.677  23.563  1.00  0.00     0.204 A 
ATOM     27  C   UNL A   1      28.105  32.464  21.719  1.00  0.00     0.131 A 
ATOM     28  N   UNL A   1      28.251  32.745  23.049  1.00  0.00    -0.245 NA
ENDBRANCH  23  24
ENDBRANCH  16  18
ENDBRANCH  13  16
ENDBRANCH   7  12
ENDBRANCH   3   6
ENDBRANCH   1   2
BRANCH   1  29
ATOM     29  C   UNL A   1      34.459  29.209  26.779  1.00  0.00     0.023 C 
BRANCH  29  30
ATOM     30  C   UNL A   1      33.585  30.140  27.619  1.00  0.00     0.023 C 
BRANCH  30  31
ATOM     31  C   UNL A   1      34.140  31.556  27.667  1.00  0.00     0.116 C 
BRANCH  31  32
ATOM     32  N   UNL A   1      34.189  32.076  29.029  1.00  0.00    -0.352 N 
ATOM     33  C   UNL A   1      35.076  31.916  30.068  1.00  0.00     0.251 C 
ATOM     34  H   UNL A   1      33.431  32.664  29.250  1.00  0.00     0.163 HD
ATOM     35  O   UNL A   1      34.714  32.295  31.182  1.00  0.00    -0.269 OA
BRANCH  33  36
ATOM     36  C   UNL A   1      36.419  31.290  29.922  1.00  0.00     0.039 A 
ATOM     37  C   UNL A   1      36.973  30.629  31.031  1.00  0.00     0.014 A 
ATOM     38  C   UNL A   1      37.195  31.400  28.772  1.00  0.00     0.014 A 
ATOM     39  C   UNL A   1      38.250  30.050  30.962  1.00  0.00     0.010 A 
ATOM     40  C   UNL A   1      38.411  30.723  28.661  1.00  0.00     0.010 A 
ATOM     41  C   UNL A   1      38.969  30.059  29.760  1.00  0.00    -0.014 A 
BRANCH  41  42
ATOM     42  C   UNL A   1      40.316  29.439  29.613  1.00  0.00     0.031 A 
ATOM     43  C   UNL A   1      41.555  30.293  29.741  1.00  0.00     0.074 A 
ATOM     44  C   UNL A   1      40.440  28.146  29.251  1.00  0.00     0.049 A 
ATOM     45  N   UNL A   1      42.794  30.020  29.414  1.00  0.00    -0.248 NA
ATOM     46  C   UNL A   1      41.366  31.656  30.266  1.00  0.00     0.031 C 
ATOM     47  C   UNL A   1      39.336  27.206  29.057  1.00  0.00     0.029 A 
ATOM     48  N   UNL A   1      41.559  27.408  28.948  1.00  0.00    -0.354 N 
ATOM     49  C   UNL A   1      43.512  31.191  29.628  1.00  0.00     0.074 A 
ATOM     50  C   UNL A   1      42.568  32.185  30.092  1.00  0.00     0.031 C 
ATOM     51  C   UNL A   1      39.830  26.017  28.677  1.00  0.00     0.029 A 
ATOM     52  C   UNL A   1      41.281  26.124  28.547  1.00  0.00     0.049 A 
ATOM     53  H   UNL A   1      42.475  27.766  29.013  1.00  0.00     0.167 HD
ATOM     54  C   UNL A   1      44.838  31.416  29.471  1.00  0.00     0.037 A 
ATOM     55  C   UNL A   1      42.094  25.149  28.097  1.00  0.00     0.037 A 
ATOM     56  C   UNL A   1      45.793  30.406  29.099  1.00  0.00     0.049 A 
ATOM     57  C   UNL A   1      43.568  25.411  27.967  1.00  0.00     0.074 A 
ATOM     58  C   UNL A   1      47.171  30.509  29.027  1.00  0.00     0.029 A 
ATOM     59  N   UNL A   1      45.469  29.104  28.754  1.00  0.00    -0.354 N 
ATOM     60  N   UNL A   1      44.238  26.508  28.220  1.00  0.00    -0.248 NA
ATOM     61  C   UNL A   1      44.400  24.299  27.482  1.00  0.00     0.031 C 
ATOM     62  C   UNL A   1      47.680  29.277  28.604  1.00  0.00     0.029 A 
ATOM     63  C   UNL A   1      46.621  28.399  28.448  1.00  0.00     0.049 A 
ATOM     64  H   UNL A   1      44.556  28.735  28.727  1.00  0.00     0.167 HD
ATOM     65  C   UNL A   1      45.567  26.213  27.948  1.00  0.00     0.074 A 
ATOM     66  C   UNL A   1      45.613  24.831  27.522  1.00  0.00     0.031 C 
ATOM     67  C   UNL A   1      46.653  27.019  28.040  1.00  0.00     0.037 A 
BRANCH  54  68
ATOM     68  C   UNL A   1      45.346  32.809  29.708  1.00  0.00     0.057 A 
ATOM     69  C   UNL A   1      45.405  33.762  28.684  1.00  0.00     0.134 A 
ATOM     70  C   UNL A   1      45.732  33.215  30.992  1.00  0.00     0.134 A 
ATOM     71  F   UNL A   1      45.057  33.435  27.430  1.00  0.00    -0.206 F 
ATOM     72  C   UNL A   1      45.853  35.063  28.923  1.00  0.00     0.040 A 
ATOM     73  C   UNL A   1      46.158  34.519  31.248  1.00  0.00     0.040 A 
ATOM     74  F   UNL A   1      45.692  32.354  32.020  1.00  0.00    -0.206 F 
ATOM     75  C   UNL A   1      46.225  35.446  30.211  1.00  0.00     0.006 A 
ENDBRANCH  54  68
BRANCH  55  76
ATOM     76  C   UNL A   1      41.532  23.824  27.731  1.00  0.00     0.057 A 
ATOM     77  C   UNL A   1      40.744  23.670  26.585  1.00  0.00     0.134 A 
ATOM     78  C   UNL A   1      41.756  22.690  28.520  1.00  0.00     0.134 A 
ATOM     79  F   UNL A   1      40.477  24.727  25.803  1.00  0.00    -0.206 F 
ATOM     80  C   UNL A   1      40.184  22.438  26.244  1.00  0.00     0.040 A 
ATOM     81  C   UNL A   1      41.221  21.447  28.178  1.00  0.00     0.040 A 
ATOM     82  F   UNL A   1      42.504  22.773  29.629  1.00  0.00    -0.206 F 
ATOM     83  C   UNL A   1      40.428  21.321  27.039  1.00  0.00     0.006 A 
ENDBRANCH  55  76
BRANCH  67  84
ATOM     84  C   UNL A   1      47.986  26.419  27.709  1.00  0.00     0.057 A 
ATOM     85  C   UNL A   1      48.731  25.712  28.660  1.00  0.00     0.134 A 
ATOM     86  C   UNL A   1      48.505  26.505  26.410  1.00  0.00     0.134 A 
ATOM     87  F   UNL A   1      48.294  25.605  29.923  1.00  0.00    -0.206 F 
ATOM     88  C   UNL A   1      49.954  25.122  28.334  1.00  0.00     0.040 A 
ATOM     89  C   UNL A   1      49.715  25.902  26.068  1.00  0.00     0.040 A 
ATOM     90  F   UNL A   1      47.835  27.163  25.452  1.00  0.00    -0.206 F 
ATOM     91  C   UNL A   1      50.445  25.210  27.033  1.00  0.00     0.006 A 
ENDBRANCH  67  84
ENDBRANCH  41  42
ENDBRANCH  33  36
ENDBRANCH  31  32
ENDBRANCH  30  31
ENDBRANCH  29  30
ENDBRANCH   1  29
TORSDOF 15
ENDMDL
