MODEL 1
REMARK VINA RESULT:     -12.0      0.000      0.000
REMARK SMILES O=C(CC1(CN2CC3(CCCCC3)CC2=O)CCCCC1)NCCCCNC(=O)c1ccc(-c2c3nc(c(-c4c(F)cccc4F)c4ccc([nH]4)c(-c4c(F)cccc4F)c4nc(c(-c5c(F)cccc5F)c5ccc2[nH]5)C=C4)C=C3)cc1
REMARK SMILES IDX 24 1 23 2 22 3 1 4 2 5 3 7 4 8 17 9 21 10 18 11 20 12 19 13
REMARK SMILES IDX 5 14 6 15 7 16 15 17 8 18 14 19 16 20 9 21 13 22 10 23 12 24
REMARK SMILES IDX 11 25 25 26 26 27 27 28 28 29 29 31 30 32 31 33 83 34 32 35
REMARK SMILES IDX 82 36 33 37 34 38 35 39 76 40 36 41 81 42 75 43 77 44 37 45
REMARK SMILES IDX 80 46 74 47 73 48 38 50 64 51 47 52 63 53 48 54 51 55 62 56
REMARK SMILES IDX 78 57 49 58 50 59 61 61 79 62 52 63 39 64 40 65 45 66 41 67
REMARK SMILES IDX 42 68 44 69 46 70 43 71 65 72 66 73 71 74 67 75 68 76 70 77
REMARK SMILES IDX 72 78 69 79 53 80 54 81 59 82 55 83 56 84 58 85 60 86 57 87
REMARK H PARENT 22 6 27 30 77 49 51 60
REMARK Flexibility Score: inf
ROOT
ATOM      1  C   UNL A   1      36.682  18.618  24.924  1.00  0.00     0.023 C 
ENDROOT
BRANCH   1   2
ATOM      2  C   UNL A   1      35.176  18.755  24.710  1.00  0.00     0.116 C 
BRANCH   2   3
ATOM      3  N   UNL A   1      34.661  20.026  25.173  1.00  0.00    -0.356 N 
ATOM      4  O   UNL A   1      32.469  19.336  25.272  1.00  0.00    -0.275 OA
ATOM      5  C   UNL A   1      33.329  20.188  25.478  1.00  0.00     0.220 C 
ATOM      6  H   UNL A   1      35.274  20.790  25.271  1.00  0.00     0.163 HD
BRANCH   5   7
ATOM      7  C   UNL A   1      32.978  21.548  26.044  1.00  0.00     0.108 C 
BRANCH   7   8
ATOM      8  C   UNL A   1      33.877  22.759  25.650  1.00  0.00    -0.003 C 
ATOM      9  C   UNL A   1      35.295  22.594  26.301  1.00  0.00     0.009 C 
ATOM     10  C   UNL A   1      34.119  22.647  24.116  1.00  0.00     0.009 C 
ATOM     11  C   UNL A   1      36.332  23.601  25.778  1.00  0.00     0.001 C 
ATOM     12  C   UNL A   1      35.130  23.638  23.549  1.00  0.00     0.001 C 
ATOM     13  C   UNL A   1      36.472  23.550  24.261  1.00  0.00     0.000 C 
BRANCH   8  14
ATOM     14  C   UNL A   1      33.333  24.133  26.156  1.00  0.00     0.127 C 
BRANCH  14  15
ATOM     15  N   UNL A   1      32.214  24.808  25.521  1.00  0.00    -0.342 N 
ATOM     16  C   UNL A   1      32.356  25.969  24.685  1.00  0.00     0.127 C 
ATOM     17  C   UNL A   1      31.017  24.939  26.266  1.00  0.00     0.223 C 
ATOM     18  C   UNL A   1      31.706  27.098  25.503  1.00  0.00    -0.003 C 
ATOM     19  C   UNL A   1      30.452  26.332  25.986  1.00  0.00     0.109 C 
ATOM     20  O   UNL A   1      30.579  24.154  27.083  1.00  0.00    -0.275 OA
ATOM     21  C   UNL A   1      32.641  27.439  26.705  1.00  0.00     0.009 C 
ATOM     22  C   UNL A   1      31.406  28.283  24.562  1.00  0.00     0.009 C 
ATOM     23  C   UNL A   1      32.622  28.867  27.214  1.00  0.00     0.001 C 
ATOM     24  C   UNL A   1      31.492  29.676  25.181  1.00  0.00     0.001 C 
ATOM     25  C   UNL A   1      32.725  29.833  26.053  1.00  0.00     0.000 C 
ENDBRANCH  14  15
ENDBRANCH   8  14
ENDBRANCH   7   8
ENDBRANCH   5   7
ENDBRANCH   2   3
ENDBRANCH   1   2
BRANCH   1  26
ATOM     26  C   UNL A   1      37.503  19.875  24.624  1.00  0.00     0.023 C 
BRANCH  26  27
ATOM     27  C   UNL A   1      38.538  20.250  25.682  1.00  0.00     0.116 C 
BRANCH  27  28
ATOM     28  N   UNL A   1      39.662  19.327  25.717  1.00  0.00    -0.352 N 
ATOM     29  C   UNL A   1      40.979  19.548  26.036  1.00  0.00     0.251 C 
ATOM     30  H   UNL A   1      39.444  18.399  25.473  1.00  0.00     0.163 HD
ATOM     31  O   UNL A   1      41.810  18.663  25.848  1.00  0.00    -0.269 OA
BRANCH  29  32
ATOM     32  C   UNL A   1      41.420  20.855  26.579  1.00  0.00     0.039 A 
ATOM     33  C   UNL A   1      41.937  21.808  25.695  1.00  0.00     0.014 A 
ATOM     34  C   UNL A   1      41.361  21.137  27.946  1.00  0.00     0.014 A 
ATOM     35  C   UNL A   1      42.324  23.064  26.169  1.00  0.00     0.010 A 
ATOM     36  C   UNL A   1      41.687  22.412  28.409  1.00  0.00     0.010 A 
ATOM     37  C   UNL A   1      42.167  23.390  27.525  1.00  0.00    -0.014 A 
BRANCH  37  38
ATOM     38  C   UNL A   1      42.485  24.751  28.031  1.00  0.00     0.031 A 
ATOM     39  C   UNL A   1      43.883  25.096  28.465  1.00  0.00     0.074 A 
ATOM     40  C   UNL A   1      41.500  25.660  28.166  1.00  0.00     0.049 A 
ATOM     41  N   UNL A   1      44.329  26.198  29.015  1.00  0.00    -0.248 NA
ATOM     42  C   UNL A   1      44.909  24.060  28.275  1.00  0.00     0.031 C 
ATOM     43  C   UNL A   1      40.093  25.441  27.822  1.00  0.00     0.029 A 
ATOM     44  N   UNL A   1      41.528  26.946  28.644  1.00  0.00    -0.354 N 
ATOM     45  C   UNL A   1      45.680  25.982  29.253  1.00  0.00     0.074 A 
ATOM     46  C   UNL A   1      45.972  24.630  28.824  1.00  0.00     0.031 C 
ATOM     47  C   UNL A   1      39.397  26.558  28.087  1.00  0.00     0.029 A 
ATOM     48  C   UNL A   1      40.299  27.559  28.651  1.00  0.00     0.049 A 
ATOM     49  H   UNL A   1      42.353  27.389  28.952  1.00  0.00     0.167 HD
ATOM     50  C   UNL A   1      46.598  26.836  29.765  1.00  0.00     0.037 A 
ATOM     51  C   UNL A   1      39.935  28.785  29.072  1.00  0.00     0.037 A 
ATOM     52  C   UNL A   1      46.318  28.190  30.168  1.00  0.00     0.049 A 
ATOM     53  C   UNL A   1      40.973  29.716  29.630  1.00  0.00     0.074 A 
ATOM     54  C   UNL A   1      47.198  29.146  30.650  1.00  0.00     0.029 A 
ATOM     55  N   UNL A   1      45.066  28.781  30.131  1.00  0.00    -0.354 N 
ATOM     56  N   UNL A   1      42.256  29.513  29.805  1.00  0.00    -0.248 NA
ATOM     57  C   UNL A   1      40.513  31.050  30.045  1.00  0.00     0.031 C 
ATOM     58  C   UNL A   1      46.470  30.307  30.933  1.00  0.00     0.029 A 
ATOM     59  C   UNL A   1      45.145  30.085  30.595  1.00  0.00     0.049 A 
ATOM     60  H   UNL A   1      44.241  28.341  29.823  1.00  0.00     0.167 HD
ATOM     61  C   UNL A   1      42.760  30.697  30.327  1.00  0.00     0.074 A 
ATOM     62  C   UNL A   1      41.648  31.618  30.431  1.00  0.00     0.031 C 
ATOM     63  C   UNL A   1      44.031  30.992  30.688  1.00  0.00     0.037 A 
BRANCH  50  64
ATOM     64  C   UNL A   1      48.001  26.330  29.915  1.00  0.00     0.057 A 
ATOM     65  C   UNL A   1      48.445  25.733  31.103  1.00  0.00     0.134 A 
ATOM     66  C   UNL A   1      48.910  26.407  28.852  1.00  0.00     0.134 A 
ATOM     67  F   UNL A   1      47.627  25.638  32.162  1.00  0.00    -0.206 F 
ATOM     68  C   UNL A   1      49.748  25.251  31.235  1.00  0.00     0.040 A 
ATOM     69  C   UNL A   1      50.208  25.909  28.965  1.00  0.00     0.040 A 
ATOM     70  F   UNL A   1      48.547  26.961  27.685  1.00  0.00    -0.206 F 
ATOM     71  C   UNL A   1      50.632  25.333  30.162  1.00  0.00     0.006 A 
ENDBRANCH  50  64
BRANCH  51  72
ATOM     72  C   UNL A   1      38.519  29.211  28.967  1.00  0.00     0.057 A 
ATOM     73  C   UNL A   1      37.667  29.160  30.077  1.00  0.00     0.134 A 
ATOM     74  C   UNL A   1      37.982  29.673  27.759  1.00  0.00     0.134 A 
ATOM     75  F   UNL A   1      38.120  28.707  31.253  1.00  0.00    -0.206 F 
ATOM     76  C   UNL A   1      36.327  29.540  29.987  1.00  0.00     0.040 A 
ATOM     77  C   UNL A   1      36.649  30.077  27.661  1.00  0.00     0.040 A 
ATOM     78  F   UNL A   1      38.750  29.750  26.663  1.00  0.00    -0.206 F 
ATOM     79  C   UNL A   1      35.817  30.005  28.775  1.00  0.00     0.006 A 
ENDBRANCH  51  72
BRANCH  63  80
ATOM     80  C   UNL A   1      44.293  32.377  31.203  1.00  0.00     0.057 A 
ATOM     81  C   UNL A   1      44.245  32.674  32.570  1.00  0.00     0.134 A 
ATOM     82  C   UNL A   1      44.630  33.413  30.324  1.00  0.00     0.134 A 
ATOM     83  F   UNL A   1      43.915  31.728  33.461  1.00  0.00    -0.206 F 
ATOM     84  C   UNL A   1      44.507  33.961  33.043  1.00  0.00     0.040 A 
ATOM     85  C   UNL A   1      44.914  34.697  30.787  1.00  0.00     0.040 A 
ATOM     86  F   UNL A   1      44.698  33.189  29.002  1.00  0.00    -0.206 F 
ATOM     87  C   UNL A   1      44.848  34.975  32.151  1.00  0.00     0.006 A 
ENDBRANCH  63  80
ENDBRANCH  37  38
ENDBRANCH  29  32
ENDBRANCH  27  28
ENDBRANCH  26  27
ENDBRANCH   1  26
TORSDOF 14
ENDMDL
MODEL 2
REMARK VINA RESULT:     -11.9      2.032      7.806
REMARK SMILES O=C(CC1(CN2CC3(CCCCC3)CC2=O)CCCCC1)NCCCCNC(=O)c1ccc(-c2c3nc(c(-c4c(F)cccc4F)c4ccc([nH]4)c(-c4c(F)cccc4F)c4nc(c(-c5c(F)cccc5F)c5ccc2[nH]5)C=C4)C=C3)cc1
REMARK SMILES IDX 24 1 23 2 22 3 1 4 2 5 3 7 4 8 17 9 21 10 18 11 20 12 19 13
REMARK SMILES IDX 5 14 6 15 7 16 15 17 8 18 14 19 16 20 9 21 13 22 10 23 12 24
REMARK SMILES IDX 11 25 25 26 26 27 27 28 28 29 29 31 30 32 31 33 83 34 32 35
REMARK SMILES IDX 82 36 33 37 34 38 35 39 76 40 36 41 81 42 75 43 77 44 37 45
REMARK SMILES IDX 80 46 74 47 73 48 38 50 64 51 47 52 63 53 48 54 51 55 62 56
REMARK SMILES IDX 78 57 49 58 50 59 61 61 79 62 52 63 39 64 40 65 45 66 41 67
REMARK SMILES IDX 42 68 44 69 46 70 43 71 65 72 66 73 71 74 67 75 68 76 70 77
REMARK SMILES IDX 72 78 69 79 53 80 54 81 59 82 55 83 56 84 58 85 60 86 57 87
REMARK H PARENT 22 6 27 30 77 49 51 60
REMARK Flexibility Score: inf
ROOT
ATOM      1  C   UNL A   1      31.836  27.307  25.954  1.00  0.00     0.023 C 
ENDROOT
BRANCH   1   2
ATOM      2  C   UNL A   1      31.169  25.943  26.118  1.00  0.00     0.116 C 
BRANCH   2   3
ATOM      3  N   UNL A   1      32.104  24.908  26.506  1.00  0.00    -0.356 N 
ATOM      4  O   UNL A   1      31.050  23.230  25.339  1.00  0.00    -0.275 OA
ATOM      5  C   UNL A   1      31.991  23.626  26.020  1.00  0.00     0.220 C 
ATOM      6  H   UNL A   1      32.834  25.124  27.130  1.00  0.00     0.163 HD
BRANCH   5   7
ATOM      7  C   UNL A   1      33.109  22.695  26.445  1.00  0.00     0.108 C 
BRANCH   7   8
ATOM      8  C   UNL A   1      34.170  22.291  25.376  1.00  0.00    -0.003 C 
ATOM      9  C   UNL A   1      34.908  23.575  24.858  1.00  0.00     0.009 C 
ATOM     10  C   UNL A   1      35.260  21.471  26.128  1.00  0.00     0.009 C 
ATOM     11  C   UNL A   1      36.139  23.267  23.989  1.00  0.00     0.001 C 
ATOM     12  C   UNL A   1      36.494  21.129  25.300  1.00  0.00     0.001 C 
ATOM     13  C   UNL A   1      37.143  22.371  24.706  1.00  0.00     0.000 C 
BRANCH   8  14
ATOM     14  C   UNL A   1      33.557  21.612  24.111  1.00  0.00     0.127 C 
BRANCH  14  15
ATOM     15  N   UNL A   1      32.548  20.569  24.199  1.00  0.00    -0.342 N 
ATOM     16  C   UNL A   1      32.502  19.594  25.254  1.00  0.00     0.127 C 
ATOM     17  C   UNL A   1      32.143  19.944  22.995  1.00  0.00     0.223 C 
ATOM     18  C   UNL A   1      32.847  18.270  24.551  1.00  0.00    -0.003 C 
ATOM     19  C   UNL A   1      31.974  18.453  23.287  1.00  0.00     0.109 C 
ATOM     20  O   UNL A   1      32.070  20.458  21.897  1.00  0.00    -0.275 OA
ATOM     21  C   UNL A   1      34.364  18.287  24.181  1.00  0.00     0.009 C 
ATOM     22  C   UNL A   1      32.418  17.100  25.459  1.00  0.00     0.009 C 
ATOM     23  C   UNL A   1      35.083  16.953  24.143  1.00  0.00     0.001 C 
ATOM     24  C   UNL A   1      33.270  15.835  25.380  1.00  0.00     0.001 C 
ATOM     25  C   UNL A   1      34.755  16.152  25.385  1.00  0.00     0.000 C 
ENDBRANCH  14  15
ENDBRANCH   8  14
ENDBRANCH   7   8
ENDBRANCH   5   7
ENDBRANCH   2   3
ENDBRANCH   1   2
BRANCH   1  26
ATOM     26  C   UNL A   1      32.246  27.997  27.258  1.00  0.00     0.023 C 
BRANCH  26  27
ATOM     27  C   UNL A   1      33.640  28.618  27.261  1.00  0.00     0.116 C 
BRANCH  27  28
ATOM     28  N   UNL A   1      33.633  30.008  27.688  1.00  0.00    -0.352 N 
ATOM     29  C   UNL A   1      34.605  30.746  28.317  1.00  0.00     0.251 C 
ATOM     30  H   UNL A   1      32.800  30.496  27.496  1.00  0.00     0.163 HD
ATOM     31  O   UNL A   1      34.341  31.869  28.740  1.00  0.00    -0.269 OA
BRANCH  29  32
ATOM     32  C   UNL A   1      35.965  30.193  28.521  1.00  0.00     0.039 A 
ATOM     33  C   UNL A   1      36.864  30.213  27.450  1.00  0.00     0.014 A 
ATOM     34  C   UNL A   1      36.350  29.628  29.740  1.00  0.00     0.014 A 
ATOM     35  C   UNL A   1      38.166  29.736  27.621  1.00  0.00     0.010 A 
ATOM     36  C   UNL A   1      37.667  29.211  29.929  1.00  0.00     0.010 A 
ATOM     37  C   UNL A   1      38.591  29.265  28.874  1.00  0.00    -0.014 A 
BRANCH  37  38
ATOM     38  C   UNL A   1      39.997  28.841  29.100  1.00  0.00     0.031 A 
ATOM     39  C   UNL A   1      40.992  29.792  29.707  1.00  0.00     0.074 A 
ATOM     40  C   UNL A   1      40.399  27.621  28.697  1.00  0.00     0.049 A 
ATOM     41  N   UNL A   1      42.278  29.632  29.897  1.00  0.00    -0.248 NA
ATOM     42  C   UNL A   1      40.479  31.101  30.137  1.00  0.00     0.031 C 
ATOM     43  C   UNL A   1      39.547  26.618  28.056  1.00  0.00     0.029 A 
ATOM     44  N   UNL A   1      41.633  27.022  28.751  1.00  0.00    -0.354 N 
ATOM     45  C   UNL A   1      42.730  30.822  30.452  1.00  0.00     0.074 A 
ATOM     46  C   UNL A   1      41.589  31.710  30.531  1.00  0.00     0.031 C 
ATOM     47  C   UNL A   1      40.279  25.524  27.789  1.00  0.00     0.029 A 
ATOM     48  C   UNL A   1      41.658  25.761  28.207  1.00  0.00     0.049 A 
ATOM     49  H   UNL A   1      42.426  27.456  29.143  1.00  0.00     0.167 HD
ATOM     50  C   UNL A   1      43.977  31.143  30.872  1.00  0.00     0.037 A 
ATOM     51  C   UNL A   1      42.677  24.895  28.054  1.00  0.00     0.037 A 
ATOM     52  C   UNL A   1      45.109  30.254  30.822  1.00  0.00     0.049 A 
ATOM     53  C   UNL A   1      44.050  25.270  28.536  1.00  0.00     0.074 A 
ATOM     54  C   UNL A   1      46.399  30.475  31.274  1.00  0.00     0.029 A 
ATOM     55  N   UNL A   1      45.085  28.974  30.290  1.00  0.00    -0.354 N 
ATOM     56  N   UNL A   1      44.450  26.382  29.100  1.00  0.00    -0.248 NA
ATOM     57  C   UNL A   1      45.110  24.267  28.362  1.00  0.00     0.031 C 
ATOM     58  C   UNL A   1      47.164  29.337  30.988  1.00  0.00     0.029 A 
ATOM     59  C   UNL A   1      46.340  28.398  30.391  1.00  0.00     0.049 A 
ATOM     60  H   UNL A   1      44.293  28.540  29.899  1.00  0.00     0.167 HD
ATOM     61  C   UNL A   1      45.801  26.206  29.370  1.00  0.00     0.074 A 
ATOM     62  C   UNL A   1      46.149  24.876  28.918  1.00  0.00     0.031 C 
ATOM     63  C   UNL A   1      46.673  27.071  29.942  1.00  0.00     0.037 A 
BRANCH  50  64
ATOM     64  C   UNL A   1      44.182  32.518  31.434  1.00  0.00     0.057 A 
ATOM     65  C   UNL A   1      44.051  32.780  32.804  1.00  0.00     0.134 A 
ATOM     66  C   UNL A   1      44.549  33.584  30.604  1.00  0.00     0.134 A 
ATOM     67  F   UNL A   1      43.691  31.803  33.651  1.00  0.00    -0.206 F 
ATOM     68  C   UNL A   1      44.255  34.058  33.325  1.00  0.00     0.040 A 
ATOM     69  C   UNL A   1      44.778  34.862  31.116  1.00  0.00     0.040 A 
ATOM     70  F   UNL A   1      44.698  33.400  29.283  1.00  0.00    -0.206 F 
ATOM     71  C   UNL A   1      44.625  35.103  32.481  1.00  0.00     0.006 A 
ENDBRANCH  50  64
BRANCH  51  72
ATOM     72  C   UNL A   1      42.434  23.573  27.427  1.00  0.00     0.057 A 
ATOM     73  C   UNL A   1      42.066  22.466  28.201  1.00  0.00     0.134 A 
ATOM     74  C   UNL A   1      42.565  23.383  26.046  1.00  0.00     0.134 A 
ATOM     75  F   UNL A   1      41.946  22.583  29.530  1.00  0.00    -0.206 F 
ATOM     76  C   UNL A   1      41.853  21.212  27.627  1.00  0.00     0.040 A 
ATOM     77  C   UNL A   1      42.334  22.140  25.456  1.00  0.00     0.040 A 
ATOM     78  F   UNL A   1      42.909  24.407  25.252  1.00  0.00    -0.206 F 
ATOM     79  C   UNL A   1      41.982  21.049  26.248  1.00  0.00     0.006 A 
ENDBRANCH  51  72
BRANCH  63  80
ATOM     80  C   UNL A   1      48.081  26.594  30.136  1.00  0.00     0.057 A 
ATOM     81  C   UNL A   1      48.479  25.932  31.304  1.00  0.00     0.134 A 
ATOM     82  C   UNL A   1      49.040  26.770  29.131  1.00  0.00     0.134 A 
ATOM     83  F   UNL A   1      47.611  25.746  32.310  1.00  0.00    -0.206 F 
ATOM     84  C   UNL A   1      49.787  25.476  31.472  1.00  0.00     0.040 A 
ATOM     85  C   UNL A   1      50.344  26.300  29.278  1.00  0.00     0.040 A 
ATOM     86  F   UNL A   1      48.719  27.392  27.986  1.00  0.00    -0.206 F 
ATOM     87  C   UNL A   1      50.723  25.655  30.454  1.00  0.00     0.006 A 
ENDBRANCH  63  80
ENDBRANCH  37  38
ENDBRANCH  29  32
ENDBRANCH  27  28
ENDBRANCH  26  27
ENDBRANCH   1  26
TORSDOF 14
ENDMDL
MODEL 3
REMARK VINA RESULT:     -11.9      1.114      2.026
REMARK SMILES O=C(CC1(CN2CC3(CCCCC3)CC2=O)CCCCC1)NCCCCNC(=O)c1ccc(-c2c3nc(c(-c4c(F)cccc4F)c4ccc([nH]4)c(-c4c(F)cccc4F)c4nc(c(-c5c(F)cccc5F)c5ccc2[nH]5)C=C4)C=C3)cc1
REMARK SMILES IDX 24 1 23 2 22 3 1 4 2 5 3 7 4 8 17 9 21 10 18 11 20 12 19 13
REMARK SMILES IDX 5 14 6 15 7 16 15 17 8 18 14 19 16 20 9 21 13 22 10 23 12 24
REMARK SMILES IDX 11 25 25 26 26 27 27 28 28 29 29 31 30 32 31 33 83 34 32 35
REMARK SMILES IDX 82 36 33 37 34 38 35 39 76 40 36 41 81 42 75 43 77 44 37 45
REMARK SMILES IDX 80 46 74 47 73 48 38 50 64 51 47 52 63 53 48 54 51 55 62 56
REMARK SMILES IDX 78 57 49 58 50 59 61 61 79 62 52 63 39 64 40 65 45 66 41 67
REMARK SMILES IDX 42 68 44 69 46 70 43 71 65 72 66 73 71 74 67 75 68 76 70 77
REMARK SMILES IDX 72 78 69 79 53 80 54 81 59 82 55 83 56 84 58 85 60 86 57 87
REMARK H PARENT 22 6 27 30 77 49 51 60
REMARK Flexibility Score: inf
ROOT
ATOM      1  C   UNL A   1      38.372  22.487  26.193  1.00  0.00     0.023 C 
ENDROOT
BRANCH   1   2
ATOM      2  C   UNL A   1      38.062  23.733  25.365  1.00  0.00     0.116 C 
BRANCH   2   3
ATOM      3  N   UNL A   1      36.667  23.821  24.990  1.00  0.00    -0.356 N 
ATOM      4  O   UNL A   1      36.985  23.079  22.837  1.00  0.00    -0.275 OA
ATOM      5  C   UNL A   1      36.235  23.418  23.747  1.00  0.00     0.220 C 
ATOM      6  H   UNL A   1      36.014  24.177  25.636  1.00  0.00     0.163 HD
BRANCH   5   7
ATOM      7  C   UNL A   1      34.734  23.482  23.556  1.00  0.00     0.108 C 
BRANCH   7   8
ATOM      8  C   UNL A   1      33.859  22.405  24.269  1.00  0.00    -0.003 C 
ATOM      9  C   UNL A   1      32.829  21.807  23.248  1.00  0.00     0.009 C 
ATOM     10  C   UNL A   1      34.813  21.226  24.622  1.00  0.00     0.009 C 
ATOM     11  C   UNL A   1      32.088  20.568  23.778  1.00  0.00     0.001 C 
ATOM     12  C   UNL A   1      34.123  19.981  25.167  1.00  0.00     0.001 C 
ATOM     13  C   UNL A   1      33.046  19.468  24.222  1.00  0.00     0.000 C 
BRANCH   8  14
ATOM     14  C   UNL A   1      33.009  22.972  25.450  1.00  0.00     0.127 C 
BRANCH  14  15
ATOM     15  N   UNL A   1      31.914  23.906  25.242  1.00  0.00    -0.342 N 
ATOM     16  C   UNL A   1      31.979  25.018  24.335  1.00  0.00     0.127 C 
ATOM     17  C   UNL A   1      31.162  24.297  26.376  1.00  0.00     0.223 C 
ATOM     18  C   UNL A   1      31.968  26.250  25.256  1.00  0.00    -0.003 C 
ATOM     19  C   UNL A   1      30.861  25.790  26.234  1.00  0.00     0.109 C 
ATOM     20  O   UNL A   1      30.909  23.619  27.351  1.00  0.00    -0.275 OA
ATOM     21  C   UNL A   1      33.347  26.335  25.984  1.00  0.00     0.009 C 
ATOM     22  C   UNL A   1      31.603  27.493  24.419  1.00  0.00     0.009 C 
ATOM     23  C   UNL A   1      33.848  27.716  26.359  1.00  0.00     0.001 C 
ATOM     24  C   UNL A   1      32.233  28.813  24.858  1.00  0.00     0.001 C 
ATOM     25  C   UNL A   1      33.708  28.656  25.181  1.00  0.00     0.000 C 
ENDBRANCH  14  15
ENDBRANCH   8  14
ENDBRANCH   7   8
ENDBRANCH   5   7
ENDBRANCH   2   3
ENDBRANCH   1   2
BRANCH   1  26
ATOM     26  C   UNL A   1      38.827  21.265  25.390  1.00  0.00     0.023 C 
BRANCH  26  27
ATOM     27  C   UNL A   1      38.932  19.964  26.181  1.00  0.00     0.116 C 
BRANCH  27  28
ATOM     28  N   UNL A   1      40.140  19.217  25.872  1.00  0.00    -0.352 N 
ATOM     29  C   UNL A   1      41.458  19.600  25.930  1.00  0.00     0.251 C 
ATOM     30  H   UNL A   1      39.990  18.290  25.576  1.00  0.00     0.163 HD
ATOM     31  O   UNL A   1      42.329  18.866  25.471  1.00  0.00    -0.269 OA
BRANCH  29  32
ATOM     32  C   UNL A   1      41.843  20.907  26.513  1.00  0.00     0.039 A 
ATOM     33  C   UNL A   1      42.312  21.910  25.658  1.00  0.00     0.014 A 
ATOM     34  C   UNL A   1      41.779  21.142  27.889  1.00  0.00     0.014 A 
ATOM     35  C   UNL A   1      42.645  23.167  26.171  1.00  0.00     0.010 A 
ATOM     36  C   UNL A   1      42.050  22.415  28.392  1.00  0.00     0.010 A 
ATOM     37  C   UNL A   1      42.481  23.442  27.538  1.00  0.00    -0.014 A 
BRANCH  37  38
ATOM     38  C   UNL A   1      42.741  24.798  28.087  1.00  0.00     0.031 A 
ATOM     39  C   UNL A   1      44.112  25.172  28.580  1.00  0.00     0.074 A 
ATOM     40  C   UNL A   1      41.725  25.675  28.207  1.00  0.00     0.049 A 
ATOM     41  N   UNL A   1      44.506  26.273  29.172  1.00  0.00    -0.248 NA
ATOM     42  C   UNL A   1      45.174  24.171  28.403  1.00  0.00     0.031 C 
ATOM     43  C   UNL A   1      40.339  25.425  27.807  1.00  0.00     0.029 A 
ATOM     44  N   UNL A   1      41.699  26.950  28.716  1.00  0.00    -0.354 N 
ATOM     45  C   UNL A   1      45.853  26.089  29.453  1.00  0.00     0.074 A 
ATOM     46  C   UNL A   1      46.200  24.757  29.003  1.00  0.00     0.031 C 
ATOM     47  C   UNL A   1      39.602  26.515  28.073  1.00  0.00     0.029 A 
ATOM     48  C   UNL A   1      40.453  27.527  28.692  1.00  0.00     0.049 A 
ATOM     49  H   UNL A   1      42.499  27.408  29.064  1.00  0.00     0.167 HD
ATOM     50  C   UNL A   1      46.727  26.956  30.018  1.00  0.00     0.037 A 
ATOM     51  C   UNL A   1      40.039  28.732  29.128  1.00  0.00     0.037 A 
ATOM     52  C   UNL A   1      46.394  28.292  30.442  1.00  0.00     0.049 A 
ATOM     53  C   UNL A   1      41.029  29.678  29.745  1.00  0.00     0.074 A 
ATOM     54  C   UNL A   1      47.227  29.260  30.977  1.00  0.00     0.029 A 
ATOM     55  N   UNL A   1      45.126  28.848  30.373  1.00  0.00    -0.354 N 
ATOM     56  N   UNL A   1      42.309  29.508  29.962  1.00  0.00    -0.248 NA
ATOM     57  C   UNL A   1      40.515  30.988  30.174  1.00  0.00     0.031 C 
ATOM     58  C   UNL A   1      46.456  30.393  31.261  1.00  0.00     0.029 A 
ATOM     59  C   UNL A   1      45.151  30.141  30.869  1.00  0.00     0.049 A 
ATOM     60  H   UNL A   1      44.327  28.392  30.025  1.00  0.00     0.167 HD
ATOM     61  C   UNL A   1      42.760  30.692  30.530  1.00  0.00     0.074 A 
ATOM     62  C   UNL A   1      41.618  31.578  30.614  1.00  0.00     0.031 C 
ATOM     63  C   UNL A   1      44.009  31.014  30.943  1.00  0.00     0.037 A 
BRANCH  50  64
ATOM     64  C   UNL A   1      48.138  26.486  30.207  1.00  0.00     0.057 A 
ATOM     65  C   UNL A   1      49.122  26.703  29.233  1.00  0.00     0.134 A 
ATOM     66  C   UNL A   1      48.528  25.842  31.388  1.00  0.00     0.134 A 
ATOM     67  F   UNL A   1      48.811  27.305  28.076  1.00  0.00    -0.206 F 
ATOM     68  C   UNL A   1      50.438  26.276  29.418  1.00  0.00     0.040 A 
ATOM     69  C   UNL A   1      49.845  25.430  31.594  1.00  0.00     0.040 A 
ATOM     70  F   UNL A   1      47.636  25.609  32.363  1.00  0.00    -0.206 F 
ATOM     71  C   UNL A   1      50.804  25.642  30.604  1.00  0.00     0.006 A 
ENDBRANCH  50  64
BRANCH  51  72
ATOM     72  C   UNL A   1      38.615  29.120  28.981  1.00  0.00     0.057 A 
ATOM     73  C   UNL A   1      37.729  29.027  30.060  1.00  0.00     0.134 A 
ATOM     74  C   UNL A   1      38.107  29.587  27.763  1.00  0.00     0.134 A 
ATOM     75  F   UNL A   1      38.154  28.566  31.244  1.00  0.00    -0.206 F 
ATOM     76  C   UNL A   1      36.382  29.370  29.930  1.00  0.00     0.040 A 
ATOM     77  C   UNL A   1      36.768  29.955  27.626  1.00  0.00     0.040 A 
ATOM     78  F   UNL A   1      38.909  29.704  26.695  1.00  0.00    -0.206 F 
ATOM     79  C   UNL A   1      35.900  29.841  28.710  1.00  0.00     0.006 A 
ENDBRANCH  51  72
BRANCH  63  80
ATOM     80  C   UNL A   1      44.211  32.393  31.499  1.00  0.00     0.057 A 
ATOM     81  C   UNL A   1      44.143  32.649  32.874  1.00  0.00     0.134 A 
ATOM     82  C   UNL A   1      44.512  33.466  30.652  1.00  0.00     0.134 A 
ATOM     83  F   UNL A   1      43.845  31.664  33.735  1.00  0.00    -0.206 F 
ATOM     84  C   UNL A   1      44.349  33.930  33.385  1.00  0.00     0.040 A 
ATOM     85  C   UNL A   1      44.742  34.747  31.154  1.00  0.00     0.040 A 
ATOM     86  F   UNL A   1      44.597  33.284  29.325  1.00  0.00    -0.206 F 
ATOM     87  C   UNL A   1      44.656  34.983  32.525  1.00  0.00     0.006 A 
ENDBRANCH  63  80
ENDBRANCH  37  38
ENDBRANCH  29  32
ENDBRANCH  27  28
ENDBRANCH  26  27
ENDBRANCH   1  26
TORSDOF 14
ENDMDL
