MODEL 1
REMARK VINA RESULT:     -13.7      0.000      0.000
REMARK SMILES C[NH2+][C@@]1(C(=O)NCCCCNC(=O)c2ccc(-c3c4nc(c(-c5c(F)cccc5F)c5ccc([nH]5)c(-c5c(F)cccc5F)c5nc(c(-c6c(F)cccc6F)c6ccc3[nH]6)C=C5)C=C4)cc2)CC[C@H]([NH+]2CC[NH+](C)CC2)C1
REMARK SMILES IDX 9 1 8 2 7 3 6 4 4 5 5 6 3 8 68 9 78 10 69 11 70 12 2 13 1 14
REMARK SMILES IDX 71 17 72 18 77 19 73 21 76 22 74 23 75 24 10 26 11 27 12 28
REMARK SMILES IDX 13 30 14 31 15 32 67 33 16 34 66 35 17 36 18 37 19 38 60 39
REMARK SMILES IDX 20 40 65 41 59 42 61 43 21 44 64 45 58 46 57 47 22 49 48 50
REMARK SMILES IDX 31 51 47 52 32 53 35 54 46 55 62 56 33 57 34 58 45 60 63 61
REMARK SMILES IDX 36 62 23 63 24 64 29 65 25 66 26 67 28 68 30 69 27 70 49 71
REMARK SMILES IDX 50 72 55 73 51 74 52 75 54 76 56 77 53 78 37 79 38 80 43 81
REMARK SMILES IDX 39 82 40 83 42 84 44 85 41 86
REMARK H PARENT 6 7 2 15 2 16 71 20 74 25 11 29 61 48 35 59
REMARK Flexibility Score: inf
ROOT
ATOM      1  C   UNL A   1      31.791  31.941  26.994  1.00  0.00     0.023 C 
ENDROOT
BRANCH   1   2
ATOM      2  C   UNL A   1      32.171  30.293  26.847  1.00  0.00     0.023 C 
BRANCH   2   3
ATOM      3  C   UNL A   1      33.495  29.031  25.760  1.00  0.00     0.116 C 
BRANCH   3   4
ATOM      4  N   UNL A   1      33.860  28.908  24.222  1.00  0.00    -0.351 N 
ATOM      5  C   UNL A   1      33.269  28.654  23.028  1.00  0.00     0.281 C 
ATOM      6  O   UNL A   1      34.097  28.468  22.124  1.00  0.00    -0.268 OA
ATOM      7  H   UNL A   1      34.823  29.067  24.092  1.00  0.00     0.163 HD
BRANCH   5   8
ATOM      8  C   UNL A   1      31.730  28.567  22.795  1.00  0.00     0.181 C 
ATOM      9  C   UNL A   1      30.955  28.533  24.122  1.00  0.00     0.085 C 
ATOM     10  C   UNL A   1      31.337  27.256  22.080  1.00  0.00     0.144 C 
ATOM     11  C   UNL A   1      30.324  27.144  24.189  1.00  0.00     0.072 C 
ATOM     12  C   UNL A   1      31.105  26.247  23.201  1.00  0.00     0.191 C 
BRANCH   8  13
ATOM     13  N   UNL A   1      31.258  29.691  21.928  1.00  0.00    -0.336 N 
ATOM     14  C   UNL A   1      29.818  29.933  21.948  1.00  0.00     0.331 C 
ATOM     15  H   UNL A   1      31.725  30.544  22.236  1.00  0.00     0.346 HD
ATOM     16  H   UNL A   1      31.486  29.424  20.971  1.00  0.00     0.346 HD
ENDBRANCH   8  13
BRANCH  12  17
ATOM     17  N   UNL A   1      32.299  25.570  23.700  1.00  0.00    -0.323 N 
ATOM     18  C   UNL A   1      32.979  24.243  22.618  1.00  0.00     0.324 C 
ATOM     19  C   UNL A   1      32.691  25.544  25.525  1.00  0.00     0.324 C 
ATOM     20  H   UNL A   1      32.967  26.330  23.563  1.00  0.00     0.348 HD
ATOM     21  C   UNL A   1      33.641  22.587  23.421  1.00  0.00     0.324 C 
ATOM     22  C   UNL A   1      33.392  23.869  26.326  1.00  0.00     0.324 C 
ATOM     23  N   UNL A   1      34.028  22.530  25.219  1.00  0.00    -0.328 N 
ATOM     24  C   UNL A   1      33.800  21.192  25.761  1.00  0.00     0.333 C 
ATOM     25  H   UNL A   1      35.023  22.754  25.231  1.00  0.00     0.348 HD
ENDBRANCH  12  17
ENDBRANCH   5   8
ENDBRANCH   3   4
ENDBRANCH   2   3
ENDBRANCH   1   2
BRANCH   1  26
ATOM     26  C   UNL A   1      32.898  32.971  27.263  1.00  0.00     0.116 C 
BRANCH  26  27
ATOM     27  N   UNL A   1      32.413  34.254  27.754  1.00  0.00    -0.352 N 
ATOM     28  C   UNL A   1      32.996  35.081  28.677  1.00  0.00     0.251 C 
ATOM     29  H   UNL A   1      31.560  34.567  27.374  1.00  0.00     0.163 HD
ATOM     30  O   UNL A   1      32.501  36.157  28.987  1.00  0.00    -0.269 OA
BRANCH  28  31
ATOM     31  C   UNL A   1      34.212  34.599  29.348  1.00  0.00     0.039 A 
ATOM     32  C   UNL A   1      34.071  33.915  30.556  1.00  0.00     0.014 A 
ATOM     33  C   UNL A   1      35.457  34.735  28.732  1.00  0.00     0.014 A 
ATOM     34  C   UNL A   1      35.186  33.305  31.122  1.00  0.00     0.010 A 
ATOM     35  C   UNL A   1      36.552  34.067  29.261  1.00  0.00     0.010 A 
ATOM     36  C   UNL A   1      36.423  33.349  30.459  1.00  0.00    -0.014 A 
BRANCH  36  37
ATOM     37  C   UNL A   1      37.597  32.651  31.025  1.00  0.00     0.031 A 
ATOM     38  C   UNL A   1      38.175  33.111  32.329  1.00  0.00     0.074 A 
ATOM     39  C   UNL A   1      38.155  31.637  30.336  1.00  0.00     0.049 A 
ATOM     40  N   UNL A   1      39.197  32.638  32.991  1.00  0.00    -0.248 NA
ATOM     41  C   UNL A   1      37.536  34.277  32.961  1.00  0.00     0.031 C 
ATOM     42  C   UNL A   1      37.709  31.159  29.025  1.00  0.00     0.029 A 
ATOM     43  N   UNL A   1      39.217  30.828  30.641  1.00  0.00    -0.354 N 
ATOM     44  C   UNL A   1      39.331  33.454  34.106  1.00  0.00     0.074 A 
ATOM     45  C   UNL A   1      38.325  34.486  34.003  1.00  0.00     0.031 C 
ATOM     46  C   UNL A   1      38.475  30.119  28.653  1.00  0.00     0.029 A 
ATOM     47  C   UNL A   1      39.474  29.873  29.687  1.00  0.00     0.049 A 
ATOM     48  H   UNL A   1      39.747  30.922  31.466  1.00  0.00     0.167 HD
ATOM     49  C   UNL A   1      40.201  33.333  35.136  1.00  0.00     0.037 A 
ATOM     50  C   UNL A   1      40.407  28.904  29.662  1.00  0.00     0.037 A 
ATOM     51  C   UNL A   1      41.174  32.282  35.238  1.00  0.00     0.049 A 
ATOM     52  C   UNL A   1      41.333  28.766  30.838  1.00  0.00     0.074 A 
ATOM     53  C   UNL A   1      42.064  32.023  36.265  1.00  0.00     0.029 A 
ATOM     54  N   UNL A   1      41.382  31.309  34.270  1.00  0.00    -0.354 N 
ATOM     55  N   UNL A   1      41.399  29.495  31.926  1.00  0.00    -0.248 NA
ATOM     56  C   UNL A   1      42.304  27.665  30.790  1.00  0.00     0.031 C 
ATOM     57  C   UNL A   1      42.832  30.911  35.903  1.00  0.00     0.029 A 
ATOM     58  C   UNL A   1      42.394  30.454  34.669  1.00  0.00     0.049 A 
ATOM     59  H   UNL A   1      40.883  31.238  33.424  1.00  0.00     0.167 HD
ATOM     60  C   UNL A   1      42.401  28.930  32.703  1.00  0.00     0.074 A 
ATOM     61  C   UNL A   1      42.904  27.788  31.967  1.00  0.00     0.031 C 
ATOM     62  C   UNL A   1      42.867  29.321  33.914  1.00  0.00     0.037 A 
BRANCH  49  63
ATOM     63  C   UNL A   1      40.122  34.362  36.225  1.00  0.00     0.057 A 
ATOM     64  C   UNL A   1      39.293  34.192  37.342  1.00  0.00     0.134 A 
ATOM     65  C   UNL A   1      40.885  35.534  36.161  1.00  0.00     0.134 A 
ATOM     66  F   UNL A   1      38.522  33.100  37.456  1.00  0.00    -0.206 F 
ATOM     67  C   UNL A   1      39.203  35.163  38.340  1.00  0.00     0.040 A 
ATOM     68  C   UNL A   1      40.824  36.501  37.166  1.00  0.00     0.040 A 
ATOM     69  F   UNL A   1      41.701  35.760  35.120  1.00  0.00    -0.206 F 
ATOM     70  C   UNL A   1      39.974  36.321  38.256  1.00  0.00     0.006 A 
ENDBRANCH  49  63
BRANCH  50  71
ATOM     71  C   UNL A   1      40.476  27.968  28.513  1.00  0.00     0.057 A 
ATOM     72  C   UNL A   1      41.226  28.277  27.372  1.00  0.00     0.134 A 
ATOM     73  C   UNL A   1      39.804  26.740  28.529  1.00  0.00     0.134 A 
ATOM     74  F   UNL A   1      41.880  29.445  27.291  1.00  0.00    -0.206 F 
ATOM     75  C   UNL A   1      41.292  27.408  26.282  1.00  0.00     0.040 A 
ATOM     76  C   UNL A   1      39.880  25.850  27.454  1.00  0.00     0.040 A 
ATOM     77  F   UNL A   1      39.078  26.378  29.597  1.00  0.00    -0.206 F 
ATOM     78  C   UNL A   1      40.622  26.187  26.324  1.00  0.00     0.006 A 
ENDBRANCH  50  71
BRANCH  62  79
ATOM     79  C   UNL A   1      43.957  28.493  34.523  1.00  0.00     0.057 A 
ATOM     80  C   UNL A   1      43.675  27.370  35.310  1.00  0.00     0.134 A 
ATOM     81  C   UNL A   1      45.302  28.795  34.277  1.00  0.00     0.134 A 
ATOM     82  F   UNL A   1      42.406  27.038  35.589  1.00  0.00    -0.206 F 
ATOM     83  C   UNL A   1      44.696  26.585  35.846  1.00  0.00     0.040 A 
ATOM     84  C   UNL A   1      46.331  28.004  34.788  1.00  0.00     0.040 A 
ATOM     85  F   UNL A   1      45.636  29.854  33.524  1.00  0.00    -0.206 F 
ATOM     86  C   UNL A   1      46.027  26.897  35.579  1.00  0.00     0.006 A 
ENDBRANCH  62  79
ENDBRANCH  36  37
ENDBRANCH  28  31
ENDBRANCH  26  27
ENDBRANCH   1  26
TORSDOF 13
ENDMDL
MODEL 2
REMARK VINA RESULT:     -13.6      0.128      1.329
REMARK SMILES C[NH2+][C@@]1(C(=O)NCCCCNC(=O)c2ccc(-c3c4nc(c(-c5c(F)cccc5F)c5ccc([nH]5)c(-c5c(F)cccc5F)c5nc(c(-c6c(F)cccc6F)c6ccc3[nH]6)C=C5)C=C4)cc2)CC[C@H]([NH+]2CC[NH+](C)CC2)C1
REMARK SMILES IDX 9 1 8 2 7 3 6 4 4 5 5 6 3 8 68 9 78 10 69 11 70 12 2 13 1 14
REMARK SMILES IDX 71 17 72 18 77 19 73 21 76 22 74 23 75 24 10 26 11 27 12 28
REMARK SMILES IDX 13 30 14 31 15 32 67 33 16 34 66 35 17 36 18 37 19 38 60 39
REMARK SMILES IDX 20 40 65 41 59 42 61 43 21 44 64 45 58 46 57 47 22 49 48 50
REMARK SMILES IDX 31 51 47 52 32 53 35 54 46 55 62 56 33 57 34 58 45 60 63 61
REMARK SMILES IDX 36 62 23 63 24 64 29 65 25 66 26 67 28 68 30 69 27 70 49 71
REMARK SMILES IDX 50 72 55 73 51 74 52 75 54 76 56 77 53 78 37 79 38 80 43 81
REMARK SMILES IDX 39 82 40 83 42 84 44 85 41 86
REMARK H PARENT 6 7 2 15 2 16 71 20 74 25 11 29 61 48 35 59
REMARK Flexibility Score: inf
ROOT
ATOM      1  C   UNL A   1      31.766  31.979  26.887  1.00  0.00     0.023 C 
ENDROOT
BRANCH   1   2
ATOM      2  C   UNL A   1      32.127  30.350  26.576  1.00  0.00     0.023 C 
BRANCH   2   3
ATOM      3  C   UNL A   1      33.594  29.184  25.567  1.00  0.00     0.116 C 
BRANCH   3   4
ATOM      4  N   UNL A   1      33.900  28.913  24.036  1.00  0.00    -0.351 N 
ATOM      5  C   UNL A   1      33.260  28.571  22.890  1.00  0.00     0.281 C 
ATOM      6  O   UNL A   1      34.050  28.281  21.979  1.00  0.00    -0.268 OA
ATOM      7  H   UNL A   1      34.862  29.030  23.860  1.00  0.00     0.163 HD
BRANCH   5   8
ATOM      8  C   UNL A   1      31.712  28.512  22.716  1.00  0.00     0.181 C 
ATOM      9  C   UNL A   1      30.990  28.459  24.071  1.00  0.00     0.085 C 
ATOM     10  C   UNL A   1      31.272  27.222  21.988  1.00  0.00     0.144 C 
ATOM     11  C   UNL A   1      30.342  27.078  24.133  1.00  0.00     0.072 C 
ATOM     12  C   UNL A   1      31.069  26.192  23.096  1.00  0.00     0.191 C 
BRANCH   8  13
ATOM     13  N   UNL A   1      31.223  29.661  21.893  1.00  0.00    -0.336 N 
ATOM     14  C   UNL A   1      29.778  29.870  21.910  1.00  0.00     0.331 C 
ATOM     15  H   UNL A   1      31.668  30.510  22.242  1.00  0.00     0.346 HD
ATOM     16  H   UNL A   1      31.465  29.440  20.928  1.00  0.00     0.346 HD
ENDBRANCH   8  13
BRANCH  12  17
ATOM     17  N   UNL A   1      32.271  25.488  23.532  1.00  0.00    -0.323 N 
ATOM     18  C   UNL A   1      32.722  23.991  22.556  1.00  0.00     0.324 C 
ATOM     19  C   UNL A   1      32.892  25.648  25.286  1.00  0.00     0.324 C 
ATOM     20  H   UNL A   1      32.963  26.170  23.220  1.00  0.00     0.348 HD
ATOM     21  C   UNL A   1      33.374  22.395  23.480  1.00  0.00     0.324 C 
ATOM     22  C   UNL A   1      33.581  24.031  26.206  1.00  0.00     0.324 C 
ATOM     23  N   UNL A   1      33.983  22.524  25.212  1.00  0.00    -0.328 N 
ATOM     24  C   UNL A   1      33.742  21.283  25.945  1.00  0.00     0.333 C 
ATOM     25  H   UNL A   1      34.984  22.668  25.077  1.00  0.00     0.348 HD
ENDBRANCH  12  17
ENDBRANCH   5   8
ENDBRANCH   3   4
ENDBRANCH   2   3
ENDBRANCH   1   2
BRANCH   1  26
ATOM     26  C   UNL A   1      32.880  32.957  27.289  1.00  0.00     0.116 C 
BRANCH  26  27
ATOM     27  N   UNL A   1      32.399  34.246  27.769  1.00  0.00    -0.352 N 
ATOM     28  C   UNL A   1      32.983  35.078  28.686  1.00  0.00     0.251 C 
ATOM     29  H   UNL A   1      31.548  34.559  27.384  1.00  0.00     0.163 HD
ATOM     30  O   UNL A   1      32.491  36.158  28.987  1.00  0.00    -0.269 OA
BRANCH  28  31
ATOM     31  C   UNL A   1      34.195  34.597  29.364  1.00  0.00     0.039 A 
ATOM     32  C   UNL A   1      34.047  33.907  30.568  1.00  0.00     0.014 A 
ATOM     33  C   UNL A   1      35.444  34.739  28.758  1.00  0.00     0.014 A 
ATOM     34  C   UNL A   1      35.160  33.298  31.140  1.00  0.00     0.010 A 
ATOM     35  C   UNL A   1      36.538  34.073  29.292  1.00  0.00     0.010 A 
ATOM     36  C   UNL A   1      36.402  33.349  30.487  1.00  0.00    -0.014 A 
BRANCH  36  37
ATOM     37  C   UNL A   1      37.574  32.652  31.057  1.00  0.00     0.031 A 
ATOM     38  C   UNL A   1      38.140  33.107  32.369  1.00  0.00     0.074 A 
ATOM     39  C   UNL A   1      38.140  31.643  30.368  1.00  0.00     0.049 A 
ATOM     40  N   UNL A   1      39.159  32.634  33.036  1.00  0.00    -0.248 NA
ATOM     41  C   UNL A   1      37.492  34.268  33.001  1.00  0.00     0.031 C 
ATOM     42  C   UNL A   1      37.706  31.170  29.051  1.00  0.00     0.029 A 
ATOM     43  N   UNL A   1      39.203  30.836  30.677  1.00  0.00    -0.354 N 
ATOM     44  C   UNL A   1      39.282  33.446  34.155  1.00  0.00     0.074 A 
ATOM     45  C   UNL A   1      38.273  34.474  34.050  1.00  0.00     0.031 C 
ATOM     46  C   UNL A   1      38.478  30.134  28.680  1.00  0.00     0.029 A 
ATOM     47  C   UNL A   1      39.470  29.887  29.720  1.00  0.00     0.049 A 
ATOM     48  H   UNL A   1      39.726  30.927  31.507  1.00  0.00     0.167 HD
ATOM     49  C   UNL A   1      40.144  33.322  35.191  1.00  0.00     0.037 A 
ATOM     50  C   UNL A   1      40.406  28.921  29.698  1.00  0.00     0.037 A 
ATOM     51  C   UNL A   1      41.120  32.273  35.296  1.00  0.00     0.049 A 
ATOM     52  C   UNL A   1      41.324  28.780  30.880  1.00  0.00     0.074 A 
ATOM     53  C   UNL A   1      42.002  32.012  36.328  1.00  0.00     0.029 A 
ATOM     54  N   UNL A   1      41.339  31.307  34.325  1.00  0.00    -0.354 N 
ATOM     55  N   UNL A   1      41.380  29.504  31.973  1.00  0.00    -0.248 NA
ATOM     56  C   UNL A   1      42.299  27.683  30.834  1.00  0.00     0.031 C 
ATOM     57  C   UNL A   1      42.777  30.905  35.967  1.00  0.00     0.029 A 
ATOM     58  C   UNL A   1      42.351  30.453  34.727  1.00  0.00     0.049 A 
ATOM     59  H   UNL A   1      40.846  31.237  33.475  1.00  0.00     0.167 HD
ATOM     60  C   UNL A   1      42.377  28.939  32.754  1.00  0.00     0.074 A 
ATOM     61  C   UNL A   1      42.889  27.801  32.017  1.00  0.00     0.031 C 
ATOM     62  C   UNL A   1      42.833  29.325  33.971  1.00  0.00     0.037 A 
BRANCH  49  63
ATOM     63  C   UNL A   1      40.054  34.346  36.285  1.00  0.00     0.057 A 
ATOM     64  C   UNL A   1      39.229  34.160  37.403  1.00  0.00     0.134 A 
ATOM     65  C   UNL A   1      40.800  35.528  36.224  1.00  0.00     0.134 A 
ATOM     66  F   UNL A   1      38.473  33.056  37.515  1.00  0.00    -0.206 F 
ATOM     67  C   UNL A   1      39.128  35.125  38.405  1.00  0.00     0.040 A 
ATOM     68  C   UNL A   1      40.728  36.490  37.233  1.00  0.00     0.040 A 
ATOM     69  F   UNL A   1      41.610  35.770  35.182  1.00  0.00    -0.206 F 
ATOM     70  C   UNL A   1      39.883  36.294  38.324  1.00  0.00     0.006 A 
ENDBRANCH  49  63
BRANCH  50  71
ATOM     71  C   UNL A   1      40.487  27.990  28.545  1.00  0.00     0.057 A 
ATOM     72  C   UNL A   1      39.810  26.765  28.556  1.00  0.00     0.134 A 
ATOM     73  C   UNL A   1      41.232  28.305  27.402  1.00  0.00     0.134 A 
ATOM     74  F   UNL A   1      39.092  26.401  29.628  1.00  0.00    -0.206 F 
ATOM     75  C   UNL A   1      39.884  25.878  27.480  1.00  0.00     0.040 A 
ATOM     76  C   UNL A   1      41.297  27.437  26.309  1.00  0.00     0.040 A 
ATOM     77  F   UNL A   1      41.894  29.468  27.323  1.00  0.00    -0.206 F 
ATOM     78  C   UNL A   1      40.625  26.217  26.350  1.00  0.00     0.006 A 
ENDBRANCH  50  71
BRANCH  62  79
ATOM     79  C   UNL A   1      43.921  28.498  34.584  1.00  0.00     0.057 A 
ATOM     80  C   UNL A   1      45.273  28.815  34.409  1.00  0.00     0.134 A 
ATOM     81  C   UNL A   1      43.609  27.402  35.399  1.00  0.00     0.134 A 
ATOM     82  F   UNL A   1      45.634  29.846  33.630  1.00  0.00    -0.206 F 
ATOM     83  C   UNL A   1      46.280  28.059  35.009  1.00  0.00     0.040 A 
ATOM     84  C   UNL A   1      44.606  26.654  36.024  1.00  0.00     0.040 A 
ATOM     85  F   UNL A   1      42.331  27.054  35.612  1.00  0.00    -0.206 F 
ATOM     86  C   UNL A   1      45.946  26.980  35.826  1.00  0.00     0.006 A 
ENDBRANCH  62  79
ENDBRANCH  36  37
ENDBRANCH  28  31
ENDBRANCH  26  27
ENDBRANCH   1  26
TORSDOF 13
ENDMDL
MODEL 3
REMARK VINA RESULT:     -13.4      5.012     10.319
REMARK SMILES C[NH2+][C@@]1(C(=O)NCCCCNC(=O)c2ccc(-c3c4nc(c(-c5c(F)cccc5F)c5ccc([nH]5)c(-c5c(F)cccc5F)c5nc(c(-c6c(F)cccc6F)c6ccc3[nH]6)C=C5)C=C4)cc2)CC[C@H]([NH+]2CC[NH+](C)CC2)C1
REMARK SMILES IDX 9 1 8 2 7 3 6 4 4 5 5 6 3 8 68 9 78 10 69 11 70 12 2 13 1 14
REMARK SMILES IDX 71 17 72 18 77 19 73 21 76 22 74 23 75 24 10 26 11 27 12 28
REMARK SMILES IDX 13 30 14 31 15 32 67 33 16 34 66 35 17 36 18 37 19 38 60 39
REMARK SMILES IDX 20 40 65 41 59 42 61 43 21 44 64 45 58 46 57 47 22 49 48 50
REMARK SMILES IDX 31 51 47 52 32 53 35 54 46 55 62 56 33 57 34 58 45 60 63 61
REMARK SMILES IDX 36 62 23 63 24 64 29 65 25 66 26 67 28 68 30 69 27 70 49 71
REMARK SMILES IDX 50 72 55 73 51 74 52 75 54 76 56 77 53 78 37 79 38 80 43 81
REMARK SMILES IDX 39 82 40 83 42 84 44 85 41 86
REMARK H PARENT 6 7 2 15 2 16 71 20 74 25 11 29 61 48 35 59
REMARK Flexibility Score: inf
ROOT
ATOM      1  C   UNL A   1      37.949  20.065  24.998  1.00  0.00     0.023 C 
ENDROOT
BRANCH   1   2
ATOM      2  C   UNL A   1      36.623  21.110  25.177  1.00  0.00     0.023 C 
BRANCH   2   3
ATOM      3  C   UNL A   1      36.107  23.143  24.821  1.00  0.00     0.116 C 
BRANCH   3   4
ATOM      4  N   UNL A   1      35.227  23.862  23.715  1.00  0.00    -0.351 N 
ATOM      5  C   UNL A   1      33.961  23.861  23.229  1.00  0.00     0.281 C 
ATOM      6  O   UNL A   1      33.864  24.506  22.174  1.00  0.00    -0.268 OA
ATOM      7  H   UNL A   1      35.774  24.520  23.227  1.00  0.00     0.163 HD
BRANCH   5   8
ATOM      8  C   UNL A   1      32.755  23.120  23.879  1.00  0.00     0.181 C 
ATOM      9  C   UNL A   1      31.444  23.395  23.125  1.00  0.00     0.085 C 
ATOM     10  C   UNL A   1      32.490  23.619  25.317  1.00  0.00     0.144 C 
ATOM     11  C   UNL A   1      30.580  24.201  24.091  1.00  0.00     0.072 C 
ATOM     12  C   UNL A   1      31.530  24.795  25.157  1.00  0.00     0.191 C 
BRANCH   8  13
ATOM     13  N   UNL A   1      33.019  21.650  23.974  1.00  0.00    -0.336 N 
ATOM     14  C   UNL A   1      32.232  20.938  24.976  1.00  0.00     0.331 C 
ATOM     15  H   UNL A   1      32.821  21.235  23.064  1.00  0.00     0.346 HD
ATOM     16  H   UNL A   1      33.993  21.557  24.261  1.00  0.00     0.346 HD
ENDBRANCH   8  13
BRANCH  12  17
ATOM     17  N   UNL A   1      32.151  26.084  24.866  1.00  0.00    -0.323 N 
ATOM     18  C   UNL A   1      33.711  26.445  25.778  1.00  0.00     0.324 C 
ATOM     19  C   UNL A   1      31.142  27.505  24.197  1.00  0.00     0.324 C 
ATOM     20  H   UNL A   1      32.489  25.876  23.926  1.00  0.00     0.348 HD
ATOM     21  C   UNL A   1      34.027  28.243  26.478  1.00  0.00     0.324 C 
ATOM     22  C   UNL A   1      31.489  29.331  24.890  1.00  0.00     0.324 C 
ATOM     23  N   UNL A   1      33.040  29.661  25.843  1.00  0.00    -0.328 N 
ATOM     24  C   UNL A   1      32.864  30.680  26.875  1.00  0.00     0.333 C 
ATOM     25  H   UNL A   1      33.633  30.015  25.092  1.00  0.00     0.348 HD
ENDBRANCH  12  17
ENDBRANCH   5   8
ENDBRANCH   3   4
ENDBRANCH   2   3
ENDBRANCH   1   2
BRANCH   1  26
ATOM     26  C   UNL A   1      39.213  20.265  25.846  1.00  0.00     0.116 C 
BRANCH  26  27
ATOM     27  N   UNL A   1      40.175  19.174  25.751  1.00  0.00    -0.352 N 
ATOM     28  C   UNL A   1      41.512  19.199  26.043  1.00  0.00     0.251 C 
ATOM     29  H   UNL A   1      39.818  18.311  25.438  1.00  0.00     0.163 HD
ATOM     30  O   UNL A   1      42.214  18.200  25.949  1.00  0.00    -0.269 OA
BRANCH  28  31
ATOM     31  C   UNL A   1      42.105  20.495  26.405  1.00  0.00     0.039 A 
ATOM     32  C   UNL A   1      42.430  21.381  25.377  1.00  0.00     0.014 A 
ATOM     33  C   UNL A   1      42.234  20.859  27.746  1.00  0.00     0.014 A 
ATOM     34  C   UNL A   1      42.832  22.673  25.701  1.00  0.00     0.010 A 
ATOM     35  C   UNL A   1      42.567  22.168  28.065  1.00  0.00     0.010 A 
ATOM     36  C   UNL A   1      42.868  23.082  27.043  1.00  0.00    -0.014 A 
BRANCH  36  37
ATOM     37  C   UNL A   1      43.235  24.471  27.390  1.00  0.00     0.031 A 
ATOM     38  C   UNL A   1      44.666  24.907  27.287  1.00  0.00     0.074 A 
ATOM     39  C   UNL A   1      42.282  25.313  27.834  1.00  0.00     0.049 A 
ATOM     40  N   UNL A   1      45.193  26.075  27.545  1.00  0.00    -0.248 NA
ATOM     41  C   UNL A   1      45.639  23.887  26.866  1.00  0.00     0.031 C 
ATOM     42  C   UNL A   1      40.874  24.966  28.035  1.00  0.00     0.029 A 
ATOM     43  N   UNL A   1      42.354  26.632  28.197  1.00  0.00    -0.354 N 
ATOM     44  C   UNL A   1      46.557  25.924  27.330  1.00  0.00     0.074 A 
ATOM     45  C   UNL A   1      46.784  24.542  26.979  1.00  0.00     0.031 C 
ATOM     46  C   UNL A   1      40.208  26.054  28.456  1.00  0.00     0.029 A 
ATOM     47  C   UNL A   1      41.145  27.165  28.574  1.00  0.00     0.049 A 
ATOM     48  H   UNL A   1      43.192  27.149  28.188  1.00  0.00     0.167 HD
ATOM     49  C   UNL A   1      47.526  26.867  27.395  1.00  0.00     0.037 A 
ATOM     50  C   UNL A   1      40.834  28.416  28.961  1.00  0.00     0.037 A 
ATOM     51  C   UNL A   1      47.277  28.245  27.715  1.00  0.00     0.049 A 
ATOM     52  C   UNL A   1      41.922  29.453  28.984  1.00  0.00     0.074 A 
ATOM     53  C   UNL A   1      48.170  29.301  27.749  1.00  0.00     0.029 A 
ATOM     54  N   UNL A   1      46.034  28.759  28.057  1.00  0.00    -0.354 N 
ATOM     55  N   UNL A   1      43.196  29.320  28.702  1.00  0.00    -0.248 NA
ATOM     56  C   UNL A   1      41.529  30.816  29.366  1.00  0.00     0.031 C 
ATOM     57  C   UNL A   1      47.473  30.447  28.141  1.00  0.00     0.029 A 
ATOM     58  C   UNL A   1      46.137  30.115  28.315  1.00  0.00     0.049 A 
ATOM     59  H   UNL A   1      45.201  28.236  28.108  1.00  0.00     0.167 HD
ATOM     60  C   UNL A   1      43.754  30.582  28.849  1.00  0.00     0.074 A 
ATOM     61  C   UNL A   1      42.675  31.472  29.231  1.00  0.00     0.031 C 
ATOM     62  C   UNL A   1      45.041  30.973  28.687  1.00  0.00     0.037 A 
BRANCH  49  63
ATOM     63  C   UNL A   1      48.931  26.428  27.107  1.00  0.00     0.057 A 
ATOM     64  C   UNL A   1      49.433  26.372  25.799  1.00  0.00     0.134 A 
ATOM     65  C   UNL A   1      49.795  26.060  28.145  1.00  0.00     0.134 A 
ATOM     66  F   UNL A   1      48.651  26.693  24.757  1.00  0.00    -0.206 F 
ATOM     67  C   UNL A   1      50.732  25.937  25.533  1.00  0.00     0.040 A 
ATOM     68  C   UNL A   1      51.105  25.649  27.894  1.00  0.00     0.040 A 
ATOM     69  F   UNL A   1      49.379  26.091  29.421  1.00  0.00    -0.206 F 
ATOM     70  C   UNL A   1      51.575  25.578  26.583  1.00  0.00     0.006 A 
ENDBRANCH  49  63
BRANCH  50  71
ATOM     71  C   UNL A   1      39.433  28.761  29.307  1.00  0.00     0.057 A 
ATOM     72  C   UNL A   1      38.539  29.216  28.331  1.00  0.00     0.134 A 
ATOM     73  C   UNL A   1      38.951  28.636  30.615  1.00  0.00     0.134 A 
ATOM     74  F   UNL A   1      38.945  29.370  27.063  1.00  0.00    -0.206 F 
ATOM     75  C   UNL A   1      37.220  29.550  28.645  1.00  0.00     0.040 A 
ATOM     76  C   UNL A   1      37.628  28.945  30.940  1.00  0.00     0.040 A 
ATOM     77  F   UNL A   1      39.754  28.194  31.594  1.00  0.00    -0.206 F 
ATOM     78  C   UNL A   1      36.760  29.409  29.953  1.00  0.00     0.006 A 
ENDBRANCH  50  71
BRANCH  62  79
ATOM     79  C   UNL A   1      45.344  32.425  28.900  1.00  0.00     0.057 A 
ATOM     80  C   UNL A   1      45.774  32.911  30.141  1.00  0.00     0.134 A 
ATOM     81  C   UNL A   1      45.251  33.334  27.840  1.00  0.00     0.134 A 
ATOM     82  F   UNL A   1      45.871  32.089  31.196  1.00  0.00    -0.206 F 
ATOM     83  C   UNL A   1      46.085  34.259  30.323  1.00  0.00     0.040 A 
ATOM     84  C   UNL A   1      45.582  34.679  28.005  1.00  0.00     0.040 A 
ATOM     85  F   UNL A   1      44.852  32.927  26.626  1.00  0.00    -0.206 F 
ATOM     86  C   UNL A   1      45.997  35.145  29.251  1.00  0.00     0.006 A 
ENDBRANCH  62  79
ENDBRANCH  36  37
ENDBRANCH  28  31
ENDBRANCH  26  27
ENDBRANCH   1  26
TORSDOF 13
ENDMDL
