MODEL 1
REMARK VINA RESULT:     -11.5      0.000      0.000
REMARK SMILES CC1(C)OC(=O)C(/C=N/[C@@H](CCC(N)=O)C(=O)NCCCCNC(=O)c2ccc(-c3c4nc(c(-c5c(F)cccc5F)c5ccc([nH]5)c(-c5c(F)cccc5F)c5nc(c(-c6c(F)cccc6F)c6ccc3[nH]6)C=C5)C=C4)cc2)C(=O)O1
REMARK SMILES IDX 20 1 19 2 18 3 16 4 17 5 10 7 9 8 8 9 7 10 1 11 2 12 3 13
REMARK SMILES IDX 4 14 82 15 5 16 80 17 6 18 81 19 11 20 12 21 13 22 14 23
REMARK SMILES IDX 15 24 21 27 22 28 23 29 24 30 25 32 26 33 27 34 79 35 28 36
REMARK SMILES IDX 78 37 29 38 30 39 31 40 72 41 32 42 77 43 71 44 73 45 33 46
REMARK SMILES IDX 76 47 70 48 69 49 34 51 60 52 43 53 59 54 44 55 47 56 58 57
REMARK SMILES IDX 74 58 45 59 46 60 57 62 75 63 48 64 35 65 36 66 41 67 37 68
REMARK SMILES IDX 38 69 40 70 42 71 39 72 61 73 62 74 67 75 63 76 64 77 66 78
REMARK SMILES IDX 68 79 65 80 49 81 50 82 55 83 51 84 52 85 54 86 56 87 53 88
REMARK H PARENT 18 6 14 25 14 26 23 31 73 50 47 61
REMARK Flexibility Score: inf
ROOT
ATOM      1  C   UNL A   1      37.268  23.002  24.945  1.00  0.00     0.023 C 
ENDROOT
BRANCH   1   2
ATOM      2  C   UNL A   1      35.790  23.240  25.200  1.00  0.00     0.116 C 
BRANCH   2   3
ATOM      3  N   UNL A   1      35.314  22.661  26.427  1.00  0.00    -0.354 N 
ATOM      4  C   UNL A   1      34.175  21.937  26.646  1.00  0.00     0.244 C 
ATOM      5  O   UNL A   1      34.015  21.439  27.764  1.00  0.00    -0.273 OA
ATOM      6  H   UNL A   1      35.885  22.805  27.216  1.00  0.00     0.163 HD
BRANCH   4   7
ATOM      7  C   UNL A   1      33.115  21.764  25.539  1.00  0.00     0.194 C 
BRANCH   7   8
ATOM      8  N   UNL A   1      32.490  23.073  25.249  1.00  0.00    -0.283 NA
ATOM      9  C   UNL A   1      31.272  23.261  24.925  1.00  0.00     0.105 C 
BRANCH   9  10
ATOM     10  C   UNL A   1      30.713  24.661  24.782  1.00  0.00     0.250 C 
ATOM     11  C   UNL A   1      33.562  26.936  26.106  1.00  0.00     0.106 C 
ATOM     12  C   UNL A   1      32.118  26.978  25.610  1.00  0.00     0.252 C 
ATOM     13  C   UNL A   1      31.591  28.411  25.650  1.00  0.00     0.106 C 
ATOM     14  O   UNL A   1      31.338  26.209  26.519  1.00  0.00    -0.422 OA
ATOM     15  O   UNL A   1      32.117  26.572  24.243  1.00  0.00    -0.422 OA
ATOM     16  C   UNL A   1      30.416  25.346  26.066  1.00  0.00     0.329 C 
ATOM     17  C   UNL A   1      31.529  25.446  23.828  1.00  0.00     0.329 C 
ATOM     18  O   UNL A   1      29.430  25.094  26.749  1.00  0.00    -0.251 OA
ATOM     19  O   UNL A   1      31.697  25.057  22.674  1.00  0.00    -0.251 OA
ENDBRANCH   9  10
ENDBRANCH   7   8
BRANCH   7  20
ATOM     20  C   UNL A   1      33.454  20.811  24.377  1.00  0.00     0.047 C 
BRANCH  20  21
ATOM     21  C   UNL A   1      33.841  19.351  24.626  1.00  0.00     0.102 C 
BRANCH  21  22
ATOM     22  C   UNL A   1      32.791  18.517  25.329  1.00  0.00     0.217 C 
ATOM     23  N   UNL A   1      32.875  18.540  26.692  1.00  0.00    -0.370 N 
ATOM     24  O   UNL A   1      31.935  17.850  24.768  1.00  0.00    -0.275 OA
ATOM     25  H   UNL A   1      33.569  19.081  27.133  1.00  0.00     0.159 HD
ATOM     26  H   UNL A   1      32.241  18.016  27.233  1.00  0.00     0.159 HD
ENDBRANCH  21  22
ENDBRANCH  20  21
ENDBRANCH   7  20
ENDBRANCH   4   7
ENDBRANCH   2   3
ENDBRANCH   1   2
BRANCH   1  27
ATOM     27  C   UNL A   1      37.723  21.557  25.100  1.00  0.00     0.023 C 
BRANCH  27  28
ATOM     28  C   UNL A   1      38.877  21.337  26.072  1.00  0.00     0.116 C 
BRANCH  28  29
ATOM     29  N   UNL A   1      39.661  20.132  25.817  1.00  0.00    -0.352 N 
ATOM     30  C   UNL A   1      41.015  19.951  26.010  1.00  0.00     0.251 C 
ATOM     31  H   UNL A   1      39.165  19.357  25.467  1.00  0.00     0.163 HD
ATOM     32  O   UNL A   1      41.564  18.907  25.697  1.00  0.00    -0.269 OA
BRANCH  30  33
ATOM     33  C   UNL A   1      41.784  21.084  26.565  1.00  0.00     0.039 A 
ATOM     34  C   UNL A   1      42.276  22.060  25.699  1.00  0.00     0.014 A 
ATOM     35  C   UNL A   1      41.860  21.245  27.950  1.00  0.00     0.014 A 
ATOM     36  C   UNL A   1      42.757  23.258  26.229  1.00  0.00     0.010 A 
ATOM     37  C   UNL A   1      42.260  22.469  28.468  1.00  0.00     0.010 A 
ATOM     38  C   UNL A   1      42.697  23.494  27.612  1.00  0.00    -0.014 A 
BRANCH  38  39
ATOM     39  C   UNL A   1      43.063  24.808  28.197  1.00  0.00     0.031 A 
ATOM     40  C   UNL A   1      41.998  25.838  28.438  1.00  0.00     0.074 A 
ATOM     41  C   UNL A   1      44.359  25.111  28.410  1.00  0.00     0.049 A 
ATOM     42  N   UNL A   1      42.122  27.085  28.816  1.00  0.00    -0.248 NA
ATOM     43  C   UNL A   1      40.609  25.423  28.181  1.00  0.00     0.031 C 
ATOM     44  C   UNL A   1      45.496  24.224  28.153  1.00  0.00     0.029 A 
ATOM     45  N   UNL A   1      44.940  26.264  28.877  1.00  0.00    -0.354 N 
ATOM     46  C   UNL A   1      40.836  27.608  28.809  1.00  0.00     0.074 A 
ATOM     47  C   UNL A   1      39.953  26.560  28.345  1.00  0.00     0.031 C 
ATOM     48  C   UNL A   1      46.633  24.856  28.487  1.00  0.00     0.029 A 
ATOM     49  C   UNL A   1      46.311  26.203  28.948  1.00  0.00     0.049 A 
ATOM     50  H   UNL A   1      44.423  27.061  29.136  1.00  0.00     0.167 HD
ATOM     51  C   UNL A   1      40.423  28.842  29.180  1.00  0.00     0.037 A 
ATOM     52  C   UNL A   1      47.206  27.131  29.336  1.00  0.00     0.037 A 
ATOM     53  C   UNL A   1      41.295  29.866  29.689  1.00  0.00     0.049 A 
ATOM     54  C   UNL A   1      46.719  28.481  29.782  1.00  0.00     0.074 A 
ATOM     55  C   UNL A   1      40.964  31.122  30.164  1.00  0.00     0.029 A 
ATOM     56  N   UNL A   1      42.672  29.746  29.796  1.00  0.00    -0.354 N 
ATOM     57  N   UNL A   1      45.493  28.940  29.835  1.00  0.00    -0.248 NA
ATOM     58  C   UNL A   1      47.740  29.440  30.227  1.00  0.00     0.031 C 
ATOM     59  C   UNL A   1      42.145  31.773  30.538  1.00  0.00     0.029 A 
ATOM     60  C   UNL A   1      43.207  30.909  30.323  1.00  0.00     0.049 A 
ATOM     61  H   UNL A   1      43.192  28.951  29.536  1.00  0.00     0.167 HD
ATOM     62  C   UNL A   1      45.592  30.229  30.341  1.00  0.00     0.074 A 
ATOM     63  C   UNL A   1      46.997  30.476  30.590  1.00  0.00     0.031 C 
ATOM     64  C   UNL A   1      44.606  31.129  30.579  1.00  0.00     0.037 A 
BRANCH  51  65
ATOM     65  C   UNL A   1      38.959  29.140  29.062  1.00  0.00     0.057 A 
ATOM     66  C   UNL A   1      38.380  29.519  27.844  1.00  0.00     0.134 A 
ATOM     67  C   UNL A   1      38.114  29.031  30.174  1.00  0.00     0.134 A 
ATOM     68  F   UNL A   1      39.139  29.658  26.746  1.00  0.00    -0.206 F 
ATOM     69  C   UNL A   1      37.020  29.807  27.741  1.00  0.00     0.040 A 
ATOM     70  C   UNL A   1      36.747  29.291  30.078  1.00  0.00     0.040 A 
ATOM     71  F   UNL A   1      38.604  28.669  31.370  1.00  0.00    -0.206 F 
ATOM     72  C   UNL A   1      36.198  29.687  28.860  1.00  0.00     0.006 A 
ENDBRANCH  51  65
BRANCH  52  73
ATOM     73  C   UNL A   1      48.654  26.807  29.356  1.00  0.00     0.057 A 
ATOM     74  C   UNL A   1      49.240  26.211  30.478  1.00  0.00     0.134 A 
ATOM     75  C   UNL A   1      49.486  27.091  28.266  1.00  0.00     0.134 A 
ATOM     76  F   UNL A   1      48.496  25.933  31.559  1.00  0.00    -0.206 F 
ATOM     77  C   UNL A   1      50.605  25.925  30.527  1.00  0.00     0.040 A 
ATOM     78  C   UNL A   1      50.849  26.791  28.293  1.00  0.00     0.040 A 
ATOM     79  F   UNL A   1      48.983  27.654  27.159  1.00  0.00    -0.206 F 
ATOM     80  C   UNL A   1      51.413  26.213  29.429  1.00  0.00     0.006 A 
ENDBRANCH  52  73
BRANCH  64  81
ATOM     81  C   UNL A   1      45.008  32.445  31.169  1.00  0.00     0.057 A 
ATOM     82  C   UNL A   1      45.101  32.635  32.552  1.00  0.00     0.134 A 
ATOM     83  C   UNL A   1      45.355  33.519  30.340  1.00  0.00     0.134 A 
ATOM     84  F   UNL A   1      44.770  31.647  33.397  1.00  0.00    -0.206 F 
ATOM     85  C   UNL A   1      45.510  33.855  33.093  1.00  0.00     0.040 A 
ATOM     86  C   UNL A   1      45.785  34.737  30.868  1.00  0.00     0.040 A 
ATOM     87  F   UNL A   1      45.294  33.398  29.005  1.00  0.00    -0.206 F 
ATOM     88  C   UNL A   1      45.861  34.907  32.250  1.00  0.00     0.006 A 
ENDBRANCH  64  81
ENDBRANCH  38  39
ENDBRANCH  30  33
ENDBRANCH  28  29
ENDBRANCH  27  28
ENDBRANCH   1  27
TORSDOF 16
ENDMDL
MODEL 2
REMARK VINA RESULT:     -11.3      3.412      8.667
REMARK SMILES CC1(C)OC(=O)C(/C=N/[C@@H](CCC(N)=O)C(=O)NCCCCNC(=O)c2ccc(-c3c4nc(c(-c5c(F)cccc5F)c5ccc([nH]5)c(-c5c(F)cccc5F)c5nc(c(-c6c(F)cccc6F)c6ccc3[nH]6)C=C5)C=C4)cc2)C(=O)O1
REMARK SMILES IDX 20 1 19 2 18 3 16 4 17 5 10 7 9 8 8 9 7 10 1 11 2 12 3 13
REMARK SMILES IDX 4 14 82 15 5 16 80 17 6 18 81 19 11 20 12 21 13 22 14 23
REMARK SMILES IDX 15 24 21 27 22 28 23 29 24 30 25 32 26 33 27 34 79 35 28 36
REMARK SMILES IDX 78 37 29 38 30 39 31 40 72 41 32 42 77 43 71 44 73 45 33 46
REMARK SMILES IDX 76 47 70 48 69 49 34 51 60 52 43 53 59 54 44 55 47 56 58 57
REMARK SMILES IDX 74 58 45 59 46 60 57 62 75 63 48 64 35 65 36 66 41 67 37 68
REMARK SMILES IDX 38 69 40 70 42 71 39 72 61 73 62 74 67 75 63 76 64 77 66 78
REMARK SMILES IDX 68 79 65 80 49 81 50 82 55 83 51 84 52 85 54 86 56 87 53 88
REMARK H PARENT 18 6 14 25 14 26 23 31 73 50 47 61
REMARK Flexibility Score: inf
ROOT
ATOM      1  C   UNL A   1      31.898  29.184  27.225  1.00  0.00     0.023 C 
ENDROOT
BRANCH   1   2
ATOM      2  C   UNL A   1      32.195  28.015  26.303  1.00  0.00     0.116 C 
BRANCH   2   3
ATOM      3  N   UNL A   1      32.905  28.385  25.108  1.00  0.00    -0.354 N 
ATOM      4  C   UNL A   1      32.622  28.062  23.810  1.00  0.00     0.244 C 
ATOM      5  O   UNL A   1      33.307  28.581  22.924  1.00  0.00    -0.273 OA
ATOM      6  H   UNL A   1      33.702  28.947  25.242  1.00  0.00     0.163 HD
BRANCH   4   7
ATOM      7  C   UNL A   1      31.496  27.065  23.464  1.00  0.00     0.194 C 
BRANCH   7   8
ATOM      8  N   UNL A   1      31.805  25.748  24.063  1.00  0.00    -0.283 NA
ATOM      9  C   UNL A   1      30.951  24.924  24.527  1.00  0.00     0.105 C 
BRANCH   9  10
ATOM     10  C   UNL A   1      31.375  23.548  24.995  1.00  0.00     0.250 C 
ATOM     11  C   UNL A   1      35.176  23.929  25.671  1.00  0.00     0.106 C 
ATOM     12  C   UNL A   1      34.057  22.890  25.632  1.00  0.00     0.252 C 
ATOM     13  C   UNL A   1      34.612  21.507  25.965  1.00  0.00     0.106 C 
ATOM     14  O   UNL A   1      33.570  22.845  24.295  1.00  0.00    -0.422 OA
ATOM     15  O   UNL A   1      33.121  23.221  26.656  1.00  0.00    -0.422 OA
ATOM     16  C   UNL A   1      32.252  22.812  24.050  1.00  0.00     0.329 C 
ATOM     17  C   UNL A   1      31.870  23.609  26.390  1.00  0.00     0.329 C 
ATOM     18  O   UNL A   1      31.835  22.265  23.035  1.00  0.00    -0.251 OA
ATOM     19  O   UNL A   1      31.157  24.041  27.294  1.00  0.00    -0.251 OA
ENDBRANCH   9  10
ENDBRANCH   7   8
BRANCH   7  20
ATOM     20  C   UNL A   1      30.050  27.593  23.495  1.00  0.00     0.047 C 
BRANCH  20  21
ATOM     21  C   UNL A   1      29.741  29.091  23.424  1.00  0.00     0.102 C 
BRANCH  21  22
ATOM     22  C   UNL A   1      29.673  29.668  22.027  1.00  0.00     0.217 C 
ATOM     23  N   UNL A   1      30.873  30.104  21.539  1.00  0.00    -0.370 N 
ATOM     24  O   UNL A   1      28.654  29.775  21.361  1.00  0.00    -0.275 OA
ATOM     25  H   UNL A   1      31.687  30.013  22.084  1.00  0.00     0.159 HD
ATOM     26  H   UNL A   1      30.922  30.507  20.643  1.00  0.00     0.159 HD
ENDBRANCH  21  22
ENDBRANCH  20  21
ENDBRANCH   7  20
ENDBRANCH   4   7
ENDBRANCH   2   3
ENDBRANCH   1   2
BRANCH   1  27
ATOM     27  C   UNL A   1      32.061  30.559  26.592  1.00  0.00     0.023 C 
BRANCH  27  28
ATOM     28  C   UNL A   1      33.020  31.501  27.313  1.00  0.00     0.116 C 
BRANCH  28  29
ATOM     29  N   UNL A   1      32.490  32.841  27.547  1.00  0.00    -0.352 N 
ATOM     30  C   UNL A   1      33.065  33.858  28.281  1.00  0.00     0.251 C 
ATOM     31  H   UNL A   1      31.621  33.043  27.132  1.00  0.00     0.163 HD
ATOM     32  O   UNL A   1      32.486  34.919  28.453  1.00  0.00    -0.269 OA
BRANCH  30  33
ATOM     33  C   UNL A   1      34.385  33.599  28.891  1.00  0.00     0.039 A 
ATOM     34  C   UNL A   1      34.446  32.980  30.141  1.00  0.00     0.014 A 
ATOM     35  C   UNL A   1      35.541  33.822  28.140  1.00  0.00     0.014 A 
ATOM     36  C   UNL A   1      35.670  32.488  30.595  1.00  0.00     0.010 A 
ATOM     37  C   UNL A   1      36.738  33.258  28.557  1.00  0.00     0.010 A 
ATOM     38  C   UNL A   1      36.812  32.571  29.781  1.00  0.00    -0.014 A 
BRANCH  38  39
ATOM     39  C   UNL A   1      38.094  31.932  30.167  1.00  0.00     0.031 A 
ATOM     40  C   UNL A   1      39.045  32.657  31.075  1.00  0.00     0.074 A 
ATOM     41  C   UNL A   1      38.450  30.753  29.617  1.00  0.00     0.049 A 
ATOM     42  N   UNL A   1      40.263  32.336  31.426  1.00  0.00    -0.248 NA
ATOM     43  C   UNL A   1      38.576  33.937  31.631  1.00  0.00     0.031 C 
ATOM     44  C   UNL A   1      37.648  29.978  28.668  1.00  0.00     0.029 A 
ATOM     45  N   UNL A   1      39.593  30.007  29.768  1.00  0.00    -0.354 N 
ATOM     46  C   UNL A   1      40.715  33.385  32.214  1.00  0.00     0.074 A 
ATOM     47  C   UNL A   1      39.660  34.375  32.251  1.00  0.00     0.031 C 
ATOM     48  C   UNL A   1      38.312  28.858  28.340  1.00  0.00     0.029 A 
ATOM     49  C   UNL A   1      39.600  28.850  29.027  1.00  0.00     0.049 A 
ATOM     50  H   UNL A   1      40.338  30.277  30.353  1.00  0.00     0.167 HD
ATOM     51  C   UNL A   1      41.893  33.505  32.870  1.00  0.00     0.037 A 
ATOM     52  C   UNL A   1      40.542  27.895  28.911  1.00  0.00     0.037 A 
ATOM     53  C   UNL A   1      42.920  32.498  32.874  1.00  0.00     0.049 A 
ATOM     54  C   UNL A   1      41.826  28.032  29.680  1.00  0.00     0.074 A 
ATOM     55  C   UNL A   1      44.117  32.491  33.568  1.00  0.00     0.029 A 
ATOM     56  N   UNL A   1      42.867  31.316  32.152  1.00  0.00    -0.354 N 
ATOM     57  N   UNL A   1      42.213  28.998  30.476  1.00  0.00    -0.248 NA
ATOM     58  C   UNL A   1      42.802  26.941  29.540  1.00  0.00     0.031 C 
ATOM     59  C   UNL A   1      44.799  31.312  33.249  1.00  0.00     0.029 A 
ATOM     60  C   UNL A   1      44.013  30.573  32.380  1.00  0.00     0.049 A 
ATOM     61  H   UNL A   1      42.124  31.044  31.566  1.00  0.00     0.167 HD
ATOM     62  C   UNL A   1      43.463  28.622  30.951  1.00  0.00     0.074 A 
ATOM     63  C   UNL A   1      43.765  27.334  30.362  1.00  0.00     0.031 C 
ATOM     64  C   UNL A   1      44.287  29.286  31.798  1.00  0.00     0.037 A 
BRANCH  51  65
ATOM     65  C   UNL A   1      42.120  34.764  33.649  1.00  0.00     0.057 A 
ATOM     66  C   UNL A   1      42.766  35.873  33.087  1.00  0.00     0.134 A 
ATOM     67  C   UNL A   1      41.674  34.878  34.972  1.00  0.00     0.134 A 
ATOM     68  F   UNL A   1      43.232  35.821  31.829  1.00  0.00    -0.206 F 
ATOM     69  C   UNL A   1      42.985  37.039  33.819  1.00  0.00     0.040 A 
ATOM     70  C   UNL A   1      41.865  36.048  35.707  1.00  0.00     0.040 A 
ATOM     71  F   UNL A   1      41.045  33.854  35.570  1.00  0.00    -0.206 F 
ATOM     72  C   UNL A   1      42.529  37.131  35.133  1.00  0.00     0.006 A 
ENDBRANCH  51  65
BRANCH  52  73
ATOM     73  C   UNL A   1      40.296  26.706  28.059  1.00  0.00     0.057 A 
ATOM     74  C   UNL A   1      40.864  26.609  26.783  1.00  0.00     0.134 A 
ATOM     75  C   UNL A   1      39.486  25.648  28.488  1.00  0.00     0.134 A 
ATOM     76  F   UNL A   1      41.635  27.600  26.311  1.00  0.00    -0.206 F 
ATOM     77  C   UNL A   1      40.621  25.512  25.955  1.00  0.00     0.040 A 
ATOM     78  C   UNL A   1      39.251  24.536  27.678  1.00  0.00     0.040 A 
ATOM     79  F   UNL A   1      38.919  25.679  29.702  1.00  0.00    -0.206 F 
ATOM     80  C   UNL A   1      39.815  24.469  26.405  1.00  0.00     0.006 A 
ENDBRANCH  52  73
BRANCH  64  81
ATOM     81  C   UNL A   1      45.573  28.614  32.168  1.00  0.00     0.057 A 
ATOM     82  C   UNL A   1      46.755  28.840  31.453  1.00  0.00     0.134 A 
ATOM     83  C   UNL A   1      45.639  27.769  33.283  1.00  0.00     0.134 A 
ATOM     84  F   UNL A   1      46.752  29.629  30.369  1.00  0.00    -0.206 F 
ATOM     85  C   UNL A   1      47.957  28.236  31.825  1.00  0.00     0.040 A 
ATOM     86  C   UNL A   1      46.838  27.176  33.677  1.00  0.00     0.040 A 
ATOM     87  F   UNL A   1      44.542  27.518  34.013  1.00  0.00    -0.206 F 
ATOM     88  C   UNL A   1      48.002  27.408  32.945  1.00  0.00     0.006 A 
ENDBRANCH  64  81
ENDBRANCH  38  39
ENDBRANCH  30  33
ENDBRANCH  28  29
ENDBRANCH  27  28
ENDBRANCH   1  27
TORSDOF 16
ENDMDL
MODEL 3
REMARK VINA RESULT:     -11.3      3.470      8.559
REMARK SMILES CC1(C)OC(=O)C(/C=N/[C@@H](CCC(N)=O)C(=O)NCCCCNC(=O)c2ccc(-c3c4nc(c(-c5c(F)cccc5F)c5ccc([nH]5)c(-c5c(F)cccc5F)c5nc(c(-c6c(F)cccc6F)c6ccc3[nH]6)C=C5)C=C4)cc2)C(=O)O1
REMARK SMILES IDX 20 1 19 2 18 3 16 4 17 5 10 7 9 8 8 9 7 10 1 11 2 12 3 13
REMARK SMILES IDX 4 14 82 15 5 16 80 17 6 18 81 19 11 20 12 21 13 22 14 23
REMARK SMILES IDX 15 24 21 27 22 28 23 29 24 30 25 32 26 33 27 34 79 35 28 36
REMARK SMILES IDX 78 37 29 38 30 39 31 40 72 41 32 42 77 43 71 44 73 45 33 46
REMARK SMILES IDX 76 47 70 48 69 49 34 51 60 52 43 53 59 54 44 55 47 56 58 57
REMARK SMILES IDX 74 58 45 59 46 60 57 62 75 63 48 64 35 65 36 66 41 67 37 68
REMARK SMILES IDX 38 69 40 70 42 71 39 72 61 73 62 74 67 75 63 76 64 77 66 78
REMARK SMILES IDX 68 79 65 80 49 81 50 82 55 83 51 84 52 85 54 86 56 87 53 88
REMARK H PARENT 18 6 14 25 14 26 23 31 73 50 47 61
REMARK Flexibility Score: inf
ROOT
ATOM      1  C   UNL A   1      31.809  29.420  27.256  1.00  0.00     0.023 C 
ENDROOT
BRANCH   1   2
ATOM      2  C   UNL A   1      32.200  28.010  26.847  1.00  0.00     0.116 C 
BRANCH   2   3
ATOM      3  N   UNL A   1      31.143  27.048  27.003  1.00  0.00    -0.354 N 
ATOM      4  C   UNL A   1      30.639  26.173  26.082  1.00  0.00     0.244 C 
ATOM      5  O   UNL A   1      29.799  25.354  26.464  1.00  0.00    -0.273 OA
ATOM      6  H   UNL A   1      30.725  27.015  27.894  1.00  0.00     0.163 HD
BRANCH   4   7
ATOM      7  C   UNL A   1      31.092  26.219  24.608  1.00  0.00     0.194 C 
BRANCH   7   8
ATOM      8  N   UNL A   1      31.981  25.069  24.332  1.00  0.00    -0.283 NA
ATOM      9  C   UNL A   1      31.653  24.008  23.705  1.00  0.00     0.105 C 
BRANCH   9  10
ATOM     10  C   UNL A   1      32.687  22.955  23.367  1.00  0.00     0.250 C 
ATOM     11  C   UNL A   1      35.883  24.171  25.198  1.00  0.00     0.106 C 
ATOM     12  C   UNL A   1      35.381  23.100  24.231  1.00  0.00     0.252 C 
ATOM     13  C   UNL A   1      36.530  22.179  23.825  1.00  0.00     0.106 C 
ATOM     14  O   UNL A   1      34.933  23.768  23.057  1.00  0.00    -0.422 OA
ATOM     15  O   UNL A   1      34.431  22.297  24.928  1.00  0.00    -0.422 OA
ATOM     16  C   UNL A   1      33.777  23.419  22.472  1.00  0.00     0.329 C 
ATOM     17  C   UNL A   1      33.137  22.262  24.596  1.00  0.00     0.329 C 
ATOM     18  O   UNL A   1      33.635  23.572  21.264  1.00  0.00    -0.251 OA
ATOM     19  O   UNL A   1      32.332  21.687  25.326  1.00  0.00    -0.251 OA
ENDBRANCH   9  10
ENDBRANCH   7   8
BRANCH   7  20
ATOM     20  C   UNL A   1      30.044  26.637  23.559  1.00  0.00     0.047 C 
BRANCH  20  21
ATOM     21  C   UNL A   1      30.386  27.609  22.428  1.00  0.00     0.102 C 
BRANCH  21  22
ATOM     22  C   UNL A   1      30.647  29.035  22.862  1.00  0.00     0.217 C 
ATOM     23  N   UNL A   1      31.375  29.770  21.970  1.00  0.00    -0.370 N 
ATOM     24  O   UNL A   1      30.276  29.526  23.917  1.00  0.00    -0.275 OA
ATOM     25  H   UNL A   1      31.668  29.365  21.122  1.00  0.00     0.159 HD
ATOM     26  H   UNL A   1      31.604  30.705  22.174  1.00  0.00     0.159 HD
ENDBRANCH  21  22
ENDBRANCH  20  21
ENDBRANCH   7  20
ENDBRANCH   4   7
ENDBRANCH   2   3
ENDBRANCH   1   2
BRANCH   1  27
ATOM     27  C   UNL A   1      32.511  30.530  26.487  1.00  0.00     0.023 C 
BRANCH  27  28
ATOM     28  C   UNL A   1      33.337  31.491  27.337  1.00  0.00     0.116 C 
BRANCH  28  29
ATOM     29  N   UNL A   1      32.727  32.802  27.535  1.00  0.00    -0.352 N 
ATOM     30  C   UNL A   1      33.213  33.853  28.284  1.00  0.00     0.251 C 
ATOM     31  H   UNL A   1      31.866  32.954  27.081  1.00  0.00     0.163 HD
ATOM     32  O   UNL A   1      32.571  34.883  28.420  1.00  0.00    -0.269 OA
BRANCH  30  33
ATOM     33  C   UNL A   1      34.517  33.670  28.952  1.00  0.00     0.039 A 
ATOM     34  C   UNL A   1      34.574  32.948  30.145  1.00  0.00     0.014 A 
ATOM     35  C   UNL A   1      35.683  34.076  28.299  1.00  0.00     0.014 A 
ATOM     36  C   UNL A   1      35.816  32.538  30.632  1.00  0.00     0.010 A 
ATOM     37  C   UNL A   1      36.908  33.596  28.742  1.00  0.00     0.010 A 
ATOM     38  C   UNL A   1      36.985  32.809  29.903  1.00  0.00    -0.014 A 
BRANCH  38  39
ATOM     39  C   UNL A   1      38.305  32.267  30.314  1.00  0.00     0.031 A 
ATOM     40  C   UNL A   1      38.787  30.966  29.739  1.00  0.00     0.074 A 
ATOM     41  C   UNL A   1      39.015  32.886  31.278  1.00  0.00     0.049 A 
ATOM     42  N   UNL A   1      39.840  30.259  30.059  1.00  0.00    -0.248 NA
ATOM     43  C   UNL A   1      37.950  30.360  28.691  1.00  0.00     0.031 C 
ATOM     44  C   UNL A   1      38.625  34.119  31.965  1.00  0.00     0.029 A 
ATOM     45  N   UNL A   1      40.212  32.548  31.860  1.00  0.00    -0.354 N 
ATOM     46  C   UNL A   1      39.774  29.114  29.278  1.00  0.00     0.074 A 
ATOM     47  C   UNL A   1      38.554  29.196  28.504  1.00  0.00     0.031 C 
ATOM     48  C   UNL A   1      39.575  34.445  32.857  1.00  0.00     0.029 A 
ATOM     49  C   UNL A   1      40.623  33.430  32.831  1.00  0.00     0.049 A 
ATOM     50  H   UNL A   1      40.728  31.749  31.605  1.00  0.00     0.167 HD
ATOM     51  C   UNL A   1      40.661  28.095  29.193  1.00  0.00     0.037 A 
ATOM     52  C   UNL A   1      41.718  33.415  33.614  1.00  0.00     0.037 A 
ATOM     53  C   UNL A   1      41.897  28.038  29.926  1.00  0.00     0.049 A 
ATOM     54  C   UNL A   1      42.708  32.293  33.473  1.00  0.00     0.074 A 
ATOM     55  C   UNL A   1      42.899  27.087  29.853  1.00  0.00     0.029 A 
ATOM     56  N   UNL A   1      42.302  28.978  30.861  1.00  0.00    -0.354 N 
ATOM     57  N   UNL A   1      42.667  31.250  32.681  1.00  0.00    -0.248 NA
ATOM     58  C   UNL A   1      43.901  32.350  34.330  1.00  0.00     0.031 C 
ATOM     59  C   UNL A   1      43.902  27.439  30.762  1.00  0.00     0.029 A 
ATOM     60  C   UNL A   1      43.537  28.625  31.378  1.00  0.00     0.049 A 
ATOM     61  H   UNL A   1      41.787  29.777  31.119  1.00  0.00     0.167 HD
ATOM     62  C   UNL A   1      43.835  30.541  32.925  1.00  0.00     0.074 A 
ATOM     63  C   UNL A   1      44.571  31.278  33.932  1.00  0.00     0.031 C 
ATOM     64  C   UNL A   1      44.260  29.381  32.366  1.00  0.00     0.037 A 
BRANCH  51  65
ATOM     65  C   UNL A   1      40.326  26.970  28.261  1.00  0.00     0.057 A 
ATOM     66  C   UNL A   1      40.859  26.903  26.968  1.00  0.00     0.134 A 
ATOM     67  C   UNL A   1      39.474  25.934  28.665  1.00  0.00     0.134 A 
ATOM     68  F   UNL A   1      41.669  27.873  26.515  1.00  0.00    -0.206 F 
ATOM     69  C   UNL A   1      40.537  25.861  26.099  1.00  0.00     0.040 A 
ATOM     70  C   UNL A   1      39.164  24.874  27.814  1.00  0.00     0.040 A 
ATOM     71  F   UNL A   1      38.932  25.937  29.892  1.00  0.00    -0.206 F 
ATOM     72  C   UNL A   1      39.690  24.839  26.524  1.00  0.00     0.006 A 
ENDBRANCH  51  65
BRANCH  52  73
ATOM     73  C   UNL A   1      41.957  34.515  34.580  1.00  0.00     0.057 A 
ATOM     74  C   UNL A   1      41.549  34.400  35.913  1.00  0.00     0.134 A 
ATOM     75  C   UNL A   1      42.586  35.706  34.198  1.00  0.00     0.134 A 
ATOM     76  F   UNL A   1      40.925  33.289  36.334  1.00  0.00    -0.206 F 
ATOM     77  C   UNL A   1      41.739  35.435  36.830  1.00  0.00     0.040 A 
ATOM     78  C   UNL A   1      42.802  36.742  35.108  1.00  0.00     0.040 A 
ATOM     79  F   UNL A   1      43.007  35.874  32.936  1.00  0.00    -0.206 F 
ATOM     80  C   UNL A   1      42.371  36.609  36.428  1.00  0.00     0.006 A 
ENDBRANCH  52  73
BRANCH  64  81
ATOM     81  C   UNL A   1      45.595  28.861  32.802  1.00  0.00     0.057 A 
ATOM     82  C   UNL A   1      45.724  27.962  33.867  1.00  0.00     0.134 A 
ATOM     83  C   UNL A   1      46.759  29.227  32.114  1.00  0.00     0.134 A 
ATOM     84  F   UNL A   1      44.647  27.584  34.571  1.00  0.00    -0.206 F 
ATOM     85  C   UNL A   1      46.969  27.456  34.244  1.00  0.00     0.040 A 
ATOM     86  C   UNL A   1      48.006  28.711  32.468  1.00  0.00     0.040 A 
ATOM     87  F   UNL A   1      46.700  30.079  31.080  1.00  0.00    -0.206 F 
ATOM     88  C   UNL A   1      48.113  27.824  33.538  1.00  0.00     0.006 A 
ENDBRANCH  64  81
ENDBRANCH  38  39
ENDBRANCH  30  33
ENDBRANCH  28  29
ENDBRANCH  27  28
ENDBRANCH   1  27
TORSDOF 16
ENDMDL
