MODEL 1
REMARK VINA RESULT:     -11.1      0.000      0.000
REMARK SMILES Cc1nsc(NC(=O)CC[C@H](C)CC[NH3+])c1C(=O)NCCCCNC(=O)c1ccc(-c2c3nc(c(-c4c(F)cccc4F)c4ccc([nH]4)c(-c4c(F)cccc4F)c4nc(c(-c5c(F)cccc5F)c5ccc2[nH]5)C=C4)C=C3)cc1
REMARK SMILES IDX 17 1 18 2 19 3 16 5 1 6 2 7 3 8 4 9 5 10 6 11 7 12 8 14 9 15
REMARK SMILES IDX 10 16 11 17 12 18 13 19 14 20 15 21 20 25 21 26 22 27 23 28
REMARK SMILES IDX 24 29 25 30 26 32 27 33 28 34 80 35 29 36 79 37 30 38 31 39
REMARK SMILES IDX 32 40 73 41 33 42 78 43 72 44 74 45 34 46 77 47 71 48 70 49
REMARK SMILES IDX 35 51 61 52 44 53 60 54 45 55 48 56 59 57 75 58 46 59 47 60
REMARK SMILES IDX 58 62 76 63 49 64 36 65 37 66 42 67 38 68 39 69 41 70 43 71
REMARK SMILES IDX 40 72 62 73 63 74 68 75 64 76 65 77 67 78 69 79 66 80 50 81
REMARK SMILES IDX 51 82 56 83 52 84 53 85 55 86 57 87 54 88
REMARK H PARENT 19 4 6 13 15 22 15 23 15 24 24 31 74 50 48 61
REMARK Flexibility Score: inf
ROOT
ATOM      1  C   UNL A   1      34.165  21.734  26.472  1.00  0.00     0.256 C 
ATOM      2  O   UNL A   1      33.528  21.586  27.521  1.00  0.00    -0.269 OA
ATOM      3  N   UNL A   1      35.527  21.868  26.645  1.00  0.00    -0.352 N 
ATOM      4  H   UNL A   1      35.826  21.788  27.579  1.00  0.00     0.163 HD
ENDROOT
BRANCH   1   5
ATOM      5  C   UNL A   1      33.441  21.789  25.184  1.00  0.00     0.097 A 
ATOM      6  C   UNL A   1      32.775  19.304  24.385  1.00  0.00     0.069 C 
ATOM      7  C   UNL A   1      32.822  20.790  24.309  1.00  0.00     0.066 A 
ATOM      8  N   UNL A   1      32.177  21.263  23.240  1.00  0.00    -0.195 NA
ATOM      9  S   UNL A   1      32.205  22.895  23.254  1.00  0.00    -0.017 S 
ATOM     10  C   UNL A   1      33.283  23.035  24.551  1.00  0.00     0.129 A 
BRANCH  10  11
ATOM     11  N   UNL A   1      33.804  24.265  24.908  1.00  0.00    -0.316 N 
ATOM     12  C   UNL A   1      33.223  25.312  25.574  1.00  0.00     0.225 C 
ATOM     13  H   UNL A   1      34.740  24.412  24.640  1.00  0.00     0.170 HD
ATOM     14  O   UNL A   1      33.908  26.327  25.752  1.00  0.00    -0.275 OA
BRANCH  12  15
ATOM     15  C   UNL A   1      31.762  25.329  26.004  1.00  0.00     0.101 C 
BRANCH  15  16
ATOM     16  C   UNL A   1      31.045  26.692  26.009  1.00  0.00     0.013 C 
BRANCH  16  17
ATOM     17  C   UNL A   1      30.345  27.129  24.704  1.00  0.00    -0.008 C 
ATOM     18  C   UNL A   1      29.888  25.908  23.887  1.00  0.00     0.008 C 
BRANCH  17  19
ATOM     19  C   UNL A   1      31.245  28.036  23.834  1.00  0.00     0.064 C 
BRANCH  19  20
ATOM     20  C   UNL A   1      30.492  29.263  23.284  1.00  0.00     0.259 C 
BRANCH  20  21
ATOM     21  N   UNL A   1      31.027  29.702  22.001  1.00  0.00    -0.358 N 
ATOM     22  H   UNL A   1      30.339  30.289  21.528  1.00  0.00     0.344 HD
ATOM     23  H   UNL A   1      31.235  28.888  21.422  1.00  0.00     0.344 HD
ATOM     24  H   UNL A   1      31.882  30.237  22.154  1.00  0.00     0.344 HD
ENDBRANCH  20  21
ENDBRANCH  19  20
ENDBRANCH  17  19
ENDBRANCH  16  17
ENDBRANCH  15  16
ENDBRANCH  12  15
ENDBRANCH  10  11
ENDBRANCH   1   5
BRANCH   3  25
ATOM     25  C   UNL A   1      36.586  22.105  25.698  1.00  0.00     0.116 C 
BRANCH  25  26
ATOM     26  C   UNL A   1      36.846  21.018  24.650  1.00  0.00     0.023 C 
BRANCH  26  27
ATOM     27  C   UNL A   1      37.789  19.861  24.999  1.00  0.00     0.023 C 
BRANCH  27  28
ATOM     28  C   UNL A   1      39.055  20.244  25.749  1.00  0.00     0.116 C 
BRANCH  28  29
ATOM     29  N   UNL A   1      40.084  19.203  25.799  1.00  0.00    -0.352 N 
ATOM     30  C   UNL A   1      41.458  19.380  25.962  1.00  0.00     0.251 C 
ATOM     31  H   UNL A   1      39.771  18.274  25.706  1.00  0.00     0.163 HD
ATOM     32  O   UNL A   1      42.254  18.510  25.664  1.00  0.00    -0.269 OA
BRANCH  30  33
ATOM     33  C   UNL A   1      41.927  20.661  26.533  1.00  0.00     0.039 A 
ATOM     34  C   UNL A   1      42.437  21.703  25.752  1.00  0.00     0.014 A 
ATOM     35  C   UNL A   1      41.786  20.810  27.907  1.00  0.00     0.014 A 
ATOM     36  C   UNL A   1      42.724  22.922  26.370  1.00  0.00     0.010 A 
ATOM     37  C   UNL A   1      41.843  22.054  28.458  1.00  0.00     0.010 A 
ATOM     38  C   UNL A   1      42.406  23.090  27.726  1.00  0.00    -0.014 A 
BRANCH  38  39
ATOM     39  C   UNL A   1      42.520  24.372  28.412  1.00  0.00     0.031 A 
ATOM     40  C   UNL A   1      41.415  25.309  28.081  1.00  0.00     0.074 A 
ATOM     41  C   UNL A   1      43.371  24.542  29.452  1.00  0.00     0.049 A 
ATOM     42  N   UNL A   1      41.486  26.405  27.404  1.00  0.00    -0.248 NA
ATOM     43  C   UNL A   1      40.031  24.888  28.373  1.00  0.00     0.031 C 
ATOM     44  C   UNL A   1      44.260  23.532  30.052  1.00  0.00     0.029 A 
ATOM     45  N   UNL A   1      43.541  25.608  30.285  1.00  0.00    -0.354 N 
ATOM     46  C   UNL A   1      40.201  26.944  27.431  1.00  0.00     0.074 A 
ATOM     47  C   UNL A   1      39.327  25.867  27.801  1.00  0.00     0.031 C 
ATOM     48  C   UNL A   1      44.678  23.947  31.267  1.00  0.00     0.029 A 
ATOM     49  C   UNL A   1      44.244  25.316  31.457  1.00  0.00     0.049 A 
ATOM     50  H   UNL A   1      43.198  26.508  30.080  1.00  0.00     0.167 HD
ATOM     51  C   UNL A   1      40.027  28.294  27.502  1.00  0.00     0.037 A 
ATOM     52  C   UNL A   1      44.451  26.142  32.511  1.00  0.00     0.037 A 
ATOM     53  C   UNL A   1      41.276  28.963  27.221  1.00  0.00     0.049 A 
ATOM     54  C   UNL A   1      44.228  27.521  32.030  1.00  0.00     0.074 A 
ATOM     55  C   UNL A   1      42.088  29.155  26.127  1.00  0.00     0.029 A 
ATOM     56  N   UNL A   1      42.034  29.187  28.341  1.00  0.00    -0.354 N 
ATOM     57  N   UNL A   1      45.000  28.111  31.161  1.00  0.00    -0.248 NA
ATOM     58  C   UNL A   1      42.912  28.122  32.206  1.00  0.00     0.031 C 
ATOM     59  C   UNL A   1      43.413  29.279  26.643  1.00  0.00     0.029 A 
ATOM     60  C   UNL A   1      43.365  29.225  28.036  1.00  0.00     0.049 A 
ATOM     61  H   UNL A   1      41.668  29.305  29.247  1.00  0.00     0.167 HD
ATOM     62  C   UNL A   1      44.133  28.850  30.378  1.00  0.00     0.074 A 
ATOM     63  C   UNL A   1      42.909  28.960  31.166  1.00  0.00     0.031 C 
ATOM     64  C   UNL A   1      44.379  29.013  29.045  1.00  0.00     0.037 A 
BRANCH  51  65
ATOM     65  C   UNL A   1      38.961  28.998  28.331  1.00  0.00     0.057 A 
ATOM     66  C   UNL A   1      38.856  28.671  29.699  1.00  0.00     0.134 A 
ATOM     67  C   UNL A   1      37.856  29.702  27.810  1.00  0.00     0.134 A 
ATOM     68  F   UNL A   1      39.837  28.004  30.326  1.00  0.00    -0.206 F 
ATOM     69  C   UNL A   1      37.704  28.934  30.454  1.00  0.00     0.040 A 
ATOM     70  C   UNL A   1      36.720  30.009  28.568  1.00  0.00     0.040 A 
ATOM     71  F   UNL A   1      37.756  30.050  26.524  1.00  0.00    -0.206 F 
ATOM     72  C   UNL A   1      36.624  29.594  29.884  1.00  0.00     0.006 A 
ENDBRANCH  51  65
BRANCH  52  73
ATOM     73  C   UNL A   1      44.601  25.828  33.950  1.00  0.00     0.057 A 
ATOM     74  C   UNL A   1      43.490  25.607  34.778  1.00  0.00     0.134 A 
ATOM     75  C   UNL A   1      45.847  25.447  34.479  1.00  0.00     0.134 A 
ATOM     76  F   UNL A   1      42.254  25.903  34.348  1.00  0.00    -0.206 F 
ATOM     77  C   UNL A   1      43.606  25.018  36.045  1.00  0.00     0.040 A 
ATOM     78  C   UNL A   1      45.977  24.857  35.741  1.00  0.00     0.040 A 
ATOM     79  F   UNL A   1      46.964  25.553  33.745  1.00  0.00    -0.206 F 
ATOM     80  C   UNL A   1      44.852  24.626  36.524  1.00  0.00     0.006 A 
ENDBRANCH  52  73
BRANCH  64  81
ATOM     81  C   UNL A   1      45.786  28.794  28.573  1.00  0.00     0.057 A 
ATOM     82  C   UNL A   1      46.277  27.595  28.038  1.00  0.00     0.134 A 
ATOM     83  C   UNL A   1      46.654  29.891  28.573  1.00  0.00     0.134 A 
ATOM     84  F   UNL A   1      45.497  26.513  27.925  1.00  0.00    -0.206 F 
ATOM     85  C   UNL A   1      47.587  27.486  27.560  1.00  0.00     0.040 A 
ATOM     86  C   UNL A   1      47.950  29.806  28.067  1.00  0.00     0.040 A 
ATOM     87  F   UNL A   1      46.234  31.082  29.030  1.00  0.00    -0.206 F 
ATOM     88  C   UNL A   1      48.425  28.597  27.567  1.00  0.00     0.006 A 
ENDBRANCH  64  81
ENDBRANCH  38  39
ENDBRANCH  30  33
ENDBRANCH  28  29
ENDBRANCH  27  28
ENDBRANCH  26  27
ENDBRANCH  25  26
ENDBRANCH   3  25
TORSDOF 18
ENDMDL
MODEL 2
REMARK VINA RESULT:     -10.7      3.251      7.591
REMARK SMILES Cc1nsc(NC(=O)CC[C@H](C)CC[NH3+])c1C(=O)NCCCCNC(=O)c1ccc(-c2c3nc(c(-c4c(F)cccc4F)c4ccc([nH]4)c(-c4c(F)cccc4F)c4nc(c(-c5c(F)cccc5F)c5ccc2[nH]5)C=C4)C=C3)cc1
REMARK SMILES IDX 17 1 18 2 19 3 16 5 1 6 2 7 3 8 4 9 5 10 6 11 7 12 8 14 9 15
REMARK SMILES IDX 10 16 11 17 12 18 13 19 14 20 15 21 20 25 21 26 22 27 23 28
REMARK SMILES IDX 24 29 25 30 26 32 27 33 28 34 80 35 29 36 79 37 30 38 31 39
REMARK SMILES IDX 32 40 73 41 33 42 78 43 72 44 74 45 34 46 77 47 71 48 70 49
REMARK SMILES IDX 35 51 61 52 44 53 60 54 45 55 48 56 59 57 75 58 46 59 47 60
REMARK SMILES IDX 58 62 76 63 49 64 36 65 37 66 42 67 38 68 39 69 41 70 43 71
REMARK SMILES IDX 40 72 62 73 63 74 68 75 64 76 65 77 67 78 69 79 66 80 50 81
REMARK SMILES IDX 51 82 56 83 52 84 53 85 55 86 57 87 54 88
REMARK H PARENT 19 4 6 13 15 22 15 23 15 24 24 31 74 50 48 61
REMARK Flexibility Score: inf
ROOT
ATOM      1  C   UNL A   1      33.698  28.043  23.550  1.00  0.00     0.256 C 
ATOM      2  O   UNL A   1      33.990  28.470  22.427  1.00  0.00    -0.269 OA
ATOM      3  N   UNL A   1      34.297  28.720  24.591  1.00  0.00    -0.352 N 
ATOM      4  H   UNL A   1      34.848  29.486  24.313  1.00  0.00     0.163 HD
ENDROOT
BRANCH   1   5
ATOM      5  C   UNL A   1      32.804  26.872  23.672  1.00  0.00     0.097 A 
ATOM      6  C   UNL A   1      33.997  24.940  25.122  1.00  0.00     0.069 C 
ATOM      7  C   UNL A   1      32.894  25.576  24.351  1.00  0.00     0.066 A 
ATOM      8  N   UNL A   1      31.809  24.801  24.286  1.00  0.00    -0.195 NA
ATOM      9  S   UNL A   1      30.617  25.583  23.492  1.00  0.00    -0.017 S 
ATOM     10  C   UNL A   1      31.573  26.887  22.993  1.00  0.00     0.129 A 
BRANCH  10  11
ATOM     11  N   UNL A   1      31.079  27.828  22.107  1.00  0.00    -0.316 N 
ATOM     12  C   UNL A   1      30.357  28.969  22.339  1.00  0.00     0.225 C 
ATOM     13  H   UNL A   1      31.278  27.649  21.159  1.00  0.00     0.170 HD
ATOM     14  O   UNL A   1      30.012  29.637  21.357  1.00  0.00    -0.275 OA
BRANCH  12  15
ATOM     15  C   UNL A   1      29.870  29.390  23.720  1.00  0.00     0.101 C 
BRANCH  15  16
ATOM     16  C   UNL A   1      29.968  30.885  24.076  1.00  0.00     0.013 C 
BRANCH  16  17
ATOM     17  C   UNL A   1      28.709  31.750  23.851  1.00  0.00    -0.008 C 
ATOM     18  C   UNL A   1      27.482  30.873  23.551  1.00  0.00     0.008 C 
BRANCH  17  19
ATOM     19  C   UNL A   1      28.907  32.783  22.716  1.00  0.00     0.064 C 
BRANCH  19  20
ATOM     20  C   UNL A   1      27.998  32.509  21.503  1.00  0.00     0.259 C 
BRANCH  20  21
ATOM     21  N   UNL A   1      28.746  31.984  20.367  1.00  0.00    -0.358 N 
ATOM     22  H   UNL A   1      28.153  31.349  19.832  1.00  0.00     0.344 HD
ATOM     23  H   UNL A   1      29.566  31.479  20.704  1.00  0.00     0.344 HD
ATOM     24  H   UNL A   1      29.043  32.755  19.770  1.00  0.00     0.344 HD
ENDBRANCH  20  21
ENDBRANCH  19  20
ENDBRANCH  17  19
ENDBRANCH  16  17
ENDBRANCH  15  16
ENDBRANCH  12  15
ENDBRANCH  10  11
ENDBRANCH   1   5
BRANCH   3  25
ATOM     25  C   UNL A   1      34.255  28.502  26.014  1.00  0.00     0.116 C 
BRANCH  25  26
ATOM     26  C   UNL A   1      33.261  29.342  26.823  1.00  0.00     0.023 C 
BRANCH  26  27
ATOM     27  C   UNL A   1      33.607  30.800  27.141  1.00  0.00     0.023 C 
BRANCH  27  28
ATOM     28  C   UNL A   1      34.814  31.012  28.043  1.00  0.00     0.116 C 
BRANCH  28  29
ATOM     29  N   UNL A   1      34.606  31.953  29.146  1.00  0.00    -0.352 N 
ATOM     30  C   UNL A   1      35.186  31.910  30.413  1.00  0.00     0.251 C 
ATOM     31  H   UNL A   1      33.986  32.699  28.973  1.00  0.00     0.163 HD
ATOM     32  O   UNL A   1      34.714  32.522  31.353  1.00  0.00    -0.269 OA
BRANCH  30  33
ATOM     33  C   UNL A   1      36.416  31.108  30.584  1.00  0.00     0.039 A 
ATOM     34  C   UNL A   1      36.427  29.710  30.547  1.00  0.00     0.014 A 
ATOM     35  C   UNL A   1      37.599  31.821  30.732  1.00  0.00     0.014 A 
ATOM     36  C   UNL A   1      37.658  29.050  30.580  1.00  0.00     0.010 A 
ATOM     37  C   UNL A   1      38.792  31.195  30.531  1.00  0.00     0.010 A 
ATOM     38  C   UNL A   1      38.838  29.809  30.556  1.00  0.00    -0.014 A 
BRANCH  38  39
ATOM     39  C   UNL A   1      40.160  29.208  30.425  1.00  0.00     0.031 A 
ATOM     40  C   UNL A   1      40.861  29.055  31.727  1.00  0.00     0.074 A 
ATOM     41  C   UNL A   1      40.546  28.594  29.280  1.00  0.00     0.049 A 
ATOM     42  N   UNL A   1      41.907  29.689  32.138  1.00  0.00    -0.248 NA
ATOM     43  C   UNL A   1      40.219  28.239  32.774  1.00  0.00     0.031 C 
ATOM     44  C   UNL A   1      39.751  28.415  28.053  1.00  0.00     0.029 A 
ATOM     45  N   UNL A   1      41.675  27.884  29.000  1.00  0.00    -0.354 N 
ATOM     46  C   UNL A   1      42.208  29.141  33.384  1.00  0.00     0.074 A 
ATOM     47  C   UNL A   1      41.017  28.467  33.819  1.00  0.00     0.031 C 
ATOM     48  C   UNL A   1      40.311  27.464  27.274  1.00  0.00     0.029 A 
ATOM     49  C   UNL A   1      41.589  27.097  27.848  1.00  0.00     0.049 A 
ATOM     50  H   UNL A   1      42.484  27.923  29.560  1.00  0.00     0.167 HD
ATOM     51  C   UNL A   1      43.506  28.988  33.768  1.00  0.00     0.037 A 
ATOM     52  C   UNL A   1      42.504  26.203  27.401  1.00  0.00     0.037 A 
ATOM     53  C   UNL A   1      44.369  29.736  32.884  1.00  0.00     0.049 A 
ATOM     54  C   UNL A   1      43.788  26.535  28.054  1.00  0.00     0.074 A 
ATOM     55  C   UNL A   1      44.635  31.061  32.625  1.00  0.00     0.029 A 
ATOM     56  N   UNL A   1      44.797  29.011  31.802  1.00  0.00    -0.354 N 
ATOM     57  N   UNL A   1      44.450  27.633  27.816  1.00  0.00    -0.248 NA
ATOM     58  C   UNL A   1      44.153  25.837  29.280  1.00  0.00     0.031 C 
ATOM     59  C   UNL A   1      45.026  31.118  31.253  1.00  0.00     0.029 A 
ATOM     60  C   UNL A   1      45.053  29.823  30.734  1.00  0.00     0.049 A 
ATOM     61  H   UNL A   1      44.904  28.033  31.795  1.00  0.00     0.167 HD
ATOM     62  C   UNL A   1      44.970  27.991  29.046  1.00  0.00     0.074 A 
ATOM     63  C   UNL A   1      44.909  26.778  29.854  1.00  0.00     0.031 C 
ATOM     64  C   UNL A   1      45.090  29.309  29.384  1.00  0.00     0.037 A 
BRANCH  51  65
ATOM     65  C   UNL A   1      44.059  27.791  34.531  1.00  0.00     0.057 A 
ATOM     66  C   UNL A   1      43.873  26.506  33.982  1.00  0.00     0.134 A 
ATOM     67  C   UNL A   1      44.453  27.798  35.885  1.00  0.00     0.134 A 
ATOM     68  F   UNL A   1      43.501  26.350  32.702  1.00  0.00    -0.206 F 
ATOM     69  C   UNL A   1      43.971  25.334  34.746  1.00  0.00     0.040 A 
ATOM     70  C   UNL A   1      44.597  26.631  36.644  1.00  0.00     0.040 A 
ATOM     71  F   UNL A   1      44.627  28.922  36.586  1.00  0.00    -0.206 F 
ATOM     72  C   UNL A   1      44.321  25.395  36.087  1.00  0.00     0.006 A 
ENDBRANCH  51  65
BRANCH  52  73
ATOM     73  C   UNL A   1      42.314  24.949  26.637  1.00  0.00     0.057 A 
ATOM     74  C   UNL A   1      43.074  24.657  25.495  1.00  0.00     0.134 A 
ATOM     75  C   UNL A   1      41.585  23.878  27.182  1.00  0.00     0.134 A 
ATOM     76  F   UNL A   1      43.832  25.605  24.924  1.00  0.00    -0.206 F 
ATOM     77  C   UNL A   1      43.129  23.370  24.942  1.00  0.00     0.040 A 
ATOM     78  C   UNL A   1      41.632  22.587  26.641  1.00  0.00     0.040 A 
ATOM     79  F   UNL A   1      40.879  24.032  28.311  1.00  0.00    -0.206 F 
ATOM     80  C   UNL A   1      42.418  22.325  25.525  1.00  0.00     0.006 A 
ENDBRANCH  52  73
BRANCH  64  81
ATOM     81  C   UNL A   1      45.097  30.308  28.265  1.00  0.00     0.057 A 
ATOM     82  C   UNL A   1      43.976  31.020  27.816  1.00  0.00     0.134 A 
ATOM     83  C   UNL A   1      46.328  30.632  27.685  1.00  0.00     0.134 A 
ATOM     84  F   UNL A   1      42.769  30.835  28.363  1.00  0.00    -0.206 F 
ATOM     85  C   UNL A   1      44.074  31.984  26.807  1.00  0.00     0.040 A 
ATOM     86  C   UNL A   1      46.446  31.616  26.704  1.00  0.00     0.040 A 
ATOM     87  F   UNL A   1      47.450  30.021  28.100  1.00  0.00    -0.206 F 
ATOM     88  C   UNL A   1      45.315  32.289  26.255  1.00  0.00     0.006 A 
ENDBRANCH  64  81
ENDBRANCH  38  39
ENDBRANCH  30  33
ENDBRANCH  28  29
ENDBRANCH  27  28
ENDBRANCH  26  27
ENDBRANCH  25  26
ENDBRANCH   3  25
TORSDOF 18
ENDMDL
MODEL 3
REMARK VINA RESULT:     -10.7      2.993      7.450
REMARK SMILES Cc1nsc(NC(=O)CC[C@H](C)CC[NH3+])c1C(=O)NCCCCNC(=O)c1ccc(-c2c3nc(c(-c4c(F)cccc4F)c4ccc([nH]4)c(-c4c(F)cccc4F)c4nc(c(-c5c(F)cccc5F)c5ccc2[nH]5)C=C4)C=C3)cc1
REMARK SMILES IDX 17 1 18 2 19 3 16 5 1 6 2 7 3 8 4 9 5 10 6 11 7 12 8 14 9 15
REMARK SMILES IDX 10 16 11 17 12 18 13 19 14 20 15 21 20 25 21 26 22 27 23 28
REMARK SMILES IDX 24 29 25 30 26 32 27 33 28 34 80 35 29 36 79 37 30 38 31 39
REMARK SMILES IDX 32 40 73 41 33 42 78 43 72 44 74 45 34 46 77 47 71 48 70 49
REMARK SMILES IDX 35 51 61 52 44 53 60 54 45 55 48 56 59 57 75 58 46 59 47 60
REMARK SMILES IDX 58 62 76 63 49 64 36 65 37 66 42 67 38 68 39 69 41 70 43 71
REMARK SMILES IDX 40 72 62 73 63 74 68 75 64 76 65 77 67 78 69 79 66 80 50 81
REMARK SMILES IDX 51 82 56 83 52 84 53 85 55 86 57 87 54 88
REMARK H PARENT 19 4 6 13 15 22 15 23 15 24 24 31 74 50 48 61
REMARK Flexibility Score: inf
ROOT
ATOM      1  C   UNL A   1      34.403  22.349  26.697  1.00  0.00     0.256 C 
ATOM      2  O   UNL A   1      33.934  22.021  27.792  1.00  0.00    -0.269 OA
ATOM      3  N   UNL A   1      35.763  22.160  26.577  1.00  0.00    -0.352 N 
ATOM      4  H   UNL A   1      36.185  21.747  27.365  1.00  0.00     0.163 HD
ENDROOT
BRANCH   1   5
ATOM      5  C   UNL A   1      33.511  22.928  25.669  1.00  0.00     0.097 A 
ATOM      6  C   UNL A   1      34.108  25.525  25.276  1.00  0.00     0.069 C 
ATOM      7  C   UNL A   1      33.390  24.244  25.035  1.00  0.00     0.066 A 
ATOM      8  N   UNL A   1      32.480  24.347  24.064  1.00  0.00    -0.195 NA
ATOM      9  S   UNL A   1      31.782  22.896  23.802  1.00  0.00    -0.017 S 
ATOM     10  C   UNL A   1      32.488  22.126  25.133  1.00  0.00     0.129 A 
BRANCH  10  11
ATOM     11  N   UNL A   1      32.100  20.850  25.499  1.00  0.00    -0.316 N 
ATOM     12  C   UNL A   1      32.646  19.634  25.181  1.00  0.00     0.225 C 
ATOM     13  H   UNL A   1      31.305  20.808  26.079  1.00  0.00     0.170 HD
ATOM     14  O   UNL A   1      32.087  18.623  25.625  1.00  0.00    -0.275 OA
BRANCH  12  15
ATOM     15  C   UNL A   1      33.824  19.463  24.231  1.00  0.00     0.101 C 
BRANCH  15  16
ATOM     16  C   UNL A   1      34.949  18.507  24.669  1.00  0.00     0.013 C 
BRANCH  16  17
ATOM     17  C   UNL A   1      34.882  17.053  24.155  1.00  0.00    -0.008 C 
ATOM     18  C   UNL A   1      33.852  16.915  23.021  1.00  0.00     0.008 C 
BRANCH  17  19
ATOM     19  C   UNL A   1      34.556  16.048  25.285  1.00  0.00     0.064 C 
BRANCH  19  20
ATOM     20  C   UNL A   1      33.170  15.396  25.115  1.00  0.00     0.259 C 
BRANCH  20  21
ATOM     21  N   UNL A   1      32.288  15.684  26.239  1.00  0.00    -0.358 N 
ATOM     22  H   UNL A   1      31.340  15.382  26.015  1.00  0.00     0.344 HD
ATOM     23  H   UNL A   1      32.290  16.688  26.424  1.00  0.00     0.344 HD
ATOM     24  H   UNL A   1      32.617  15.186  27.066  1.00  0.00     0.344 HD
ENDBRANCH  20  21
ENDBRANCH  19  20
ENDBRANCH  17  19
ENDBRANCH  16  17
ENDBRANCH  15  16
ENDBRANCH  12  15
ENDBRANCH  10  11
ENDBRANCH   1   5
BRANCH   3  25
ATOM     25  C   UNL A   1      36.674  22.460  25.503  1.00  0.00     0.116 C 
BRANCH  25  26
ATOM     26  C   UNL A   1      38.024  23.078  25.880  1.00  0.00     0.023 C 
BRANCH  26  27
ATOM     27  C   UNL A   1      39.187  22.151  26.249  1.00  0.00     0.023 C 
BRANCH  27  28
ATOM     28  C   UNL A   1      40.431  22.836  26.794  1.00  0.00     0.116 C 
BRANCH  28  29
ATOM     29  N   UNL A   1      41.645  22.641  25.998  1.00  0.00    -0.352 N 
ATOM     30  C   UNL A   1      42.483  23.628  25.480  1.00  0.00     0.251 C 
ATOM     31  H   UNL A   1      41.897  21.708  25.806  1.00  0.00     0.163 HD
ATOM     32  O   UNL A   1      43.260  23.395  24.574  1.00  0.00    -0.269 OA
BRANCH  30  33
ATOM     33  C   UNL A   1      42.417  24.977  26.083  1.00  0.00     0.039 A 
ATOM     34  C   UNL A   1      41.521  25.961  25.653  1.00  0.00     0.014 A 
ATOM     35  C   UNL A   1      43.267  25.213  27.156  1.00  0.00     0.014 A 
ATOM     36  C   UNL A   1      41.442  27.154  26.376  1.00  0.00     0.010 A 
ATOM     37  C   UNL A   1      43.026  26.265  27.987  1.00  0.00     0.010 A 
ATOM     38  C   UNL A   1      42.192  27.287  27.555  1.00  0.00    -0.014 A 
BRANCH  38  39
ATOM     39  C   UNL A   1      42.052  28.424  28.457  1.00  0.00     0.031 A 
ATOM     40  C   UNL A   1      43.099  29.459  28.256  1.00  0.00     0.074 A 
ATOM     41  C   UNL A   1      40.915  28.624  29.167  1.00  0.00     0.049 A 
ATOM     42  N   UNL A   1      44.058  29.775  29.059  1.00  0.00    -0.248 NA
ATOM     43  C   UNL A   1      43.212  30.090  26.927  1.00  0.00     0.031 C 
ATOM     44  C   UNL A   1      39.693  27.801  29.146  1.00  0.00     0.029 A 
ATOM     45  N   UNL A   1      40.547  29.668  29.963  1.00  0.00    -0.354 N 
ATOM     46  C   UNL A   1      44.721  30.839  28.446  1.00  0.00     0.074 A 
ATOM     47  C   UNL A   1      44.330  30.807  27.065  1.00  0.00     0.031 C 
ATOM     48  C   UNL A   1      38.663  28.489  29.685  1.00  0.00     0.029 A 
ATOM     49  C   UNL A   1      39.181  29.718  30.252  1.00  0.00     0.049 A 
ATOM     50  H   UNL A   1      41.189  30.332  30.305  1.00  0.00     0.167 HD
ATOM     51  C   UNL A   1      45.234  31.850  29.201  1.00  0.00     0.037 A 
ATOM     52  C   UNL A   1      38.522  30.702  30.910  1.00  0.00     0.037 A 
ATOM     53  C   UNL A   1      45.256  31.460  30.592  1.00  0.00     0.049 A 
ATOM     54  C   UNL A   1      39.533  31.468  31.669  1.00  0.00     0.074 A 
ATOM     55  C   UNL A   1      45.951  30.565  31.373  1.00  0.00     0.029 A 
ATOM     56  N   UNL A   1      44.108  31.788  31.265  1.00  0.00    -0.354 N 
ATOM     57  N   UNL A   1      40.201  30.972  32.672  1.00  0.00    -0.248 NA
ATOM     58  C   UNL A   1      40.103  32.666  31.068  1.00  0.00     0.031 C 
ATOM     59  C   UNL A   1      45.063  30.200  32.430  1.00  0.00     0.029 A 
ATOM     60  C   UNL A   1      43.881  30.930  32.302  1.00  0.00     0.049 A 
ATOM     61  H   UNL A   1      43.522  32.544  31.031  1.00  0.00     0.167 HD
ATOM     62  C   UNL A   1      41.468  31.510  32.538  1.00  0.00     0.074 A 
ATOM     63  C   UNL A   1      41.301  32.663  31.659  1.00  0.00     0.031 C 
ATOM     64  C   UNL A   1      42.566  30.776  32.884  1.00  0.00     0.037 A 
BRANCH  51  65
ATOM     65  C   UNL A   1      45.197  33.326  28.830  1.00  0.00     0.057 A 
ATOM     66  C   UNL A   1      43.948  33.908  28.530  1.00  0.00     0.134 A 
ATOM     67  C   UNL A   1      46.311  34.097  28.438  1.00  0.00     0.134 A 
ATOM     68  F   UNL A   1      42.803  33.285  28.850  1.00  0.00    -0.206 F 
ATOM     69  C   UNL A   1      43.822  35.104  27.811  1.00  0.00     0.040 A 
ATOM     70  C   UNL A   1      46.195  35.315  27.759  1.00  0.00     0.040 A 
ATOM     71  F   UNL A   1      47.572  33.685  28.594  1.00  0.00    -0.206 F 
ATOM     72  C   UNL A   1      44.950  35.807  27.410  1.00  0.00     0.006 A 
ENDBRANCH  51  65
BRANCH  52  73
ATOM     73  C   UNL A   1      37.128  31.179  30.758  1.00  0.00     0.057 A 
ATOM     74  C   UNL A   1      36.295  31.393  31.866  1.00  0.00     0.134 A 
ATOM     75  C   UNL A   1      36.679  31.715  29.538  1.00  0.00     0.134 A 
ATOM     76  F   UNL A   1      36.655  30.953  33.081  1.00  0.00    -0.206 F 
ATOM     77  C   UNL A   1      35.100  32.122  31.774  1.00  0.00     0.040 A 
ATOM     78  C   UNL A   1      35.489  32.444  29.432  1.00  0.00     0.040 A 
ATOM     79  F   UNL A   1      37.431  31.624  28.431  1.00  0.00    -0.206 F 
ATOM     80  C   UNL A   1      34.701  32.663  30.556  1.00  0.00     0.006 A 
ENDBRANCH  52  73
BRANCH  64  81
ATOM     81  C   UNL A   1      42.356  29.619  33.817  1.00  0.00     0.057 A 
ATOM     82  C   UNL A   1      42.156  29.728  35.200  1.00  0.00     0.134 A 
ATOM     83  C   UNL A   1      42.253  28.341  33.259  1.00  0.00     0.134 A 
ATOM     84  F   UNL A   1      42.159  30.919  35.812  1.00  0.00    -0.206 F 
ATOM     85  C   UNL A   1      41.903  28.606  35.996  1.00  0.00     0.040 A 
ATOM     86  C   UNL A   1      41.966  27.218  34.035  1.00  0.00     0.040 A 
ATOM     87  F   UNL A   1      42.389  28.170  31.934  1.00  0.00    -0.206 F 
ATOM     88  C   UNL A   1      41.799  27.348  35.411  1.00  0.00     0.006 A 
ENDBRANCH  64  81
ENDBRANCH  38  39
ENDBRANCH  30  33
ENDBRANCH  28  29
ENDBRANCH  27  28
ENDBRANCH  26  27
ENDBRANCH  25  26
ENDBRANCH   3  25
TORSDOF 18
ENDMDL
