MODEL 1
REMARK VINA RESULT:     -12.2      0.000      0.000
REMARK SMILES CC(C)(C)OC(=O)N1CCN(N[C@@H](C(=O)NCCCCNC(=O)c2ccc(-c3c4nc(c(-c5c(F)cccc5F)c5ccc([nH]5)c(-c5c(F)cccc5F)c5nc(c(-c6c(F)cccc6F)c6ccc3[nH]6)C=C5)C=C4)cc2)c2ccccc2Cl)CC1
REMARK SMILES IDX 17 1 16 2 14 3 15 4 13 6 12 7 11 9 6 10 7 11 8 12 9 13 86 14
REMARK SMILES IDX 10 15 85 16 5 17 2 18 1 19 3 20 4 21 78 22 79 23 83 24 80 25
REMARK SMILES IDX 82 26 84 27 81 28 18 29 19 30 20 31 21 32 22 33 23 35 24 36
REMARK SMILES IDX 25 37 77 38 26 39 76 40 27 41 28 42 29 43 70 44 30 45 75 46
REMARK SMILES IDX 69 47 71 48 31 49 74 50 68 51 67 52 32 54 58 55 41 56 57 57
REMARK SMILES IDX 42 58 45 59 56 60 72 61 43 62 44 63 55 65 73 66 46 67 33 68
REMARK SMILES IDX 34 69 39 70 35 71 36 72 38 73 40 74 37 75 59 76 60 77 65 78
REMARK SMILES IDX 61 79 62 80 64 81 66 82 63 83 47 84 48 85 53 86 49 87 50 88
REMARK SMILES IDX 52 89 54 90 51 91
REMARK H PARENT 16 5 12 8 21 34 71 53 45 64
REMARK Flexibility Score: inf
ROOT
ATOM      1  C   UNL A   1      31.587  29.477  25.715  1.00  0.00     0.116 C 
ENDROOT
BRANCH   1   2
ATOM      2  N   UNL A   1      32.399  29.684  24.531  1.00  0.00    -0.354 N 
ATOM      3  C   UNL A   1      32.476  28.908  23.401  1.00  0.00     0.243 C 
ATOM      4  O   UNL A   1      33.458  29.090  22.675  1.00  0.00    -0.273 OA
ATOM      5  H   UNL A   1      32.969  30.486  24.538  1.00  0.00     0.163 HD
BRANCH   3   6
ATOM      6  C   UNL A   1      31.338  27.905  23.032  1.00  0.00     0.190 C 
BRANCH   6   7
ATOM      7  N   UNL A   1      31.729  27.016  21.907  1.00  0.00    -0.238 NA
ATOM      8  H   UNL A   1      31.161  27.265  21.096  1.00  0.00     0.143 HD
BRANCH   7   9
ATOM      9  N   UNL A   1      31.561  25.603  22.154  1.00  0.00    -0.240 NA
ATOM     10  C   UNL A   1      34.289  23.385  24.202  1.00  0.00     0.410 C 
ATOM     11  O   UNL A   1      35.189  22.784  23.640  1.00  0.00    -0.224 OA
ATOM     12  N   UNL A   1      33.777  24.578  23.739  1.00  0.00    -0.306 N 
ATOM     13  C   UNL A   1      34.008  24.960  22.356  1.00  0.00     0.140 C 
ATOM     14  C   UNL A   1      32.763  25.381  24.410  1.00  0.00     0.140 C 
ATOM     15  C   UNL A   1      32.687  24.818  21.585  1.00  0.00     0.124 C 
ATOM     16  C   UNL A   1      31.441  25.348  23.621  1.00  0.00     0.124 C 
BRANCH  10  17
ATOM     17  O   UNL A   1      33.646  22.947  25.316  1.00  0.00    -0.444 OA
BRANCH  17  18
ATOM     18  C   UNL A   1      32.717  21.834  25.240  1.00  0.00     0.106 C 
ATOM     19  C   UNL A   1      31.476  22.301  26.016  1.00  0.00     0.056 C 
ATOM     20  C   UNL A   1      33.330  20.624  25.949  1.00  0.00     0.056 C 
ATOM     21  C   UNL A   1      32.275  21.495  23.809  1.00  0.00     0.056 C 
ENDBRANCH  17  18
ENDBRANCH  10  17
ENDBRANCH   7   9
ENDBRANCH   6   7
BRANCH   6  22
ATOM     22  C   UNL A   1      30.029  28.667  22.744  1.00  0.00    -0.002 A 
ATOM     23  C   UNL A   1      30.154  29.864  21.997  1.00  0.00     0.007 A 
ATOM     24  C   UNL A   1      28.726  28.268  23.106  1.00  0.00     0.046 A 
ATOM     25  C   UNL A   1      29.042  30.638  21.655  1.00  0.00     0.000 A 
ATOM     26  C   UNL A   1      27.618  29.069  22.785  1.00  0.00     0.021 A 
ATOM     27  Cl  UNL A   1      28.335  26.789  23.920  1.00  0.00    -0.084 Cl
ATOM     28  C   UNL A   1      27.773  30.247  22.062  1.00  0.00     0.002 A 
ENDBRANCH   6  22
ENDBRANCH   3   6
ENDBRANCH   1   2
BRANCH   1  29
ATOM     29  C   UNL A   1      32.135  30.299  26.886  1.00  0.00     0.023 C 
BRANCH  29  30
ATOM     30  C   UNL A   1      31.745  31.770  26.884  1.00  0.00     0.023 C 
BRANCH  30  31
ATOM     31  C   UNL A   1      32.869  32.707  27.292  1.00  0.00     0.116 C 
BRANCH  31  32
ATOM     32  N   UNL A   1      32.425  34.055  27.624  1.00  0.00    -0.352 N 
ATOM     33  C   UNL A   1      32.974  34.921  28.543  1.00  0.00     0.251 C 
ATOM     34  H   UNL A   1      31.639  34.386  27.133  1.00  0.00     0.163 HD
ATOM     35  O   UNL A   1      32.459  36.008  28.777  1.00  0.00    -0.269 OA
BRANCH  33  36
ATOM     36  C   UNL A   1      34.172  34.484  29.286  1.00  0.00     0.039 A 
ATOM     37  C   UNL A   1      34.008  33.829  30.507  1.00  0.00     0.014 A 
ATOM     38  C   UNL A   1      35.440  34.621  28.714  1.00  0.00     0.014 A 
ATOM     39  C   UNL A   1      35.111  33.228  31.115  1.00  0.00     0.010 A 
ATOM     40  C   UNL A   1      36.517  33.945  29.272  1.00  0.00     0.010 A 
ATOM     41  C   UNL A   1      36.363  33.239  30.476  1.00  0.00    -0.014 A 
BRANCH  41  42
ATOM     42  C   UNL A   1      37.528  32.520  31.044  1.00  0.00     0.031 A 
ATOM     43  C   UNL A   1      38.152  33.006  32.323  1.00  0.00     0.074 A 
ATOM     44  C   UNL A   1      38.076  31.491  30.369  1.00  0.00     0.049 A 
ATOM     45  N   UNL A   1      39.228  32.579  32.932  1.00  0.00    -0.248 NA
ATOM     46  C   UNL A   1      37.499  34.147  32.985  1.00  0.00     0.031 C 
ATOM     47  C   UNL A   1      37.601  30.965  29.088  1.00  0.00     0.029 A 
ATOM     48  N   UNL A   1      39.163  30.708  30.666  1.00  0.00    -0.354 N 
ATOM     49  C   UNL A   1      39.391  33.412  34.031  1.00  0.00     0.074 A 
ATOM     50  C   UNL A   1      38.340  34.403  33.974  1.00  0.00     0.031 C 
ATOM     51  C   UNL A   1      38.376  29.930  28.722  1.00  0.00     0.029 A 
ATOM     52  C   UNL A   1      39.422  29.742  29.723  1.00  0.00     0.049 A 
ATOM     53  H   UNL A   1      39.707  30.827  31.478  1.00  0.00     0.167 HD
ATOM     54  C   UNL A   1      40.316  33.340  35.016  1.00  0.00     0.037 A 
ATOM     55  C   UNL A   1      40.394  28.813  29.672  1.00  0.00     0.037 A 
ATOM     56  C   UNL A   1      41.336  32.329  35.092  1.00  0.00     0.049 A 
ATOM     57  C   UNL A   1      41.399  28.741  30.789  1.00  0.00     0.074 A 
ATOM     58  C   UNL A   1      42.278  32.127  36.085  1.00  0.00     0.029 A 
ATOM     59  N   UNL A   1      41.542  31.346  34.136  1.00  0.00    -0.354 N 
ATOM     60  N   UNL A   1      41.500  29.490  31.859  1.00  0.00    -0.248 NA
ATOM     61  C   UNL A   1      42.421  27.689  30.693  1.00  0.00     0.031 C 
ATOM     62  C   UNL A   1      43.077  31.041  35.712  1.00  0.00     0.029 A 
ATOM     63  C   UNL A   1      42.606  30.542  34.509  1.00  0.00     0.049 A 
ATOM     64  H   UNL A   1      41.011  31.235  33.315  1.00  0.00     0.167 HD
ATOM     65  C   UNL A   1      42.575  28.986  32.577  1.00  0.00     0.074 A 
ATOM     66  C   UNL A   1      43.088  27.857  31.826  1.00  0.00     0.031 C 
ATOM     67  C   UNL A   1      43.093  29.416  33.753  1.00  0.00     0.037 A 
BRANCH  54  68
ATOM     68  C   UNL A   1      40.255  34.380  36.096  1.00  0.00     0.057 A 
ATOM     69  C   UNL A   1      40.977  35.578  36.007  1.00  0.00     0.134 A 
ATOM     70  C   UNL A   1      39.453  34.190  37.227  1.00  0.00     0.134 A 
ATOM     71  F   UNL A   1      41.776  35.814  34.956  1.00  0.00    -0.206 F 
ATOM     72  C   UNL A   1      40.925  36.537  37.019  1.00  0.00     0.040 A 
ATOM     73  C   UNL A   1      39.372  35.155  38.232  1.00  0.00     0.040 A 
ATOM     74  F   UNL A   1      38.734  33.067  37.373  1.00  0.00    -0.206 F 
ATOM     75  C   UNL A   1      40.116  36.329  38.134  1.00  0.00     0.006 A 
ENDBRANCH  54  68
BRANCH  55  76
ATOM     76  C   UNL A   1      40.449  27.852  28.542  1.00  0.00     0.057 A 
ATOM     77  C   UNL A   1      41.173  28.148  27.381  1.00  0.00     0.134 A 
ATOM     78  C   UNL A   1      39.777  26.625  28.587  1.00  0.00     0.134 A 
ATOM     79  F   UNL A   1      41.823  29.316  27.271  1.00  0.00    -0.206 F 
ATOM     80  C   UNL A   1      41.211  27.268  26.298  1.00  0.00     0.040 A 
ATOM     81  C   UNL A   1      39.825  25.725  27.521  1.00  0.00     0.040 A 
ATOM     82  F   UNL A   1      39.072  26.279  29.675  1.00  0.00    -0.206 F 
ATOM     83  C   UNL A   1      40.539  26.050  26.369  1.00  0.00     0.006 A 
ENDBRANCH  55  76
BRANCH  67  84
ATOM     84  C   UNL A   1      44.248  28.646  34.317  1.00  0.00     0.057 A 
ATOM     85  C   UNL A   1      45.575  29.010  34.062  1.00  0.00     0.134 A 
ATOM     86  C   UNL A   1      44.027  27.552  35.165  1.00  0.00     0.134 A 
ATOM     87  F   UNL A   1      45.853  30.041  33.249  1.00  0.00    -0.206 F 
ATOM     88  C   UNL A   1      46.644  28.302  34.615  1.00  0.00     0.040 A 
ATOM     89  C   UNL A   1      45.086  26.851  35.742  1.00  0.00     0.040 A 
ATOM     90  F   UNL A   1      42.778  27.157  35.455  1.00  0.00    -0.206 F 
ATOM     91  C   UNL A   1      46.400  27.223  35.463  1.00  0.00     0.006 A 
ENDBRANCH  67  84
ENDBRANCH  41  42
ENDBRANCH  33  36
ENDBRANCH  31  32
ENDBRANCH  30  31
ENDBRANCH  29  30
ENDBRANCH   1  29
TORSDOF 16
ENDMDL
MODEL 2
REMARK VINA RESULT:     -12.2      0.995      5.980
REMARK SMILES CC(C)(C)OC(=O)N1CCN(N[C@@H](C(=O)NCCCCNC(=O)c2ccc(-c3c4nc(c(-c5c(F)cccc5F)c5ccc([nH]5)c(-c5c(F)cccc5F)c5nc(c(-c6c(F)cccc6F)c6ccc3[nH]6)C=C5)C=C4)cc2)c2ccccc2Cl)CC1
REMARK SMILES IDX 17 1 16 2 14 3 15 4 13 6 12 7 11 9 6 10 7 11 8 12 9 13 86 14
REMARK SMILES IDX 10 15 85 16 5 17 2 18 1 19 3 20 4 21 78 22 79 23 83 24 80 25
REMARK SMILES IDX 82 26 84 27 81 28 18 29 19 30 20 31 21 32 22 33 23 35 24 36
REMARK SMILES IDX 25 37 77 38 26 39 76 40 27 41 28 42 29 43 70 44 30 45 75 46
REMARK SMILES IDX 69 47 71 48 31 49 74 50 68 51 67 52 32 54 58 55 41 56 57 57
REMARK SMILES IDX 42 58 45 59 56 60 72 61 43 62 44 63 55 65 73 66 46 67 33 68
REMARK SMILES IDX 34 69 39 70 35 71 36 72 38 73 40 74 37 75 59 76 60 77 65 78
REMARK SMILES IDX 61 79 62 80 64 81 66 82 63 83 47 84 48 85 53 86 49 87 50 88
REMARK SMILES IDX 52 89 54 90 51 91
REMARK H PARENT 16 5 12 8 21 34 71 53 45 64
REMARK Flexibility Score: inf
ROOT
ATOM      1  C   UNL A   1      32.074  29.599  25.404  1.00  0.00     0.116 C 
ENDROOT
BRANCH   1   2
ATOM      2  N   UNL A   1      32.725  29.553  24.109  1.00  0.00    -0.354 N 
ATOM      3  C   UNL A   1      32.587  28.614  23.116  1.00  0.00     0.243 C 
ATOM      4  O   UNL A   1      33.469  28.595  22.252  1.00  0.00    -0.273 OA
ATOM      5  H   UNL A   1      33.347  30.291  23.916  1.00  0.00     0.163 HD
BRANCH   3   6
ATOM      6  C   UNL A   1      31.339  27.678  23.059  1.00  0.00     0.190 C 
BRANCH   6   7
ATOM      7  N   UNL A   1      31.532  26.560  22.099  1.00  0.00    -0.238 NA
ATOM      8  H   UNL A   1      30.783  26.605  21.408  1.00  0.00     0.143 HD
BRANCH   7   9
ATOM      9  N   UNL A   1      31.520  25.240  22.686  1.00  0.00    -0.240 NA
ATOM     10  C   UNL A   1      34.590  23.802  24.937  1.00  0.00     0.410 C 
ATOM     11  O   UNL A   1      35.503  23.155  24.452  1.00  0.00    -0.224 OA
ATOM     12  N   UNL A   1      33.932  24.804  24.256  1.00  0.00    -0.306 N 
ATOM     13  C   UNL A   1      34.027  24.857  22.807  1.00  0.00     0.140 C 
ATOM     14  C   UNL A   1      32.895  25.664  24.810  1.00  0.00     0.140 C 
ATOM     15  C   UNL A   1      32.675  24.430  22.216  1.00  0.00     0.124 C 
ATOM     16  C   UNL A   1      31.530  25.339  24.176  1.00  0.00     0.124 C 
BRANCH  10  17
ATOM     17  O   UNL A   1      34.073  23.598  26.178  1.00  0.00    -0.444 OA
BRANCH  17  18
ATOM     18  C   UNL A   1      33.242  22.439  26.447  1.00  0.00     0.106 C 
ATOM     19  C   UNL A   1      32.052  22.983  27.251  1.00  0.00     0.056 C 
ATOM     20  C   UNL A   1      34.029  21.453  27.313  1.00  0.00     0.056 C 
ATOM     21  C   UNL A   1      32.685  21.770  25.181  1.00  0.00     0.056 C 
ENDBRANCH  17  18
ENDBRANCH  10  17
ENDBRANCH   7   9
ENDBRANCH   6   7
BRANCH   6  22
ATOM     22  C   UNL A   1      30.071  28.499  22.749  1.00  0.00    -0.002 A 
ATOM     23  C   UNL A   1      30.263  29.686  22.001  1.00  0.00     0.007 A 
ATOM     24  C   UNL A   1      28.745  28.162  23.091  1.00  0.00     0.046 A 
ATOM     25  C   UNL A   1      29.193  30.510  21.640  1.00  0.00     0.000 A 
ATOM     26  C   UNL A   1      27.681  29.012  22.751  1.00  0.00     0.021 A 
ATOM     27  Cl  UNL A   1      28.274  26.705  23.902  1.00  0.00    -0.084 Cl
ATOM     28  C   UNL A   1      27.901  30.180  22.028  1.00  0.00     0.002 A 
ENDBRANCH   6  22
ENDBRANCH   3   6
ENDBRANCH   1   2
BRANCH   1  29
ATOM     29  C   UNL A   1      31.004  30.697  25.422  1.00  0.00     0.023 C 
BRANCH  29  30
ATOM     30  C   UNL A   1      31.092  31.668  26.590  1.00  0.00     0.023 C 
BRANCH  30  31
ATOM     31  C   UNL A   1      32.325  32.555  26.562  1.00  0.00     0.116 C 
BRANCH  31  32
ATOM     32  N   UNL A   1      32.153  33.828  27.252  1.00  0.00    -0.352 N 
ATOM     33  C   UNL A   1      32.960  34.375  28.224  1.00  0.00     0.251 C 
ATOM     34  H   UNL A   1      31.367  34.360  26.992  1.00  0.00     0.163 HD
ATOM     35  O   UNL A   1      32.664  35.428  28.777  1.00  0.00    -0.269 OA
BRANCH  33  36
ATOM     36  C   UNL A   1      34.169  33.631  28.630  1.00  0.00     0.039 A 
ATOM     37  C   UNL A   1      35.411  34.262  28.546  1.00  0.00     0.014 A 
ATOM     38  C   UNL A   1      34.051  32.361  29.200  1.00  0.00     0.014 A 
ATOM     39  C   UNL A   1      36.527  33.653  29.119  1.00  0.00     0.010 A 
ATOM     40  C   UNL A   1      35.142  31.800  29.849  1.00  0.00     0.010 A 
ATOM     41  C   UNL A   1      36.390  32.441  29.818  1.00  0.00    -0.014 A 
BRANCH  41  42
ATOM     42  C   UNL A   1      37.536  31.823  30.527  1.00  0.00     0.031 A 
ATOM     43  C   UNL A   1      38.355  30.766  29.839  1.00  0.00     0.074 A 
ATOM     44  C   UNL A   1      37.786  32.146  31.811  1.00  0.00     0.049 A 
ATOM     45  N   UNL A   1      39.333  30.038  30.314  1.00  0.00    -0.248 NA
ATOM     46  C   UNL A   1      38.004  30.463  28.442  1.00  0.00     0.031 C 
ATOM     47  C   UNL A   1      37.025  33.110  32.608  1.00  0.00     0.029 A 
ATOM     48  N   UNL A   1      38.747  31.687  32.676  1.00  0.00    -0.354 N 
ATOM     49  C   UNL A   1      39.695  29.179  29.285  1.00  0.00     0.074 A 
ATOM     50  C   UNL A   1      38.796  29.436  28.181  1.00  0.00     0.031 C 
ATOM     51  C   UNL A   1      37.564  33.190  33.836  1.00  0.00     0.029 A 
ATOM     52  C   UNL A   1      38.685  32.259  33.924  1.00  0.00     0.049 A 
ATOM     53  H   UNL A   1      39.418  31.011  32.426  1.00  0.00     0.167 HD
ATOM     54  C   UNL A   1      40.703  28.278  29.250  1.00  0.00     0.037 A 
ATOM     55  C   UNL A   1      39.445  32.053  35.016  1.00  0.00     0.037 A 
ATOM     56  C   UNL A   1      41.621  28.054  30.335  1.00  0.00     0.049 A 
ATOM     57  C   UNL A   1      40.573  31.060  34.946  1.00  0.00     0.074 A 
ATOM     58  C   UNL A   1      42.719  27.214  30.376  1.00  0.00     0.029 A 
ATOM     59  N   UNL A   1      41.548  28.680  31.570  1.00  0.00    -0.354 N 
ATOM     60  N   UNL A   1      40.949  30.304  33.944  1.00  0.00    -0.248 NA
ATOM     61  C   UNL A   1      41.386  30.897  36.160  1.00  0.00     0.031 C 
ATOM     62  C   UNL A   1      43.291  27.306  31.649  1.00  0.00     0.029 A 
ATOM     63  C   UNL A   1      42.574  28.234  32.386  1.00  0.00     0.049 A 
ATOM     64  H   UNL A   1      40.868  29.343  31.829  1.00  0.00     0.167 HD
ATOM     65  C   UNL A   1      42.056  29.598  34.392  1.00  0.00     0.074 A 
ATOM     66  C   UNL A   1      42.299  30.024  35.756  1.00  0.00     0.031 C 
ATOM     67  C   UNL A   1      42.806  28.679  33.737  1.00  0.00     0.037 A 
BRANCH  54  68
ATOM     68  C   UNL A   1      40.871  27.479  27.992  1.00  0.00     0.057 A 
ATOM     69  C   UNL A   1      41.669  27.931  26.932  1.00  0.00     0.134 A 
ATOM     70  C   UNL A   1      40.242  26.237  27.844  1.00  0.00     0.134 A 
ATOM     71  F   UNL A   1      42.285  29.120  27.005  1.00  0.00    -0.206 F 
ATOM     72  C   UNL A   1      41.813  27.189  25.760  1.00  0.00     0.040 A 
ATOM     73  C   UNL A   1      40.402  25.473  26.687  1.00  0.00     0.040 A 
ATOM     74  F   UNL A   1      39.468  25.744  28.821  1.00  0.00    -0.206 F 
ATOM     75  C   UNL A   1      41.182  25.953  25.636  1.00  0.00     0.006 A 
ENDBRANCH  54  68
BRANCH  55  76
ATOM     76  C   UNL A   1      39.191  32.823  36.258  1.00  0.00     0.057 A 
ATOM     77  C   UNL A   1      39.772  34.081  36.456  1.00  0.00     0.134 A 
ATOM     78  C   UNL A   1      38.372  32.324  37.277  1.00  0.00     0.134 A 
ATOM     79  F   UNL A   1      40.581  34.604  35.523  1.00  0.00    -0.206 F 
ATOM     80  C   UNL A   1      39.566  34.806  37.631  1.00  0.00     0.040 A 
ATOM     81  C   UNL A   1      38.137  33.048  38.448  1.00  0.00     0.040 A 
ATOM     82  F   UNL A   1      37.778  31.128  37.144  1.00  0.00    -0.206 F 
ATOM     83  C   UNL A   1      38.742  34.291  38.629  1.00  0.00     0.006 A 
ENDBRANCH  55  76
BRANCH  67  84
ATOM     84  C   UNL A   1      43.978  28.100  34.469  1.00  0.00     0.057 A 
ATOM     85  C   UNL A   1      45.245  28.693  34.422  1.00  0.00     0.134 A 
ATOM     86  C   UNL A   1      43.824  26.960  35.269  1.00  0.00     0.134 A 
ATOM     87  F   UNL A   1      45.460  29.779  33.665  1.00  0.00    -0.206 F 
ATOM     88  C   UNL A   1      46.324  28.161  35.131  1.00  0.00     0.040 A 
ATOM     89  C   UNL A   1      44.888  26.433  36.000  1.00  0.00     0.040 A 
ATOM     90  F   UNL A   1      42.632  26.350  35.362  1.00  0.00    -0.206 F 
ATOM     91  C   UNL A   1      46.145  27.031  35.928  1.00  0.00     0.006 A 
ENDBRANCH  67  84
ENDBRANCH  41  42
ENDBRANCH  33  36
ENDBRANCH  31  32
ENDBRANCH  30  31
ENDBRANCH  29  30
ENDBRANCH   1  29
TORSDOF 16
ENDMDL
MODEL 3
REMARK VINA RESULT:     -12.2      1.786      2.309
REMARK SMILES CC(C)(C)OC(=O)N1CCN(N[C@@H](C(=O)NCCCCNC(=O)c2ccc(-c3c4nc(c(-c5c(F)cccc5F)c5ccc([nH]5)c(-c5c(F)cccc5F)c5nc(c(-c6c(F)cccc6F)c6ccc3[nH]6)C=C5)C=C4)cc2)c2ccccc2Cl)CC1
REMARK SMILES IDX 17 1 16 2 14 3 15 4 13 6 12 7 11 9 6 10 7 11 8 12 9 13 86 14
REMARK SMILES IDX 10 15 85 16 5 17 2 18 1 19 3 20 4 21 78 22 79 23 83 24 80 25
REMARK SMILES IDX 82 26 84 27 81 28 18 29 19 30 20 31 21 32 22 33 23 35 24 36
REMARK SMILES IDX 25 37 77 38 26 39 76 40 27 41 28 42 29 43 70 44 30 45 75 46
REMARK SMILES IDX 69 47 71 48 31 49 74 50 68 51 67 52 32 54 58 55 41 56 57 57
REMARK SMILES IDX 42 58 45 59 56 60 72 61 43 62 44 63 55 65 73 66 46 67 33 68
REMARK SMILES IDX 34 69 39 70 35 71 36 72 38 73 40 74 37 75 59 76 60 77 65 78
REMARK SMILES IDX 61 79 62 80 64 81 66 82 63 83 47 84 48 85 53 86 49 87 50 88
REMARK SMILES IDX 52 89 54 90 51 91
REMARK H PARENT 16 5 12 8 21 34 71 53 45 64
REMARK Flexibility Score: inf
ROOT
ATOM      1  C   UNL A   1      34.050  29.244  26.801  1.00  0.00     0.116 C 
ENDROOT
BRANCH   1   2
ATOM      2  N   UNL A   1      33.958  29.556  25.388  1.00  0.00    -0.354 N 
ATOM      3  C   UNL A   1      33.084  29.052  24.456  1.00  0.00     0.243 C 
ATOM      4  O   UNL A   1      33.394  29.206  23.271  1.00  0.00    -0.273 OA
ATOM      5  H   UNL A   1      34.606  30.216  25.052  1.00  0.00     0.163 HD
BRANCH   3   6
ATOM      6  C   UNL A   1      31.740  28.386  24.889  1.00  0.00     0.190 C 
BRANCH   6   7
ATOM      7  N   UNL A   1      31.788  26.907  24.749  1.00  0.00    -0.238 NA
ATOM      8  H   UNL A   1      31.039  26.511  25.319  1.00  0.00     0.143 HD
BRANCH   7   9
ATOM      9  N   UNL A   1      33.030  26.292  25.155  1.00  0.00    -0.240 NA
ATOM     10  C   UNL A   1      33.630  22.268  25.061  1.00  0.00     0.410 C 
ATOM     11  O   UNL A   1      33.413  21.557  26.028  1.00  0.00    -0.224 OA
ATOM     12  N   UNL A   1      32.904  23.407  24.785  1.00  0.00    -0.306 N 
ATOM     13  C   UNL A   1      32.122  24.024  25.844  1.00  0.00     0.140 C 
ATOM     14  C   UNL A   1      33.062  24.247  23.605  1.00  0.00     0.140 C 
ATOM     15  C   UNL A   1      32.818  25.327  26.265  1.00  0.00     0.124 C 
ATOM     16  C   UNL A   1      33.669  25.609  23.991  1.00  0.00     0.124 C 
BRANCH  10  17
ATOM     17  O   UNL A   1      34.630  22.066  24.163  1.00  0.00    -0.444 OA
BRANCH  17  18
ATOM     18  C   UNL A   1      36.010  22.330  24.526  1.00  0.00     0.106 C 
ATOM     19  C   UNL A   1      36.661  22.867  23.242  1.00  0.00     0.056 C 
ATOM     20  C   UNL A   1      36.682  21.013  24.921  1.00  0.00     0.056 C 
ATOM     21  C   UNL A   1      36.168  23.402  25.615  1.00  0.00     0.056 C 
ENDBRANCH  17  18
ENDBRANCH  10  17
ENDBRANCH   7   9
ENDBRANCH   6   7
BRANCH   6  22
ATOM     22  C   UNL A   1      30.562  29.006  24.111  1.00  0.00    -0.002 A 
ATOM     23  C   UNL A   1      29.871  28.141  23.229  1.00  0.00     0.007 A 
ATOM     24  C   UNL A   1      30.080  30.327  24.226  1.00  0.00     0.046 A 
ATOM     25  C   UNL A   1      28.775  28.576  22.479  1.00  0.00     0.000 A 
ATOM     26  C   UNL A   1      28.999  30.763  23.445  1.00  0.00     0.021 A 
ATOM     27  Cl  UNL A   1      30.703  31.514  25.324  1.00  0.00    -0.084 Cl
ATOM     28  C   UNL A   1      28.347  29.894  22.576  1.00  0.00     0.002 A 
ENDBRANCH   6  22
ENDBRANCH   3   6
ENDBRANCH   1   2
BRANCH   1  29
ATOM     29  C   UNL A   1      34.355  30.512  27.607  1.00  0.00     0.023 C 
BRANCH  29  30
ATOM     30  C   UNL A   1      33.189  31.480  27.754  1.00  0.00     0.023 C 
BRANCH  30  31
ATOM     31  C   UNL A   1      33.461  32.862  27.184  1.00  0.00     0.116 C 
BRANCH  31  32
ATOM     32  N   UNL A   1      32.838  33.945  27.936  1.00  0.00    -0.352 N 
ATOM     33  C   UNL A   1      33.314  34.565  29.070  1.00  0.00     0.251 C 
ATOM     34  H   UNL A   1      31.976  34.271  27.593  1.00  0.00     0.163 HD
ATOM     35  O   UNL A   1      32.655  35.421  29.648  1.00  0.00    -0.269 OA
BRANCH  33  36
ATOM     36  C   UNL A   1      34.619  34.133  29.609  1.00  0.00     0.039 A 
ATOM     37  C   UNL A   1      34.644  33.293  30.723  1.00  0.00     0.014 A 
ATOM     38  C   UNL A   1      35.798  34.465  28.938  1.00  0.00     0.014 A 
ATOM     39  C   UNL A   1      35.850  32.710  31.112  1.00  0.00     0.010 A 
ATOM     40  C   UNL A   1      36.979  33.814  29.270  1.00  0.00     0.010 A 
ATOM     41  C   UNL A   1      37.016  32.927  30.358  1.00  0.00    -0.014 A 
BRANCH  41  42
ATOM     42  C   UNL A   1      38.289  32.240  30.684  1.00  0.00     0.031 A 
ATOM     43  C   UNL A   1      39.264  32.888  31.627  1.00  0.00     0.074 A 
ATOM     44  C   UNL A   1      38.603  31.083  30.070  1.00  0.00     0.049 A 
ATOM     45  N   UNL A   1      40.467  32.500  31.967  1.00  0.00    -0.248 NA
ATOM     46  C   UNL A   1      38.847  34.159  32.240  1.00  0.00     0.031 C 
ATOM     47  C   UNL A   1      37.768  30.386  29.089  1.00  0.00     0.029 A 
ATOM     48  N   UNL A   1      39.720  30.293  30.173  1.00  0.00    -0.354 N 
ATOM     49  C   UNL A   1      40.954  33.488  32.812  1.00  0.00     0.074 A 
ATOM     50  C   UNL A   1      39.944  34.519  32.888  1.00  0.00     0.031 C 
ATOM     51  C   UNL A   1      38.390  29.261  28.702  1.00  0.00     0.029 A 
ATOM     52  C   UNL A   1      39.681  29.173  29.378  1.00  0.00     0.049 A 
ATOM     53  H   UNL A   1      40.480  30.508  30.762  1.00  0.00     0.167 HD
ATOM     54  C   UNL A   1      42.126  33.520  33.487  1.00  0.00     0.037 A 
ATOM     55  C   UNL A   1      40.585  28.190  29.212  1.00  0.00     0.037 A 
ATOM     56  C   UNL A   1      43.112  32.474  33.442  1.00  0.00     0.049 A 
ATOM     57  C   UNL A   1      41.871  28.238  29.990  1.00  0.00     0.074 A 
ATOM     58  C   UNL A   1      44.301  32.378  34.143  1.00  0.00     0.029 A 
ATOM     59  N   UNL A   1      43.018  31.338  32.652  1.00  0.00    -0.354 N 
ATOM     60  N   UNL A   1      42.290  29.144  30.839  1.00  0.00    -0.248 NA
ATOM     61  C   UNL A   1      42.808  27.124  29.789  1.00  0.00     0.031 C 
ATOM     62  C   UNL A   1      44.943  31.199  33.751  1.00  0.00     0.029 A 
ATOM     63  C   UNL A   1      44.135  30.541  32.838  1.00  0.00     0.049 A 
ATOM     64  H   UNL A   1      42.268  31.128  32.049  1.00  0.00     0.167 HD
ATOM     65  C   UNL A   1      43.522  28.697  31.296  1.00  0.00     0.074 A 
ATOM     66  C   UNL A   1      43.780  27.433  30.637  1.00  0.00     0.031 C 
ATOM     67  C   UNL A   1      44.367  29.280  32.182  1.00  0.00     0.037 A 
BRANCH  54  68
ATOM     68  C   UNL A   1      42.395  34.723  34.343  1.00  0.00     0.057 A 
ATOM     69  C   UNL A   1      43.038  35.860  33.834  1.00  0.00     0.134 A 
ATOM     70  C   UNL A   1      41.993  34.752  35.683  1.00  0.00     0.134 A 
ATOM     71  F   UNL A   1      43.463  35.889  32.562  1.00  0.00    -0.206 F 
ATOM     72  C   UNL A   1      43.296  36.972  34.635  1.00  0.00     0.040 A 
ATOM     73  C   UNL A   1      42.221  35.870  36.487  1.00  0.00     0.040 A 
ATOM     74  F   UNL A   1      41.371  33.699  36.231  1.00  0.00    -0.206 F 
ATOM     75  C   UNL A   1      42.882  36.982  35.966  1.00  0.00     0.006 A 
ENDBRANCH  54  68
BRANCH  55  76
ATOM     76  C   UNL A   1      40.295  27.057  28.298  1.00  0.00     0.057 A 
ATOM     77  C   UNL A   1      40.865  27.000  27.021  1.00  0.00     0.134 A 
ATOM     78  C   UNL A   1      39.442  26.012  28.670  1.00  0.00     0.134 A 
ATOM     79  F   UNL A   1      41.677  27.982  26.601  1.00  0.00    -0.206 F 
ATOM     80  C   UNL A   1      40.581  25.957  26.138  1.00  0.00     0.040 A 
ATOM     81  C   UNL A   1      39.166  24.950  27.807  1.00  0.00     0.040 A 
ATOM     82  F   UNL A   1      38.871  26.004  29.884  1.00  0.00    -0.206 F 
ATOM     83  C   UNL A   1      39.732  24.925  26.533  1.00  0.00     0.006 A 
ENDBRANCH  55  76
BRANCH  67  84
ATOM     84  C   UNL A   1      45.627  28.542  32.516  1.00  0.00     0.057 A 
ATOM     85  C   UNL A   1      46.820  28.761  31.817  1.00  0.00     0.134 A 
ATOM     86  C   UNL A   1      45.657  27.633  33.582  1.00  0.00     0.134 A 
ATOM     87  F   UNL A   1      46.853  29.610  30.778  1.00  0.00    -0.206 F 
ATOM     88  C   UNL A   1      47.996  28.088  32.154  1.00  0.00     0.040 A 
ATOM     89  C   UNL A   1      46.831  26.972  33.944  1.00  0.00     0.040 A 
ATOM     90  F   UNL A   1      44.549  27.384  34.296  1.00  0.00    -0.206 F 
ATOM     91  C   UNL A   1      48.004  27.196  33.225  1.00  0.00     0.006 A 
ENDBRANCH  67  84
ENDBRANCH  41  42
ENDBRANCH  33  36
ENDBRANCH  31  32
ENDBRANCH  30  31
ENDBRANCH  29  30
ENDBRANCH   1  29
TORSDOF 16
ENDMDL
