MODEL 1
REMARK VINA RESULT:     -11.4      0.000      0.000
REMARK SMILES Cc1ccccc1C[C@@H](CC(F)(F)F)C(=O)NCCCCNC(=O)c1ccc(-c2c3nc(c(-c4c(F)cccc4F)c4ccc([nH]4)c(-c4c(F)cccc4F)c4nc(c(-c5c(F)cccc5F)c5ccc2[nH]5)C=C4)C=C3)cc1
REMARK SMILES IDX 19 1 18 2 17 3 15 4 16 5 9 7 8 8 7 9 1 10 2 11 3 12 4 13
REMARK SMILES IDX 6 14 5 15 10 16 11 17 12 18 13 19 14 20 20 21 21 22 22 23
REMARK SMILES IDX 23 24 24 26 25 27 26 28 78 29 27 30 77 31 28 32 29 33 30 34
REMARK SMILES IDX 71 35 31 36 76 37 70 38 72 39 32 40 75 41 69 42 68 43 33 45
REMARK SMILES IDX 59 46 42 47 58 48 43 49 46 50 57 51 73 52 44 53 45 54 56 56
REMARK SMILES IDX 74 57 47 58 34 59 35 60 40 61 36 62 37 63 39 64 41 65 38 66
REMARK SMILES IDX 60 67 61 68 66 69 62 70 63 71 65 72 67 73 64 74 48 75 49 76
REMARK SMILES IDX 54 77 50 78 51 79 53 80 55 81 52 82
REMARK H PARENT 17 6 22 25 72 44 46 55
REMARK Flexibility Score: inf
ROOT
ATOM      1  C   UNL A   1      32.582  27.845  27.010  1.00  0.00     0.023 C 
ENDROOT
BRANCH   1   2
ATOM      2  C   UNL A   1      31.555  27.163  26.102  1.00  0.00     0.116 C 
BRANCH   2   3
ATOM      3  N   UNL A   1      31.102  25.878  26.608  1.00  0.00    -0.356 N 
ATOM      4  C   UNL A   1      31.656  24.639  26.622  1.00  0.00     0.223 C 
ATOM      5  O   UNL A   1      31.058  23.777  27.274  1.00  0.00    -0.275 OA
ATOM      6  H   UNL A   1      30.212  25.913  27.027  1.00  0.00     0.163 HD
BRANCH   4   7
ATOM      7  C   UNL A   1      32.978  24.280  25.943  1.00  0.00     0.092 C 
BRANCH   7   8
ATOM      8  C   UNL A   1      33.846  23.301  26.757  1.00  0.00     0.049 C 
BRANCH   8   9
ATOM      9  C   UNL A   1      35.068  22.736  26.055  1.00  0.00    -0.044 A 
ATOM     10  C   UNL A   1      33.959  20.511  25.349  1.00  0.00     0.044 C 
ATOM     11  C   UNL A   1      35.110  21.480  25.418  1.00  0.00    -0.048 A 
ATOM     12  C   UNL A   1      36.282  21.103  24.728  1.00  0.00     0.004 A 
ATOM     13  C   UNL A   1      37.397  21.937  24.676  1.00  0.00     0.000 A 
ATOM     14  C   UNL A   1      36.205  23.566  25.976  1.00  0.00     0.004 A 
ATOM     15  C   UNL A   1      37.360  23.170  25.305  1.00  0.00     0.000 A 
ENDBRANCH   8   9
ENDBRANCH   7   8
BRANCH   7  16
ATOM     16  C   UNL A   1      32.766  24.025  24.437  1.00  0.00     0.129 C 
BRANCH  16  17
ATOM     17  C   UNL A   1      33.674  24.743  23.466  1.00  0.00     0.389 C 
ATOM     18  F   UNL A   1      34.450  25.661  24.075  1.00  0.00    -0.171 F 
ATOM     19  F   UNL A   1      34.501  23.860  22.860  1.00  0.00    -0.171 F 
ATOM     20  F   UNL A   1      32.982  25.367  22.492  1.00  0.00    -0.171 F 
ENDBRANCH  16  17
ENDBRANCH   7  16
ENDBRANCH   4   7
ENDBRANCH   2   3
ENDBRANCH   1   2
BRANCH   1  21
ATOM     21  C   UNL A   1      33.999  27.939  26.435  1.00  0.00     0.023 C 
BRANCH  21  22
ATOM     22  C   UNL A   1      34.788  29.156  26.901  1.00  0.00     0.116 C 
BRANCH  22  23
ATOM     23  N   UNL A   1      34.049  30.408  26.932  1.00  0.00    -0.352 N 
ATOM     24  C   UNL A   1      34.182  31.501  27.778  1.00  0.00     0.251 C 
ATOM     25  H   UNL A   1      33.346  30.493  26.248  1.00  0.00     0.163 HD
ATOM     26  O   UNL A   1      33.378  32.413  27.704  1.00  0.00    -0.269 OA
BRANCH  24  27
ATOM     27  C   UNL A   1      35.374  31.635  28.667  1.00  0.00     0.039 A 
ATOM     28  C   UNL A   1      36.367  32.551  28.290  1.00  0.00     0.014 A 
ATOM     29  C   UNL A   1      35.617  30.764  29.722  1.00  0.00     0.014 A 
ATOM     30  C   UNL A   1      37.665  32.402  28.776  1.00  0.00     0.010 A 
ATOM     31  C   UNL A   1      36.919  30.538  30.123  1.00  0.00     0.010 A 
ATOM     32  C   UNL A   1      37.953  31.313  29.595  1.00  0.00    -0.014 A 
BRANCH  32  33
ATOM     33  C   UNL A   1      39.305  30.838  29.852  1.00  0.00     0.031 A 
ATOM     34  C   UNL A   1      39.820  29.626  29.191  1.00  0.00     0.074 A 
ATOM     35  C   UNL A   1      40.122  31.572  30.641  1.00  0.00     0.049 A 
ATOM     36  N   UNL A   1      40.735  28.866  29.689  1.00  0.00    -0.248 NA
ATOM     37  C   UNL A   1      39.315  29.161  27.905  1.00  0.00     0.031 C 
ATOM     38  C   UNL A   1      41.562  31.409  30.826  1.00  0.00     0.029 A 
ATOM     39  N   UNL A   1      39.751  32.512  31.612  1.00  0.00    -0.354 N 
ATOM     40  C   UNL A   1      41.135  27.997  28.700  1.00  0.00     0.074 A 
ATOM     41  C   UNL A   1      40.177  28.176  27.633  1.00  0.00     0.031 C 
ATOM     42  C   UNL A   1      41.909  31.962  31.998  1.00  0.00     0.029 A 
ATOM     43  C   UNL A   1      40.683  32.370  32.661  1.00  0.00     0.049 A 
ATOM     44  H   UNL A   1      38.995  33.143  31.570  1.00  0.00     0.167 HD
ATOM     45  C   UNL A   1      42.317  27.327  28.829  1.00  0.00     0.037 A 
ATOM     46  C   UNL A   1      40.295  31.971  33.906  1.00  0.00     0.037 A 
ATOM     47  C   UNL A   1      42.983  27.662  30.083  1.00  0.00     0.049 A 
ATOM     48  C   UNL A   1      40.962  30.701  34.379  1.00  0.00     0.074 A 
ATOM     49  C   UNL A   1      43.989  28.566  30.389  1.00  0.00     0.029 A 
ATOM     50  N   UNL A   1      42.422  27.277  31.294  1.00  0.00    -0.354 N 
ATOM     51  N   UNL A   1      41.548  29.847  33.587  1.00  0.00    -0.248 NA
ATOM     52  C   UNL A   1      40.999  30.279  35.776  1.00  0.00     0.031 C 
ATOM     53  C   UNL A   1      44.006  28.751  31.791  1.00  0.00     0.029 A 
ATOM     54  C   UNL A   1      43.023  27.949  32.341  1.00  0.00     0.049 A 
ATOM     55  H   UNL A   1      41.698  26.616  31.392  1.00  0.00     0.167 HD
ATOM     56  C   UNL A   1      42.005  28.778  34.318  1.00  0.00     0.074 A 
ATOM     57  C   UNL A   1      41.661  29.111  35.687  1.00  0.00     0.031 C 
ATOM     58  C   UNL A   1      42.614  27.711  33.718  1.00  0.00     0.037 A 
BRANCH  45  59
ATOM     59  C   UNL A   1      42.999  26.630  27.675  1.00  0.00     0.057 A 
ATOM     60  C   UNL A   1      43.673  27.358  26.674  1.00  0.00     0.134 A 
ATOM     61  C   UNL A   1      42.984  25.240  27.469  1.00  0.00     0.134 A 
ATOM     62  F   UNL A   1      43.886  28.675  26.780  1.00  0.00    -0.206 F 
ATOM     63  C   UNL A   1      44.165  26.768  25.502  1.00  0.00     0.040 A 
ATOM     64  C   UNL A   1      43.425  24.642  26.278  1.00  0.00     0.040 A 
ATOM     65  F   UNL A   1      42.582  24.398  28.431  1.00  0.00    -0.206 F 
ATOM     66  C   UNL A   1      44.001  25.411  25.280  1.00  0.00     0.006 A 
ENDBRANCH  45  59
BRANCH  46  67
ATOM     67  C   UNL A   1      38.911  32.389  34.250  1.00  0.00     0.057 A 
ATOM     68  C   UNL A   1      38.696  33.706  34.692  1.00  0.00     0.134 A 
ATOM     69  C   UNL A   1      37.795  31.679  33.799  1.00  0.00     0.134 A 
ATOM     70  F   UNL A   1      39.726  34.443  35.140  1.00  0.00    -0.206 F 
ATOM     71  C   UNL A   1      37.452  34.332  34.576  1.00  0.00     0.040 A 
ATOM     72  C   UNL A   1      36.540  32.292  33.693  1.00  0.00     0.040 A 
ATOM     73  F   UNL A   1      37.920  30.425  33.343  1.00  0.00    -0.206 F 
ATOM     74  C   UNL A   1      36.376  33.633  34.041  1.00  0.00     0.006 A 
ENDBRANCH  46  67
BRANCH  58  75
ATOM     75  C   UNL A   1      42.970  26.383  34.354  1.00  0.00     0.057 A 
ATOM     76  C   UNL A   1      42.062  25.538  35.006  1.00  0.00     0.134 A 
ATOM     77  C   UNL A   1      44.270  25.841  34.194  1.00  0.00     0.134 A 
ATOM     78  F   UNL A   1      40.769  25.858  35.135  1.00  0.00    -0.206 F 
ATOM     79  C   UNL A   1      42.428  24.279  35.508  1.00  0.00     0.040 A 
ATOM     80  C   UNL A   1      44.629  24.564  34.638  1.00  0.00     0.040 A 
ATOM     81  F   UNL A   1      45.249  26.516  33.574  1.00  0.00    -0.206 F 
ATOM     82  C   UNL A   1      43.709  23.782  35.313  1.00  0.00     0.006 A 
ENDBRANCH  58  75
ENDBRANCH  32  33
ENDBRANCH  24  27
ENDBRANCH  22  23
ENDBRANCH  21  22
ENDBRANCH   1  21
TORSDOF 15
ENDMDL
MODEL 2
REMARK VINA RESULT:     -11.4      1.993      2.927
REMARK SMILES Cc1ccccc1C[C@@H](CC(F)(F)F)C(=O)NCCCCNC(=O)c1ccc(-c2c3nc(c(-c4c(F)cccc4F)c4ccc([nH]4)c(-c4c(F)cccc4F)c4nc(c(-c5c(F)cccc5F)c5ccc2[nH]5)C=C4)C=C3)cc1
REMARK SMILES IDX 19 1 18 2 17 3 15 4 16 5 9 7 8 8 7 9 1 10 2 11 3 12 4 13
REMARK SMILES IDX 6 14 5 15 10 16 11 17 12 18 13 19 14 20 20 21 21 22 22 23
REMARK SMILES IDX 23 24 24 26 25 27 26 28 78 29 27 30 77 31 28 32 29 33 30 34
REMARK SMILES IDX 71 35 31 36 76 37 70 38 72 39 32 40 75 41 69 42 68 43 33 45
REMARK SMILES IDX 59 46 42 47 58 48 43 49 46 50 57 51 73 52 44 53 45 54 56 56
REMARK SMILES IDX 74 57 47 58 34 59 35 60 40 61 36 62 37 63 39 64 41 65 38 66
REMARK SMILES IDX 60 67 61 68 66 69 62 70 63 71 65 72 67 73 64 74 48 75 49 76
REMARK SMILES IDX 54 77 50 78 51 79 53 80 55 81 52 82
REMARK H PARENT 17 6 22 25 72 44 46 55
REMARK Flexibility Score: inf
ROOT
ATOM      1  C   UNL A   1      31.766  29.623  26.940  1.00  0.00     0.023 C 
ENDROOT
BRANCH   1   2
ATOM      2  C   UNL A   1      32.105  28.243  27.512  1.00  0.00     0.116 C 
BRANCH   2   3
ATOM      3  N   UNL A   1      31.108  27.231  27.202  1.00  0.00    -0.356 N 
ATOM      4  C   UNL A   1      31.095  26.171  26.354  1.00  0.00     0.223 C 
ATOM      5  O   UNL A   1      30.125  25.410  26.442  1.00  0.00    -0.275 OA
ATOM      6  H   UNL A   1      30.271  27.336  27.711  1.00  0.00     0.163 HD
BRANCH   4   7
ATOM      7  C   UNL A   1      32.216  25.843  25.368  1.00  0.00     0.092 C 
BRANCH   7   8
ATOM      8  C   UNL A   1      32.463  24.333  25.191  1.00  0.00     0.049 C 
BRANCH   8   9
ATOM      9  C   UNL A   1      33.874  23.917  24.817  1.00  0.00    -0.044 A 
ATOM     10  C   UNL A   1      33.294  23.155  22.417  1.00  0.00     0.044 C 
ATOM     11  C   UNL A   1      34.243  23.392  23.562  1.00  0.00    -0.048 A 
ATOM     12  C   UNL A   1      35.604  23.122  23.308  1.00  0.00     0.004 A 
ATOM     13  C   UNL A   1      36.584  23.348  24.272  1.00  0.00     0.000 A 
ATOM     14  C   UNL A   1      34.888  24.150  25.769  1.00  0.00     0.004 A 
ATOM     15  C   UNL A   1      36.224  23.860  25.507  1.00  0.00     0.000 A 
ENDBRANCH   8   9
ENDBRANCH   7   8
BRANCH   7  16
ATOM     16  C   UNL A   1      32.123  26.743  24.119  1.00  0.00     0.129 C 
BRANCH  16  17
ATOM     17  C   UNL A   1      33.391  27.402  23.630  1.00  0.00     0.389 C 
ATOM     18  F   UNL A   1      34.088  26.610  22.790  1.00  0.00    -0.171 F 
ATOM     19  F   UNL A   1      33.097  28.538  22.956  1.00  0.00    -0.171 F 
ATOM     20  F   UNL A   1      34.207  27.747  24.646  1.00  0.00    -0.171 F 
ENDBRANCH  16  17
ENDBRANCH   7  16
ENDBRANCH   4   7
ENDBRANCH   2   3
ENDBRANCH   1   2
BRANCH   1  21
ATOM     21  C   UNL A   1      32.958  30.570  26.774  1.00  0.00     0.023 C 
BRANCH  21  22
ATOM     22  C   UNL A   1      34.226  30.118  27.488  1.00  0.00     0.116 C 
BRANCH  22  23
ATOM     23  N   UNL A   1      34.790  31.072  28.429  1.00  0.00    -0.352 N 
ATOM     24  C   UNL A   1      35.947  30.993  29.192  1.00  0.00     0.251 C 
ATOM     25  H   UNL A   1      34.272  31.902  28.542  1.00  0.00     0.163 HD
ATOM     26  O   UNL A   1      36.183  31.865  30.010  1.00  0.00    -0.269 OA
BRANCH  24  27
ATOM     27  C   UNL A   1      36.969  29.939  28.920  1.00  0.00     0.039 A 
ATOM     28  C   UNL A   1      37.138  28.932  29.881  1.00  0.00     0.014 A 
ATOM     29  C   UNL A   1      37.871  30.031  27.866  1.00  0.00     0.014 A 
ATOM     30  C   UNL A   1      38.335  28.220  29.934  1.00  0.00     0.010 A 
ATOM     31  C   UNL A   1      39.102  29.415  27.977  1.00  0.00     0.010 A 
ATOM     32  C   UNL A   1      39.357  28.562  29.051  1.00  0.00    -0.014 A 
BRANCH  32  33
ATOM     33  C   UNL A   1      40.747  28.174  29.245  1.00  0.00     0.031 A 
ATOM     34  C   UNL A   1      41.285  26.951  28.623  1.00  0.00     0.074 A 
ATOM     35  C   UNL A   1      41.570  28.995  29.936  1.00  0.00     0.049 A 
ATOM     36  N   UNL A   1      42.270  26.270  29.103  1.00  0.00    -0.248 NA
ATOM     37  C   UNL A   1      40.727  26.383  27.402  1.00  0.00     0.031 C 
ATOM     38  C   UNL A   1      43.025  28.917  30.035  1.00  0.00     0.029 A 
ATOM     39  N   UNL A   1      41.208  29.972  30.873  1.00  0.00    -0.354 N 
ATOM     40  C   UNL A   1      42.655  25.365  28.142  1.00  0.00     0.074 A 
ATOM     41  C   UNL A   1      41.623  25.429  27.131  1.00  0.00     0.031 C 
ATOM     42  C   UNL A   1      43.414  29.557  31.148  1.00  0.00     0.029 A 
ATOM     43  C   UNL A   1      42.211  29.942  31.866  1.00  0.00     0.049 A 
ATOM     44  H   UNL A   1      40.418  30.559  30.845  1.00  0.00     0.167 HD
ATOM     45  C   UNL A   1      43.877  24.765  28.231  1.00  0.00     0.037 A 
ATOM     46  C   UNL A   1      41.924  29.600  33.154  1.00  0.00     0.037 A 
ATOM     47  C   UNL A   1      44.601  25.210  29.418  1.00  0.00     0.049 A 
ATOM     48  C   UNL A   1      42.688  28.397  33.655  1.00  0.00     0.074 A 
ATOM     49  C   UNL A   1      45.573  26.180  29.604  1.00  0.00     0.029 A 
ATOM     50  N   UNL A   1      44.138  24.870  30.683  1.00  0.00    -0.354 N 
ATOM     51  N   UNL A   1      43.270  27.527  32.877  1.00  0.00    -0.248 NA
ATOM     52  C   UNL A   1      42.836  28.064  35.068  1.00  0.00     0.031 C 
ATOM     53  C   UNL A   1      45.667  26.452  30.989  1.00  0.00     0.029 A 
ATOM     54  C   UNL A   1      44.766  25.635  31.647  1.00  0.00     0.049 A 
ATOM     55  H   UNL A   1      43.459  24.181  30.866  1.00  0.00     0.167 HD
ATOM     56  C   UNL A   1      43.830  26.529  33.636  1.00  0.00     0.074 A 
ATOM     57  C   UNL A   1      43.554  26.928  35.003  1.00  0.00     0.031 C 
ATOM     58  C   UNL A   1      44.457  25.461  33.060  1.00  0.00     0.037 A 
BRANCH  45  59
ATOM     59  C   UNL A   1      44.524  24.035  27.076  1.00  0.00     0.057 A 
ATOM     60  C   UNL A   1      45.487  24.661  26.260  1.00  0.00     0.134 A 
ATOM     61  C   UNL A   1      44.201  22.723  26.689  1.00  0.00     0.134 A 
ATOM     62  F   UNL A   1      45.995  25.862  26.561  1.00  0.00    -0.206 F 
ATOM     63  C   UNL A   1      45.979  24.085  25.082  1.00  0.00     0.040 A 
ATOM     64  C   UNL A   1      44.644  22.154  25.485  1.00  0.00     0.040 A 
ATOM     65  F   UNL A   1      43.477  21.921  27.482  1.00  0.00    -0.206 F 
ATOM     66  C   UNL A   1      45.523  22.845  24.666  1.00  0.00     0.006 A 
ENDBRANCH  45  59
BRANCH  46  67
ATOM     67  C   UNL A   1      40.543  29.967  33.564  1.00  0.00     0.057 A 
ATOM     68  C   UNL A   1      40.270  31.309  33.882  1.00  0.00     0.134 A 
ATOM     69  C   UNL A   1      39.449  29.144  33.281  1.00  0.00     0.134 A 
ATOM     70  F   UNL A   1      41.276  32.152  34.165  1.00  0.00    -0.206 F 
ATOM     71  C   UNL A   1      38.980  31.840  33.802  1.00  0.00     0.040 A 
ATOM     72  C   UNL A   1      38.150  29.662  33.214  1.00  0.00     0.040 A 
ATOM     73  F   UNL A   1      39.628  27.857  32.950  1.00  0.00    -0.206 F 
ATOM     74  C   UNL A   1      37.919  31.021  33.432  1.00  0.00     0.006 A 
ENDBRANCH  46  67
BRANCH  58  75
ATOM     75  C   UNL A   1      44.925  24.194  33.747  1.00  0.00     0.057 A 
ATOM     76  C   UNL A   1      44.104  23.103  34.060  1.00  0.00     0.134 A 
ATOM     77  C   UNL A   1      46.305  23.984  33.993  1.00  0.00     0.134 A 
ATOM     78  F   UNL A   1      42.795  23.103  33.781  1.00  0.00    -0.206 F 
ATOM     79  C   UNL A   1      44.604  21.918  34.623  1.00  0.00     0.040 A 
ATOM     80  C   UNL A   1      46.820  22.786  34.499  1.00  0.00     0.040 A 
ATOM     81  F   UNL A   1      47.224  24.923  33.728  1.00  0.00    -0.206 F 
ATOM     82  C   UNL A   1      45.965  21.751  34.832  1.00  0.00     0.006 A 
ENDBRANCH  58  75
ENDBRANCH  32  33
ENDBRANCH  24  27
ENDBRANCH  22  23
ENDBRANCH  21  22
ENDBRANCH   1  21
TORSDOF 15
ENDMDL
MODEL 3
REMARK VINA RESULT:     -11.3      2.772      4.444
REMARK SMILES Cc1ccccc1C[C@@H](CC(F)(F)F)C(=O)NCCCCNC(=O)c1ccc(-c2c3nc(c(-c4c(F)cccc4F)c4ccc([nH]4)c(-c4c(F)cccc4F)c4nc(c(-c5c(F)cccc5F)c5ccc2[nH]5)C=C4)C=C3)cc1
REMARK SMILES IDX 19 1 18 2 17 3 15 4 16 5 9 7 8 8 7 9 1 10 2 11 3 12 4 13
REMARK SMILES IDX 6 14 5 15 10 16 11 17 12 18 13 19 14 20 20 21 21 22 22 23
REMARK SMILES IDX 23 24 24 26 25 27 26 28 78 29 27 30 77 31 28 32 29 33 30 34
REMARK SMILES IDX 71 35 31 36 76 37 70 38 72 39 32 40 75 41 69 42 68 43 33 45
REMARK SMILES IDX 59 46 42 47 58 48 43 49 46 50 57 51 73 52 44 53 45 54 56 56
REMARK SMILES IDX 74 57 47 58 34 59 35 60 40 61 36 62 37 63 39 64 41 65 38 66
REMARK SMILES IDX 60 67 61 68 66 69 62 70 63 71 65 72 67 73 64 74 48 75 49 76
REMARK SMILES IDX 54 77 50 78 51 79 53 80 55 81 52 82
REMARK H PARENT 17 6 22 25 72 44 46 55
REMARK Flexibility Score: inf
ROOT
ATOM      1  C   UNL A   1      32.885  30.377  25.919  1.00  0.00     0.023 C 
ENDROOT
BRANCH   1   2
ATOM      2  C   UNL A   1      31.382  30.351  25.626  1.00  0.00     0.116 C 
BRANCH   2   3
ATOM      3  N   UNL A   1      31.063  29.838  24.303  1.00  0.00    -0.356 N 
ATOM      4  C   UNL A   1      30.930  28.584  23.802  1.00  0.00     0.223 C 
ATOM      5  O   UNL A   1      30.500  28.497  22.646  1.00  0.00    -0.275 OA
ATOM      6  H   UNL A   1      30.914  30.546  23.634  1.00  0.00     0.163 HD
BRANCH   4   7
ATOM      7  C   UNL A   1      31.215  27.306  24.591  1.00  0.00     0.092 C 
BRANCH   7   8
ATOM      8  C   UNL A   1      30.302  26.126  24.211  1.00  0.00     0.049 C 
BRANCH   8   9
ATOM      9  C   UNL A   1      30.664  24.773  24.796  1.00  0.00    -0.044 A 
ATOM     10  C   UNL A   1      32.007  23.953  22.747  1.00  0.00     0.044 C 
ATOM     11  C   UNL A   1      31.438  23.800  24.133  1.00  0.00    -0.048 A 
ATOM     12  C   UNL A   1      31.777  22.614  24.818  1.00  0.00     0.004 A 
ATOM     13  C   UNL A   1      31.353  22.380  26.123  1.00  0.00     0.000 A 
ATOM     14  C   UNL A   1      30.259  24.517  26.122  1.00  0.00     0.004 A 
ATOM     15  C   UNL A   1      30.588  23.332  26.776  1.00  0.00     0.000 A 
ENDBRANCH   8   9
ENDBRANCH   7   8
BRANCH   7  16
ATOM     16  C   UNL A   1      32.735  27.073  24.718  1.00  0.00     0.129 C 
BRANCH  16  17
ATOM     17  C   UNL A   1      33.284  26.737  26.085  1.00  0.00     0.389 C 
ATOM     18  F   UNL A   1      34.407  27.427  26.368  1.00  0.00    -0.171 F 
ATOM     19  F   UNL A   1      32.377  27.040  27.041  1.00  0.00    -0.171 F 
ATOM     20  F   UNL A   1      33.564  25.423  26.209  1.00  0.00    -0.171 F 
ENDBRANCH  16  17
ENDBRANCH   7  16
ENDBRANCH   4   7
ENDBRANCH   2   3
ENDBRANCH   1   2
BRANCH   1  21
ATOM     21  C   UNL A   1      33.292  31.173  27.164  1.00  0.00     0.023 C 
BRANCH  21  22
ATOM     22  C   UNL A   1      34.336  30.487  28.036  1.00  0.00     0.116 C 
BRANCH  22  23
ATOM     23  N   UNL A   1      35.202  31.376  28.793  1.00  0.00    -0.352 N 
ATOM     24  C   UNL A   1      36.431  31.128  29.390  1.00  0.00     0.251 C 
ATOM     25  H   UNL A   1      34.866  32.296  28.898  1.00  0.00     0.163 HD
ATOM     26  O   UNL A   1      36.944  31.991  30.080  1.00  0.00    -0.269 OA
BRANCH  24  27
ATOM     27  C   UNL A   1      37.191  29.881  29.079  1.00  0.00     0.039 A 
ATOM     28  C   UNL A   1      37.386  28.961  30.119  1.00  0.00     0.014 A 
ATOM     29  C   UNL A   1      37.863  29.699  27.875  1.00  0.00     0.014 A 
ATOM     30  C   UNL A   1      38.438  28.048  30.047  1.00  0.00     0.010 A 
ATOM     31  C   UNL A   1      38.973  28.880  27.840  1.00  0.00     0.010 A 
ATOM     32  C   UNL A   1      39.300  28.105  28.954  1.00  0.00    -0.014 A 
BRANCH  32  33
ATOM     33  C   UNL A   1      40.619  27.488  28.941  1.00  0.00     0.031 A 
ATOM     34  C   UNL A   1      40.789  26.075  28.557  1.00  0.00     0.074 A 
ATOM     35  C   UNL A   1      41.706  28.249  29.204  1.00  0.00     0.049 A 
ATOM     36  N   UNL A   1      41.751  25.324  28.975  1.00  0.00    -0.248 NA
ATOM     37  C   UNL A   1      39.857  25.386  27.673  1.00  0.00     0.031 C 
ATOM     38  C   UNL A   1      43.108  27.894  29.006  1.00  0.00     0.029 A 
ATOM     39  N   UNL A   1      41.748  29.458  29.910  1.00  0.00    -0.354 N 
ATOM     40  C   UNL A   1      41.735  24.174  28.222  1.00  0.00     0.074 A 
ATOM     41  C   UNL A   1      40.499  24.231  27.473  1.00  0.00     0.031 C 
ATOM     42  C   UNL A   1      43.862  28.663  29.806  1.00  0.00     0.029 A 
ATOM     43  C   UNL A   1      42.957  29.434  30.639  1.00  0.00     0.049 A 
ATOM     44  H   UNL A   1      41.074  30.177  29.901  1.00  0.00     0.167 HD
ATOM     45  C   UNL A   1      42.835  23.366  28.200  1.00  0.00     0.037 A 
ATOM     46  C   UNL A   1      42.963  29.445  32.003  1.00  0.00     0.037 A 
ATOM     47  C   UNL A   1      43.898  23.895  29.048  1.00  0.00     0.049 A 
ATOM     48  C   UNL A   1      43.641  28.246  32.623  1.00  0.00     0.074 A 
ATOM     49  C   UNL A   1      45.019  24.660  28.765  1.00  0.00     0.029 A 
ATOM     50  N   UNL A   1      43.731  23.940  30.427  1.00  0.00    -0.354 N 
ATOM     51  N   UNL A   1      43.865  27.128  31.991  1.00  0.00    -0.248 NA
ATOM     52  C   UNL A   1      44.096  28.202  34.009  1.00  0.00     0.031 C 
ATOM     53  C   UNL A   1      45.507  25.197  29.979  1.00  0.00     0.029 A 
ATOM     54  C   UNL A   1      44.693  24.747  31.003  1.00  0.00     0.049 A 
ATOM     55  H   UNL A   1      43.027  23.463  30.923  1.00  0.00     0.167 HD
ATOM     56  C   UNL A   1      44.446  26.223  32.845  1.00  0.00     0.074 A 
ATOM     57  C   UNL A   1      44.595  26.955  34.089  1.00  0.00     0.031 C 
ATOM     58  C   UNL A   1      44.736  24.949  32.445  1.00  0.00     0.037 A 
BRANCH  45  59
ATOM     59  C   UNL A   1      43.045  22.286  27.164  1.00  0.00     0.057 A 
ATOM     60  C   UNL A   1      42.284  21.101  27.176  1.00  0.00     0.134 A 
ATOM     61  C   UNL A   1      44.021  22.337  26.154  1.00  0.00     0.134 A 
ATOM     62  F   UNL A   1      41.235  20.943  27.993  1.00  0.00    -0.206 F 
ATOM     63  C   UNL A   1      42.563  20.006  26.348  1.00  0.00     0.040 A 
ATOM     64  C   UNL A   1      44.347  21.231  25.354  1.00  0.00     0.040 A 
ATOM     65  F   UNL A   1      44.670  23.474  25.870  1.00  0.00    -0.206 F 
ATOM     66  C   UNL A   1      43.627  20.051  25.463  1.00  0.00     0.006 A 
ENDBRANCH  45  59
BRANCH  46  67
ATOM     67  C   UNL A   1      41.805  30.170  32.589  1.00  0.00     0.057 A 
ATOM     68  C   UNL A   1      40.702  29.424  33.039  1.00  0.00     0.134 A 
ATOM     69  C   UNL A   1      41.920  31.482  33.056  1.00  0.00     0.134 A 
ATOM     70  F   UNL A   1      40.532  28.157  32.627  1.00  0.00    -0.206 F 
ATOM     71  C   UNL A   1      39.821  29.917  34.006  1.00  0.00     0.040 A 
ATOM     72  C   UNL A   1      41.033  31.992  34.013  1.00  0.00     0.040 A 
ATOM     73  F   UNL A   1      42.954  32.252  32.688  1.00  0.00    -0.206 F 
ATOM     74  C   UNL A   1      40.007  31.194  34.521  1.00  0.00     0.006 A 
ENDBRANCH  46  67
BRANCH  58  75
ATOM     75  C   UNL A   1      45.170  23.791  33.320  1.00  0.00     0.057 A 
ATOM     76  C   UNL A   1      46.452  23.636  33.866  1.00  0.00     0.134 A 
ATOM     77  C   UNL A   1      44.221  22.836  33.762  1.00  0.00     0.134 A 
ATOM     78  F   UNL A   1      47.428  24.522  33.635  1.00  0.00    -0.206 F 
ATOM     79  C   UNL A   1      46.780  22.586  34.738  1.00  0.00     0.040 A 
ATOM     80  C   UNL A   1      44.523  21.821  34.676  1.00  0.00     0.040 A 
ATOM     81  F   UNL A   1      42.947  22.858  33.348  1.00  0.00    -0.206 F 
ATOM     82  C   UNL A   1      45.813  21.683  35.157  1.00  0.00     0.006 A 
ENDBRANCH  58  75
ENDBRANCH  32  33
ENDBRANCH  24  27
ENDBRANCH  22  23
ENDBRANCH  21  22
ENDBRANCH   1  21
TORSDOF 15
ENDMDL
