MODEL 1
REMARK VINA RESULT:     -11.4      0.000      0.000
REMARK SMILES CC(C)c1cc(OCC(=O)NCCCCNC(=O)c2ccc(-c3c4nc(c(-c5c(F)cccc5F)c5ccc([nH]5)c(-c5c(F)cccc5F)c5nc(c(-c6c(F)cccc6F)c6ccc3[nH]6)C=C5)C=C4)cc2)nc(Nc2ccc(F)cc2F)n1
REMARK SMILES IDX 12 1 11 2 9 3 10 4 8 6 7 7 6 8 4 9 5 10 84 11 74 12 73 13
REMARK SMILES IDX 2 14 1 15 3 16 75 17 76 19 77 20 82 21 78 22 81 23 83 24
REMARK SMILES IDX 79 25 80 26 13 27 14 28 15 29 16 30 17 31 18 33 19 34 20 35
REMARK SMILES IDX 72 36 21 37 71 38 22 39 23 40 24 41 65 42 25 43 70 44 64 45
REMARK SMILES IDX 66 46 26 47 69 48 63 49 62 50 27 52 53 53 36 54 52 55 37 56
REMARK SMILES IDX 40 57 51 58 67 59 38 60 39 61 50 63 68 64 41 65 28 66 29 67
REMARK SMILES IDX 34 68 30 69 31 70 33 71 35 72 32 73 54 74 55 75 60 76 56 77
REMARK SMILES IDX 57 78 59 79 61 80 58 81 42 82 43 83 48 84 44 85 45 86 47 87
REMARK SMILES IDX 49 88 46 89
REMARK H PARENT 11 5 75 18 16 32 66 51 40 62
REMARK Flexibility Score: inf
ROOT
ATOM      1  C   UNL A   1      33.498  28.709  23.339  1.00  0.00     0.116 C 
ENDROOT
BRANCH   1   2
ATOM      2  N   UNL A   1      32.144  28.805  22.832  1.00  0.00    -0.353 N 
ATOM      3  C   UNL A   1      31.320  27.794  22.435  1.00  0.00     0.258 C 
ATOM      4  O   UNL A   1      30.180  28.070  22.057  1.00  0.00    -0.271 OA
ATOM      5  H   UNL A   1      31.771  29.714  22.766  1.00  0.00     0.163 HD
BRANCH   3   6
ATOM      6  C   UNL A   1      31.815  26.342  22.482  1.00  0.00     0.331 C 
BRANCH   6   7
ATOM      7  O   UNL A   1      31.633  25.632  23.695  1.00  0.00    -0.467 OA
BRANCH   7   8
ATOM      8  C   UNL A   1      32.542  24.662  24.016  1.00  0.00     0.218 A 
ATOM      9  C   UNL A   1      34.677  23.761  24.393  1.00  0.00     0.052 A 
ATOM     10  C   UNL A   1      33.908  24.801  23.921  1.00  0.00     0.092 A 
ATOM     11  N   UNL A   1      34.097  22.627  24.826  1.00  0.00    -0.217 NA
ATOM     12  C   UNL A   1      32.759  22.543  24.846  1.00  0.00     0.230 A 
ATOM     13  N   UNL A   1      31.955  23.536  24.453  1.00  0.00    -0.177 NA
BRANCH   9  14
ATOM     14  C   UNL A   1      36.197  23.794  24.406  1.00  0.00     0.032 C 
ATOM     15  C   UNL A   1      36.827  23.713  25.803  1.00  0.00     0.014 C 
ATOM     16  C   UNL A   1      36.778  22.663  23.544  1.00  0.00     0.014 C 
ENDBRANCH   9  14
BRANCH  12  17
ATOM     17  N   UNL A   1      32.153  21.338  25.190  1.00  0.00    -0.322 N 
ATOM     18  H   UNL A   1      31.406  21.398  25.828  1.00  0.00     0.170 HD
BRANCH  17  19
ATOM     19  C   UNL A   1      32.475  20.053  24.741  1.00  0.00     0.077 A 
ATOM     20  C   UNL A   1      32.814  19.064  25.676  1.00  0.00     0.032 A 
ATOM     21  C   UNL A   1      32.361  19.673  23.390  1.00  0.00     0.149 A 
ATOM     22  C   UNL A   1      33.015  17.741  25.271  1.00  0.00     0.041 A 
ATOM     23  C   UNL A   1      32.574  18.362  22.977  1.00  0.00     0.080 A 
ATOM     24  F   UNL A   1      32.089  20.592  22.449  1.00  0.00    -0.205 F 
ATOM     25  C   UNL A   1      32.891  17.405  23.926  1.00  0.00     0.126 A 
ATOM     26  F   UNL A   1      33.078  16.135  23.546  1.00  0.00    -0.207 F 
ENDBRANCH  17  19
ENDBRANCH  12  17
ENDBRANCH   7   8
ENDBRANCH   6   7
ENDBRANCH   3   6
ENDBRANCH   1   2
BRANCH   1  27
ATOM     27  C   UNL A   1      33.608  29.179  24.788  1.00  0.00     0.023 C 
BRANCH  27  28
ATOM     28  C   UNL A   1      33.097  28.185  25.835  1.00  0.00     0.023 C 
BRANCH  28  29
ATOM     29  C   UNL A   1      33.559  28.436  27.267  1.00  0.00     0.116 C 
BRANCH  29  30
ATOM     30  N   UNL A   1      33.532  29.843  27.641  1.00  0.00    -0.352 N 
ATOM     31  C   UNL A   1      34.519  30.616  28.201  1.00  0.00     0.251 C 
ATOM     32  H   UNL A   1      32.682  30.307  27.465  1.00  0.00     0.163 HD
ATOM     33  O   UNL A   1      34.272  31.763  28.560  1.00  0.00    -0.269 OA
BRANCH  31  34
ATOM     34  C   UNL A   1      35.873  30.057  28.407  1.00  0.00     0.039 A 
ATOM     35  C   UNL A   1      36.794  30.122  27.356  1.00  0.00     0.014 A 
ATOM     36  C   UNL A   1      36.240  29.479  29.625  1.00  0.00     0.014 A 
ATOM     37  C   UNL A   1      38.102  29.674  27.553  1.00  0.00     0.010 A 
ATOM     38  C   UNL A   1      37.564  29.104  29.843  1.00  0.00     0.010 A 
ATOM     39  C   UNL A   1      38.510  29.199  28.810  1.00  0.00    -0.014 A 
BRANCH  39  40
ATOM     40  C   UNL A   1      39.922  28.813  29.066  1.00  0.00     0.031 A 
ATOM     41  C   UNL A   1      40.872  29.781  29.715  1.00  0.00     0.074 A 
ATOM     42  C   UNL A   1      40.369  27.609  28.653  1.00  0.00     0.049 A 
ATOM     43  N   UNL A   1      42.152  29.648  29.957  1.00  0.00    -0.248 NA
ATOM     44  C   UNL A   1      40.316  31.082  30.121  1.00  0.00     0.031 C 
ATOM     45  C   UNL A   1      39.563  26.596  27.968  1.00  0.00     0.029 A 
ATOM     46  N   UNL A   1      41.614  27.038  28.737  1.00  0.00    -0.354 N 
ATOM     47  C   UNL A   1      42.556  30.849  30.529  1.00  0.00     0.074 A 
ATOM     48  C   UNL A   1      41.398  31.717  30.548  1.00  0.00     0.031 C 
ATOM     49  C   UNL A   1      40.328  25.522  27.714  1.00  0.00     0.029 A 
ATOM     50  C   UNL A   1      41.686  25.784  28.178  1.00  0.00     0.049 A 
ATOM     51  H   UNL A   1      42.384  27.484  29.159  1.00  0.00     0.167 HD
ATOM     52  C   UNL A   1      43.774  31.190  31.011  1.00  0.00     0.037 A 
ATOM     53  C   UNL A   1      42.731  24.946  28.042  1.00  0.00     0.037 A 
ATOM     54  C   UNL A   1      44.919  30.317  31.010  1.00  0.00     0.049 A 
ATOM     55  C   UNL A   1      44.076  25.353  28.575  1.00  0.00     0.074 A 
ATOM     56  C   UNL A   1      46.178  30.547  31.537  1.00  0.00     0.029 A 
ATOM     57  N   UNL A   1      44.948  29.050  30.448  1.00  0.00    -0.354 N 
ATOM     58  N   UNL A   1      44.424  26.462  29.184  1.00  0.00    -0.248 NA
ATOM     59  C   UNL A   1      45.175  24.391  28.408  1.00  0.00     0.031 C 
ATOM     60  C   UNL A   1      46.984  29.442  31.244  1.00  0.00     0.029 A 
ATOM     61  C   UNL A   1      46.211  28.498  30.589  1.00  0.00     0.049 A 
ATOM     62  H   UNL A   1      44.183  28.607  30.013  1.00  0.00     0.167 HD
ATOM     63  C   UNL A   1      45.769  26.317  29.499  1.00  0.00     0.074 A 
ATOM     64  C   UNL A   1      46.171  25.008  29.029  1.00  0.00     0.031 C 
ATOM     65  C   UNL A   1      46.598  27.190  30.123  1.00  0.00     0.037 A 
BRANCH  52  66
ATOM     66  C   UNL A   1      43.936  32.570  31.581  1.00  0.00     0.057 A 
ATOM     67  C   UNL A   1      44.266  33.670  30.778  1.00  0.00     0.134 A 
ATOM     68  C   UNL A   1      43.715  32.811  32.943  1.00  0.00     0.134 A 
ATOM     69  F   UNL A   1      44.500  33.509  29.467  1.00  0.00    -0.206 F 
ATOM     70  C   UNL A   1      44.397  34.954  31.312  1.00  0.00     0.040 A 
ATOM     71  C   UNL A   1      43.813  34.094  33.484  1.00  0.00     0.040 A 
ATOM     72  F   UNL A   1      43.388  31.807  33.769  1.00  0.00    -0.206 F 
ATOM     73  C   UNL A   1      44.162  35.169  32.669  1.00  0.00     0.006 A 
ENDBRANCH  52  66
BRANCH  53  74
ATOM     74  C   UNL A   1      42.548  23.627  27.381  1.00  0.00     0.057 A 
ATOM     75  C   UNL A   1      42.205  22.488  28.119  1.00  0.00     0.134 A 
ATOM     76  C   UNL A   1      42.730  23.469  26.002  1.00  0.00     0.134 A 
ATOM     77  F   UNL A   1      42.036  22.570  29.447  1.00  0.00    -0.206 F 
ATOM     78  C   UNL A   1      42.074  21.236  27.516  1.00  0.00     0.040 A 
ATOM     79  C   UNL A   1      42.574  22.228  25.380  1.00  0.00     0.040 A 
ATOM     80  F   UNL A   1      43.053  24.522  25.236  1.00  0.00    -0.206 F 
ATOM     81  C   UNL A   1      42.255  21.105  26.140  1.00  0.00     0.006 A 
ENDBRANCH  53  74
BRANCH  65  82
ATOM     82  C   UNL A   1      48.010  26.745  30.371  1.00  0.00     0.057 A 
ATOM     83  C   UNL A   1      48.368  26.010  31.509  1.00  0.00     0.134 A 
ATOM     84  C   UNL A   1      49.018  27.024  29.439  1.00  0.00     0.134 A 
ATOM     85  F   UNL A   1      47.455  25.720  32.447  1.00  0.00    -0.206 F 
ATOM     86  C   UNL A   1      49.683  25.590  31.721  1.00  0.00     0.040 A 
ATOM     87  C   UNL A   1      50.329  26.583  29.626  1.00  0.00     0.040 A 
ATOM     88  F   UNL A   1      48.741  27.715  28.323  1.00  0.00    -0.206 F 
ATOM     89  C   UNL A   1      50.666  25.871  30.773  1.00  0.00     0.006 A 
ENDBRANCH  65  82
ENDBRANCH  39  40
ENDBRANCH  31  34
ENDBRANCH  29  30
ENDBRANCH  28  29
ENDBRANCH  27  28
ENDBRANCH   1  27
TORSDOF 16
ENDMDL
MODEL 2
REMARK VINA RESULT:     -11.4      3.196      4.513
REMARK SMILES CC(C)c1cc(OCC(=O)NCCCCNC(=O)c2ccc(-c3c4nc(c(-c5c(F)cccc5F)c5ccc([nH]5)c(-c5c(F)cccc5F)c5nc(c(-c6c(F)cccc6F)c6ccc3[nH]6)C=C5)C=C4)cc2)nc(Nc2ccc(F)cc2F)n1
REMARK SMILES IDX 12 1 11 2 9 3 10 4 8 6 7 7 6 8 4 9 5 10 84 11 74 12 73 13
REMARK SMILES IDX 2 14 1 15 3 16 75 17 76 19 77 20 82 21 78 22 81 23 83 24
REMARK SMILES IDX 79 25 80 26 13 27 14 28 15 29 16 30 17 31 18 33 19 34 20 35
REMARK SMILES IDX 72 36 21 37 71 38 22 39 23 40 24 41 65 42 25 43 70 44 64 45
REMARK SMILES IDX 66 46 26 47 69 48 63 49 62 50 27 52 53 53 36 54 52 55 37 56
REMARK SMILES IDX 40 57 51 58 67 59 38 60 39 61 50 63 68 64 41 65 28 66 29 67
REMARK SMILES IDX 34 68 30 69 31 70 33 71 35 72 32 73 54 74 55 75 60 76 56 77
REMARK SMILES IDX 57 78 59 79 61 80 58 81 42 82 43 83 48 84 44 85 45 86 47 87
REMARK SMILES IDX 49 88 46 89
REMARK H PARENT 11 5 75 18 16 32 66 51 40 62
REMARK Flexibility Score: inf
ROOT
ATOM      1  C   UNL A   1      32.785  29.876  26.373  1.00  0.00     0.116 C 
ENDROOT
BRANCH   1   2
ATOM      2  N   UNL A   1      33.493  29.422  25.193  1.00  0.00    -0.353 N 
ATOM      3  C   UNL A   1      33.352  28.241  24.529  1.00  0.00     0.258 C 
ATOM      4  O   UNL A   1      34.027  28.043  23.517  1.00  0.00    -0.271 OA
ATOM      5  H   UNL A   1      34.160  30.046  24.824  1.00  0.00     0.163 HD
BRANCH   3   6
ATOM      6  C   UNL A   1      32.351  27.194  25.036  1.00  0.00     0.331 C 
BRANCH   6   7
ATOM      7  O   UNL A   1      32.802  26.293  26.033  1.00  0.00    -0.467 OA
BRANCH   7   8
ATOM      8  C   UNL A   1      33.421  25.142  25.629  1.00  0.00     0.218 A 
ATOM      9  C   UNL A   1      35.232  23.780  25.015  1.00  0.00     0.052 A 
ATOM     10  C   UNL A   1      34.752  25.040  25.292  1.00  0.00     0.092 A 
ATOM     11  N   UNL A   1      34.397  22.725  24.978  1.00  0.00    -0.217 NA
ATOM     12  C   UNL A   1      33.102  22.907  25.272  1.00  0.00     0.230 A 
ATOM     13  N   UNL A   1      32.582  24.094  25.602  1.00  0.00    -0.177 NA
BRANCH   9  14
ATOM     14  C   UNL A   1      36.689  23.504  24.682  1.00  0.00     0.032 C 
ATOM     15  C   UNL A   1      37.506  22.902  25.833  1.00  0.00     0.014 C 
ATOM     16  C   UNL A   1      36.807  22.574  23.464  1.00  0.00     0.014 C 
ENDBRANCH   9  14
BRANCH  12  17
ATOM     17  N   UNL A   1      32.212  21.845  25.134  1.00  0.00    -0.322 N 
ATOM     18  H   UNL A   1      31.279  22.027  25.391  1.00  0.00     0.170 HD
BRANCH  17  19
ATOM     19  C   UNL A   1      32.480  20.551  24.674  1.00  0.00     0.077 A 
ATOM     20  C   UNL A   1      32.858  19.561  25.592  1.00  0.00     0.032 A 
ATOM     21  C   UNL A   1      32.274  20.166  23.336  1.00  0.00     0.149 A 
ATOM     22  C   UNL A   1      33.007  18.232  25.184  1.00  0.00     0.041 A 
ATOM     23  C   UNL A   1      32.435  18.849  22.919  1.00  0.00     0.080 A 
ATOM     24  F   UNL A   1      31.961  21.085  22.408  1.00  0.00    -0.205 F 
ATOM     25  C   UNL A   1      32.793  17.891  23.853  1.00  0.00     0.126 A 
ATOM     26  F   UNL A   1      32.931  16.615  23.470  1.00  0.00    -0.207 F 
ENDBRANCH  17  19
ENDBRANCH  12  17
ENDBRANCH   7   8
ENDBRANCH   6   7
ENDBRANCH   3   6
ENDBRANCH   1   2
BRANCH   1  27
ATOM     27  C   UNL A   1      31.461  30.555  26.029  1.00  0.00     0.023 C 
BRANCH  27  28
ATOM     28  C   UNL A   1      31.357  32.027  26.439  1.00  0.00     0.023 C 
BRANCH  28  29
ATOM     29  C   UNL A   1      32.567  32.597  27.172  1.00  0.00     0.116 C 
BRANCH  29  30
ATOM     30  N   UNL A   1      32.387  33.979  27.588  1.00  0.00    -0.352 N 
ATOM     31  C   UNL A   1      33.090  34.710  28.514  1.00  0.00     0.251 C 
ATOM     32  H   UNL A   1      31.655  34.461  27.140  1.00  0.00     0.163 HD
ATOM     33  O   UNL A   1      32.714  35.837  28.822  1.00  0.00    -0.269 OA
BRANCH  31  34
ATOM     34  C   UNL A   1      34.281  34.129  29.171  1.00  0.00     0.039 A 
ATOM     35  C   UNL A   1      34.097  33.265  30.255  1.00  0.00     0.014 A 
ATOM     36  C   UNL A   1      35.571  34.423  28.723  1.00  0.00     0.014 A 
ATOM     37  C   UNL A   1      35.201  32.641  30.839  1.00  0.00     0.010 A 
ATOM     38  C   UNL A   1      36.663  33.742  29.256  1.00  0.00     0.010 A 
ATOM     39  C   UNL A   1      36.490  32.842  30.320  1.00  0.00    -0.014 A 
BRANCH  39  40
ATOM     40  C   UNL A   1      37.663  32.110  30.865  1.00  0.00     0.031 A 
ATOM     41  C   UNL A   1      38.283  32.529  32.169  1.00  0.00     0.074 A 
ATOM     42  C   UNL A   1      38.213  31.106  30.152  1.00  0.00     0.049 A 
ATOM     43  N   UNL A   1      39.347  32.057  32.768  1.00  0.00    -0.248 NA
ATOM     44  C   UNL A   1      37.639  33.644  32.881  1.00  0.00     0.031 C 
ATOM     45  C   UNL A   1      37.737  30.633  28.849  1.00  0.00     0.029 A 
ATOM     46  N   UNL A   1      39.300  30.311  30.414  1.00  0.00    -0.354 N 
ATOM     47  C   UNL A   1      39.507  32.824  33.916  1.00  0.00     0.074 A 
ATOM     48  C   UNL A   1      38.463  33.825  33.902  1.00  0.00     0.031 C 
ATOM     49  C   UNL A   1      38.514  29.619  28.438  1.00  0.00     0.029 A 
ATOM     50  C   UNL A   1      39.567  29.396  29.424  1.00  0.00     0.049 A 
ATOM     51  H   UNL A   1      39.838  30.388  31.235  1.00  0.00     0.167 HD
ATOM     52  C   UNL A   1      40.426  32.692  34.902  1.00  0.00     0.037 A 
ATOM     53  C   UNL A   1      40.557  28.489  29.315  1.00  0.00     0.037 A 
ATOM     54  C   UNL A   1      41.451  31.680  34.923  1.00  0.00     0.049 A 
ATOM     55  C   UNL A   1      41.573  28.372  30.417  1.00  0.00     0.074 A 
ATOM     56  C   UNL A   1      42.387  31.424  35.911  1.00  0.00     0.029 A 
ATOM     57  N   UNL A   1      41.680  30.763  33.910  1.00  0.00    -0.354 N 
ATOM     58  N   UNL A   1      41.665  29.053  31.534  1.00  0.00    -0.248 NA
ATOM     59  C   UNL A   1      42.621  27.355  30.246  1.00  0.00     0.031 C 
ATOM     60  C   UNL A   1      43.217  30.389  35.469  1.00  0.00     0.029 A 
ATOM     61  C   UNL A   1      42.761  29.959  34.234  1.00  0.00     0.049 A 
ATOM     62  H   UNL A   1      41.152  30.693  33.081  1.00  0.00     0.167 HD
ATOM     63  C   UNL A   1      42.758  28.528  32.212  1.00  0.00     0.074 A 
ATOM     64  C   UNL A   1      43.288  27.461  31.388  1.00  0.00     0.031 C 
ATOM     65  C   UNL A   1      43.275  28.895  33.409  1.00  0.00     0.037 A 
BRANCH  52  66
ATOM     66  C   UNL A   1      40.371  33.669  36.040  1.00  0.00     0.057 A 
ATOM     67  C   UNL A   1      39.539  33.468  37.151  1.00  0.00     0.134 A 
ATOM     68  C   UNL A   1      41.192  34.804  36.050  1.00  0.00     0.134 A 
ATOM     69  F   UNL A   1      38.719  32.408  37.203  1.00  0.00    -0.206 F 
ATOM     70  C   UNL A   1      39.506  34.373  38.214  1.00  0.00     0.040 A 
ATOM     71  C   UNL A   1      41.191  35.699  37.120  1.00  0.00     0.040 A 
ATOM     72  F   UNL A   1      42.020  35.055  35.024  1.00  0.00    -0.206 F 
ATOM     73  C   UNL A   1      40.341  35.489  38.203  1.00  0.00     0.006 A 
ENDBRANCH  52  66
BRANCH  53  74
ATOM     74  C   UNL A   1      40.632  27.607  28.121  1.00  0.00     0.057 A 
ATOM     75  C   UNL A   1      40.007  26.355  28.104  1.00  0.00     0.134 A 
ATOM     76  C   UNL A   1      41.345  27.985  26.976  1.00  0.00     0.134 A 
ATOM     77  F   UNL A   1      39.324  25.927  29.176  1.00  0.00    -0.206 F 
ATOM     78  C   UNL A   1      40.108  25.500  27.005  1.00  0.00     0.040 A 
ATOM     79  C   UNL A   1      41.431  27.153  25.859  1.00  0.00     0.040 A 
ATOM     80  F   UNL A   1      41.962  29.175  26.925  1.00  0.00    -0.206 F 
ATOM     81  C   UNL A   1      40.819  25.901  25.875  1.00  0.00     0.006 A 
ENDBRANCH  53  74
BRANCH  65  82
ATOM     82  C   UNL A   1      44.450  28.114  33.922  1.00  0.00     0.057 A 
ATOM     83  C   UNL A   1      45.771  28.530  33.707  1.00  0.00     0.134 A 
ATOM     84  C   UNL A   1      44.256  26.948  34.675  1.00  0.00     0.134 A 
ATOM     85  F   UNL A   1      46.027  29.630  32.984  1.00  0.00    -0.206 F 
ATOM     86  C   UNL A   1      46.855  27.802  34.201  1.00  0.00     0.040 A 
ATOM     87  C   UNL A   1      45.330  26.229  35.200  1.00  0.00     0.040 A 
ATOM     88  F   UNL A   1      43.017  26.499  34.927  1.00  0.00    -0.206 F 
ATOM     89  C   UNL A   1      46.634  26.651  34.957  1.00  0.00     0.006 A 
ENDBRANCH  65  82
ENDBRANCH  39  40
ENDBRANCH  31  34
ENDBRANCH  29  30
ENDBRANCH  28  29
ENDBRANCH  27  28
ENDBRANCH   1  27
TORSDOF 16
ENDMDL
MODEL 3
REMARK VINA RESULT:     -11.3      3.543      7.304
REMARK SMILES CC(C)c1cc(OCC(=O)NCCCCNC(=O)c2ccc(-c3c4nc(c(-c5c(F)cccc5F)c5ccc([nH]5)c(-c5c(F)cccc5F)c5nc(c(-c6c(F)cccc6F)c6ccc3[nH]6)C=C5)C=C4)cc2)nc(Nc2ccc(F)cc2F)n1
REMARK SMILES IDX 12 1 11 2 9 3 10 4 8 6 7 7 6 8 4 9 5 10 84 11 74 12 73 13
REMARK SMILES IDX 2 14 1 15 3 16 75 17 76 19 77 20 82 21 78 22 81 23 83 24
REMARK SMILES IDX 79 25 80 26 13 27 14 28 15 29 16 30 17 31 18 33 19 34 20 35
REMARK SMILES IDX 72 36 21 37 71 38 22 39 23 40 24 41 65 42 25 43 70 44 64 45
REMARK SMILES IDX 66 46 26 47 69 48 63 49 62 50 27 52 53 53 36 54 52 55 37 56
REMARK SMILES IDX 40 57 51 58 67 59 38 60 39 61 50 63 68 64 41 65 28 66 29 67
REMARK SMILES IDX 34 68 30 69 31 70 33 71 35 72 32 73 54 74 55 75 60 76 56 77
REMARK SMILES IDX 57 78 59 79 61 80 58 81 42 82 43 83 48 84 44 85 45 86 47 87
REMARK SMILES IDX 49 88 46 89
REMARK H PARENT 11 5 75 18 16 32 66 51 40 62
REMARK Flexibility Score: inf
ROOT
ATOM      1  C   UNL A   1      32.769  29.617  26.148  1.00  0.00     0.116 C 
ENDROOT
BRANCH   1   2
ATOM      2  N   UNL A   1      33.600  29.293  25.006  1.00  0.00    -0.353 N 
ATOM      3  C   UNL A   1      33.534  28.195  24.200  1.00  0.00     0.258 C 
ATOM      4  O   UNL A   1      34.313  28.108  23.250  1.00  0.00    -0.271 OA
ATOM      5  H   UNL A   1      34.299  29.949  24.782  1.00  0.00     0.163 HD
BRANCH   3   6
ATOM      6  C   UNL A   1      32.489  27.106  24.478  1.00  0.00     0.331 C 
BRANCH   6   7
ATOM      7  O   UNL A   1      32.793  26.156  25.485  1.00  0.00    -0.467 OA
BRANCH   7   8
ATOM      8  C   UNL A   1      33.408  24.994  25.109  1.00  0.00     0.218 A 
ATOM      9  C   UNL A   1      35.224  23.574  24.662  1.00  0.00     0.052 A 
ATOM     10  C   UNL A   1      34.766  24.843  24.933  1.00  0.00     0.092 A 
ATOM     11  N   UNL A   1      34.357  22.561  24.477  1.00  0.00    -0.217 NA
ATOM     12  C   UNL A   1      33.044  22.791  24.618  1.00  0.00     0.230 A 
ATOM     13  N   UNL A   1      32.537  23.987  24.933  1.00  0.00    -0.177 NA
BRANCH   9  14
ATOM     14  C   UNL A   1      36.699  23.243  24.498  1.00  0.00     0.032 C 
ATOM     15  C   UNL A   1      37.579  23.634  25.693  1.00  0.00     0.014 C 
ATOM     16  C   UNL A   1      36.897  21.745  24.217  1.00  0.00     0.014 C 
ENDBRANCH   9  14
BRANCH  12  17
ATOM     17  N   UNL A   1      32.135  21.778  24.324  1.00  0.00    -0.322 N 
ATOM     18  H   UNL A   1      31.192  22.052  24.252  1.00  0.00     0.170 HD
BRANCH  17  19
ATOM     19  C   UNL A   1      32.397  20.419  24.118  1.00  0.00     0.077 A 
ATOM     20  C   UNL A   1      32.140  19.854  22.861  1.00  0.00     0.032 A 
ATOM     21  C   UNL A   1      33.021  19.613  25.088  1.00  0.00     0.149 A 
ATOM     22  C   UNL A   1      32.509  18.534  22.585  1.00  0.00     0.041 A 
ATOM     23  C   UNL A   1      33.378  18.295  24.828  1.00  0.00     0.080 A 
ATOM     24  F   UNL A   1      33.243  20.092  26.324  1.00  0.00    -0.205 F 
ATOM     25  C   UNL A   1      33.126  17.770  23.571  1.00  0.00     0.126 A 
ATOM     26  F   UNL A   1      33.484  16.509  23.299  1.00  0.00    -0.207 F 
ENDBRANCH  17  19
ENDBRANCH  12  17
ENDBRANCH   7   8
ENDBRANCH   6   7
ENDBRANCH   3   6
ENDBRANCH   1   2
BRANCH   1  27
ATOM     27  C   UNL A   1      31.634  30.572  25.787  1.00  0.00     0.023 C 
BRANCH  27  28
ATOM     28  C   UNL A   1      31.430  31.738  26.758  1.00  0.00     0.023 C 
BRANCH  28  29
ATOM     29  C   UNL A   1      32.700  32.450  27.213  1.00  0.00     0.116 C 
BRANCH  29  30
ATOM     30  N   UNL A   1      32.483  33.850  27.549  1.00  0.00    -0.352 N 
ATOM     31  C   UNL A   1      33.142  34.640  28.459  1.00  0.00     0.251 C 
ATOM     32  H   UNL A   1      31.760  34.295  27.051  1.00  0.00     0.163 HD
ATOM     33  O   UNL A   1      32.737  35.775  28.693  1.00  0.00    -0.269 OA
BRANCH  31  34
ATOM     34  C   UNL A   1      34.317  34.115  29.187  1.00  0.00     0.039 A 
ATOM     35  C   UNL A   1      34.108  33.258  30.272  1.00  0.00     0.014 A 
ATOM     36  C   UNL A   1      35.617  34.455  28.804  1.00  0.00     0.014 A 
ATOM     37  C   UNL A   1      35.202  32.685  30.923  1.00  0.00     0.010 A 
ATOM     38  C   UNL A   1      36.704  33.825  29.406  1.00  0.00     0.010 A 
ATOM     39  C   UNL A   1      36.509  32.931  30.471  1.00  0.00    -0.014 A 
BRANCH  39  40
ATOM     40  C   UNL A   1      37.678  32.253  31.089  1.00  0.00     0.031 A 
ATOM     41  C   UNL A   1      38.412  31.171  30.345  1.00  0.00     0.074 A 
ATOM     42  C   UNL A   1      38.042  32.567  32.349  1.00  0.00     0.049 A 
ATOM     43  N   UNL A   1      39.408  30.422  30.745  1.00  0.00    -0.248 NA
ATOM     44  C   UNL A   1      37.945  30.871  28.982  1.00  0.00     0.031 C 
ATOM     45  C   UNL A   1      37.384  33.564  33.196  1.00  0.00     0.029 A 
ATOM     46  N   UNL A   1      39.045  32.070  33.142  1.00  0.00    -0.354 N 
ATOM     47  C   UNL A   1      39.678  29.556  29.692  1.00  0.00     0.074 A 
ATOM     48  C   UNL A   1      38.707  29.836  28.657  1.00  0.00     0.031 C 
ATOM     49  C   UNL A   1      38.014  33.620  34.380  1.00  0.00     0.029 A 
ATOM     50  C   UNL A   1      39.091  32.635  34.394  1.00  0.00     0.049 A 
ATOM     51  H   UNL A   1      39.674  31.374  32.842  1.00  0.00     0.167 HD
ATOM     52  C   UNL A   1      40.658  28.627  29.589  1.00  0.00     0.037 A 
ATOM     53  C   UNL A   1      39.900  32.381  35.440  1.00  0.00     0.037 A 
ATOM     54  C   UNL A   1      41.637  28.366  30.612  1.00  0.00     0.049 A 
ATOM     55  C   UNL A   1      40.972  31.335  35.304  1.00  0.00     0.074 A 
ATOM     56  C   UNL A   1      42.710  27.492  30.574  1.00  0.00     0.029 A 
ATOM     57  N   UNL A   1      41.659  28.970  31.860  1.00  0.00    -0.354 N 
ATOM     58  N   UNL A   1      41.265  30.579  34.273  1.00  0.00    -0.248 NA
ATOM     59  C   UNL A   1      41.832  31.111  36.476  1.00  0.00     0.031 C 
ATOM     60  C   UNL A   1      43.347  27.526  31.819  1.00  0.00     0.029 A 
ATOM     61  C   UNL A   1      42.708  28.465  32.611  1.00  0.00     0.049 A 
ATOM     62  H   UNL A   1      41.022  29.656  32.167  1.00  0.00     0.167 HD
ATOM     63  C   UNL A   1      42.358  29.814  34.660  1.00  0.00     0.074 A 
ATOM     64  C   UNL A   1      42.687  30.209  36.014  1.00  0.00     0.031 C 
ATOM     65  C   UNL A   1      43.031  28.871  33.956  1.00  0.00     0.037 A 
BRANCH  52  66
ATOM     66  C   UNL A   1      40.721  27.820  28.325  1.00  0.00     0.057 A 
ATOM     67  C   UNL A   1      41.460  28.242  27.210  1.00  0.00     0.134 A 
ATOM     68  C   UNL A   1      40.072  26.582  28.235  1.00  0.00     0.134 A 
ATOM     69  F   UNL A   1      42.098  29.422  27.225  1.00  0.00    -0.206 F 
ATOM     70  C   UNL A   1      41.527  27.476  26.045  1.00  0.00     0.040 A 
ATOM     71  C   UNL A   1      40.157  25.793  27.086  1.00  0.00     0.040 A 
ATOM     72  F   UNL A   1      39.354  26.112  29.266  1.00  0.00    -0.206 F 
ATOM     73  C   UNL A   1      40.881  26.243  25.984  1.00  0.00     0.006 A 
ENDBRANCH  52  66
BRANCH  53  74
ATOM     74  C   UNL A   1      39.738  33.136  36.710  1.00  0.00     0.057 A 
ATOM     75  C   UNL A   1      40.502  34.280  36.975  1.00  0.00     0.134 A 
ATOM     76  C   UNL A   1      38.833  32.725  37.695  1.00  0.00     0.134 A 
ATOM     77  F   UNL A   1      41.400  34.713  36.079  1.00  0.00    -0.206 F 
ATOM     78  C   UNL A   1      40.390  34.971  38.182  1.00  0.00     0.040 A 
ATOM     79  C   UNL A   1      38.689  33.423  38.896  1.00  0.00     0.040 A 
ATOM     80  F   UNL A   1      38.066  31.641  37.501  1.00  0.00    -0.206 F 
ATOM     81  C   UNL A   1      39.477  34.545  39.146  1.00  0.00     0.006 A 
ENDBRANCH  53  74
BRANCH  65  82
ATOM     82  C   UNL A   1      44.214  28.228  34.620  1.00  0.00     0.057 A 
ATOM     83  C   UNL A   1      45.497  28.786  34.555  1.00  0.00     0.134 A 
ATOM     84  C   UNL A   1      44.058  27.052  35.366  1.00  0.00     0.134 A 
ATOM     85  F   UNL A   1      45.717  29.903  33.846  1.00  0.00    -0.206 F 
ATOM     86  C   UNL A   1      46.587  28.185  35.188  1.00  0.00     0.040 A 
ATOM     87  C   UNL A   1      45.134  26.458  36.028  1.00  0.00     0.040 A 
ATOM     88  F   UNL A   1      42.855  26.470  35.477  1.00  0.00    -0.206 F 
ATOM     89  C   UNL A   1      46.404  27.021  35.933  1.00  0.00     0.006 A 
ENDBRANCH  65  82
ENDBRANCH  39  40
ENDBRANCH  31  34
ENDBRANCH  29  30
ENDBRANCH  28  29
ENDBRANCH  27  28
ENDBRANCH   1  27
TORSDOF 16
ENDMDL
