MODEL 1
REMARK VINA RESULT:     -11.1      0.000      0.000
REMARK SMILES CN(Cc1ccnn1C)C(=O)c1c(C(=O)NCCCCNC(=O)c2ccc(-c3c4nc(c(-c5c(F)cccc5F)c5ccc([nH]5)c(-c5c(F)cccc5F)c5nc(c(-c6c(F)cccc6F)c6ccc3[nH]6)C=C5)C=C4)cc2)cnn1C
REMARK SMILES IDX 17 1 16 2 14 3 15 4 13 6 12 7 80 8 78 9 79 10 81 11 10 12
REMARK SMILES IDX 11 13 2 14 1 15 3 16 4 17 5 18 8 19 6 20 7 21 9 22 18 23
REMARK SMILES IDX 19 24 20 25 21 26 22 27 23 29 24 30 25 31 77 32 26 33 76 34
REMARK SMILES IDX 27 35 28 36 29 37 70 38 30 39 75 40 69 41 71 42 31 43 74 44
REMARK SMILES IDX 68 45 67 46 32 48 58 49 41 50 57 51 42 52 45 53 56 54 72 55
REMARK SMILES IDX 43 56 44 57 55 59 73 60 46 61 33 62 34 63 39 64 35 65 36 66
REMARK SMILES IDX 38 67 40 68 37 69 59 70 60 71 65 72 61 73 62 74 64 75 66 76
REMARK SMILES IDX 63 77 47 78 48 79 53 80 49 81 50 82 52 83 54 84 51 85
REMARK H PARENT 16 5 21 28 71 47 45 58
REMARK Flexibility Score: inf
ROOT
ATOM      1  C   UNL A   1      36.143  23.295  25.334  1.00  0.00     0.116 C 
ENDROOT
BRANCH   1   2
ATOM      2  N   UNL A   1      35.550  22.535  26.404  1.00  0.00    -0.352 N 
ATOM      3  C   UNL A   1      34.299  21.986  26.514  1.00  0.00     0.255 C 
ATOM      4  O   UNL A   1      34.057  21.366  27.551  1.00  0.00    -0.269 OA
ATOM      5  H   UNL A   1      36.135  22.388  27.181  1.00  0.00     0.163 HD
BRANCH   3   6
ATOM      6  C   UNL A   1      33.255  22.200  25.523  1.00  0.00     0.090 A 
ATOM      7  C   UNL A   1      32.169  23.088  25.457  1.00  0.00     0.138 A 
ATOM      8  N   UNL A   1      31.668  22.917  24.182  1.00  0.00    -0.262 N 
ATOM      9  C   UNL A   1      33.242  21.530  24.279  1.00  0.00     0.149 A 
ATOM     10  N   UNL A   1      32.227  21.897  23.507  1.00  0.00    -0.180 NA
ATOM     11  C   UNL A   1      30.720  23.719  23.447  1.00  0.00     0.174 C 
BRANCH   7  12
ATOM     12  C   UNL A   1      31.821  24.100  26.436  1.00  0.00     0.273 C 
ATOM     13  O   UNL A   1      31.176  23.784  27.436  1.00  0.00    -0.267 OA
BRANCH  12  14
ATOM     14  N   UNL A   1      32.068  25.460  26.183  1.00  0.00    -0.334 N 
ATOM     15  C   UNL A   1      30.919  26.358  26.069  1.00  0.00     0.147 C 
BRANCH  14  16
ATOM     16  C   UNL A   1      33.347  26.060  25.869  1.00  0.00     0.175 C 
BRANCH  16  17
ATOM     17  C   UNL A   1      33.407  26.624  24.476  1.00  0.00     0.057 A 
ATOM     18  C   UNL A   1      33.554  25.894  23.305  1.00  0.00     0.047 A 
ATOM     19  N   UNL A   1      33.371  27.944  24.061  1.00  0.00    -0.271 N 
ATOM     20  C   UNL A   1      33.675  26.838  22.277  1.00  0.00     0.135 A 
ATOM     21  N   UNL A   1      33.584  28.082  22.735  1.00  0.00    -0.181 NA
ATOM     22  C   UNL A   1      33.206  29.168  24.812  1.00  0.00     0.174 C 
ENDBRANCH  16  17
ENDBRANCH  14  16
ENDBRANCH  12  14
ENDBRANCH   7  12
ENDBRANCH   3   6
ENDBRANCH   1   2
BRANCH   1  23
ATOM     23  C   UNL A   1      36.776  22.460  24.228  1.00  0.00     0.023 C 
BRANCH  23  24
ATOM     24  C   UNL A   1      37.353  21.110  24.640  1.00  0.00     0.023 C 
BRANCH  24  25
ATOM     25  C   UNL A   1      38.488  21.139  25.658  1.00  0.00     0.116 C 
BRANCH  25  26
ATOM     26  N   UNL A   1      39.392  19.999  25.572  1.00  0.00    -0.352 N 
ATOM     27  C   UNL A   1      40.715  19.882  25.932  1.00  0.00     0.251 C 
ATOM     28  H   UNL A   1      38.991  19.183  25.195  1.00  0.00     0.163 HD
ATOM     29  O   UNL A   1      41.325  18.846  25.700  1.00  0.00    -0.269 OA
BRANCH  27  30
ATOM     30  C   UNL A   1      41.414  21.029  26.553  1.00  0.00     0.039 A 
ATOM     31  C   UNL A   1      42.015  21.982  25.726  1.00  0.00     0.014 A 
ATOM     32  C   UNL A   1      41.431  21.194  27.938  1.00  0.00     0.014 A 
ATOM     33  C   UNL A   1      42.522  23.159  26.282  1.00  0.00     0.010 A 
ATOM     34  C   UNL A   1      41.849  22.406  28.480  1.00  0.00     0.010 A 
ATOM     35  C   UNL A   1      42.384  23.408  27.658  1.00  0.00    -0.014 A 
BRANCH  35  36
ATOM     36  C   UNL A   1      42.761  24.717  28.255  1.00  0.00     0.031 A 
ATOM     37  C   UNL A   1      41.713  25.770  28.494  1.00  0.00     0.074 A 
ATOM     38  C   UNL A   1      44.060  25.000  28.483  1.00  0.00     0.049 A 
ATOM     39  N   UNL A   1      41.860  27.008  28.893  1.00  0.00    -0.248 NA
ATOM     40  C   UNL A   1      40.318  25.394  28.210  1.00  0.00     0.031 C 
ATOM     41  C   UNL A   1      45.185  24.096  28.227  1.00  0.00     0.029 A 
ATOM     42  N   UNL A   1      44.657  26.138  28.966  1.00  0.00    -0.354 N 
ATOM     43  C   UNL A   1      40.589  27.565  28.872  1.00  0.00     0.074 A 
ATOM     44  C   UNL A   1      39.686  26.545  28.381  1.00  0.00     0.031 C 
ATOM     45  C   UNL A   1      46.330  24.706  28.575  1.00  0.00     0.029 A 
ATOM     46  C   UNL A   1      46.028  26.053  29.043  1.00  0.00     0.049 A 
ATOM     47  H   UNL A   1      44.152  26.940  29.231  1.00  0.00     0.167 HD
ATOM     48  C   UNL A   1      40.201  28.807  29.246  1.00  0.00     0.037 A 
ATOM     49  C   UNL A   1      46.938  26.962  29.441  1.00  0.00     0.037 A 
ATOM     50  C   UNL A   1      41.086  29.801  29.792  1.00  0.00     0.049 A 
ATOM     51  C   UNL A   1      46.476  28.319  29.896  1.00  0.00     0.074 A 
ATOM     52  C   UNL A   1      40.772  31.050  30.299  1.00  0.00     0.029 A 
ATOM     53  N   UNL A   1      42.460  29.656  29.906  1.00  0.00    -0.354 N 
ATOM     54  N   UNL A   1      45.258  28.800  29.955  1.00  0.00    -0.248 NA
ATOM     55  C   UNL A   1      47.514  29.257  30.346  1.00  0.00     0.031 C 
ATOM     56  C   UNL A   1      41.959  31.676  30.690  1.00  0.00     0.029 A 
ATOM     57  C   UNL A   1      43.009  30.800  30.460  1.00  0.00     0.049 A 
ATOM     58  H   UNL A   1      42.969  28.859  29.634  1.00  0.00     0.167 HD
ATOM     59  C   UNL A   1      45.380  30.081  30.475  1.00  0.00     0.074 A 
ATOM     60  C   UNL A   1      46.789  30.301  30.725  1.00  0.00     0.031 C 
ATOM     61  C   UNL A   1      44.411  30.996  30.721  1.00  0.00     0.037 A 
BRANCH  48  62
ATOM     62  C   UNL A   1      38.752  29.160  29.094  1.00  0.00     0.057 A 
ATOM     63  C   UNL A   1      37.861  29.103  30.173  1.00  0.00     0.134 A 
ATOM     64  C   UNL A   1      38.250  29.599  27.862  1.00  0.00     0.134 A 
ATOM     65  F   UNL A   1      38.276  28.679  31.376  1.00  0.00    -0.206 F 
ATOM     66  C   UNL A   1      36.516  29.451  30.027  1.00  0.00     0.040 A 
ATOM     67  C   UNL A   1      36.914  29.973  27.710  1.00  0.00     0.040 A 
ATOM     68  F   UNL A   1      39.053  29.681  26.790  1.00  0.00    -0.206 F 
ATOM     69  C   UNL A   1      36.042  29.895  28.794  1.00  0.00     0.006 A 
ENDBRANCH  48  62
BRANCH  49  70
ATOM     70  C   UNL A   1      48.383  26.620  29.452  1.00  0.00     0.057 A 
ATOM     71  C   UNL A   1      48.960  25.972  30.551  1.00  0.00     0.134 A 
ATOM     72  C   UNL A   1      49.225  26.954  28.386  1.00  0.00     0.134 A 
ATOM     73  F   UNL A   1      48.206  25.645  31.611  1.00  0.00    -0.206 F 
ATOM     74  C   UNL A   1      50.325  25.689  30.601  1.00  0.00     0.040 A 
ATOM     75  C   UNL A   1      50.589  26.657  28.412  1.00  0.00     0.040 A 
ATOM     76  F   UNL A   1      48.734  27.569  27.301  1.00  0.00    -0.206 F 
ATOM     77  C   UNL A   1      51.144  26.030  29.526  1.00  0.00     0.006 A 
ENDBRANCH  49  70
BRANCH  61  78
ATOM     78  C   UNL A   1      44.836  32.299  31.327  1.00  0.00     0.057 A 
ATOM     79  C   UNL A   1      45.159  33.409  30.537  1.00  0.00     0.134 A 
ATOM     80  C   UNL A   1      44.879  32.455  32.718  1.00  0.00     0.134 A 
ATOM     81  F   UNL A   1      45.151  33.318  29.200  1.00  0.00    -0.206 F 
ATOM     82  C   UNL A   1      45.529  34.626  31.112  1.00  0.00     0.040 A 
ATOM     83  C   UNL A   1      45.225  33.673  33.303  1.00  0.00     0.040 A 
ATOM     84  F   UNL A   1      44.573  31.431  33.528  1.00  0.00    -0.206 F 
ATOM     85  C   UNL A   1      45.555  34.762  32.499  1.00  0.00     0.006 A 
ENDBRANCH  61  78
ENDBRANCH  35  36
ENDBRANCH  27  30
ENDBRANCH  25  26
ENDBRANCH  24  25
ENDBRANCH  23  24
ENDBRANCH   1  23
TORSDOF 15
ENDMDL
MODEL 2
REMARK VINA RESULT:     -11.0      0.708      6.283
REMARK SMILES CN(Cc1ccnn1C)C(=O)c1c(C(=O)NCCCCNC(=O)c2ccc(-c3c4nc(c(-c5c(F)cccc5F)c5ccc([nH]5)c(-c5c(F)cccc5F)c5nc(c(-c6c(F)cccc6F)c6ccc3[nH]6)C=C5)C=C4)cc2)cnn1C
REMARK SMILES IDX 17 1 16 2 14 3 15 4 13 6 12 7 80 8 78 9 79 10 81 11 10 12
REMARK SMILES IDX 11 13 2 14 1 15 3 16 4 17 5 18 8 19 6 20 7 21 9 22 18 23
REMARK SMILES IDX 19 24 20 25 21 26 22 27 23 29 24 30 25 31 77 32 26 33 76 34
REMARK SMILES IDX 27 35 28 36 29 37 70 38 30 39 75 40 69 41 71 42 31 43 74 44
REMARK SMILES IDX 68 45 67 46 32 48 58 49 41 50 57 51 42 52 45 53 56 54 72 55
REMARK SMILES IDX 43 56 44 57 55 59 73 60 46 61 33 62 34 63 39 64 35 65 36 66
REMARK SMILES IDX 38 67 40 68 37 69 59 70 60 71 65 72 61 73 62 74 64 75 66 76
REMARK SMILES IDX 63 77 47 78 48 79 53 80 49 81 50 82 52 83 54 84 51 85
REMARK H PARENT 16 5 21 28 71 47 45 58
REMARK Flexibility Score: inf
ROOT
ATOM      1  C   UNL A   1      36.274  22.768  25.239  1.00  0.00     0.116 C 
ENDROOT
BRANCH   1   2
ATOM      2  N   UNL A   1      35.615  22.202  26.388  1.00  0.00    -0.352 N 
ATOM      3  C   UNL A   1      34.308  21.831  26.568  1.00  0.00     0.255 C 
ATOM      4  O   UNL A   1      34.015  21.354  27.665  1.00  0.00    -0.269 OA
ATOM      5  H   UNL A   1      36.196  22.058  27.169  1.00  0.00     0.163 HD
BRANCH   3   6
ATOM      6  C   UNL A   1      33.275  22.079  25.573  1.00  0.00     0.090 A 
ATOM      7  C   UNL A   1      32.274  23.055  25.460  1.00  0.00     0.138 A 
ATOM      8  N   UNL A   1      31.743  22.854  24.201  1.00  0.00    -0.262 N 
ATOM      9  C   UNL A   1      33.187  21.338  24.373  1.00  0.00     0.149 A 
ATOM     10  N   UNL A   1      32.199  21.749  23.587  1.00  0.00    -0.180 NA
ATOM     11  C   UNL A   1      30.863  23.693  23.424  1.00  0.00     0.174 C 
BRANCH   7  12
ATOM     12  C   UNL A   1      32.030  24.153  26.377  1.00  0.00     0.273 C 
ATOM     13  O   UNL A   1      31.381  23.956  27.405  1.00  0.00    -0.267 OA
BRANCH  12  14
ATOM     14  N   UNL A   1      32.383  25.469  26.033  1.00  0.00    -0.334 N 
ATOM     15  C   UNL A   1      33.710  25.699  25.463  1.00  0.00     0.147 C 
BRANCH  14  16
ATOM     16  C   UNL A   1      31.625  26.668  26.323  1.00  0.00     0.175 C 
BRANCH  16  17
ATOM     17  C   UNL A   1      31.254  27.442  25.088  1.00  0.00     0.057 A 
ATOM     18  C   UNL A   1      30.264  27.102  24.176  1.00  0.00     0.047 A 
ATOM     19  N   UNL A   1      31.815  28.599  24.575  1.00  0.00    -0.271 N 
ATOM     20  C   UNL A   1      30.358  28.039  23.140  1.00  0.00     0.135 A 
ATOM     21  N   UNL A   1      31.310  28.937  23.370  1.00  0.00    -0.181 NA
ATOM     22  C   UNL A   1      32.870  29.446  25.085  1.00  0.00     0.174 C 
ENDBRANCH  16  17
ENDBRANCH  14  16
ENDBRANCH  12  14
ENDBRANCH   7  12
ENDBRANCH   3   6
ENDBRANCH   1   2
BRANCH   1  23
ATOM     23  C   UNL A   1      36.873  21.753  24.276  1.00  0.00     0.023 C 
BRANCH  23  24
ATOM     24  C   UNL A   1      37.538  20.531  24.902  1.00  0.00     0.023 C 
BRANCH  24  25
ATOM     25  C   UNL A   1      38.776  20.794  25.753  1.00  0.00     0.116 C 
BRANCH  25  26
ATOM     26  N   UNL A   1      39.767  19.726  25.704  1.00  0.00    -0.352 N 
ATOM     27  C   UNL A   1      41.103  19.735  26.034  1.00  0.00     0.251 C 
ATOM     28  H   UNL A   1      39.425  18.861  25.383  1.00  0.00     0.163 HD
ATOM     29  O   UNL A   1      41.789  18.740  25.841  1.00  0.00    -0.269 OA
BRANCH  27  30
ATOM     30  C   UNL A   1      41.720  20.967  26.573  1.00  0.00     0.039 A 
ATOM     31  C   UNL A   1      42.248  21.905  25.681  1.00  0.00     0.014 A 
ATOM     32  C   UNL A   1      41.731  21.223  27.945  1.00  0.00     0.014 A 
ATOM     33  C   UNL A   1      42.672  23.148  26.156  1.00  0.00     0.010 A 
ATOM     34  C   UNL A   1      42.063  22.494  28.403  1.00  0.00     0.010 A 
ATOM     35  C   UNL A   1      42.521  23.477  27.513  1.00  0.00    -0.014 A 
BRANCH  35  36
ATOM     36  C   UNL A   1      42.806  24.845  28.021  1.00  0.00     0.031 A 
ATOM     37  C   UNL A   1      44.196  25.215  28.462  1.00  0.00     0.074 A 
ATOM     38  C   UNL A   1      41.794  25.721  28.186  1.00  0.00     0.049 A 
ATOM     39  N   UNL A   1      44.616  26.312  29.039  1.00  0.00    -0.248 NA
ATOM     40  C   UNL A   1      45.246  24.203  28.264  1.00  0.00     0.031 C 
ATOM     41  C   UNL A   1      40.387  25.466  27.867  1.00  0.00     0.029 A 
ATOM     42  N   UNL A   1      41.791  27.003  28.681  1.00  0.00    -0.354 N 
ATOM     43  C   UNL A   1      45.963  26.107  29.306  1.00  0.00     0.074 A 
ATOM     44  C   UNL A   1      46.283  24.766  28.865  1.00  0.00     0.031 C 
ATOM     45  C   UNL A   1      39.663  26.561  28.153  1.00  0.00     0.029 A 
ATOM     46  C   UNL A   1      40.544  27.582  28.710  1.00  0.00     0.049 A 
ATOM     47  H   UNL A   1      42.605  27.463  28.988  1.00  0.00     0.167 HD
ATOM     48  C   UNL A   1      46.860  26.964  29.848  1.00  0.00     0.037 A 
ATOM     49  C   UNL A   1      40.154  28.796  29.142  1.00  0.00     0.037 A 
ATOM     50  C   UNL A   1      46.558  28.318  30.229  1.00  0.00     0.049 A 
ATOM     51  C   UNL A   1      41.179  29.746  29.697  1.00  0.00     0.074 A 
ATOM     52  C   UNL A   1      47.422  29.296  30.688  1.00  0.00     0.029 A 
ATOM     53  N   UNL A   1      45.294  28.885  30.190  1.00  0.00    -0.354 N 
ATOM     54  N   UNL A   1      42.468  29.568  29.858  1.00  0.00    -0.248 NA
ATOM     55  C   UNL A   1      40.697  31.067  30.124  1.00  0.00     0.031 C 
ATOM     56  C   UNL A   1      46.675  30.448  30.960  1.00  0.00     0.029 A 
ATOM     57  C   UNL A   1      45.352  30.195  30.633  1.00  0.00     0.049 A 
ATOM     58  H   UNL A   1      44.476  28.424  29.892  1.00  0.00     0.167 HD
ATOM     59  C   UNL A   1      42.953  30.761  30.376  1.00  0.00     0.074 A 
ATOM     60  C   UNL A   1      41.825  31.659  30.492  1.00  0.00     0.031 C 
ATOM     61  C   UNL A   1      44.223  31.083  30.726  1.00  0.00     0.037 A 
BRANCH  48  62
ATOM     62  C   UNL A   1      48.261  26.470  30.049  1.00  0.00     0.057 A 
ATOM     63  C   UNL A   1      49.260  26.670  29.088  1.00  0.00     0.134 A 
ATOM     64  C   UNL A   1      48.625  25.821  31.235  1.00  0.00     0.134 A 
ATOM     65  F   UNL A   1      48.973  27.274  27.925  1.00  0.00    -0.206 F 
ATOM     66  C   UNL A   1      50.567  26.223  29.290  1.00  0.00     0.040 A 
ATOM     67  C   UNL A   1      49.934  25.391  31.460  1.00  0.00     0.040 A 
ATOM     68  F   UNL A   1      47.717  25.602  32.199  1.00  0.00    -0.206 F 
ATOM     69  C   UNL A   1      50.909  25.589  30.483  1.00  0.00     0.006 A 
ENDBRANCH  48  62
BRANCH  49  70
ATOM     70  C   UNL A   1      38.728  29.202  29.049  1.00  0.00     0.057 A 
ATOM     71  C   UNL A   1      37.895  29.161  30.174  1.00  0.00     0.134 A 
ATOM     72  C   UNL A   1      38.159  29.612  27.839  1.00  0.00     0.134 A 
ATOM     73  F   UNL A   1      38.380  28.756  31.357  1.00  0.00    -0.206 F 
ATOM     74  C   UNL A   1      36.541  29.489  30.094  1.00  0.00     0.040 A 
ATOM     75  C   UNL A   1      36.811  29.966  27.749  1.00  0.00     0.040 A 
ATOM     76  F   UNL A   1      38.905  29.680  26.728  1.00  0.00    -0.206 F 
ATOM     77  C   UNL A   1      35.996  29.896  28.878  1.00  0.00     0.006 A 
ENDBRANCH  49  70
BRANCH  61  78
ATOM     78  C   UNL A   1      44.464  32.474  31.228  1.00  0.00     0.057 A 
ATOM     79  C   UNL A   1      44.415  32.784  32.592  1.00  0.00     0.134 A 
ATOM     80  C   UNL A   1      44.792  33.504  30.337  1.00  0.00     0.134 A 
ATOM     81  F   UNL A   1      44.093  31.845  33.493  1.00  0.00    -0.206 F 
ATOM     82  C   UNL A   1      44.666  34.078  33.052  1.00  0.00     0.040 A 
ATOM     83  C   UNL A   1      45.067  34.795  30.787  1.00  0.00     0.040 A 
ATOM     84  F   UNL A   1      44.861  33.268  29.018  1.00  0.00    -0.206 F 
ATOM     85  C   UNL A   1      45.001  35.086  32.148  1.00  0.00     0.006 A 
ENDBRANCH  61  78
ENDBRANCH  35  36
ENDBRANCH  27  30
ENDBRANCH  25  26
ENDBRANCH  24  25
ENDBRANCH  23  24
ENDBRANCH   1  23
TORSDOF 15
ENDMDL
MODEL 3
REMARK VINA RESULT:     -10.9      0.966      1.942
REMARK SMILES CN(Cc1ccnn1C)C(=O)c1c(C(=O)NCCCCNC(=O)c2ccc(-c3c4nc(c(-c5c(F)cccc5F)c5ccc([nH]5)c(-c5c(F)cccc5F)c5nc(c(-c6c(F)cccc6F)c6ccc3[nH]6)C=C5)C=C4)cc2)cnn1C
REMARK SMILES IDX 17 1 16 2 14 3 15 4 13 6 12 7 80 8 78 9 79 10 81 11 10 12
REMARK SMILES IDX 11 13 2 14 1 15 3 16 4 17 5 18 8 19 6 20 7 21 9 22 18 23
REMARK SMILES IDX 19 24 20 25 21 26 22 27 23 29 24 30 25 31 77 32 26 33 76 34
REMARK SMILES IDX 27 35 28 36 29 37 70 38 30 39 75 40 69 41 71 42 31 43 74 44
REMARK SMILES IDX 68 45 67 46 32 48 58 49 41 50 57 51 42 52 45 53 56 54 72 55
REMARK SMILES IDX 43 56 44 57 55 59 73 60 46 61 33 62 34 63 39 64 35 65 36 66
REMARK SMILES IDX 38 67 40 68 37 69 59 70 60 71 65 72 61 73 62 74 64 75 66 76
REMARK SMILES IDX 63 77 47 78 48 79 53 80 49 81 50 82 52 83 54 84 51 85
REMARK H PARENT 16 5 21 28 71 47 45 58
REMARK Flexibility Score: inf
ROOT
ATOM      1  C   UNL A   1      35.121  22.638  25.007  1.00  0.00     0.116 C 
ENDROOT
BRANCH   1   2
ATOM      2  N   UNL A   1      34.190  21.540  25.064  1.00  0.00    -0.352 N 
ATOM      3  C   UNL A   1      32.848  21.529  25.340  1.00  0.00     0.255 C 
ATOM      4  O   UNL A   1      32.286  20.433  25.306  1.00  0.00    -0.269 OA
ATOM      5  H   UNL A   1      34.580  20.657  24.875  1.00  0.00     0.163 HD
BRANCH   3   6
ATOM      6  C   UNL A   1      32.120  22.717  25.761  1.00  0.00     0.090 A 
ATOM      7  C   UNL A   1      31.636  23.835  25.066  1.00  0.00     0.138 A 
ATOM      8  N   UNL A   1      30.878  24.514  25.999  1.00  0.00    -0.262 N 
ATOM      9  C   UNL A   1      31.648  22.887  27.082  1.00  0.00     0.149 A 
ATOM     10  N   UNL A   1      30.977  24.021  27.246  1.00  0.00    -0.180 NA
ATOM     11  C   UNL A   1      29.936  25.593  25.819  1.00  0.00     0.174 C 
BRANCH   7  12
ATOM     12  C   UNL A   1      31.736  24.076  23.639  1.00  0.00     0.273 C 
ATOM     13  O   UNL A   1      31.423  23.186  22.847  1.00  0.00    -0.267 OA
BRANCH  12  14
ATOM     14  N   UNL A   1      32.334  25.249  23.147  1.00  0.00    -0.334 N 
ATOM     15  C   UNL A   1      31.592  26.040  22.167  1.00  0.00     0.147 C 
BRANCH  14  16
ATOM     16  C   UNL A   1      33.691  25.692  23.392  1.00  0.00     0.175 C 
BRANCH  16  17
ATOM     17  C   UNL A   1      33.774  26.796  24.410  1.00  0.00     0.057 A 
ATOM     18  C   UNL A   1      33.805  26.636  25.788  1.00  0.00     0.047 A 
ATOM     19  N   UNL A   1      33.796  28.167  24.218  1.00  0.00    -0.271 N 
ATOM     20  C   UNL A   1      33.764  27.929  26.325  1.00  0.00     0.135 A 
ATOM     21  N   UNL A   1      33.739  28.858  25.376  1.00  0.00    -0.181 NA
ATOM     22  C   UNL A   1      33.809  28.953  23.005  1.00  0.00     0.174 C 
ENDBRANCH  16  17
ENDBRANCH  14  16
ENDBRANCH  12  14
ENDBRANCH   7  12
ENDBRANCH   3   6
ENDBRANCH   1   2
BRANCH   1  23
ATOM     23  C   UNL A   1      36.417  22.344  24.264  1.00  0.00     0.023 C 
BRANCH  23  24
ATOM     24  C   UNL A   1      37.125  21.041  24.621  1.00  0.00     0.023 C 
BRANCH  24  25
ATOM     25  C   UNL A   1      38.336  21.156  25.541  1.00  0.00     0.116 C 
BRANCH  25  26
ATOM     26  N   UNL A   1      39.211  19.991  25.517  1.00  0.00    -0.352 N 
ATOM     27  C   UNL A   1      40.514  19.847  25.938  1.00  0.00     0.251 C 
ATOM     28  H   UNL A   1      38.806  19.178  25.140  1.00  0.00     0.163 HD
ATOM     29  O   UNL A   1      41.105  18.791  25.753  1.00  0.00    -0.269 OA
BRANCH  27  30
ATOM     30  C   UNL A   1      41.216  20.988  26.566  1.00  0.00     0.039 A 
ATOM     31  C   UNL A   1      41.898  21.895  25.749  1.00  0.00     0.014 A 
ATOM     32  C   UNL A   1      41.157  21.195  27.945  1.00  0.00     0.014 A 
ATOM     33  C   UNL A   1      42.413  23.070  26.301  1.00  0.00     0.010 A 
ATOM     34  C   UNL A   1      41.585  22.409  28.475  1.00  0.00     0.010 A 
ATOM     35  C   UNL A   1      42.203  23.366  27.658  1.00  0.00    -0.014 A 
BRANCH  35  36
ATOM     36  C   UNL A   1      42.591  24.680  28.238  1.00  0.00     0.031 A 
ATOM     37  C   UNL A   1      41.552  25.745  28.460  1.00  0.00     0.074 A 
ATOM     38  C   UNL A   1      43.892  24.953  28.466  1.00  0.00     0.049 A 
ATOM     39  N   UNL A   1      41.710  26.987  28.843  1.00  0.00    -0.248 NA
ATOM     40  C   UNL A   1      40.155  25.378  28.177  1.00  0.00     0.031 C 
ATOM     41  C   UNL A   1      45.008  24.036  28.225  1.00  0.00     0.029 A 
ATOM     42  N   UNL A   1      44.499  26.092  28.935  1.00  0.00    -0.354 N 
ATOM     43  C   UNL A   1      40.444  27.556  28.810  1.00  0.00     0.074 A 
ATOM     44  C   UNL A   1      39.533  26.538  28.331  1.00  0.00     0.031 C 
ATOM     45  C   UNL A   1      46.159  24.639  28.568  1.00  0.00     0.029 A 
ATOM     46  C   UNL A   1      45.868  25.996  29.018  1.00  0.00     0.049 A 
ATOM     47  H   UNL A   1      44.000  26.903  29.188  1.00  0.00     0.167 HD
ATOM     48  C   UNL A   1      40.067  28.807  29.167  1.00  0.00     0.037 A 
ATOM     49  C   UNL A   1      46.786  26.901  29.405  1.00  0.00     0.037 A 
ATOM     50  C   UNL A   1      40.960  29.800  29.701  1.00  0.00     0.049 A 
ATOM     51  C   UNL A   1      46.335  28.268  29.841  1.00  0.00     0.074 A 
ATOM     52  C   UNL A   1      40.656  31.058  30.191  1.00  0.00     0.029 A 
ATOM     53  N   UNL A   1      42.332  29.643  29.822  1.00  0.00    -0.354 N 
ATOM     54  N   UNL A   1      45.121  28.761  29.890  1.00  0.00    -0.248 NA
ATOM     55  C   UNL A   1      47.381  29.202  30.281  1.00  0.00     0.031 C 
ATOM     56  C   UNL A   1      41.849  31.678  30.577  1.00  0.00     0.029 A 
ATOM     57  C   UNL A   1      42.890  30.790  30.362  1.00  0.00     0.049 A 
ATOM     58  H   UNL A   1      42.835  28.838  29.562  1.00  0.00     0.167 HD
ATOM     59  C   UNL A   1      45.255  30.048  30.393  1.00  0.00     0.074 A 
ATOM     60  C   UNL A   1      46.664  30.258  30.644  1.00  0.00     0.031 C 
ATOM     61  C   UNL A   1      44.294  30.976  30.623  1.00  0.00     0.037 A 
BRANCH  48  62
ATOM     62  C   UNL A   1      38.622  29.171  29.006  1.00  0.00     0.057 A 
ATOM     63  C   UNL A   1      37.724  29.123  30.080  1.00  0.00     0.134 A 
ATOM     64  C   UNL A   1      38.131  29.612  27.771  1.00  0.00     0.134 A 
ATOM     65  F   UNL A   1      38.128  28.697  31.286  1.00  0.00    -0.206 F 
ATOM     66  C   UNL A   1      36.383  29.481  29.926  1.00  0.00     0.040 A 
ATOM     67  C   UNL A   1      36.799  29.997  27.610  1.00  0.00     0.040 A 
ATOM     68  F   UNL A   1      38.940  29.686  26.703  1.00  0.00    -0.206 F 
ATOM     69  C   UNL A   1      35.919  29.927  28.690  1.00  0.00     0.006 A 
ENDBRANCH  48  62
BRANCH  49  70
ATOM     70  C   UNL A   1      48.228  26.546  29.425  1.00  0.00     0.057 A 
ATOM     71  C   UNL A   1      49.041  26.780  28.310  1.00  0.00     0.134 A 
ATOM     72  C   UNL A   1      48.820  25.942  30.540  1.00  0.00     0.134 A 
ATOM     73  F   UNL A   1      48.524  27.338  27.204  1.00  0.00    -0.206 F 
ATOM     74  C   UNL A   1      50.385  26.406  28.291  1.00  0.00     0.040 A 
ATOM     75  C   UNL A   1      50.169  25.583  30.545  1.00  0.00     0.040 A 
ATOM     76  F   UNL A   1      48.097  25.698  31.642  1.00  0.00    -0.206 F 
ATOM     77  C   UNL A   1      50.954  25.807  29.414  1.00  0.00     0.006 A 
ENDBRANCH  49  70
BRANCH  61  78
ATOM     78  C   UNL A   1      44.729  32.283  31.213  1.00  0.00     0.057 A 
ATOM     79  C   UNL A   1      44.819  32.474  32.597  1.00  0.00     0.134 A 
ATOM     80  C   UNL A   1      45.105  33.347  30.383  1.00  0.00     0.134 A 
ATOM     81  F   UNL A   1      44.460  31.498  33.443  1.00  0.00    -0.206 F 
ATOM     82  C   UNL A   1      45.250  33.687  33.136  1.00  0.00     0.040 A 
ATOM     83  C   UNL A   1      45.559  34.555  30.911  1.00  0.00     0.040 A 
ATOM     84  F   UNL A   1      45.047  33.223  29.049  1.00  0.00    -0.206 F 
ATOM     85  C   UNL A   1      45.629  34.729  32.291  1.00  0.00     0.006 A 
ENDBRANCH  61  78
ENDBRANCH  35  36
ENDBRANCH  27  30
ENDBRANCH  25  26
ENDBRANCH  24  25
ENDBRANCH  23  24
ENDBRANCH   1  23
TORSDOF 15
ENDMDL
