MODEL 1
REMARK VINA RESULT:     -10.9      0.000      0.000
REMARK SMILES O=C(C[C@@H]1CSCC[NH2+]1)NC[C@H]1CC[C@@H](C(=O)NCCCCNC(=O)c2ccc(-c3c4nc(c(-c5c(F)cccc5F)c5ccc([nH]5)c(-c5c(F)cccc5F)c5nc(c(-c6c(F)cccc6F)c6ccc3[nH]6)C=C5)C=C4)cc2)O1
REMARK SMILES IDX 19 1 18 2 16 3 17 4 15 6 12 7 13 8 80 9 14 10 11 11 10 12
REMARK SMILES IDX 1 13 2 14 3 16 4 17 5 18 9 19 6 20 8 21 7 24 20 25 21 26
REMARK SMILES IDX 22 27 23 28 24 29 25 31 26 32 27 33 79 34 28 35 78 36 29 37
REMARK SMILES IDX 30 38 31 39 72 40 32 41 77 42 71 43 73 44 33 45 76 46 70 47
REMARK SMILES IDX 69 48 34 50 60 51 43 52 59 53 44 54 47 55 58 56 74 57 45 58
REMARK SMILES IDX 46 59 57 61 75 62 48 63 35 64 36 65 41 66 37 67 38 68 40 69
REMARK SMILES IDX 42 70 39 71 61 72 62 73 67 74 63 75 64 76 66 77 68 78 65 79
REMARK SMILES IDX 49 80 50 81 55 82 51 83 52 84 54 85 56 86 53 87
REMARK H PARENT 18 5 10 15 9 22 9 23 23 30 73 49 47 60
REMARK Flexibility Score: inf
ROOT
ATOM      1  C   UNL A   1      37.728  23.600  25.946  1.00  0.00     0.116 C 
ENDROOT
BRANCH   1   2
ATOM      2  N   UNL A   1      36.496  22.977  26.383  1.00  0.00    -0.354 N 
ATOM      3  C   UNL A   1      35.194  23.285  26.141  1.00  0.00     0.249 C 
ATOM      4  O   UNL A   1      34.351  22.553  26.677  1.00  0.00    -0.272 OA
ATOM      5  H   UNL A   1      36.624  22.188  26.958  1.00  0.00     0.163 HD
BRANCH   3   6
ATOM      6  C   UNL A   1      34.737  24.454  25.226  1.00  0.00     0.207 C 
ATOM      7  C   UNL A   1      32.914  24.669  23.754  1.00  0.00     0.138 C 
ATOM      8  C   UNL A   1      32.743  25.717  24.834  1.00  0.00     0.037 C 
ATOM      9  O   UNL A   1      34.291  24.243  23.887  1.00  0.00    -0.363 OA
ATOM     10  C   UNL A   1      33.615  25.204  25.949  1.00  0.00     0.045 C 
BRANCH   7  11
ATOM     11  C   UNL A   1      32.035  23.413  23.851  1.00  0.00     0.147 C 
BRANCH  11  12
ATOM     12  N   UNL A   1      32.674  22.120  23.731  1.00  0.00    -0.353 N 
ATOM     13  O   UNL A   1      31.451  21.216  25.450  1.00  0.00    -0.275 OA
ATOM     14  C   UNL A   1      32.214  21.070  24.498  1.00  0.00     0.226 C 
ATOM     15  H   UNL A   1      33.427  21.992  23.110  1.00  0.00     0.163 HD
BRANCH  14  16
ATOM     16  C   UNL A   1      32.657  19.695  24.052  1.00  0.00     0.165 C 
BRANCH  16  17
ATOM     17  C   UNL A   1      33.535  18.895  25.048  1.00  0.00     0.201 C 
ATOM     18  C   UNL A   1      34.644  18.072  24.365  1.00  0.00     0.135 C 
ATOM     19  N   UNL A   1      32.848  18.164  26.130  1.00  0.00    -0.342 N 
ATOM     20  S   UNL A   1      34.031  16.565  23.575  1.00  0.00    -0.150 SA
ATOM     21  C   UNL A   1      32.284  16.859  25.765  1.00  0.00     0.271 C 
ATOM     22  H   UNL A   1      32.086  18.751  26.468  1.00  0.00     0.346 HD
ATOM     23  H   UNL A   1      33.565  17.969  26.828  1.00  0.00     0.346 HD
ATOM     24  C   UNL A   1      33.205  15.867  25.040  1.00  0.00     0.131 C 
ENDBRANCH  16  17
ENDBRANCH  14  16
ENDBRANCH  11  12
ENDBRANCH   7  11
ENDBRANCH   3   6
ENDBRANCH   1   2
BRANCH   1  25
ATOM     25  C   UNL A   1      38.942  22.714  26.195  1.00  0.00     0.023 C 
BRANCH  25  26
ATOM     26  C   UNL A   1      38.894  21.339  25.528  1.00  0.00     0.023 C 
BRANCH  26  27
ATOM     27  C   UNL A   1      39.298  20.155  26.403  1.00  0.00     0.116 C 
BRANCH  27  28
ATOM     28  N   UNL A   1      40.440  19.413  25.893  1.00  0.00    -0.352 N 
ATOM     29  C   UNL A   1      41.768  19.771  25.844  1.00  0.00     0.251 C 
ATOM     30  H   UNL A   1      40.233  18.523  25.527  1.00  0.00     0.163 HD
ATOM     31  O   UNL A   1      42.582  19.044  25.291  1.00  0.00    -0.269 OA
BRANCH  29  32
ATOM     32  C   UNL A   1      42.208  21.058  26.424  1.00  0.00     0.039 A 
ATOM     33  C   UNL A   1      42.600  22.082  25.556  1.00  0.00     0.014 A 
ATOM     34  C   UNL A   1      42.224  21.263  27.805  1.00  0.00     0.014 A 
ATOM     35  C   UNL A   1      42.928  23.337  26.070  1.00  0.00     0.010 A 
ATOM     36  C   UNL A   1      42.492  22.533  28.313  1.00  0.00     0.010 A 
ATOM     37  C   UNL A   1      42.837  23.584  27.449  1.00  0.00    -0.014 A 
BRANCH  37  38
ATOM     38  C   UNL A   1      43.073  24.940  28.004  1.00  0.00     0.031 A 
ATOM     39  C   UNL A   1      44.443  25.342  28.467  1.00  0.00     0.074 A 
ATOM     40  C   UNL A   1      42.032  25.780  28.167  1.00  0.00     0.049 A 
ATOM     41  N   UNL A   1      44.825  26.447  29.057  1.00  0.00    -0.248 NA
ATOM     42  C   UNL A   1      45.522  24.363  28.269  1.00  0.00     0.031 C 
ATOM     43  C   UNL A   1      40.641  25.486  27.813  1.00  0.00     0.029 A 
ATOM     44  N   UNL A   1      41.979  27.047  28.690  1.00  0.00    -0.354 N 
ATOM     45  C   UNL A   1      46.178  26.284  29.322  1.00  0.00     0.074 A 
ATOM     46  C   UNL A   1      46.544  24.962  28.863  1.00  0.00     0.031 C 
ATOM     47  C   UNL A   1      39.876  26.547  28.117  1.00  0.00     0.029 A 
ATOM     48  C   UNL A   1      40.714  27.581  28.713  1.00  0.00     0.049 A 
ATOM     49  H   UNL A   1      42.773  27.529  29.017  1.00  0.00     0.167 HD
ATOM     50  C   UNL A   1      47.041  27.166  29.883  1.00  0.00     0.037 A 
ATOM     51  C   UNL A   1      40.277  28.771  29.169  1.00  0.00     0.037 A 
ATOM     52  C   UNL A   1      46.686  28.496  30.300  1.00  0.00     0.049 A 
ATOM     53  C   UNL A   1      41.262  29.744  29.751  1.00  0.00     0.074 A 
ATOM     54  C   UNL A   1      47.509  29.491  30.799  1.00  0.00     0.029 A 
ATOM     55  N   UNL A   1      45.403  29.018  30.263  1.00  0.00    -0.354 N 
ATOM     56  N   UNL A   1      42.554  29.605  29.926  1.00  0.00    -0.248 NA
ATOM     57  C   UNL A   1      40.730  31.041  30.194  1.00  0.00     0.031 C 
ATOM     58  C   UNL A   1      46.717  30.606  31.094  1.00  0.00     0.029 A 
ATOM     59  C   UNL A   1      45.408  30.316  30.746  1.00  0.00     0.049 A 
ATOM     60  H   UNL A   1      44.606  28.538  29.942  1.00  0.00     0.167 HD
ATOM     61  C   UNL A   1      42.993  30.803  30.476  1.00  0.00     0.074 A 
ATOM     62  C   UNL A   1      41.832  31.661  30.594  1.00  0.00     0.031 C 
ATOM     63  C   UNL A   1      44.245  31.159  30.850  1.00  0.00     0.037 A 
BRANCH  50  64
ATOM     64  C   UNL A   1      48.459  26.718  30.070  1.00  0.00     0.057 A 
ATOM     65  C   UNL A   1      48.863  26.001  31.204  1.00  0.00     0.134 A 
ATOM     66  C   UNL A   1      49.424  26.973  29.087  1.00  0.00     0.134 A 
ATOM     67  F   UNL A   1      47.989  25.735  32.186  1.00  0.00    -0.206 F 
ATOM     68  C   UNL A   1      50.182  25.574  31.365  1.00  0.00     0.040 A 
ATOM     69  C   UNL A   1      50.740  26.532  29.227  1.00  0.00     0.040 A 
ATOM     70  F   UNL A   1      49.101  27.650  27.975  1.00  0.00    -0.206 F 
ATOM     71  C   UNL A   1      51.124  25.834  30.371  1.00  0.00     0.006 A 
ENDBRANCH  50  64
BRANCH  51  72
ATOM     72  C   UNL A   1      38.839  29.118  29.073  1.00  0.00     0.057 A 
ATOM     73  C   UNL A   1      38.000  29.030  30.190  1.00  0.00     0.134 A 
ATOM     74  C   UNL A   1      38.267  29.538  27.866  1.00  0.00     0.134 A 
ATOM     75  F   UNL A   1      38.489  28.615  31.368  1.00  0.00    -0.206 F 
ATOM     76  C   UNL A   1      36.640  29.328  30.108  1.00  0.00     0.040 A 
ATOM     77  C   UNL A   1      36.912  29.860  27.774  1.00  0.00     0.040 A 
ATOM     78  F   UNL A   1      39.020  29.650  26.762  1.00  0.00    -0.206 F 
ATOM     79  C   UNL A   1      36.094  29.749  28.897  1.00  0.00     0.006 A 
ENDBRANCH  51  72
BRANCH  63  80
ATOM     80  C   UNL A   1      44.429  32.543  31.394  1.00  0.00     0.057 A 
ATOM     81  C   UNL A   1      44.345  32.811  32.765  1.00  0.00     0.134 A 
ATOM     82  C   UNL A   1      44.727  33.611  30.539  1.00  0.00     0.134 A 
ATOM     83  F   UNL A   1      44.048  31.832  33.633  1.00  0.00    -0.206 F 
ATOM     84  C   UNL A   1      44.536  34.099  33.267  1.00  0.00     0.040 A 
ATOM     85  C   UNL A   1      44.940  34.899  31.031  1.00  0.00     0.040 A 
ATOM     86  F   UNL A   1      44.826  33.418  29.215  1.00  0.00    -0.206 F 
ATOM     87  C   UNL A   1      44.840  35.146  32.399  1.00  0.00     0.006 A 
ENDBRANCH  63  80
ENDBRANCH  37  38
ENDBRANCH  29  32
ENDBRANCH  27  28
ENDBRANCH  26  27
ENDBRANCH  25  26
ENDBRANCH   1  25
TORSDOF 15
ENDMDL
MODEL 2
REMARK VINA RESULT:     -10.7      1.040      6.366
REMARK SMILES O=C(C[C@@H]1CSCC[NH2+]1)NC[C@H]1CC[C@@H](C(=O)NCCCCNC(=O)c2ccc(-c3c4nc(c(-c5c(F)cccc5F)c5ccc([nH]5)c(-c5c(F)cccc5F)c5nc(c(-c6c(F)cccc6F)c6ccc3[nH]6)C=C5)C=C4)cc2)O1
REMARK SMILES IDX 19 1 18 2 16 3 17 4 15 6 12 7 13 8 80 9 14 10 11 11 10 12
REMARK SMILES IDX 1 13 2 14 3 16 4 17 5 18 9 19 6 20 8 21 7 24 20 25 21 26
REMARK SMILES IDX 22 27 23 28 24 29 25 31 26 32 27 33 79 34 28 35 78 36 29 37
REMARK SMILES IDX 30 38 31 39 72 40 32 41 77 42 71 43 73 44 33 45 76 46 70 47
REMARK SMILES IDX 69 48 34 50 60 51 43 52 59 53 44 54 47 55 58 56 74 57 45 58
REMARK SMILES IDX 46 59 57 61 75 62 48 63 35 64 36 65 41 66 37 67 38 68 40 69
REMARK SMILES IDX 42 70 39 71 61 72 62 73 67 74 63 75 64 76 66 77 68 78 65 79
REMARK SMILES IDX 49 80 50 81 55 82 51 83 52 84 54 85 56 86 53 87
REMARK H PARENT 18 5 10 15 9 22 9 23 23 30 73 49 47 60
REMARK Flexibility Score: inf
ROOT
ATOM      1  C   UNL A   1      37.971  23.722  26.155  1.00  0.00     0.116 C 
ENDROOT
BRANCH   1   2
ATOM      2  N   UNL A   1      37.025  23.097  25.253  1.00  0.00    -0.354 N 
ATOM      3  C   UNL A   1      35.706  22.805  25.390  1.00  0.00     0.249 C 
ATOM      4  O   UNL A   1      35.166  22.247  24.425  1.00  0.00    -0.272 OA
ATOM      5  H   UNL A   1      37.408  22.838  24.384  1.00  0.00     0.163 HD
BRANCH   3   6
ATOM      6  C   UNL A   1      34.867  23.158  26.649  1.00  0.00     0.207 C 
ATOM      7  C   UNL A   1      32.543  23.275  27.000  1.00  0.00     0.138 C 
ATOM      8  C   UNL A   1      33.079  22.192  27.912  1.00  0.00     0.037 C 
ATOM      9  O   UNL A   1      33.721  24.007  26.587  1.00  0.00    -0.363 OA
ATOM     10  C   UNL A   1      34.406  21.847  27.289  1.00  0.00     0.045 C 
BRANCH   7  11
ATOM     11  C   UNL A   1      31.816  22.822  25.725  1.00  0.00     0.147 C 
BRANCH  11  12
ATOM     12  N   UNL A   1      31.732  21.404  25.453  1.00  0.00    -0.353 N 
ATOM     13  O   UNL A   1      32.169  21.679  23.217  1.00  0.00    -0.275 OA
ATOM     14  C   UNL A   1      32.048  20.941  24.192  1.00  0.00     0.226 C 
ATOM     15  H   UNL A   1      31.452  20.777  26.158  1.00  0.00     0.163 HD
BRANCH  14  16
ATOM     16  C   UNL A   1      32.308  19.456  24.089  1.00  0.00     0.165 C 
BRANCH  16  17
ATOM     17  C   UNL A   1      33.321  18.860  25.099  1.00  0.00     0.201 C 
ATOM     18  C   UNL A   1      34.569  18.249  24.432  1.00  0.00     0.135 C 
ATOM     19  N   UNL A   1      32.784  18.034  26.198  1.00  0.00    -0.342 N 
ATOM     20  S   UNL A   1      34.256  16.637  23.674  1.00  0.00    -0.150 SA
ATOM     21  C   UNL A   1      32.480  16.637  25.861  1.00  0.00     0.271 C 
ATOM     22  H   UNL A   1      31.923  18.471  26.525  1.00  0.00     0.346 HD
ATOM     23  H   UNL A   1      33.523  17.994  26.898  1.00  0.00     0.346 HD
ATOM     24  C   UNL A   1      33.575  15.825  25.156  1.00  0.00     0.131 C 
ENDBRANCH  16  17
ENDBRANCH  14  16
ENDBRANCH  11  12
ENDBRANCH   7  11
ENDBRANCH   3   6
ENDBRANCH   1   2
BRANCH   1  25
ATOM     25  C   UNL A   1      39.162  22.821  26.457  1.00  0.00     0.023 C 
BRANCH  25  26
ATOM     26  C   UNL A   1      39.195  21.502  25.685  1.00  0.00     0.023 C 
BRANCH  26  27
ATOM     27  C   UNL A   1      39.475  20.249  26.511  1.00  0.00     0.116 C 
BRANCH  27  28
ATOM     28  N   UNL A   1      40.576  19.446  26.000  1.00  0.00    -0.352 N 
ATOM     29  C   UNL A   1      41.920  19.733  25.947  1.00  0.00     0.251 C 
ATOM     30  H   UNL A   1      40.320  18.567  25.638  1.00  0.00     0.163 HD
ATOM     31  O   UNL A   1      42.693  18.961  25.394  1.00  0.00    -0.269 OA
BRANCH  29  32
ATOM     32  C   UNL A   1      42.429  20.996  26.522  1.00  0.00     0.039 A 
ATOM     33  C   UNL A   1      42.925  21.973  25.652  1.00  0.00     0.014 A 
ATOM     34  C   UNL A   1      42.409  21.227  27.899  1.00  0.00     0.014 A 
ATOM     35  C   UNL A   1      43.324  23.212  26.157  1.00  0.00     0.010 A 
ATOM     36  C   UNL A   1      42.749  22.484  28.394  1.00  0.00     0.010 A 
ATOM     37  C   UNL A   1      43.199  23.491  27.527  1.00  0.00    -0.014 A 
BRANCH  37  38
ATOM     38  C   UNL A   1      43.511  24.838  28.067  1.00  0.00     0.031 A 
ATOM     39  C   UNL A   1      42.410  25.827  28.322  1.00  0.00     0.074 A 
ATOM     40  C   UNL A   1      44.796  25.198  28.248  1.00  0.00     0.049 A 
ATOM     41  N   UNL A   1      42.492  27.075  28.708  1.00  0.00    -0.248 NA
ATOM     42  C   UNL A   1      41.035  25.361  28.085  1.00  0.00     0.031 C 
ATOM     43  C   UNL A   1      45.960  24.351  27.979  1.00  0.00     0.029 A 
ATOM     44  N   UNL A   1      45.340  26.380  28.683  1.00  0.00    -0.354 N 
ATOM     45  C   UNL A   1      41.188  27.549  28.734  1.00  0.00     0.074 A 
ATOM     46  C   UNL A   1      40.335  26.467  28.291  1.00  0.00     0.031 C 
ATOM     47  C   UNL A   1      47.079  25.036  28.268  1.00  0.00     0.029 A 
ATOM     48  C   UNL A   1      46.714  26.376  28.713  1.00  0.00     0.049 A 
ATOM     49  H   UNL A   1      44.798  27.157  28.951  1.00  0.00     0.167 HD
ATOM     50  C   UNL A   1      40.741  28.771  29.110  1.00  0.00     0.037 A 
ATOM     51  C   UNL A   1      47.582  27.347  29.055  1.00  0.00     0.037 A 
ATOM     52  C   UNL A   1      41.585  29.832  29.592  1.00  0.00     0.049 A 
ATOM     53  C   UNL A   1      47.058  28.681  29.505  1.00  0.00     0.074 A 
ATOM     54  C   UNL A   1      41.216  31.074  30.076  1.00  0.00     0.029 A 
ATOM     55  N   UNL A   1      42.968  29.774  29.651  1.00  0.00    -0.354 N 
ATOM     56  N   UNL A   1      45.815  29.090  29.597  1.00  0.00    -0.248 NA
ATOM     57  C   UNL A   1      48.053  29.685  29.904  1.00  0.00     0.031 C 
ATOM     58  C   UNL A   1      42.379  31.780  30.401  1.00  0.00     0.029 A 
ATOM     59  C   UNL A   1      43.469  30.965  30.151  1.00  0.00     0.049 A 
ATOM     60  H   UNL A   1      43.514  29.000  29.380  1.00  0.00     0.167 HD
ATOM     61  C   UNL A   1      45.879  30.388  30.085  1.00  0.00     0.074 A 
ATOM     62  C   UNL A   1      47.281  30.695  30.282  1.00  0.00     0.031 C 
ATOM     63  C   UNL A   1      44.867  31.249  30.347  1.00  0.00     0.037 A 
BRANCH  50  64
ATOM     64  C   UNL A   1      39.266  29.023  29.022  1.00  0.00     0.057 A 
ATOM     65  C   UNL A   1      38.434  28.932  30.146  1.00  0.00     0.134 A 
ATOM     66  C   UNL A   1      38.676  29.397  27.808  1.00  0.00     0.134 A 
ATOM     67  F   UNL A   1      38.936  28.567  31.334  1.00  0.00    -0.206 F 
ATOM     68  C   UNL A   1      37.064  29.182  30.060  1.00  0.00     0.040 A 
ATOM     69  C   UNL A   1      37.311  29.671  27.715  1.00  0.00     0.040 A 
ATOM     70  F   UNL A   1      39.419  29.507  26.695  1.00  0.00    -0.206 F 
ATOM     71  C   UNL A   1      36.500  29.559  28.842  1.00  0.00     0.006 A 
ENDBRANCH  50  64
BRANCH  51  72
ATOM     72  C   UNL A   1      49.041  27.087  29.007  1.00  0.00     0.057 A 
ATOM     73  C   UNL A   1      49.779  27.335  27.845  1.00  0.00     0.134 A 
ATOM     74  C   UNL A   1      49.730  26.578  30.115  1.00  0.00     0.134 A 
ATOM     75  F   UNL A   1      49.169  27.804  26.746  1.00  0.00    -0.206 F 
ATOM     76  C   UNL A   1      51.148  27.070  27.776  1.00  0.00     0.040 A 
ATOM     77  C   UNL A   1      51.103  26.328  30.068  1.00  0.00     0.040 A 
ATOM     78  F   UNL A   1      49.079  26.326  31.260  1.00  0.00    -0.206 F 
ATOM     79  C   UNL A   1      51.813  26.568  28.894  1.00  0.00     0.006 A 
ENDBRANCH  51  72
BRANCH  63  80
ATOM     80  C   UNL A   1      45.237  32.592  30.900  1.00  0.00     0.057 A 
ATOM     81  C   UNL A   1      45.471  33.692  30.067  1.00  0.00     0.134 A 
ATOM     82  C   UNL A   1      45.326  32.793  32.283  1.00  0.00     0.134 A 
ATOM     83  F   UNL A   1      45.415  33.559  28.733  1.00  0.00    -0.206 F 
ATOM     84  C   UNL A   1      45.797  34.944  30.590  1.00  0.00     0.040 A 
ATOM     85  C   UNL A   1      45.631  34.045  32.818  1.00  0.00     0.040 A 
ATOM     86  F   UNL A   1      45.108  31.780  33.135  1.00  0.00    -0.206 F 
ATOM     87  C   UNL A   1      45.872  35.124  31.970  1.00  0.00     0.006 A 
ENDBRANCH  63  80
ENDBRANCH  37  38
ENDBRANCH  29  32
ENDBRANCH  27  28
ENDBRANCH  26  27
ENDBRANCH  25  26
ENDBRANCH   1  25
TORSDOF 15
ENDMDL
MODEL 3
REMARK VINA RESULT:     -10.6      6.562     12.358
REMARK SMILES O=C(C[C@@H]1CSCC[NH2+]1)NC[C@H]1CC[C@@H](C(=O)NCCCCNC(=O)c2ccc(-c3c4nc(c(-c5c(F)cccc5F)c5ccc([nH]5)c(-c5c(F)cccc5F)c5nc(c(-c6c(F)cccc6F)c6ccc3[nH]6)C=C5)C=C4)cc2)O1
REMARK SMILES IDX 19 1 18 2 16 3 17 4 15 6 12 7 13 8 80 9 14 10 11 11 10 12
REMARK SMILES IDX 1 13 2 14 3 16 4 17 5 18 9 19 6 20 8 21 7 24 20 25 21 26
REMARK SMILES IDX 22 27 23 28 24 29 25 31 26 32 27 33 79 34 28 35 78 36 29 37
REMARK SMILES IDX 30 38 31 39 72 40 32 41 77 42 71 43 73 44 33 45 76 46 70 47
REMARK SMILES IDX 69 48 34 50 60 51 43 52 59 53 44 54 47 55 58 56 74 57 45 58
REMARK SMILES IDX 46 59 57 61 75 62 48 63 35 64 36 65 41 66 37 67 38 68 40 69
REMARK SMILES IDX 42 70 39 71 61 72 62 73 67 74 63 75 64 76 66 77 68 78 65 79
REMARK SMILES IDX 49 80 50 81 55 82 51 83 52 84 54 85 56 86 53 87
REMARK H PARENT 18 5 10 15 9 22 9 23 23 30 73 49 47 60
REMARK Flexibility Score: inf
ROOT
ATOM      1  C   UNL A   1      34.537  34.934  33.200  1.00  0.00     0.116 C 
ENDROOT
BRANCH   1   2
ATOM      2  N   UNL A   1      34.845  34.588  34.572  1.00  0.00    -0.354 N 
ATOM      3  C   UNL A   1      35.881  33.898  35.118  1.00  0.00     0.249 C 
ATOM      4  O   UNL A   1      35.855  33.757  36.348  1.00  0.00    -0.272 OA
ATOM      5  H   UNL A   1      34.186  34.912  35.228  1.00  0.00     0.163 HD
BRANCH   3   6
ATOM      6  C   UNL A   1      37.070  33.328  34.296  1.00  0.00     0.207 C 
ATOM      7  C   UNL A   1      38.707  31.722  34.820  1.00  0.00     0.138 C 
ATOM      8  C   UNL A   1      37.907  31.181  33.654  1.00  0.00     0.037 C 
ATOM      9  O   UNL A   1      38.362  33.127  34.866  1.00  0.00    -0.363 OA
ATOM     10  C   UNL A   1      36.634  31.983  33.713  1.00  0.00     0.045 C 
BRANCH   7  11
ATOM     11  C   UNL A   1      38.411  31.132  36.207  1.00  0.00     0.147 C 
BRANCH  11  12
ATOM     12  N   UNL A   1      38.361  32.034  37.337  1.00  0.00    -0.353 N 
ATOM     13  O   UNL A   1      36.938  30.675  38.518  1.00  0.00    -0.275 OA
ATOM     14  C   UNL A   1      37.694  31.643  38.480  1.00  0.00     0.226 C 
ATOM     15  H   UNL A   1      38.797  32.915  37.292  1.00  0.00     0.163 HD
BRANCH  14  16
ATOM     16  C   UNL A   1      38.003  32.445  39.722  1.00  0.00     0.165 C 
BRANCH  16  17
ATOM     17  C   UNL A   1      36.812  33.189  40.378  1.00  0.00     0.201 C 
ATOM     18  C   UNL A   1      37.197  33.958  41.658  1.00  0.00     0.135 C 
ATOM     19  N   UNL A   1      35.534  32.462  40.497  1.00  0.00    -0.342 N 
ATOM     20  S   UNL A   1      37.420  32.884  43.096  1.00  0.00    -0.150 SA
ATOM     21  C   UNL A   1      35.426  31.536  41.632  1.00  0.00     0.271 C 
ATOM     22  H   UNL A   1      35.400  31.924  39.641  1.00  0.00     0.346 HD
ATOM     23  H   UNL A   1      34.825  33.176  40.655  1.00  0.00     0.346 HD
ATOM     24  C   UNL A   1      35.789  32.075  43.022  1.00  0.00     0.131 C 
ENDBRANCH  16  17
ENDBRANCH  14  16
ENDBRANCH  11  12
ENDBRANCH   7  11
ENDBRANCH   3   6
ENDBRANCH   1   2
BRANCH   1  25
ATOM     25  C   UNL A   1      33.873  36.301  33.085  1.00  0.00     0.023 C 
BRANCH  25  26
ATOM     26  C   UNL A   1      32.943  36.475  31.883  1.00  0.00     0.023 C 
BRANCH  26  27
ATOM     27  C   UNL A   1      33.598  36.370  30.508  1.00  0.00     0.116 C 
BRANCH  27  28
ATOM     28  N   UNL A   1      32.800  35.641  29.534  1.00  0.00    -0.352 N 
ATOM     29  C   UNL A   1      33.111  34.510  28.816  1.00  0.00     0.251 C 
ATOM     30  H   UNL A   1      31.906  36.014  29.363  1.00  0.00     0.163 HD
ATOM     31  O   UNL A   1      32.337  34.087  27.968  1.00  0.00    -0.269 OA
BRANCH  29  32
ATOM     32  C   UNL A   1      34.402  33.824  29.040  1.00  0.00     0.039 A 
ATOM     33  C   UNL A   1      35.469  34.117  28.186  1.00  0.00     0.014 A 
ATOM     34  C   UNL A   1      34.567  32.912  30.084  1.00  0.00     0.014 A 
ATOM     35  C   UNL A   1      36.725  33.558  28.430  1.00  0.00     0.010 A 
ATOM     36  C   UNL A   1      35.834  32.403  30.364  1.00  0.00     0.010 A 
ATOM     37  C   UNL A   1      36.926  32.730  29.545  1.00  0.00    -0.014 A 
BRANCH  37  38
ATOM     38  C   UNL A   1      38.276  32.216  29.886  1.00  0.00     0.031 A 
ATOM     39  C   UNL A   1      38.734  30.883  29.369  1.00  0.00     0.074 A 
ATOM     40  C   UNL A   1      39.057  32.916  30.733  1.00  0.00     0.049 A 
ATOM     41  N   UNL A   1      39.839  30.231  29.628  1.00  0.00    -0.248 NA
ATOM     42  C   UNL A   1      37.817  30.175  28.463  1.00  0.00     0.031 C 
ATOM     43  C   UNL A   1      38.703  34.195  31.353  1.00  0.00     0.029 A 
ATOM     44  N   UNL A   1      40.305  32.640  31.233  1.00  0.00    -0.354 N 
ATOM     45  C   UNL A   1      39.738  29.029  28.940  1.00  0.00     0.074 A 
ATOM     46  C   UNL A   1      38.450  29.025  28.282  1.00  0.00     0.031 C 
ATOM     47  C   UNL A   1      39.714  34.598  32.139  1.00  0.00     0.029 A 
ATOM     48  C   UNL A   1      40.773  33.595  32.102  1.00  0.00     0.049 A 
ATOM     49  H   UNL A   1      40.817  31.835  30.991  1.00  0.00     0.167 HD
ATOM     50  C   UNL A   1      40.646  28.028  28.853  1.00  0.00     0.037 A 
ATOM     51  C   UNL A   1      41.925  33.653  32.797  1.00  0.00     0.037 A 
ATOM     52  C   UNL A   1      41.944  28.051  29.472  1.00  0.00     0.049 A 
ATOM     53  C   UNL A   1      42.931  32.546  32.651  1.00  0.00     0.074 A 
ATOM     54  C   UNL A   1      42.965  27.122  29.370  1.00  0.00     0.029 A 
ATOM     55  N   UNL A   1      42.401  29.058  30.307  1.00  0.00    -0.354 N 
ATOM     56  N   UNL A   1      42.852  31.450  31.936  1.00  0.00    -0.248 NA
ATOM     57  C   UNL A   1      44.185  32.687  33.403  1.00  0.00     0.031 C 
ATOM     58  C   UNL A   1      44.029  27.552  30.169  1.00  0.00     0.029 A 
ATOM     59  C   UNL A   1      43.684  28.766  30.741  1.00  0.00     0.049 A 
ATOM     60  H   UNL A   1      41.890  29.862  30.555  1.00  0.00     0.167 HD
ATOM     61  C   UNL A   1      44.054  30.783  32.133  1.00  0.00     0.074 A 
ATOM     62  C   UNL A   1      44.849  31.603  33.024  1.00  0.00     0.031 C 
ATOM     63  C   UNL A   1      44.463  29.597  31.621  1.00  0.00     0.037 A 
BRANCH  50  64
ATOM     64  C   UNL A   1      40.266  26.821  28.048  1.00  0.00     0.057 A 
ATOM     65  C   UNL A   1      40.742  26.623  26.746  1.00  0.00     0.134 A 
ATOM     66  C   UNL A   1      39.444  25.827  28.596  1.00  0.00     0.134 A 
ATOM     67  F   UNL A   1      41.523  27.544  26.161  1.00  0.00    -0.206 F 
ATOM     68  C   UNL A   1      40.396  25.491  26.007  1.00  0.00     0.040 A 
ATOM     69  C   UNL A   1      39.110  24.681  27.875  1.00  0.00     0.040 A 
ATOM     70  F   UNL A   1      38.959  25.954  29.840  1.00  0.00    -0.206 F 
ATOM     71  C   UNL A   1      39.582  24.512  26.575  1.00  0.00     0.006 A 
ENDBRANCH  50  64
BRANCH  51  72
ATOM     72  C   UNL A   1      42.202  34.813  33.678  1.00  0.00     0.057 A 
ATOM     73  C   UNL A   1      41.880  34.776  35.039  1.00  0.00     0.134 A 
ATOM     74  C   UNL A   1      42.785  35.985  33.182  1.00  0.00     0.134 A 
ATOM     75  F   UNL A   1      41.301  33.686  35.566  1.00  0.00    -0.206 F 
ATOM     76  C   UNL A   1      42.110  35.869  35.875  1.00  0.00     0.040 A 
ATOM     77  C   UNL A   1      43.041  37.079  34.011  1.00  0.00     0.040 A 
ATOM     78  F   UNL A   1      43.123  36.079  31.888  1.00  0.00    -0.206 F 
ATOM     79  C   UNL A   1      42.696  37.024  35.360  1.00  0.00     0.006 A 
ENDBRANCH  51  72
BRANCH  63  80
ATOM     80  C   UNL A   1      45.838  29.130  31.990  1.00  0.00     0.057 A 
ATOM     81  C   UNL A   1      46.962  29.483  31.234  1.00  0.00     0.134 A 
ATOM     82  C   UNL A   1      46.043  28.349  33.134  1.00  0.00     0.134 A 
ATOM     83  F   UNL A   1      46.829  30.218  30.120  1.00  0.00    -0.206 F 
ATOM     84  C   UNL A   1      48.243  29.061  31.595  1.00  0.00     0.040 A 
ATOM     85  C   UNL A   1      47.321  27.938  33.516  1.00  0.00     0.040 A 
ATOM     86  F   UNL A   1      45.007  27.982  33.904  1.00  0.00    -0.206 F 
ATOM     87  C   UNL A   1      48.424  28.291  32.742  1.00  0.00     0.006 A 
ENDBRANCH  63  80
ENDBRANCH  37  38
ENDBRANCH  29  32
ENDBRANCH  27  28
ENDBRANCH  26  27
ENDBRANCH  25  26
ENDBRANCH   1  25
TORSDOF 15
ENDMDL
