MODEL 1
REMARK VINA RESULT:     -12.4      0.000      0.000
REMARK SMILES CN(C)S(=O)(=O)c1cccc(-c2cc(Cl)cc(C(=O)NCCCCNC(=O)c3ccc(-c4c5nc(c(-c6c(F)cccc6F)c6ccc([nH]6)c(-c6c(F)cccc6F)c6nc(c(-c7c(F)cccc7F)c7ccc4[nH]7)C=C6)C=C5)cc3)c2)c1
REMARK SMILES IDX 22 1 21 2 20 3 18 4 19 5 17 7 12 8 13 9 82 10 14 11 15 12
REMARK SMILES IDX 16 13 11 14 7 15 8 16 83 17 9 18 10 19 4 20 5 21 6 22 2 23
REMARK SMILES IDX 1 24 3 25 23 26 24 27 25 28 26 29 27 31 28 32 29 33 81 34
REMARK SMILES IDX 30 35 80 36 31 37 32 38 33 39 74 40 34 41 79 42 73 43 75 44
REMARK SMILES IDX 35 45 78 46 72 47 71 48 36 50 62 51 45 52 61 53 46 54 49 55
REMARK SMILES IDX 60 56 76 57 47 58 48 59 59 61 77 62 50 63 37 64 38 65 43 66
REMARK SMILES IDX 39 67 40 68 42 69 44 70 41 71 63 72 64 73 69 74 65 75 66 76
REMARK SMILES IDX 68 77 70 78 67 79 51 80 52 81 57 82 53 83 54 84 56 85 58 86
REMARK SMILES IDX 55 87
REMARK H PARENT 20 6 25 30 75 49 49 60
REMARK Flexibility Score: inf
ROOT
ATOM      1  C   UNL A   1      36.965  20.362  24.961  1.00  0.00     0.023 C 
ENDROOT
BRANCH   1   2
ATOM      2  C   UNL A   1      37.184  21.669  24.210  1.00  0.00     0.116 C 
BRANCH   2   3
ATOM      3  N   UNL A   1      37.785  22.740  24.994  1.00  0.00    -0.352 N 
ATOM      4  C   UNL A   1      37.211  23.712  25.789  1.00  0.00     0.251 C 
ATOM      5  O   UNL A   1      37.938  24.525  26.358  1.00  0.00    -0.269 OA
ATOM      6  H   UNL A   1      38.768  22.777  24.949  1.00  0.00     0.163 HD
BRANCH   4   7
ATOM      7  C   UNL A   1      35.737  23.842  25.928  1.00  0.00     0.041 A 
ATOM      8  C   UNL A   1      33.720  25.205  25.706  1.00  0.00    -0.016 A 
ATOM      9  C   UNL A   1      33.042  24.289  26.520  1.00  0.00     0.029 A 
ATOM     10  C   UNL A   1      35.035  24.887  25.327  1.00  0.00     0.022 A 
ATOM     11  C   UNL A   1      33.695  23.148  26.997  1.00  0.00     0.042 A 
ATOM     12  Cl  UNL A   1      32.840  22.041  28.001  1.00  0.00    -0.084 Cl
ATOM     13  C   UNL A   1      35.047  22.935  26.733  1.00  0.00     0.034 A 
BRANCH   8  14
ATOM     14  C   UNL A   1      33.202  26.561  25.408  1.00  0.00    -0.017 A 
ATOM     15  C   UNL A   1      31.878  28.022  23.982  1.00  0.00     0.083 A 
ATOM     16  C   UNL A   1      32.594  29.141  24.406  1.00  0.00     0.022 A 
ATOM     17  C   UNL A   1      32.149  26.751  24.500  1.00  0.00     0.030 A 
ATOM     18  C   UNL A   1      33.593  28.980  25.361  1.00  0.00     0.002 A 
ATOM     19  C   UNL A   1      33.897  27.704  25.848  1.00  0.00     0.009 A 
BRANCH  15  20
ATOM     20  S   UNL A   1      30.706  28.192  22.661  1.00  0.00     0.242 S 
ATOM     21  O   UNL A   1      30.827  27.031  21.800  1.00  0.00    -0.207 OA
ATOM     22  O   UNL A   1      30.862  29.530  22.135  1.00  0.00    -0.207 OA
BRANCH  20  23
ATOM     23  N   UNL A   1      29.194  28.090  23.450  1.00  0.00    -0.204 NA
ATOM     24  C   UNL A   1      28.149  28.880  22.756  1.00  0.00     0.124 C 
ATOM     25  C   UNL A   1      28.730  26.715  23.737  1.00  0.00     0.124 C 
ENDBRANCH  20  23
ENDBRANCH  15  20
ENDBRANCH   8  14
ENDBRANCH   4   7
ENDBRANCH   2   3
ENDBRANCH   1   2
BRANCH   1  26
ATOM     26  C   UNL A   1      38.133  19.386  24.998  1.00  0.00     0.023 C 
BRANCH  26  27
ATOM     27  C   UNL A   1      39.377  19.837  25.756  1.00  0.00     0.116 C 
BRANCH  27  28
ATOM     28  N   UNL A   1      40.449  18.855  25.783  1.00  0.00    -0.352 N 
ATOM     29  C   UNL A   1      41.782  18.996  26.095  1.00  0.00     0.251 C 
ATOM     30  H   UNL A   1      40.176  17.940  25.540  1.00  0.00     0.163 HD
ATOM     31  O   UNL A   1      42.531  18.027  26.000  1.00  0.00    -0.269 OA
BRANCH  29  32
ATOM     32  C   UNL A   1      42.341  20.308  26.491  1.00  0.00     0.039 A 
ATOM     33  C   UNL A   1      42.985  21.073  25.512  1.00  0.00     0.014 A 
ATOM     34  C   UNL A   1      42.245  20.794  27.796  1.00  0.00     0.014 A 
ATOM     35  C   UNL A   1      43.442  22.358  25.818  1.00  0.00     0.010 A 
ATOM     36  C   UNL A   1      42.629  22.103  28.081  1.00  0.00     0.010 A 
ATOM     37  C   UNL A   1      43.222  22.902  27.092  1.00  0.00    -0.014 A 
BRANCH  37  38
ATOM     38  C   UNL A   1      43.576  24.314  27.388  1.00  0.00     0.031 A 
ATOM     39  C   UNL A   1      44.997  24.789  27.274  1.00  0.00     0.074 A 
ATOM     40  C   UNL A   1      42.620  25.158  27.822  1.00  0.00     0.049 A 
ATOM     41  N   UNL A   1      45.493  25.976  27.520  1.00  0.00    -0.248 NA
ATOM     42  C   UNL A   1      45.998  23.795  26.856  1.00  0.00     0.031 C 
ATOM     43  C   UNL A   1      41.215  24.805  28.044  1.00  0.00     0.029 A 
ATOM     44  N   UNL A   1      42.685  26.486  28.161  1.00  0.00    -0.354 N 
ATOM     45  C   UNL A   1      46.861  25.867  27.307  1.00  0.00     0.074 A 
ATOM     46  C   UNL A   1      47.124  24.488  26.953  1.00  0.00     0.031 C 
ATOM     47  C   UNL A   1      40.548  25.895  28.455  1.00  0.00     0.029 A 
ATOM     48  C   UNL A   1      41.478  27.015  28.549  1.00  0.00     0.049 A 
ATOM     49  H   UNL A   1      43.517  27.010  28.130  1.00  0.00     0.167 HD
ATOM     50  C   UNL A   1      47.810  26.831  27.376  1.00  0.00     0.037 A 
ATOM     51  C   UNL A   1      41.155  28.265  28.933  1.00  0.00     0.037 A 
ATOM     52  C   UNL A   1      47.545  28.210  27.690  1.00  0.00     0.049 A 
ATOM     53  C   UNL A   1      42.216  29.326  28.959  1.00  0.00     0.074 A 
ATOM     54  C   UNL A   1      48.429  29.276  27.708  1.00  0.00     0.029 A 
ATOM     55  N   UNL A   1      46.303  28.716  28.040  1.00  0.00    -0.354 N 
ATOM     56  N   UNL A   1      43.492  29.224  28.676  1.00  0.00    -0.248 NA
ATOM     57  C   UNL A   1      41.791  30.678  29.349  1.00  0.00     0.031 C 
ATOM     58  C   UNL A   1      47.726  30.422  28.098  1.00  0.00     0.029 A 
ATOM     59  C   UNL A   1      46.398  30.075  28.290  1.00  0.00     0.049 A 
ATOM     60  H   UNL A   1      45.475  28.187  28.102  1.00  0.00     0.167 HD
ATOM     61  C   UNL A   1      44.018  30.500  28.834  1.00  0.00     0.074 A 
ATOM     62  C   UNL A   1      42.919  31.361  29.220  1.00  0.00     0.031 C 
ATOM     63  C   UNL A   1      45.296  30.918  28.673  1.00  0.00     0.037 A 
BRANCH  50  64
ATOM     64  C   UNL A   1      49.226  26.426  27.094  1.00  0.00     0.057 A 
ATOM     65  C   UNL A   1      50.093  26.025  28.118  1.00  0.00     0.134 A 
ATOM     66  C   UNL A   1      49.718  26.409  25.784  1.00  0.00     0.134 A 
ATOM     67  F   UNL A   1      49.685  26.031  29.396  1.00  0.00    -0.206 F 
ATOM     68  C   UNL A   1      51.409  25.644  27.852  1.00  0.00     0.040 A 
ATOM     69  C   UNL A   1      51.025  26.007  25.502  1.00  0.00     0.040 A 
ATOM     70  F   UNL A   1      48.938  26.777  24.757  1.00  0.00    -0.206 F 
ATOM     71  C   UNL A   1      51.876  25.628  26.538  1.00  0.00     0.006 A 
ENDBRANCH  50  64
BRANCH  51  72
ATOM     72  C   UNL A   1      39.751  28.590  29.287  1.00  0.00     0.057 A 
ATOM     73  C   UNL A   1      39.278  28.401  30.590  1.00  0.00     0.134 A 
ATOM     74  C   UNL A   1      38.854  29.091  28.337  1.00  0.00     0.134 A 
ATOM     75  F   UNL A   1      40.088  27.907  31.537  1.00  0.00    -0.206 F 
ATOM     76  C   UNL A   1      37.955  28.684  30.934  1.00  0.00     0.040 A 
ATOM     77  C   UNL A   1      37.535  29.397  28.672  1.00  0.00     0.040 A 
ATOM     78  F   UNL A   1      39.252  29.299  27.074  1.00  0.00    -0.206 F 
ATOM     79  C   UNL A   1      37.081  29.188  29.974  1.00  0.00     0.006 A 
ENDBRANCH  51  72
BRANCH  63  80
ATOM     80  C   UNL A   1      45.568  32.375  28.899  1.00  0.00     0.057 A 
ATOM     81  C   UNL A   1      45.954  32.865  30.152  1.00  0.00     0.134 A 
ATOM     82  C   UNL A   1      45.464  33.293  27.847  1.00  0.00     0.134 A 
ATOM     83  F   UNL A   1      46.057  32.038  31.204  1.00  0.00    -0.206 F 
ATOM     84  C   UNL A   1      46.206  34.223  30.357  1.00  0.00     0.040 A 
ATOM     85  C   UNL A   1      45.733  34.649  28.033  1.00  0.00     0.040 A 
ATOM     86  F   UNL A   1      45.104  32.885  26.621  1.00  0.00    -0.206 F 
ATOM     87  C   UNL A   1      46.100  35.118  29.294  1.00  0.00     0.006 A 
ENDBRANCH  63  80
ENDBRANCH  37  38
ENDBRANCH  29  32
ENDBRANCH  27  28
ENDBRANCH  26  27
ENDBRANCH   1  26
TORSDOF 14
ENDMDL
MODEL 2
REMARK VINA RESULT:     -12.1      1.558      2.209
REMARK SMILES CN(C)S(=O)(=O)c1cccc(-c2cc(Cl)cc(C(=O)NCCCCNC(=O)c3ccc(-c4c5nc(c(-c6c(F)cccc6F)c6ccc([nH]6)c(-c6c(F)cccc6F)c6nc(c(-c7c(F)cccc7F)c7ccc4[nH]7)C=C6)C=C5)cc3)c2)c1
REMARK SMILES IDX 22 1 21 2 20 3 18 4 19 5 17 7 12 8 13 9 82 10 14 11 15 12
REMARK SMILES IDX 16 13 11 14 7 15 8 16 83 17 9 18 10 19 4 20 5 21 6 22 2 23
REMARK SMILES IDX 1 24 3 25 23 26 24 27 25 28 26 29 27 31 28 32 29 33 81 34
REMARK SMILES IDX 30 35 80 36 31 37 32 38 33 39 74 40 34 41 79 42 73 43 75 44
REMARK SMILES IDX 35 45 78 46 72 47 71 48 36 50 62 51 45 52 61 53 46 54 49 55
REMARK SMILES IDX 60 56 76 57 47 58 48 59 59 61 77 62 50 63 37 64 38 65 43 66
REMARK SMILES IDX 39 67 40 68 42 69 44 70 41 71 63 72 64 73 69 74 65 75 66 76
REMARK SMILES IDX 68 77 70 78 67 79 51 80 52 81 57 82 53 83 54 84 56 85 58 86
REMARK SMILES IDX 55 87
REMARK H PARENT 20 6 25 30 75 49 49 60
REMARK Flexibility Score: inf
ROOT
ATOM      1  C   UNL A   1      38.918  22.641  26.286  1.00  0.00     0.023 C 
ENDROOT
BRANCH   1   2
ATOM      2  C   UNL A   1      37.893  23.639  25.762  1.00  0.00     0.116 C 
BRANCH   2   3
ATOM      3  N   UNL A   1      37.428  23.393  24.403  1.00  0.00    -0.352 N 
ATOM      4  C   UNL A   1      36.160  23.430  23.859  1.00  0.00     0.251 C 
ATOM      5  O   UNL A   1      36.014  23.176  22.665  1.00  0.00    -0.269 OA
ATOM      6  H   UNL A   1      38.141  23.161  23.764  1.00  0.00     0.163 HD
BRANCH   4   7
ATOM      7  C   UNL A   1      34.958  23.706  24.690  1.00  0.00     0.041 A 
ATOM      8  C   UNL A   1      33.215  25.262  25.408  1.00  0.00    -0.016 A 
ATOM      9  C   UNL A   1      32.945  24.419  26.493  1.00  0.00     0.029 A 
ATOM     10  C   UNL A   1      34.145  24.814  24.454  1.00  0.00     0.022 A 
ATOM     11  C   UNL A   1      33.648  23.220  26.649  1.00  0.00     0.042 A 
ATOM     12  Cl  UNL A   1      33.301  22.206  27.997  1.00  0.00    -0.084 Cl
ATOM     13  C   UNL A   1      34.675  22.873  25.773  1.00  0.00     0.034 A 
BRANCH   8  14
ATOM     14  C   UNL A   1      32.736  26.662  25.330  1.00  0.00    -0.017 A 
ATOM     15  C   UNL A   1      31.577  28.406  24.089  1.00  0.00     0.083 A 
ATOM     16  C   UNL A   1      32.246  29.402  24.800  1.00  0.00     0.022 A 
ATOM     17  C   UNL A   1      31.788  27.052  24.371  1.00  0.00     0.030 A 
ATOM     18  C   UNL A   1      33.133  29.033  25.805  1.00  0.00     0.002 A 
ATOM     19  C   UNL A   1      33.381  27.679  26.060  1.00  0.00     0.009 A 
BRANCH  15  20
ATOM     20  S   UNL A   1      30.556  28.859  22.710  1.00  0.00     0.242 S 
ATOM     21  O   UNL A   1      30.229  27.652  21.977  1.00  0.00    -0.207 OA
ATOM     22  O   UNL A   1      31.208  29.974  22.059  1.00  0.00    -0.207 OA
BRANCH  20  23
ATOM     23  N   UNL A   1      29.119  29.420  23.443  1.00  0.00    -0.204 NA
ATOM     24  C   UNL A   1      29.053  30.901  23.478  1.00  0.00     0.124 C 
ATOM     25  C   UNL A   1      27.872  28.836  22.902  1.00  0.00     0.124 C 
ENDBRANCH  20  23
ENDBRANCH  15  20
ENDBRANCH   8  14
ENDBRANCH   4   7
ENDBRANCH   2   3
ENDBRANCH   1   2
BRANCH   1  26
ATOM     26  C   UNL A   1      39.056  21.331  25.522  1.00  0.00     0.023 C 
BRANCH  26  27
ATOM     27  C   UNL A   1      39.354  20.085  26.349  1.00  0.00     0.116 C 
BRANCH  27  28
ATOM     28  N   UNL A   1      40.523  19.340  25.908  1.00  0.00    -0.352 N 
ATOM     29  C   UNL A   1      41.859  19.662  25.958  1.00  0.00     0.251 C 
ATOM     30  H   UNL A   1      40.324  18.461  25.510  1.00  0.00     0.163 HD
ATOM     31  O   UNL A   1      42.685  18.895  25.472  1.00  0.00    -0.269 OA
BRANCH  29  32
ATOM     32  C   UNL A   1      42.316  20.945  26.538  1.00  0.00     0.039 A 
ATOM     33  C   UNL A   1      42.761  21.943  25.664  1.00  0.00     0.014 A 
ATOM     34  C   UNL A   1      42.315  21.181  27.914  1.00  0.00     0.014 A 
ATOM     35  C   UNL A   1      43.110  23.202  26.161  1.00  0.00     0.010 A 
ATOM     36  C   UNL A   1      42.586  22.459  28.402  1.00  0.00     0.010 A 
ATOM     37  C   UNL A   1      42.977  23.485  27.529  1.00  0.00    -0.014 A 
BRANCH  37  38
ATOM     38  C   UNL A   1      43.210  24.857  28.048  1.00  0.00     0.031 A 
ATOM     39  C   UNL A   1      44.592  25.312  28.422  1.00  0.00     0.074 A 
ATOM     40  C   UNL A   1      42.158  25.677  28.242  1.00  0.00     0.049 A 
ATOM     41  N   UNL A   1      44.977  26.462  28.917  1.00  0.00    -0.248 NA
ATOM     42  C   UNL A   1      45.682  24.341  28.243  1.00  0.00     0.031 C 
ATOM     43  C   UNL A   1      40.757  25.333  27.987  1.00  0.00     0.029 A 
ATOM     44  N   UNL A   1      42.103  26.967  28.706  1.00  0.00    -0.354 N 
ATOM     45  C   UNL A   1      46.345  26.346  29.127  1.00  0.00     0.074 A 
ATOM     46  C   UNL A   1      46.716  25.000  28.746  1.00  0.00     0.031 C 
ATOM     47  C   UNL A   1      39.986  26.394  28.270  1.00  0.00     0.029 A 
ATOM     48  C   UNL A   1      40.831  27.483  28.750  1.00  0.00     0.049 A 
ATOM     49  H   UNL A   1      42.900  27.476  28.980  1.00  0.00     0.167 HD
ATOM     50  C   UNL A   1      47.217  27.281  29.573  1.00  0.00     0.037 A 
ATOM     51  C   UNL A   1      40.394  28.699  29.129  1.00  0.00     0.037 A 
ATOM     52  C   UNL A   1      46.855  28.631  29.917  1.00  0.00     0.049 A 
ATOM     53  C   UNL A   1      41.385  29.732  29.578  1.00  0.00     0.074 A 
ATOM     54  C   UNL A   1      47.681  29.673  30.303  1.00  0.00     0.029 A 
ATOM     55  N   UNL A   1      45.561  29.127  29.911  1.00  0.00    -0.354 N 
ATOM     56  N   UNL A   1      42.686  29.632  29.694  1.00  0.00    -0.248 NA
ATOM     57  C   UNL A   1      40.847  31.051  29.940  1.00  0.00     0.031 C 
ATOM     58  C   UNL A   1      46.880  30.793  30.562  1.00  0.00     0.029 A 
ATOM     59  C   UNL A   1      45.562  30.456  30.303  1.00  0.00     0.049 A 
ATOM     60  H   UNL A   1      44.759  28.611  29.666  1.00  0.00     0.167 HD
ATOM     61  C   UNL A   1      43.126  30.877  30.123  1.00  0.00     0.074 A 
ATOM     62  C   UNL A   1      41.954  31.721  30.229  1.00  0.00     0.031 C 
ATOM     63  C   UNL A   1      44.388  31.283  30.403  1.00  0.00     0.037 A 
BRANCH  50  64
ATOM     64  C   UNL A   1      48.654  26.875  29.705  1.00  0.00     0.057 A 
ATOM     65  C   UNL A   1      49.563  27.033  28.651  1.00  0.00     0.134 A 
ATOM     66  C   UNL A   1      49.142  26.348  30.907  1.00  0.00     0.134 A 
ATOM     67  F   UNL A   1      49.154  27.521  27.469  1.00  0.00    -0.206 F 
ATOM     68  C   UNL A   1      50.901  26.659  28.779  1.00  0.00     0.040 A 
ATOM     69  C   UNL A   1      50.484  25.992  31.055  1.00  0.00     0.040 A 
ATOM     70  F   UNL A   1      48.326  26.176  31.957  1.00  0.00    -0.206 F 
ATOM     71  C   UNL A   1      51.366  26.142  29.987  1.00  0.00     0.006 A 
ENDBRANCH  50  64
BRANCH  51  72
ATOM     72  C   UNL A   1      38.946  29.019  29.061  1.00  0.00     0.057 A 
ATOM     73  C   UNL A   1      38.362  29.450  27.864  1.00  0.00     0.134 A 
ATOM     74  C   UNL A   1      38.118  28.905  30.183  1.00  0.00     0.134 A 
ATOM     75  F   UNL A   1      39.111  29.594  26.762  1.00  0.00    -0.206 F 
ATOM     76  C   UNL A   1      37.006  29.772  27.788  1.00  0.00     0.040 A 
ATOM     77  C   UNL A   1      36.757  29.205  30.116  1.00  0.00     0.040 A 
ATOM     78  F   UNL A   1      38.619  28.491  31.355  1.00  0.00    -0.206 F 
ATOM     79  C   UNL A   1      36.199  29.647  28.916  1.00  0.00     0.006 A 
ENDBRANCH  51  72
BRANCH  63  80
ATOM     80  C   UNL A   1      44.563  32.707  30.835  1.00  0.00     0.057 A 
ATOM     81  C   UNL A   1      44.545  33.073  32.186  1.00  0.00     0.134 A 
ATOM     82  C   UNL A   1      44.775  33.720  29.891  1.00  0.00     0.134 A 
ATOM     83  F   UNL A   1      44.331  32.152  33.137  1.00  0.00    -0.206 F 
ATOM     84  C   UNL A   1      44.708  34.402  32.583  1.00  0.00     0.040 A 
ATOM     85  C   UNL A   1      44.961  35.047  30.275  1.00  0.00     0.040 A 
ATOM     86  F   UNL A   1      44.809  33.432  28.581  1.00  0.00    -0.206 F 
ATOM     87  C   UNL A   1      44.922  35.392  31.626  1.00  0.00     0.006 A 
ENDBRANCH  63  80
ENDBRANCH  37  38
ENDBRANCH  29  32
ENDBRANCH  27  28
ENDBRANCH  26  27
ENDBRANCH   1  26
TORSDOF 14
ENDMDL
MODEL 3
REMARK VINA RESULT:     -12.0      1.632      6.486
REMARK SMILES CN(C)S(=O)(=O)c1cccc(-c2cc(Cl)cc(C(=O)NCCCCNC(=O)c3ccc(-c4c5nc(c(-c6c(F)cccc6F)c6ccc([nH]6)c(-c6c(F)cccc6F)c6nc(c(-c7c(F)cccc7F)c7ccc4[nH]7)C=C6)C=C5)cc3)c2)c1
REMARK SMILES IDX 22 1 21 2 20 3 18 4 19 5 17 7 12 8 13 9 82 10 14 11 15 12
REMARK SMILES IDX 16 13 11 14 7 15 8 16 83 17 9 18 10 19 4 20 5 21 6 22 2 23
REMARK SMILES IDX 1 24 3 25 23 26 24 27 25 28 26 29 27 31 28 32 29 33 81 34
REMARK SMILES IDX 30 35 80 36 31 37 32 38 33 39 74 40 34 41 79 42 73 43 75 44
REMARK SMILES IDX 35 45 78 46 72 47 71 48 36 50 62 51 45 52 61 53 46 54 49 55
REMARK SMILES IDX 60 56 76 57 47 58 48 59 59 61 77 62 50 63 37 64 38 65 43 66
REMARK SMILES IDX 39 67 40 68 42 69 44 70 41 71 63 72 64 73 69 74 65 75 66 76
REMARK SMILES IDX 68 77 70 78 67 79 51 80 52 81 57 82 53 83 54 84 56 85 58 86
REMARK SMILES IDX 55 87
REMARK H PARENT 20 6 25 30 75 49 49 60
REMARK Flexibility Score: inf
ROOT
ATOM      1  C   UNL A   1      37.271  21.281  24.373  1.00  0.00     0.023 C 
ENDROOT
BRANCH   1   2
ATOM      2  C   UNL A   1      37.047  22.462  25.309  1.00  0.00     0.116 C 
BRANCH   2   3
ATOM      3  N   UNL A   1      36.131  22.210  26.414  1.00  0.00    -0.352 N 
ATOM      4  C   UNL A   1      34.757  22.084  26.441  1.00  0.00     0.251 C 
ATOM      5  O   UNL A   1      34.196  21.874  27.515  1.00  0.00    -0.269 OA
ATOM      6  H   UNL A   1      36.567  22.114  27.292  1.00  0.00     0.163 HD
BRANCH   4   7
ATOM      7  C   UNL A   1      33.930  22.256  25.217  1.00  0.00     0.041 A 
ATOM      8  C   UNL A   1      32.463  23.660  23.855  1.00  0.00    -0.016 A 
ATOM      9  C   UNL A   1      32.063  22.517  23.153  1.00  0.00     0.029 A 
ATOM     10  C   UNL A   1      33.493  23.513  24.801  1.00  0.00     0.022 A 
ATOM     11  C   UNL A   1      32.619  21.269  23.457  1.00  0.00     0.042 A 
ATOM     12  Cl  UNL A   1      32.103  19.878  22.582  1.00  0.00    -0.084 Cl
ATOM     13  C   UNL A   1      33.526  21.126  24.505  1.00  0.00     0.034 A 
BRANCH   8  14
ATOM     14  C   UNL A   1      31.726  24.944  23.801  1.00  0.00    -0.017 A 
ATOM     15  C   UNL A   1      31.629  27.319  24.324  1.00  0.00     0.083 A 
ATOM     16  C   UNL A   1      30.235  27.310  24.260  1.00  0.00     0.022 A 
ATOM     17  C   UNL A   1      32.372  26.163  24.063  1.00  0.00     0.030 A 
ATOM     18  C   UNL A   1      29.583  26.127  23.928  1.00  0.00     0.002 A 
ATOM     19  C   UNL A   1      30.321  24.957  23.710  1.00  0.00     0.009 A 
BRANCH  15  20
ATOM     20  S   UNL A   1      32.462  28.780  24.888  1.00  0.00     0.242 S 
ATOM     21  O   UNL A   1      31.489  29.853  24.962  1.00  0.00    -0.207 OA
ATOM     22  O   UNL A   1      33.658  28.912  24.086  1.00  0.00    -0.207 OA
BRANCH  20  23
ATOM     23  N   UNL A   1      32.918  28.390  26.487  1.00  0.00    -0.204 NA
ATOM     24  C   UNL A   1      33.655  29.497  27.142  1.00  0.00     0.124 C 
ATOM     25  C   UNL A   1      31.822  27.889  27.345  1.00  0.00     0.124 C 
ENDBRANCH  20  23
ENDBRANCH  15  20
ENDBRANCH   8  14
ENDBRANCH   4   7
ENDBRANCH   2   3
ENDBRANCH   1   2
BRANCH   1  26
ATOM     26  C   UNL A   1      37.898  20.032  24.978  1.00  0.00     0.023 C 
BRANCH  26  27
ATOM     27  C   UNL A   1      39.063  20.249  25.938  1.00  0.00     0.116 C 
BRANCH  27  28
ATOM     28  N   UNL A   1      40.104  19.237  25.854  1.00  0.00    -0.352 N 
ATOM     29  C   UNL A   1      41.455  19.322  26.094  1.00  0.00     0.251 C 
ATOM     30  H   UNL A   1      39.789  18.344  25.580  1.00  0.00     0.163 HD
ATOM     31  O   UNL A   1      42.167  18.339  25.907  1.00  0.00    -0.269 OA
BRANCH  29  32
ATOM     32  C   UNL A   1      42.077  20.595  26.524  1.00  0.00     0.039 A 
ATOM     33  C   UNL A   1      42.640  21.418  25.542  1.00  0.00     0.014 A 
ATOM     34  C   UNL A   1      42.116  20.989  27.862  1.00  0.00     0.014 A 
ATOM     35  C   UNL A   1      43.151  22.672  25.891  1.00  0.00     0.010 A 
ATOM     36  C   UNL A   1      42.553  22.270  28.199  1.00  0.00     0.010 A 
ATOM     37  C   UNL A   1      43.065  23.128  27.215  1.00  0.00    -0.014 A 
BRANCH  37  38
ATOM     38  C   UNL A   1      43.476  24.510  27.571  1.00  0.00     0.031 A 
ATOM     39  C   UNL A   1      42.451  25.542  27.948  1.00  0.00     0.074 A 
ATOM     40  C   UNL A   1      44.777  24.853  27.494  1.00  0.00     0.049 A 
ATOM     41  N   UNL A   1      42.625  26.802  28.260  1.00  0.00    -0.248 NA
ATOM     42  C   UNL A   1      41.044  25.113  27.949  1.00  0.00     0.031 C 
ATOM     43  C   UNL A   1      45.863  23.965  27.073  1.00  0.00     0.029 A 
ATOM     44  N   UNL A   1      45.406  26.043  27.761  1.00  0.00    -0.354 N 
ATOM     45  C   UNL A   1      41.354  27.319  28.474  1.00  0.00     0.074 A 
ATOM     46  C   UNL A   1      40.415  26.249  28.214  1.00  0.00     0.031 C 
ATOM     47  C   UNL A   1      47.026  24.633  27.137  1.00  0.00     0.029 A 
ATOM     48  C   UNL A   1      46.766  26.000  27.578  1.00  0.00     0.049 A 
ATOM     49  H   UNL A   1      44.928  26.851  28.056  1.00  0.00     0.167 HD
ATOM     50  C   UNL A   1      41.001  28.565  28.872  1.00  0.00     0.037 A 
ATOM     51  C   UNL A   1      47.702  26.952  27.752  1.00  0.00     0.037 A 
ATOM     52  C   UNL A   1      41.934  29.619  29.167  1.00  0.00     0.049 A 
ATOM     53  C   UNL A   1      47.289  28.311  28.237  1.00  0.00     0.074 A 
ATOM     54  C   UNL A   1      41.676  30.890  29.652  1.00  0.00     0.029 A 
ATOM     55  N   UNL A   1      43.308  29.525  29.007  1.00  0.00    -0.354 N 
ATOM     56  N   UNL A   1      46.089  28.760  28.512  1.00  0.00    -0.248 NA
ATOM     57  C   UNL A   1      48.363  29.294  28.444  1.00  0.00     0.031 C 
ATOM     58  C   UNL A   1      42.892  31.575  29.757  1.00  0.00     0.029 A 
ATOM     59  C   UNL A   1      43.910  30.719  29.369  1.00  0.00     0.049 A 
ATOM     60  H   UNL A   1      43.786  28.727  28.682  1.00  0.00     0.167 HD
ATOM     61  C   UNL A   1      46.263  30.069  28.942  1.00  0.00     0.074 A 
ATOM     62  C   UNL A   1      47.687  30.335  28.909  1.00  0.00     0.031 C 
ATOM     63  C   UNL A   1      45.328  30.968  29.330  1.00  0.00     0.037 A 
BRANCH  50  64
ATOM     64  C   UNL A   1      39.536  28.850  29.023  1.00  0.00     0.057 A 
ATOM     65  C   UNL A   1      38.883  28.710  30.255  1.00  0.00     0.134 A 
ATOM     66  C   UNL A   1      38.778  29.296  27.935  1.00  0.00     0.134 A 
ATOM     67  F   UNL A   1      39.552  28.274  31.333  1.00  0.00    -0.206 F 
ATOM     68  C   UNL A   1      37.521  28.981  30.392  1.00  0.00     0.040 A 
ATOM     69  C   UNL A   1      37.420  29.593  28.066  1.00  0.00     0.040 A 
ATOM     70  F   UNL A   1      39.343  29.456  26.729  1.00  0.00    -0.206 F 
ATOM     71  C   UNL A   1      36.787  29.431  29.296  1.00  0.00     0.006 A 
ENDBRANCH  50  64
BRANCH  51  72
ATOM     72  C   UNL A   1      49.131  26.640  27.503  1.00  0.00     0.057 A 
ATOM     73  C   UNL A   1      49.715  26.899  26.258  1.00  0.00     0.134 A 
ATOM     74  C   UNL A   1      49.941  26.075  28.495  1.00  0.00     0.134 A 
ATOM     75  F   UNL A   1      48.983  27.423  25.265  1.00  0.00    -0.206 F 
ATOM     76  C   UNL A   1      51.053  26.594  26.002  1.00  0.00     0.040 A 
ATOM     77  C   UNL A   1      51.284  25.783  28.258  1.00  0.00     0.040 A 
ATOM     78  F   UNL A   1      49.438  25.810  29.709  1.00  0.00    -0.206 F 
ATOM     79  C   UNL A   1      51.842  26.037  27.006  1.00  0.00     0.006 A 
ENDBRANCH  51  72
BRANCH  63  80
ATOM     80  C   UNL A   1      45.818  32.315  29.765  1.00  0.00     0.057 A 
ATOM     81  C   UNL A   1      45.943  33.379  28.863  1.00  0.00     0.134 A 
ATOM     82  C   UNL A   1      46.149  32.558  31.104  1.00  0.00     0.134 A 
ATOM     83  F   UNL A   1      45.656  33.205  27.564  1.00  0.00    -0.206 F 
ATOM     84  C   UNL A   1      46.401  34.632  29.273  1.00  0.00     0.040 A 
ATOM     85  C   UNL A   1      46.587  33.812  31.531  1.00  0.00     0.040 A 
ATOM     86  F   UNL A   1      46.046  31.582  32.018  1.00  0.00    -0.206 F 
ATOM     87  C   UNL A   1      46.720  34.852  30.612  1.00  0.00     0.006 A 
ENDBRANCH  63  80
ENDBRANCH  37  38
ENDBRANCH  29  32
ENDBRANCH  27  28
ENDBRANCH  26  27
ENDBRANCH   1  26
TORSDOF 14
ENDMDL
