MODEL 1
REMARK VINA RESULT:     -11.5      0.000      0.000
REMARK SMILES CCc1cc(OC(F)(F)F)cc2c1O[C@H](C(F)(F)F)C(C(=O)NCCCCNC(=O)c1ccc(-c3c4nc(c(-c5c(F)cccc5F)c5ccc([nH]5)c(-c5c(F)cccc5F)c5nc(c(-c6c(F)cccc6F)c6ccc3[nH]6)C=C5)C=C4)cc1)=C2
REMARK SMILES IDX 25 1 24 2 23 3 21 4 22 5 20 7 3 8 4 9 13 10 5 11 12 12 14 13
REMARK SMILES IDX 11 14 85 15 15 16 2 17 1 18 6 19 7 20 8 21 9 22 10 23 16 24
REMARK SMILES IDX 17 25 18 26 19 27 26 28 27 29 28 30 29 31 30 33 31 34 32 35
REMARK SMILES IDX 84 36 33 37 83 38 34 39 35 40 36 41 77 42 37 43 82 44 76 45
REMARK SMILES IDX 78 46 38 47 81 48 75 49 74 50 39 52 65 53 48 54 64 55 49 56
REMARK SMILES IDX 52 57 63 58 79 59 50 60 51 61 62 63 80 64 53 65 40 66 41 67
REMARK SMILES IDX 46 68 42 69 43 70 45 71 47 72 44 73 66 74 67 75 72 76 68 77
REMARK SMILES IDX 69 78 71 79 73 80 70 81 54 82 55 83 60 84 56 85 57 86 59 87
REMARK SMILES IDX 61 88 58 89
REMARK H PARENT 23 6 28 32 78 51 52 62
REMARK Flexibility Score: inf
ROOT
ATOM      1  C   UNL A   1      35.159  22.200  25.872  1.00  0.00     0.023 C 
ENDROOT
BRANCH   1   2
ATOM      2  C   UNL A   1      33.823  22.435  25.163  1.00  0.00     0.116 C 
BRANCH   2   3
ATOM      3  N   UNL A   1      34.013  22.539  23.730  1.00  0.00    -0.352 N 
ATOM      4  C   UNL A   1      33.744  23.521  22.834  1.00  0.00     0.251 C 
ATOM      5  O   UNL A   1      34.067  23.315  21.665  1.00  0.00    -0.270 OA
ATOM      6  H   UNL A   1      34.417  21.738  23.326  1.00  0.00     0.163 HD
BRANCH   4   7
ATOM      7  C   UNL A   1      33.170  24.849  23.202  1.00  0.00     0.067 C 
ATOM      8  C   UNL A   1      31.370  28.641  23.479  1.00  0.00    -0.002 A 
ATOM      9  C   UNL A   1      31.916  29.592  24.363  1.00  0.00     0.054 A 
ATOM     10  C   UNL A   1      31.969  27.377  23.381  1.00  0.00     0.131 A 
ATOM     11  C   UNL A   1      33.031  29.284  25.143  1.00  0.00     0.130 A 
ATOM     12  C   UNL A   1      33.072  27.055  24.170  1.00  0.00     0.021 A 
ATOM     13  O   UNL A   1      31.484  26.513  22.437  1.00  0.00    -0.475 OA
ATOM     14  C   UNL A   1      33.597  28.009  25.049  1.00  0.00     0.058 A 
ATOM     15  C   UNL A   1      33.730  25.764  24.006  1.00  0.00     0.025 C 
ATOM     16  C   UNL A   1      31.784  25.102  22.626  1.00  0.00     0.314 C 
BRANCH   8  17
ATOM     17  C   UNL A   1      30.170  29.011  22.639  1.00  0.00     0.036 C 
ATOM     18  C   UNL A   1      28.873  28.482  23.230  1.00  0.00     0.009 C 
ENDBRANCH   8  17
BRANCH  11  19
ATOM     19  O   UNL A   1      33.673  30.117  26.014  1.00  0.00    -0.406 OA
BRANCH  19  20
ATOM     20  C   UNL A   1      33.008  30.458  27.219  1.00  0.00     0.573 C 
ATOM     21  F   UNL A   1      32.151  29.486  27.596  1.00  0.00    -0.132 F 
ATOM     22  F   UNL A   1      33.892  30.692  28.211  1.00  0.00    -0.132 F 
ATOM     23  F   UNL A   1      32.297  31.589  27.013  1.00  0.00    -0.132 F 
ENDBRANCH  19  20
ENDBRANCH  11  19
BRANCH  16  24
ATOM     24  C   UNL A   1      30.664  24.439  23.457  1.00  0.00     0.429 C 
ATOM     25  F   UNL A   1      30.305  23.224  22.990  1.00  0.00    -0.167 F 
ATOM     26  F   UNL A   1      31.021  24.278  24.756  1.00  0.00    -0.167 F 
ATOM     27  F   UNL A   1      29.538  25.197  23.451  1.00  0.00    -0.167 F 
ENDBRANCH  16  24
ENDBRANCH   4   7
ENDBRANCH   2   3
ENDBRANCH   1   2
BRANCH   1  28
ATOM     28  C   UNL A   1      35.973  23.474  26.115  1.00  0.00     0.023 C 
BRANCH  28  29
ATOM     29  C   UNL A   1      37.141  23.679  25.157  1.00  0.00     0.116 C 
BRANCH  29  30
ATOM     30  N   UNL A   1      38.256  22.779  25.404  1.00  0.00    -0.352 N 
ATOM     31  C   UNL A   1      39.402  23.019  26.125  1.00  0.00     0.251 C 
ATOM     32  H   UNL A   1      38.180  21.882  25.005  1.00  0.00     0.163 HD
ATOM     33  O   UNL A   1      40.298  22.189  26.164  1.00  0.00    -0.269 OA
BRANCH  31  34
ATOM     34  C   UNL A   1      39.556  24.318  26.811  1.00  0.00     0.039 A 
ATOM     35  C   UNL A   1      39.022  24.466  28.092  1.00  0.00     0.014 A 
ATOM     36  C   UNL A   1      40.258  25.365  26.208  1.00  0.00     0.014 A 
ATOM     37  C   UNL A   1      39.255  25.644  28.803  1.00  0.00     0.010 A 
ATOM     38  C   UNL A   1      40.544  26.511  26.940  1.00  0.00     0.010 A 
ATOM     39  C   UNL A   1      40.049  26.660  28.245  1.00  0.00    -0.014 A 
BRANCH  39  40
ATOM     40  C   UNL A   1      40.381  27.883  29.014  1.00  0.00     0.031 A 
ATOM     41  C   UNL A   1      41.699  27.992  29.725  1.00  0.00     0.074 A 
ATOM     42  C   UNL A   1      39.464  28.863  29.133  1.00  0.00     0.049 A 
ATOM     43  N   UNL A   1      42.142  28.944  30.505  1.00  0.00    -0.248 NA
ATOM     44  C   UNL A   1      42.635  26.868  29.558  1.00  0.00     0.031 C 
ATOM     45  C   UNL A   1      38.128  28.850  28.533  1.00  0.00     0.029 A 
ATOM     46  N   UNL A   1      39.514  30.056  29.808  1.00  0.00    -0.354 N 
ATOM     47  C   UNL A   1      43.395  28.527  30.935  1.00  0.00     0.074 A 
ATOM     48  C   UNL A   1      43.622  27.216  30.368  1.00  0.00     0.031 C 
ATOM     49  C   UNL A   1      37.493  29.989  28.852  1.00  0.00     0.029 A 
ATOM     50  C   UNL A   1      38.362  30.796  29.702  1.00  0.00     0.049 A 
ATOM     51  H   UNL A   1      40.300  30.352  30.320  1.00  0.00     0.167 HD
ATOM     52  C   UNL A   1      44.284  29.189  31.712  1.00  0.00     0.037 A 
ATOM     53  C   UNL A   1      38.043  31.991  30.235  1.00  0.00     0.037 A 
ATOM     54  C   UNL A   1      44.067  30.506  32.249  1.00  0.00     0.049 A 
ATOM     55  C   UNL A   1      39.052  32.709  31.086  1.00  0.00     0.074 A 
ATOM     56  C   UNL A   1      44.933  31.287  32.994  1.00  0.00     0.029 A 
ATOM     57  N   UNL A   1      42.898  31.236  32.097  1.00  0.00    -0.354 N 
ATOM     58  N   UNL A   1      40.260  32.334  31.429  1.00  0.00    -0.248 NA
ATOM     59  C   UNL A   1      38.654  34.019  31.620  1.00  0.00     0.031 C 
ATOM     60  C   UNL A   1      44.275  32.477  33.323  1.00  0.00     0.029 A 
ATOM     61  C   UNL A   1      43.014  32.453  32.749  1.00  0.00     0.049 A 
ATOM     62  H   UNL A   1      42.104  30.934  31.599  1.00  0.00     0.167 HD
ATOM     63  C   UNL A   1      40.777  33.370  32.194  1.00  0.00     0.074 A 
ATOM     64  C   UNL A   1      39.755  34.394  32.256  1.00  0.00     0.031 C 
ATOM     65  C   UNL A   1      41.989  33.465  32.793  1.00  0.00     0.037 A 
BRANCH  52  66
ATOM     66  C   UNL A   1      45.579  28.496  32.020  1.00  0.00     0.057 A 
ATOM     67  C   UNL A   1      45.726  27.674  33.146  1.00  0.00     0.134 A 
ATOM     68  C   UNL A   1      46.683  28.632  31.171  1.00  0.00     0.134 A 
ATOM     69  F   UNL A   1      44.708  27.513  34.006  1.00  0.00    -0.206 F 
ATOM     70  C   UNL A   1      46.932  27.032  33.429  1.00  0.00     0.040 A 
ATOM     71  C   UNL A   1      47.888  27.975  31.430  1.00  0.00     0.040 A 
ATOM     72  F   UNL A   1      46.610  29.400  30.074  1.00  0.00    -0.206 F 
ATOM     73  C   UNL A   1      48.016  27.177  32.566  1.00  0.00     0.006 A 
ENDBRANCH  52  66
BRANCH  53  74
ATOM     74  C   UNL A   1      36.718  32.598  29.955  1.00  0.00     0.057 A 
ATOM     75  C   UNL A   1      36.522  33.409  28.831  1.00  0.00     0.134 A 
ATOM     76  C   UNL A   1      35.622  32.388  30.799  1.00  0.00     0.134 A 
ATOM     77  F   UNL A   1      37.540  33.662  27.996  1.00  0.00    -0.206 F 
ATOM     78  C   UNL A   1      35.288  34.006  28.567  1.00  0.00     0.040 A 
ATOM     79  C   UNL A   1      34.376  32.959  30.534  1.00  0.00     0.040 A 
ATOM     80  F   UNL A   1      35.745  31.612  31.887  1.00  0.00    -0.206 F 
ATOM     81  C   UNL A   1      34.209  33.777  29.418  1.00  0.00     0.006 A 
ENDBRANCH  53  74
BRANCH  65  82
ATOM     82  C   UNL A   1      42.288  34.730  33.538  1.00  0.00     0.057 A 
ATOM     83  C   UNL A   1      42.004  34.867  34.902  1.00  0.00     0.134 A 
ATOM     84  C   UNL A   1      42.903  35.809  32.891  1.00  0.00     0.134 A 
ATOM     85  F   UNL A   1      41.403  33.875  35.575  1.00  0.00    -0.206 F 
ATOM     86  C   UNL A   1      42.304  36.042  35.593  1.00  0.00     0.040 A 
ATOM     87  C   UNL A   1      43.229  36.980  33.576  1.00  0.00     0.040 A 
ATOM     88  F   UNL A   1      43.207  35.738  31.587  1.00  0.00    -0.206 F 
ATOM     89  C   UNL A   1      42.926  37.100  34.931  1.00  0.00     0.006 A 
ENDBRANCH  65  82
ENDBRANCH  39  40
ENDBRANCH  31  34
ENDBRANCH  29  30
ENDBRANCH  28  29
ENDBRANCH   1  28
TORSDOF 15
ENDMDL
MODEL 2
REMARK VINA RESULT:     -11.4      2.837      4.332
REMARK SMILES CCc1cc(OC(F)(F)F)cc2c1O[C@H](C(F)(F)F)C(C(=O)NCCCCNC(=O)c1ccc(-c3c4nc(c(-c5c(F)cccc5F)c5ccc([nH]5)c(-c5c(F)cccc5F)c5nc(c(-c6c(F)cccc6F)c6ccc3[nH]6)C=C5)C=C4)cc1)=C2
REMARK SMILES IDX 25 1 24 2 23 3 21 4 22 5 20 7 3 8 4 9 13 10 5 11 12 12 14 13
REMARK SMILES IDX 11 14 85 15 15 16 2 17 1 18 6 19 7 20 8 21 9 22 10 23 16 24
REMARK SMILES IDX 17 25 18 26 19 27 26 28 27 29 28 30 29 31 30 33 31 34 32 35
REMARK SMILES IDX 84 36 33 37 83 38 34 39 35 40 36 41 77 42 37 43 82 44 76 45
REMARK SMILES IDX 78 46 38 47 81 48 75 49 74 50 39 52 65 53 48 54 64 55 49 56
REMARK SMILES IDX 52 57 63 58 79 59 50 60 51 61 62 63 80 64 53 65 40 66 41 67
REMARK SMILES IDX 46 68 42 69 43 70 45 71 47 72 44 73 66 74 67 75 72 76 68 77
REMARK SMILES IDX 69 78 71 79 73 80 70 81 54 82 55 83 60 84 56 85 57 86 59 87
REMARK SMILES IDX 61 88 58 89
REMARK H PARENT 23 6 28 32 78 51 52 62
REMARK Flexibility Score: inf
ROOT
ATOM      1  C   UNL A   1      38.868  22.630  26.580  1.00  0.00     0.023 C 
ENDROOT
BRANCH   1   2
ATOM      2  C   UNL A   1      38.060  23.725  25.880  1.00  0.00     0.116 C 
BRANCH   2   3
ATOM      3  N   UNL A   1      37.682  23.310  24.544  1.00  0.00    -0.352 N 
ATOM      4  C   UNL A   1      36.486  23.221  23.911  1.00  0.00     0.251 C 
ATOM      5  O   UNL A   1      36.501  22.864  22.734  1.00  0.00    -0.270 OA
ATOM      6  H   UNL A   1      38.445  23.040  23.984  1.00  0.00     0.163 HD
BRANCH   4   7
ATOM      7  C   UNL A   1      35.185  23.614  24.530  1.00  0.00     0.067 C 
ATOM      8  C   UNL A   1      31.219  24.152  25.827  1.00  0.00    -0.002 A 
ATOM      9  C   UNL A   1      30.762  25.456  26.099  1.00  0.00     0.054 A 
ATOM     10  C   UNL A   1      32.540  23.968  25.391  1.00  0.00     0.131 A 
ATOM     11  C   UNL A   1      31.609  26.555  25.950  1.00  0.00     0.130 A 
ATOM     12  C   UNL A   1      33.398  25.059  25.258  1.00  0.00     0.021 A 
ATOM     13  O   UNL A   1      32.923  22.705  25.031  1.00  0.00    -0.475 OA
ATOM     14  C   UNL A   1      32.930  26.347  25.540  1.00  0.00     0.058 A 
ATOM     15  C   UNL A   1      34.745  24.863  24.734  1.00  0.00     0.025 C 
ATOM     16  C   UNL A   1      34.352  22.434  25.012  1.00  0.00     0.314 C 
BRANCH   8  17
ATOM     17  C   UNL A   1      30.273  22.985  25.984  1.00  0.00     0.036 C 
ATOM     18  C   UNL A   1      29.550  23.012  27.321  1.00  0.00     0.009 C 
ENDBRANCH   8  17
BRANCH  11  19
ATOM     19  O   UNL A   1      31.288  27.867  26.153  1.00  0.00    -0.406 OA
BRANCH  19  20
ATOM     20  C   UNL A   1      31.847  28.521  27.279  1.00  0.00     0.573 C 
ATOM     21  F   UNL A   1      33.195  28.455  27.264  1.00  0.00    -0.132 F 
ATOM     22  F   UNL A   1      31.457  29.812  27.333  1.00  0.00    -0.132 F 
ATOM     23  F   UNL A   1      31.408  27.902  28.398  1.00  0.00    -0.132 F 
ENDBRANCH  19  20
ENDBRANCH  11  19
BRANCH  16  24
ATOM     24  C   UNL A   1      34.801  21.914  26.394  1.00  0.00     0.429 C 
ATOM     25  F   UNL A   1      35.899  21.131  26.336  1.00  0.00    -0.167 F 
ATOM     26  F   UNL A   1      35.077  22.926  27.255  1.00  0.00    -0.167 F 
ATOM     27  F   UNL A   1      33.829  21.163  26.973  1.00  0.00    -0.167 F 
ENDBRANCH  16  24
ENDBRANCH   4   7
ENDBRANCH   2   3
ENDBRANCH   1   2
BRANCH   1  28
ATOM     28  C   UNL A   1      39.164  21.411  25.702  1.00  0.00     0.023 C 
BRANCH  28  29
ATOM     29  C   UNL A   1      39.501  20.137  26.469  1.00  0.00     0.116 C 
BRANCH  29  30
ATOM     30  N   UNL A   1      40.615  19.397  25.900  1.00  0.00    -0.352 N 
ATOM     31  C   UNL A   1      41.934  19.775  25.812  1.00  0.00     0.251 C 
ATOM     32  H   UNL A   1      40.398  18.511  25.532  1.00  0.00     0.163 HD
ATOM     33  O   UNL A   1      42.743  19.080  25.216  1.00  0.00    -0.269 OA
BRANCH  31  34
ATOM     34  C   UNL A   1      42.349  21.064  26.404  1.00  0.00     0.039 A 
ATOM     35  C   UNL A   1      42.733  22.100  25.550  1.00  0.00     0.014 A 
ATOM     36  C   UNL A   1      42.318  21.257  27.787  1.00  0.00     0.014 A 
ATOM     37  C   UNL A   1      43.019  23.358  26.080  1.00  0.00     0.010 A 
ATOM     38  C   UNL A   1      42.539  22.527  28.308  1.00  0.00     0.010 A 
ATOM     39  C   UNL A   1      42.887  23.590  27.460  1.00  0.00    -0.014 A 
BRANCH  39  40
ATOM     40  C   UNL A   1      43.101  24.939  28.035  1.00  0.00     0.031 A 
ATOM     41  C   UNL A   1      44.467  25.351  28.502  1.00  0.00     0.074 A 
ATOM     42  C   UNL A   1      42.049  25.764  28.202  1.00  0.00     0.049 A 
ATOM     43  N   UNL A   1      44.839  26.455  29.098  1.00  0.00    -0.248 NA
ATOM     44  C   UNL A   1      45.556  24.382  28.299  1.00  0.00     0.031 C 
ATOM     45  C   UNL A   1      40.665  25.457  27.836  1.00  0.00     0.029 A 
ATOM     46  N   UNL A   1      41.981  27.027  28.735  1.00  0.00    -0.354 N 
ATOM     47  C   UNL A   1      46.195  26.306  29.355  1.00  0.00     0.074 A 
ATOM     48  C   UNL A   1      46.571  24.988  28.895  1.00  0.00     0.031 C 
ATOM     49  C   UNL A   1      39.888  26.510  28.138  1.00  0.00     0.029 A 
ATOM     50  C   UNL A   1      40.711  27.550  28.746  1.00  0.00     0.049 A 
ATOM     51  H   UNL A   1      42.767  27.511  29.077  1.00  0.00     0.167 HD
ATOM     52  C   UNL A   1      47.054  27.198  29.903  1.00  0.00     0.037 A 
ATOM     53  C   UNL A   1      40.262  28.736  29.199  1.00  0.00     0.037 A 
ATOM     54  C   UNL A   1      46.683  28.520  30.331  1.00  0.00     0.049 A 
ATOM     55  C   UNL A   1      41.238  29.712  29.794  1.00  0.00     0.074 A 
ATOM     56  C   UNL A   1      47.492  29.522  30.839  1.00  0.00     0.029 A 
ATOM     57  N   UNL A   1      45.392  29.026  30.301  1.00  0.00    -0.354 N 
ATOM     58  N   UNL A   1      42.530  29.585  29.969  1.00  0.00    -0.248 NA
ATOM     59  C   UNL A   1      40.692  30.998  30.251  1.00  0.00     0.031 C 
ATOM     60  C   UNL A   1      46.685  30.621  31.149  1.00  0.00     0.029 A 
ATOM     61  C   UNL A   1      45.380  30.319  30.797  1.00  0.00     0.049 A 
ATOM     62  H   UNL A   1      44.602  28.538  29.975  1.00  0.00     0.167 HD
ATOM     63  C   UNL A   1      42.957  30.782  30.529  1.00  0.00     0.074 A 
ATOM     64  C   UNL A   1      41.787  31.626  30.655  1.00  0.00     0.031 C 
ATOM     65  C   UNL A   1      44.207  31.148  30.906  1.00  0.00     0.037 A 
BRANCH  52  66
ATOM     66  C   UNL A   1      48.483  26.770  30.062  1.00  0.00     0.057 A 
ATOM     67  C   UNL A   1      49.449  27.049  29.085  1.00  0.00     0.134 A 
ATOM     68  C   UNL A   1      48.904  26.094  31.213  1.00  0.00     0.134 A 
ATOM     69  F   UNL A   1      49.107  27.682  27.953  1.00  0.00    -0.206 F 
ATOM     70  C   UNL A   1      50.778  26.648  29.237  1.00  0.00     0.040 A 
ATOM     71  C   UNL A   1      50.235  25.710  31.387  1.00  0.00     0.040 A 
ATOM     72  F   UNL A   1      48.032  25.799  32.189  1.00  0.00    -0.206 F 
ATOM     73  C   UNL A   1      51.175  25.982  30.395  1.00  0.00     0.006 A 
ENDBRANCH  52  66
BRANCH  53  74
ATOM     74  C   UNL A   1      38.823  29.079  29.081  1.00  0.00     0.057 A 
ATOM     75  C   UNL A   1      38.283  29.507  27.863  1.00  0.00     0.134 A 
ATOM     76  C   UNL A   1      37.957  28.992  30.177  1.00  0.00     0.134 A 
ATOM     77  F   UNL A   1      39.069  29.628  26.783  1.00  0.00    -0.206 F 
ATOM     78  C   UNL A   1      36.937  29.855  27.743  1.00  0.00     0.040 A 
ATOM     79  C   UNL A   1      36.603  29.314  30.065  1.00  0.00     0.040 A 
ATOM     80  F   UNL A   1      38.413  28.579  31.369  1.00  0.00    -0.206 F 
ATOM     81  C   UNL A   1      36.092  29.754  28.845  1.00  0.00     0.006 A 
ENDBRANCH  53  74
BRANCH  65  82
ATOM     82  C   UNL A   1      44.377  32.531  31.459  1.00  0.00     0.057 A 
ATOM     83  C   UNL A   1      44.631  33.631  30.631  1.00  0.00     0.134 A 
ATOM     84  C   UNL A   1      44.248  32.769  32.833  1.00  0.00     0.134 A 
ATOM     85  F   UNL A   1      44.778  33.466  29.308  1.00  0.00    -0.206 F 
ATOM     86  C   UNL A   1      44.768  34.918  31.152  1.00  0.00     0.040 A 
ATOM     87  C   UNL A   1      44.360  34.054  33.364  1.00  0.00     0.040 A 
ATOM     88  F   UNL A   1      43.999  31.758  33.680  1.00  0.00    -0.206 F 
ATOM     89  C   UNL A   1      44.625  35.133  32.523  1.00  0.00     0.006 A 
ENDBRANCH  65  82
ENDBRANCH  39  40
ENDBRANCH  31  34
ENDBRANCH  29  30
ENDBRANCH  28  29
ENDBRANCH   1  28
TORSDOF 15
ENDMDL
MODEL 3
REMARK VINA RESULT:     -11.4      3.496      5.083
REMARK SMILES CCc1cc(OC(F)(F)F)cc2c1O[C@H](C(F)(F)F)C(C(=O)NCCCCNC(=O)c1ccc(-c3c4nc(c(-c5c(F)cccc5F)c5ccc([nH]5)c(-c5c(F)cccc5F)c5nc(c(-c6c(F)cccc6F)c6ccc3[nH]6)C=C5)C=C4)cc1)=C2
REMARK SMILES IDX 25 1 24 2 23 3 21 4 22 5 20 7 3 8 4 9 13 10 5 11 12 12 14 13
REMARK SMILES IDX 11 14 85 15 15 16 2 17 1 18 6 19 7 20 8 21 9 22 10 23 16 24
REMARK SMILES IDX 17 25 18 26 19 27 26 28 27 29 28 30 29 31 30 33 31 34 32 35
REMARK SMILES IDX 84 36 33 37 83 38 34 39 35 40 36 41 77 42 37 43 82 44 76 45
REMARK SMILES IDX 78 46 38 47 81 48 75 49 74 50 39 52 65 53 48 54 64 55 49 56
REMARK SMILES IDX 52 57 63 58 79 59 50 60 51 61 62 63 80 64 53 65 40 66 41 67
REMARK SMILES IDX 46 68 42 69 43 70 45 71 47 72 44 73 66 74 67 75 72 76 68 77
REMARK SMILES IDX 69 78 71 79 73 80 70 81 54 82 55 83 60 84 56 85 57 86 59 87
REMARK SMILES IDX 61 88 58 89
REMARK H PARENT 23 6 28 32 78 51 52 62
REMARK Flexibility Score: inf
ROOT
ATOM      1  C   UNL A   1      37.122  20.806  24.619  1.00  0.00     0.023 C 
ENDROOT
BRANCH   1   2
ATOM      2  C   UNL A   1      36.884  21.805  25.753  1.00  0.00     0.116 C 
BRANCH   2   3
ATOM      3  N   UNL A   1      35.692  21.460  26.501  1.00  0.00    -0.352 N 
ATOM      4  C   UNL A   1      34.466  22.034  26.597  1.00  0.00     0.251 C 
ATOM      5  O   UNL A   1      33.635  21.463  27.303  1.00  0.00    -0.270 OA
ATOM      6  H   UNL A   1      35.790  20.647  27.048  1.00  0.00     0.163 HD
BRANCH   4   7
ATOM      7  C   UNL A   1      34.054  23.248  25.834  1.00  0.00     0.067 C 
ATOM      8  C   UNL A   1      33.336  26.372  23.109  1.00  0.00    -0.002 A 
ATOM      9  C   UNL A   1      33.220  27.689  23.597  1.00  0.00     0.054 A 
ATOM     10  C   UNL A   1      33.579  25.328  24.013  1.00  0.00     0.131 A 
ATOM     11  C   UNL A   1      33.332  27.957  24.961  1.00  0.00     0.130 A 
ATOM     12  C   UNL A   1      33.674  25.585  25.381  1.00  0.00     0.021 A 
ATOM     13  O   UNL A   1      33.795  24.078  23.501  1.00  0.00    -0.475 OA
ATOM     14  C   UNL A   1      33.547  26.898  25.848  1.00  0.00     0.058 A 
ATOM     15  C   UNL A   1      33.999  24.503  26.301  1.00  0.00     0.025 C 
ATOM     16  C   UNL A   1      33.605  22.957  24.408  1.00  0.00     0.314 C 
BRANCH   8  17
ATOM     17  C   UNL A   1      33.224  26.118  21.624  1.00  0.00     0.036 C 
ATOM     18  C   UNL A   1      31.780  25.952  21.181  1.00  0.00     0.009 C 
ENDBRANCH   8  17
BRANCH  11  19
ATOM     19  O   UNL A   1      33.267  29.182  25.560  1.00  0.00    -0.406 OA
BRANCH  19  20
ATOM     20  C   UNL A   1      31.987  29.686  25.905  1.00  0.00     0.573 C 
ATOM     21  F   UNL A   1      31.183  29.761  24.823  1.00  0.00    -0.132 F 
ATOM     22  F   UNL A   1      31.403  28.919  26.850  1.00  0.00    -0.132 F 
ATOM     23  F   UNL A   1      32.135  30.933  26.406  1.00  0.00    -0.132 F 
ENDBRANCH  19  20
ENDBRANCH  11  19
BRANCH  16  24
ATOM     24  C   UNL A   1      32.142  22.469  24.334  1.00  0.00     0.429 C 
ATOM     25  F   UNL A   1      31.499  22.886  23.223  1.00  0.00    -0.167 F 
ATOM     26  F   UNL A   1      32.055  21.116  24.362  1.00  0.00    -0.167 F 
ATOM     27  F   UNL A   1      31.420  22.930  25.387  1.00  0.00    -0.167 F 
ENDBRANCH  16  24
ENDBRANCH   4   7
ENDBRANCH   2   3
ENDBRANCH   1   2
BRANCH   1  28
ATOM     28  C   UNL A   1      38.024  19.628  25.000  1.00  0.00     0.023 C 
BRANCH  28  29
ATOM     29  C   UNL A   1      39.270  20.007  25.791  1.00  0.00     0.116 C 
BRANCH  29  30
ATOM     30  N   UNL A   1      40.271  18.953  25.833  1.00  0.00    -0.352 N 
ATOM     31  C   UNL A   1      41.619  19.066  26.083  1.00  0.00     0.251 C 
ATOM     32  H   UNL A   1      39.941  18.042  25.662  1.00  0.00     0.163 HD
ATOM     33  O   UNL A   1      42.352  18.093  25.991  1.00  0.00    -0.269 OA
BRANCH  31  34
ATOM     34  C   UNL A   1      42.175  20.393  26.416  1.00  0.00     0.039 A 
ATOM     35  C   UNL A   1      42.615  21.214  25.375  1.00  0.00     0.014 A 
ATOM     36  C   UNL A   1      42.221  20.838  27.739  1.00  0.00     0.014 A 
ATOM     37  C   UNL A   1      43.038  22.514  25.656  1.00  0.00     0.010 A 
ATOM     38  C   UNL A   1      42.581  22.153  28.010  1.00  0.00     0.010 A 
ATOM     39  C   UNL A   1      42.988  23.004  26.971  1.00  0.00    -0.014 A 
BRANCH  39  40
ATOM     40  C   UNL A   1      43.349  24.408  27.280  1.00  0.00     0.031 A 
ATOM     41  C   UNL A   1      44.780  24.854  27.195  1.00  0.00     0.074 A 
ATOM     42  C   UNL A   1      42.397  25.260  27.709  1.00  0.00     0.049 A 
ATOM     43  N   UNL A   1      45.304  26.014  27.497  1.00  0.00    -0.248 NA
ATOM     44  C   UNL A   1      45.758  23.854  26.737  1.00  0.00     0.031 C 
ATOM     45  C   UNL A   1      40.982  24.930  27.883  1.00  0.00     0.029 A 
ATOM     46  N   UNL A   1      42.482  26.576  28.086  1.00  0.00    -0.354 N 
ATOM     47  C   UNL A   1      46.669  25.880  27.282  1.00  0.00     0.074 A 
ATOM     48  C   UNL A   1      46.900  24.512  26.871  1.00  0.00     0.031 C 
ATOM     49  C   UNL A   1      40.327  26.021  28.315  1.00  0.00     0.029 A 
ATOM     50  C   UNL A   1      41.280  27.113  28.479  1.00  0.00     0.049 A 
ATOM     51  H   UNL A   1      43.323  27.086  28.078  1.00  0.00     0.167 HD
ATOM     52  C   UNL A   1      47.639  26.817  27.393  1.00  0.00     0.037 A 
ATOM     53  C   UNL A   1      40.983  28.349  28.923  1.00  0.00     0.037 A 
ATOM     54  C   UNL A   1      47.402  28.185  27.772  1.00  0.00     0.049 A 
ATOM     55  C   UNL A   1      42.076  29.375  29.029  1.00  0.00     0.074 A 
ATOM     56  C   UNL A   1      48.308  29.228  27.852  1.00  0.00     0.029 A 
ATOM     57  N   UNL A   1      46.166  28.700  28.135  1.00  0.00    -0.354 N 
ATOM     58  N   UNL A   1      43.352  29.253  28.758  1.00  0.00    -0.248 NA
ATOM     59  C   UNL A   1      41.686  30.712  29.499  1.00  0.00     0.031 C 
ATOM     60  C   UNL A   1      47.627  30.366  28.297  1.00  0.00     0.029 A 
ATOM     61  C   UNL A   1      46.290  30.041  28.456  1.00  0.00     0.049 A 
ATOM     62  H   UNL A   1      45.326  28.187  28.161  1.00  0.00     0.167 HD
ATOM     63  C   UNL A   1      43.912  30.500  28.996  1.00  0.00     0.074 A 
ATOM     64  C   UNL A   1      42.835  31.368  29.424  1.00  0.00     0.031 C 
ATOM     65  C   UNL A   1      45.204  30.892  28.872  1.00  0.00     0.037 A 
BRANCH  52  66
ATOM     66  C   UNL A   1      49.046  26.393  27.093  1.00  0.00     0.057 A 
ATOM     67  C   UNL A   1      49.569  26.440  25.794  1.00  0.00     0.134 A 
ATOM     68  C   UNL A   1      49.895  25.955  28.116  1.00  0.00     0.134 A 
ATOM     69  F   UNL A   1      48.802  26.838  24.767  1.00  0.00    -0.206 F 
ATOM     70  C   UNL A   1      50.879  26.044  25.519  1.00  0.00     0.040 A 
ATOM     71  C   UNL A   1      51.215  25.579  27.858  1.00  0.00     0.040 A 
ATOM     72  F   UNL A   1      49.460  25.889  29.383  1.00  0.00    -0.206 F 
ATOM     73  C   UNL A   1      51.708  25.617  26.555  1.00  0.00     0.006 A 
ENDBRANCH  52  66
BRANCH  53  74
ATOM     74  C   UNL A   1      39.583  28.694  29.275  1.00  0.00     0.057 A 
ATOM     75  C   UNL A   1      39.100  28.502  30.574  1.00  0.00     0.134 A 
ATOM     76  C   UNL A   1      38.697  29.219  28.328  1.00  0.00     0.134 A 
ATOM     77  F   UNL A   1      39.897  27.986  31.521  1.00  0.00    -0.206 F 
ATOM     78  C   UNL A   1      37.779  28.801  30.915  1.00  0.00     0.040 A 
ATOM     79  C   UNL A   1      37.381  29.544  28.659  1.00  0.00     0.040 A 
ATOM     80  F   UNL A   1      39.104  29.435  27.067  1.00  0.00    -0.206 F 
ATOM     81  C   UNL A   1      36.917  29.328  29.956  1.00  0.00     0.006 A 
ENDBRANCH  53  74
BRANCH  65  82
ATOM     82  C   UNL A   1      45.516  32.327  29.172  1.00  0.00     0.057 A 
ATOM     83  C   UNL A   1      45.923  32.743  30.446  1.00  0.00     0.134 A 
ATOM     84  C   UNL A   1      45.446  33.297  28.165  1.00  0.00     0.134 A 
ATOM     85  F   UNL A   1      45.996  31.864  31.457  1.00  0.00    -0.206 F 
ATOM     86  C   UNL A   1      46.231  34.078  30.711  1.00  0.00     0.040 A 
ATOM     87  C   UNL A   1      45.774  34.630  28.411  1.00  0.00     0.040 A 
ATOM     88  F   UNL A   1      45.070  32.961  26.921  1.00  0.00    -0.206 F 
ATOM     89  C   UNL A   1      46.164  35.025  29.690  1.00  0.00     0.006 A 
ENDBRANCH  65  82
ENDBRANCH  39  40
ENDBRANCH  31  34
ENDBRANCH  29  30
ENDBRANCH  28  29
ENDBRANCH   1  28
TORSDOF 15
ENDMDL
