MODEL 1
REMARK VINA RESULT:     -11.8      0.000      0.000
REMARK SMILES Nc1ccc(C(=O)NC[C@@H]2CC[C@@H](C(=O)NCCCCNC(=O)c3ccc(-c4c5nc(c(-c6c(F)cccc6F)c6ccc([nH]6)c(-c6c(F)cccc6F)c6nc(c(-c7c(F)cccc7F)c7ccc4[nH]7)C=C6)C=C5)cc3)O2)cc1Cl
REMARK SMILES IDX 17 1 16 2 14 3 15 4 13 6 10 7 11 8 78 9 12 10 9 11 8 12 6 13
REMARK SMILES IDX 7 14 5 16 2 17 3 18 80 19 4 20 79 21 81 22 1 23 18 26 19 27
REMARK SMILES IDX 20 28 21 29 22 30 23 32 24 33 25 34 77 35 26 36 76 37 27 38
REMARK SMILES IDX 28 39 29 40 70 41 30 42 75 43 69 44 71 45 31 46 74 47 68 48
REMARK SMILES IDX 67 49 32 51 58 52 41 53 57 54 42 55 45 56 56 57 72 58 43 59
REMARK SMILES IDX 44 60 55 62 73 63 46 64 33 65 34 66 39 67 35 68 36 69 38 70
REMARK SMILES IDX 40 71 37 72 59 73 60 74 65 75 61 76 62 77 64 78 66 79 63 80
REMARK SMILES IDX 47 81 48 82 53 83 49 84 50 85 52 86 54 87 51 88
REMARK H PARENT 16 5 8 15 1 24 1 25 21 31 71 50 45 61
REMARK Flexibility Score: inf
ROOT
ATOM      1  C   UNL A   1      35.751  21.100  25.713  1.00  0.00     0.116 C 
ENDROOT
BRANCH   1   2
ATOM      2  N   UNL A   1      34.557  20.279  25.685  1.00  0.00    -0.354 N 
ATOM      3  C   UNL A   1      33.266  20.656  25.441  1.00  0.00     0.249 C 
ATOM      4  O   UNL A   1      32.401  19.777  25.446  1.00  0.00    -0.272 OA
ATOM      5  H   UNL A   1      34.695  19.321  25.867  1.00  0.00     0.163 HD
BRANCH   3   6
ATOM      6  C   UNL A   1      32.935  22.148  25.249  1.00  0.00     0.207 C 
ATOM      7  C   UNL A   1      31.036  23.126  24.292  1.00  0.00     0.138 C 
ATOM      8  C   UNL A   1      31.247  23.758  25.656  1.00  0.00     0.037 C 
ATOM      9  O   UNL A   1      32.262  22.435  24.009  1.00  0.00    -0.363 OA
ATOM     10  C   UNL A   1      32.039  22.685  26.361  1.00  0.00     0.045 C 
BRANCH   7  11
ATOM     11  C   UNL A   1      30.658  24.063  23.130  1.00  0.00     0.148 C 
BRANCH  11  12
ATOM     12  N   UNL A   1      31.787  24.571  22.366  1.00  0.00    -0.349 N 
ATOM     13  C   UNL A   1      32.439  25.762  22.230  1.00  0.00     0.251 C 
ATOM     14  O   UNL A   1      33.347  25.768  21.394  1.00  0.00    -0.269 OA
ATOM     15  H   UNL A   1      32.184  23.872  21.797  1.00  0.00     0.163 HD
BRANCH  13  16
ATOM     16  C   UNL A   1      32.170  27.019  22.990  1.00  0.00     0.041 A 
ATOM     17  C   UNL A   1      31.834  29.313  24.644  1.00  0.00     0.050 A 
ATOM     18  C   UNL A   1      30.986  29.068  23.561  1.00  0.00     0.028 A 
ATOM     19  C   UNL A   1      32.895  28.424  24.854  1.00  0.00     0.064 A 
ATOM     20  C   UNL A   1      31.148  27.934  22.745  1.00  0.00     0.016 A 
ATOM     21  C   UNL A   1      33.052  27.291  24.053  1.00  0.00     0.036 A 
ATOM     22  Cl  UNL A   1      34.031  28.692  26.133  1.00  0.00    -0.082 Cl
BRANCH  17  23
ATOM     23  N   UNL A   1      31.685  30.480  25.388  1.00  0.00    -0.398 N 
ATOM     24  H   UNL A   1      30.922  31.079  25.218  1.00  0.00     0.156 HD
ATOM     25  H   UNL A   1      32.343  30.706  26.085  1.00  0.00     0.156 HD
ENDBRANCH  17  23
ENDBRANCH  13  16
ENDBRANCH  11  12
ENDBRANCH   7  11
ENDBRANCH   3   6
ENDBRANCH   1   2
BRANCH   1  26
ATOM     26  C   UNL A   1      36.746  20.721  24.621  1.00  0.00     0.023 C 
BRANCH  26  27
ATOM     27  C   UNL A   1      37.742  19.626  24.999  1.00  0.00     0.023 C 
BRANCH  27  28
ATOM     28  C   UNL A   1      38.982  20.103  25.746  1.00  0.00     0.116 C 
BRANCH  28  29
ATOM     29  N   UNL A   1      40.016  19.085  25.838  1.00  0.00    -0.352 N 
ATOM     30  C   UNL A   1      41.365  19.224  26.070  1.00  0.00     0.251 C 
ATOM     31  H   UNL A   1      39.705  18.158  25.716  1.00  0.00     0.163 HD
ATOM     32  O   UNL A   1      42.108  18.257  25.967  1.00  0.00    -0.269 OA
BRANCH  30  33
ATOM     33  C   UNL A   1      41.921  20.552  26.412  1.00  0.00     0.039 A 
ATOM     34  C   UNL A   1      42.295  21.413  25.377  1.00  0.00     0.014 A 
ATOM     35  C   UNL A   1      42.063  20.952  27.743  1.00  0.00     0.014 A 
ATOM     36  C   UNL A   1      42.739  22.703  25.676  1.00  0.00     0.010 A 
ATOM     37  C   UNL A   1      42.423  22.264  28.036  1.00  0.00     0.010 A 
ATOM     38  C   UNL A   1      42.766  23.154  27.007  1.00  0.00    -0.014 A 
BRANCH  38  39
ATOM     39  C   UNL A   1      43.140  24.553  27.340  1.00  0.00     0.031 A 
ATOM     40  C   UNL A   1      44.581  24.979  27.314  1.00  0.00     0.074 A 
ATOM     41  C   UNL A   1      42.190  25.421  27.738  1.00  0.00     0.049 A 
ATOM     42  N   UNL A   1      45.109  26.131  27.640  1.00  0.00    -0.248 NA
ATOM     43  C   UNL A   1      45.562  23.968  26.893  1.00  0.00     0.031 C 
ATOM     44  C   UNL A   1      40.764  25.117  27.858  1.00  0.00     0.029 A 
ATOM     45  N   UNL A   1      42.284  26.733  28.128  1.00  0.00    -0.354 N 
ATOM     46  C   UNL A   1      46.479  25.980  27.474  1.00  0.00     0.074 A 
ATOM     47  C   UNL A   1      46.706  24.606  27.081  1.00  0.00     0.031 C 
ATOM     48  C   UNL A   1      40.114  26.216  28.274  1.00  0.00     0.029 A 
ATOM     49  C   UNL A   1      41.080  27.288  28.490  1.00  0.00     0.049 A 
ATOM     50  H   UNL A   1      43.134  27.230  28.146  1.00  0.00     0.167 HD
ATOM     51  C   UNL A   1      47.459  26.906  27.610  1.00  0.00     0.037 A 
ATOM     52  C   UNL A   1      40.789  28.517  28.954  1.00  0.00     0.037 A 
ATOM     53  C   UNL A   1      47.230  28.274  27.994  1.00  0.00     0.049 A 
ATOM     54  C   UNL A   1      41.891  29.525  29.115  1.00  0.00     0.074 A 
ATOM     55  C   UNL A   1      48.149  29.303  28.111  1.00  0.00     0.029 A 
ATOM     56  N   UNL A   1      45.995  28.803  28.337  1.00  0.00    -0.354 N 
ATOM     57  N   UNL A   1      43.175  29.390  28.885  1.00  0.00    -0.248 NA
ATOM     58  C   UNL A   1      41.504  30.861  29.592  1.00  0.00     0.031 C 
ATOM     59  C   UNL A   1      47.477  30.440  28.574  1.00  0.00     0.029 A 
ATOM     60  C   UNL A   1      46.130  30.137  28.689  1.00  0.00     0.049 A 
ATOM     61  H   UNL A   1      45.145  28.305  28.329  1.00  0.00     0.167 HD
ATOM     62  C   UNL A   1      43.745  30.626  29.164  1.00  0.00     0.074 A 
ATOM     63  C   UNL A   1      42.665  31.502  29.567  1.00  0.00     0.031 C 
ATOM     64  C   UNL A   1      45.047  30.999  29.091  1.00  0.00     0.037 A 
BRANCH  51  65
ATOM     65  C   UNL A   1      48.869  26.458  27.343  1.00  0.00     0.057 A 
ATOM     66  C   UNL A   1      49.697  25.969  28.364  1.00  0.00     0.134 A 
ATOM     67  C   UNL A   1      49.405  26.509  26.051  1.00  0.00     0.134 A 
ATOM     68  F   UNL A   1      49.252  25.903  29.628  1.00  0.00    -0.206 F 
ATOM     69  C   UNL A   1      51.018  25.590  28.117  1.00  0.00     0.040 A 
ATOM     70  C   UNL A   1      50.714  26.101  25.786  1.00  0.00     0.040 A 
ATOM     71  F   UNL A   1      48.669  26.957  25.023  1.00  0.00    -0.206 F 
ATOM     72  C   UNL A   1      51.528  25.650  26.822  1.00  0.00     0.006 A 
ENDBRANCH  51  65
BRANCH  52  73
ATOM     73  C   UNL A   1      39.381  28.864  29.283  1.00  0.00     0.057 A 
ATOM     74  C   UNL A   1      38.859  28.634  30.560  1.00  0.00     0.134 A 
ATOM     75  C   UNL A   1      38.534  29.449  28.334  1.00  0.00     0.134 A 
ATOM     76  F   UNL A   1      39.616  28.061  31.507  1.00  0.00    -0.206 F 
ATOM     77  C   UNL A   1      37.540  28.962  30.880  1.00  0.00     0.040 A 
ATOM     78  C   UNL A   1      37.221  29.805  28.647  1.00  0.00     0.040 A 
ATOM     79  F   UNL A   1      38.979  29.703  27.095  1.00  0.00    -0.206 F 
ATOM     80  C   UNL A   1      36.720  29.557  29.924  1.00  0.00     0.006 A 
ENDBRANCH  52  73
BRANCH  64  81
ATOM     81  C   UNL A   1      45.373  32.427  29.425  1.00  0.00     0.057 A 
ATOM     82  C   UNL A   1      45.758  32.819  30.713  1.00  0.00     0.134 A 
ATOM     83  C   UNL A   1      45.339  33.416  28.432  1.00  0.00     0.134 A 
ATOM     84  F   UNL A   1      45.800  31.926  31.714  1.00  0.00    -0.206 F 
ATOM     85  C   UNL A   1      46.077  34.147  31.007  1.00  0.00     0.040 A 
ATOM     86  C   UNL A   1      45.683  34.740  28.707  1.00  0.00     0.040 A 
ATOM     87  F   UNL A   1      44.986  33.106  27.175  1.00  0.00    -0.206 F 
ATOM     88  C   UNL A   1      46.046  35.109  30.000  1.00  0.00     0.006 A 
ENDBRANCH  64  81
ENDBRANCH  38  39
ENDBRANCH  30  33
ENDBRANCH  28  29
ENDBRANCH  27  28
ENDBRANCH  26  27
ENDBRANCH   1  26
TORSDOF 15
ENDMDL
MODEL 2
REMARK VINA RESULT:     -11.6      1.087      6.412
REMARK SMILES Nc1ccc(C(=O)NC[C@@H]2CC[C@@H](C(=O)NCCCCNC(=O)c3ccc(-c4c5nc(c(-c6c(F)cccc6F)c6ccc([nH]6)c(-c6c(F)cccc6F)c6nc(c(-c7c(F)cccc7F)c7ccc4[nH]7)C=C6)C=C5)cc3)O2)cc1Cl
REMARK SMILES IDX 17 1 16 2 14 3 15 4 13 6 10 7 11 8 78 9 12 10 9 11 8 12 6 13
REMARK SMILES IDX 7 14 5 16 2 17 3 18 80 19 4 20 79 21 81 22 1 23 18 26 19 27
REMARK SMILES IDX 20 28 21 29 22 30 23 32 24 33 25 34 77 35 26 36 76 37 27 38
REMARK SMILES IDX 28 39 29 40 70 41 30 42 75 43 69 44 71 45 31 46 74 47 68 48
REMARK SMILES IDX 67 49 32 51 58 52 41 53 57 54 42 55 45 56 56 57 72 58 43 59
REMARK SMILES IDX 44 60 55 62 73 63 46 64 33 65 34 66 39 67 35 68 36 69 38 70
REMARK SMILES IDX 40 71 37 72 59 73 60 74 65 75 61 76 62 77 64 78 66 79 63 80
REMARK SMILES IDX 47 81 48 82 53 83 49 84 50 85 52 86 54 87 51 88
REMARK H PARENT 16 5 8 15 1 24 1 25 21 31 71 50 45 61
REMARK Flexibility Score: inf
ROOT
ATOM      1  C   UNL A   1      35.910  21.333  24.586  1.00  0.00     0.116 C 
ENDROOT
BRANCH   1   2
ATOM      2  N   UNL A   1      35.260  21.116  25.863  1.00  0.00    -0.354 N 
ATOM      3  C   UNL A   1      34.223  21.810  26.424  1.00  0.00     0.249 C 
ATOM      4  O   UNL A   1      33.810  21.435  27.523  1.00  0.00    -0.272 OA
ATOM      5  H   UNL A   1      35.613  20.370  26.400  1.00  0.00     0.163 HD
BRANCH   3   6
ATOM      6  C   UNL A   1      33.673  23.059  25.709  1.00  0.00     0.207 C 
ATOM      7  C   UNL A   1      31.601  23.368  24.667  1.00  0.00     0.138 C 
ATOM      8  C   UNL A   1      31.801  24.508  25.648  1.00  0.00     0.037 C 
ATOM      9  O   UNL A   1      32.893  22.757  24.538  1.00  0.00    -0.363 OA
ATOM     10  C   UNL A   1      32.779  23.894  26.620  1.00  0.00     0.045 C 
BRANCH   7  11
ATOM     11  C   UNL A   1      31.024  23.720  23.283  1.00  0.00     0.148 C 
BRANCH  11  12
ATOM     12  N   UNL A   1      31.986  24.281  22.347  1.00  0.00    -0.349 N 
ATOM     13  C   UNL A   1      32.490  25.517  22.063  1.00  0.00     0.251 C 
ATOM     14  O   UNL A   1      33.277  25.554  21.112  1.00  0.00    -0.269 OA
ATOM     15  H   UNL A   1      32.376  23.587  21.768  1.00  0.00     0.163 HD
BRANCH  13  16
ATOM     16  C   UNL A   1      32.193  26.790  22.785  1.00  0.00     0.041 A 
ATOM     17  C   UNL A   1      31.400  29.249  23.985  1.00  0.00     0.050 A 
ATOM     18  C   UNL A   1      32.652  28.685  24.243  1.00  0.00     0.028 A 
ATOM     19  C   UNL A   1      30.521  28.533  23.163  1.00  0.00     0.064 A 
ATOM     20  C   UNL A   1      33.046  27.472  23.649  1.00  0.00     0.016 A 
ATOM     21  C   UNL A   1      30.914  27.335  22.562  1.00  0.00     0.036 A 
ATOM     22  Cl  UNL A   1      28.926  29.128  22.846  1.00  0.00    -0.082 Cl
BRANCH  17  23
ATOM     23  N   UNL A   1      31.018  30.414  24.642  1.00  0.00    -0.398 N 
ATOM     24  H   UNL A   1      30.521  30.361  25.491  1.00  0.00     0.156 HD
ATOM     25  H   UNL A   1      31.245  31.292  24.259  1.00  0.00     0.156 HD
ENDBRANCH  17  23
ENDBRANCH  13  16
ENDBRANCH  11  12
ENDBRANCH   7  11
ENDBRANCH   3   6
ENDBRANCH   1   2
BRANCH   1  26
ATOM     26  C   UNL A   1      37.426  21.442  24.715  1.00  0.00     0.023 C 
BRANCH  26  27
ATOM     27  C   UNL A   1      38.151  20.128  25.002  1.00  0.00     0.023 C 
BRANCH  27  28
ATOM     28  C   UNL A   1      39.180  20.183  26.124  1.00  0.00     0.116 C 
BRANCH  28  29
ATOM     29  N   UNL A   1      40.177  19.128  26.033  1.00  0.00    -0.352 N 
ATOM     30  C   UNL A   1      41.549  19.211  26.090  1.00  0.00     0.251 C 
ATOM     31  H   UNL A   1      39.817  18.219  25.911  1.00  0.00     0.163 HD
ATOM     32  O   UNL A   1      42.234  18.227  25.847  1.00  0.00    -0.269 OA
BRANCH  30  33
ATOM     33  C   UNL A   1      42.197  20.502  26.415  1.00  0.00     0.039 A 
ATOM     34  C   UNL A   1      42.659  21.305  25.370  1.00  0.00     0.014 A 
ATOM     35  C   UNL A   1      42.337  20.923  27.739  1.00  0.00     0.014 A 
ATOM     36  C   UNL A   1      43.193  22.565  25.650  1.00  0.00     0.010 A 
ATOM     37  C   UNL A   1      42.789  22.211  28.010  1.00  0.00     0.010 A 
ATOM     38  C   UNL A   1      43.223  23.047  26.970  1.00  0.00    -0.014 A 
BRANCH  38  39
ATOM     39  C   UNL A   1      43.695  24.421  27.279  1.00  0.00     0.031 A 
ATOM     40  C   UNL A   1      42.716  25.485  27.690  1.00  0.00     0.074 A 
ATOM     41  C   UNL A   1      44.996  24.731  27.119  1.00  0.00     0.049 A 
ATOM     42  N   UNL A   1      42.927  26.754  27.932  1.00  0.00    -0.248 NA
ATOM     43  C   UNL A   1      41.310  25.075  27.819  1.00  0.00     0.031 C 
ATOM     44  C   UNL A   1      46.038  23.805  26.674  1.00  0.00     0.029 A 
ATOM     45  N   UNL A   1      45.662  25.917  27.301  1.00  0.00    -0.354 N 
ATOM     46  C   UNL A   1      41.682  27.294  28.230  1.00  0.00     0.074 A 
ATOM     47  C   UNL A   1      40.714  26.229  28.076  1.00  0.00     0.031 C 
ATOM     48  C   UNL A   1      47.213  24.452  26.633  1.00  0.00     0.029 A 
ATOM     49  C   UNL A   1      47.003  25.846  27.010  1.00  0.00     0.049 A 
ATOM     50  H   UNL A   1      45.220  26.742  27.609  1.00  0.00     0.167 HD
ATOM     51  C   UNL A   1      41.375  28.553  28.622  1.00  0.00     0.037 A 
ATOM     52  C   UNL A   1      47.954  26.798  27.032  1.00  0.00     0.037 A 
ATOM     53  C   UNL A   1      42.340  29.609  28.782  1.00  0.00     0.049 A 
ATOM     54  C   UNL A   1      47.590  28.194  27.453  1.00  0.00     0.074 A 
ATOM     55  C   UNL A   1      42.137  30.905  29.223  1.00  0.00     0.029 A 
ATOM     56  N   UNL A   1      43.692  29.493  28.494  1.00  0.00    -0.354 N 
ATOM     57  N   UNL A   1      46.421  28.674  27.802  1.00  0.00    -0.248 NA
ATOM     58  C   UNL A   1      48.679  29.180  27.492  1.00  0.00     0.031 C 
ATOM     59  C   UNL A   1      43.356  31.589  29.152  1.00  0.00     0.029 A 
ATOM     60  C   UNL A   1      44.332  30.702  28.724  1.00  0.00     0.049 A 
ATOM     61  H   UNL A   1      44.134  28.673  28.175  1.00  0.00     0.167 HD
ATOM     62  C   UNL A   1      46.636  30.008  28.126  1.00  0.00     0.074 A 
ATOM     63  C   UNL A   1      48.051  30.257  27.944  1.00  0.00     0.031 C 
ATOM     64  C   UNL A   1      45.741  30.940  28.537  1.00  0.00     0.037 A 
BRANCH  51  65
ATOM     65  C   UNL A   1      39.927  28.852  28.900  1.00  0.00     0.057 A 
ATOM     66  C   UNL A   1      39.048  29.262  27.888  1.00  0.00     0.134 A 
ATOM     67  C   UNL A   1      39.404  28.723  30.193  1.00  0.00     0.134 A 
ATOM     68  F   UNL A   1      39.485  29.417  26.629  1.00  0.00    -0.206 F 
ATOM     69  C   UNL A   1      37.714  29.573  28.159  1.00  0.00     0.040 A 
ATOM     70  C   UNL A   1      38.064  28.999  30.469  1.00  0.00     0.040 A 
ATOM     71  F   UNL A   1      40.185  28.327  31.209  1.00  0.00    -0.206 F 
ATOM     72  C   UNL A   1      37.218  29.437  29.453  1.00  0.00     0.006 A 
ENDBRANCH  51  65
BRANCH  52  73
ATOM     73  C   UNL A   1      49.350  26.452  26.658  1.00  0.00     0.057 A 
ATOM     74  C   UNL A   1      49.806  26.602  25.345  1.00  0.00     0.134 A 
ATOM     75  C   UNL A   1      50.263  25.980  27.610  1.00  0.00     0.134 A 
ATOM     76  F   UNL A   1      48.973  27.033  24.386  1.00  0.00    -0.206 F 
ATOM     77  C   UNL A   1      51.117  26.285  24.985  1.00  0.00     0.040 A 
ATOM     78  C   UNL A   1      51.585  25.683  27.269  1.00  0.00     0.040 A 
ATOM     79  F   UNL A   1      49.889  25.823  28.887  1.00  0.00    -0.206 F 
ATOM     80  C   UNL A   1      52.013  25.831  25.952  1.00  0.00     0.006 A 
ENDBRANCH  52  73
BRANCH  64  81
ATOM     81  C   UNL A   1      46.270  32.310  28.850  1.00  0.00     0.057 A 
ATOM     82  C   UNL A   1      46.312  33.328  27.888  1.00  0.00     0.134 A 
ATOM     83  C   UNL A   1      46.706  32.627  30.144  1.00  0.00     0.134 A 
ATOM     84  F   UNL A   1      45.922  33.089  26.627  1.00  0.00    -0.206 F 
ATOM     85  C   UNL A   1      46.789  34.604  28.196  1.00  0.00     0.040 A 
ATOM     86  C   UNL A   1      47.157  33.906  30.471  1.00  0.00     0.040 A 
ATOM     87  F   UNL A   1      46.685  31.701  31.115  1.00  0.00    -0.206 F 
ATOM     88  C   UNL A   1      47.206  34.897  29.493  1.00  0.00     0.006 A 
ENDBRANCH  64  81
ENDBRANCH  38  39
ENDBRANCH  30  33
ENDBRANCH  28  29
ENDBRANCH  27  28
ENDBRANCH  26  27
ENDBRANCH   1  26
TORSDOF 15
ENDMDL
MODEL 3
REMARK VINA RESULT:     -11.6      4.770      9.277
REMARK SMILES Nc1ccc(C(=O)NC[C@@H]2CC[C@@H](C(=O)NCCCCNC(=O)c3ccc(-c4c5nc(c(-c6c(F)cccc6F)c6ccc([nH]6)c(-c6c(F)cccc6F)c6nc(c(-c7c(F)cccc7F)c7ccc4[nH]7)C=C6)C=C5)cc3)O2)cc1Cl
REMARK SMILES IDX 17 1 16 2 14 3 15 4 13 6 10 7 11 8 78 9 12 10 9 11 8 12 6 13
REMARK SMILES IDX 7 14 5 16 2 17 3 18 80 19 4 20 79 21 81 22 1 23 18 26 19 27
REMARK SMILES IDX 20 28 21 29 22 30 23 32 24 33 25 34 77 35 26 36 76 37 27 38
REMARK SMILES IDX 28 39 29 40 70 41 30 42 75 43 69 44 71 45 31 46 74 47 68 48
REMARK SMILES IDX 67 49 32 51 58 52 41 53 57 54 42 55 45 56 56 57 72 58 43 59
REMARK SMILES IDX 44 60 55 62 73 63 46 64 33 65 34 66 39 67 35 68 36 69 38 70
REMARK SMILES IDX 40 71 37 72 59 73 60 74 65 75 61 76 62 77 64 78 66 79 63 80
REMARK SMILES IDX 47 81 48 82 53 83 49 84 50 85 52 86 54 87 51 88
REMARK H PARENT 16 5 8 15 1 24 1 25 21 31 71 50 45 61
REMARK Flexibility Score: inf
ROOT
ATOM      1  C   UNL A   1      31.433  29.258  25.245  1.00  0.00     0.116 C 
ENDROOT
BRANCH   1   2
ATOM      2  N   UNL A   1      32.421  29.460  24.205  1.00  0.00    -0.354 N 
ATOM      3  C   UNL A   1      33.127  28.523  23.502  1.00  0.00     0.249 C 
ATOM      4  O   UNL A   1      33.909  28.923  22.638  1.00  0.00    -0.272 OA
ATOM      5  H   UNL A   1      32.612  30.398  23.974  1.00  0.00     0.163 HD
BRANCH   3   6
ATOM      6  C   UNL A   1      32.977  27.033  23.864  1.00  0.00     0.207 C 
ATOM      7  C   UNL A   1      31.460  25.458  23.027  1.00  0.00     0.138 C 
ATOM      8  C   UNL A   1      32.855  24.875  22.896  1.00  0.00     0.037 C 
ATOM      9  O   UNL A   1      31.609  26.584  23.905  1.00  0.00    -0.363 OA
ATOM     10  C   UNL A   1      33.699  26.125  22.873  1.00  0.00     0.045 C 
BRANCH   7  11
ATOM     11  C   UNL A   1      30.346  24.520  23.528  1.00  0.00     0.148 C 
BRANCH  11  12
ATOM     12  N   UNL A   1      30.245  24.415  24.975  1.00  0.00    -0.349 N 
ATOM     13  C   UNL A   1      30.900  23.749  25.971  1.00  0.00     0.251 C 
ATOM     14  O   UNL A   1      30.429  23.906  27.101  1.00  0.00    -0.269 OA
ATOM     15  H   UNL A   1      29.511  24.967  25.329  1.00  0.00     0.163 HD
BRANCH  13  16
ATOM     16  C   UNL A   1      32.108  22.885  25.821  1.00  0.00     0.041 A 
ATOM     17  C   UNL A   1      34.232  21.016  25.487  1.00  0.00     0.050 A 
ATOM     18  C   UNL A   1      34.459  22.284  26.029  1.00  0.00     0.028 A 
ATOM     19  C   UNL A   1      32.934  20.715  25.056  1.00  0.00     0.064 A 
ATOM     20  C   UNL A   1      33.411  23.207  26.197  1.00  0.00     0.016 A 
ATOM     21  C   UNL A   1      31.889  21.625  25.233  1.00  0.00     0.036 A 
ATOM     22  Cl  UNL A   1      32.581  19.191  24.313  1.00  0.00    -0.082 Cl
BRANCH  17  23
ATOM     23  N   UNL A   1      35.303  20.154  25.273  1.00  0.00    -0.398 N 
ATOM     24  H   UNL A   1      36.148  20.500  24.905  1.00  0.00     0.156 HD
ATOM     25  H   UNL A   1      35.216  19.197  25.490  1.00  0.00     0.156 HD
ENDBRANCH  17  23
ENDBRANCH  13  16
ENDBRANCH  11  12
ENDBRANCH   7  11
ENDBRANCH   3   6
ENDBRANCH   1   2
BRANCH   1  26
ATOM     26  C   UNL A   1      31.815  29.944  26.553  1.00  0.00     0.023 C 
BRANCH  26  27
ATOM     27  C   UNL A   1      31.656  31.463  26.562  1.00  0.00     0.023 C 
BRANCH  27  28
ATOM     28  C   UNL A   1      32.885  32.245  27.010  1.00  0.00     0.116 C 
BRANCH  28  29
ATOM     29  N   UNL A   1      32.574  33.603  27.426  1.00  0.00    -0.352 N 
ATOM     30  C   UNL A   1      33.138  34.365  28.423  1.00  0.00     0.251 C 
ATOM     31  H   UNL A   1      31.853  34.042  26.919  1.00  0.00     0.163 HD
ATOM     32  O   UNL A   1      32.643  35.443  28.725  1.00  0.00    -0.269 OA
BRANCH  30  33
ATOM     33  C   UNL A   1      34.325  33.865  29.151  1.00  0.00     0.039 A 
ATOM     34  C   UNL A   1      34.142  32.939  30.181  1.00  0.00     0.014 A 
ATOM     35  C   UNL A   1      35.610  34.295  28.815  1.00  0.00     0.014 A 
ATOM     36  C   UNL A   1      35.253  32.388  30.823  1.00  0.00     0.010 A 
ATOM     37  C   UNL A   1      36.718  33.683  29.394  1.00  0.00     0.010 A 
ATOM     38  C   UNL A   1      36.553  32.723  30.405  1.00  0.00    -0.014 A 
BRANCH  38  39
ATOM     39  C   UNL A   1      37.748  32.076  31.006  1.00  0.00     0.031 A 
ATOM     40  C   UNL A   1      38.456  30.967  30.279  1.00  0.00     0.074 A 
ATOM     41  C   UNL A   1      38.152  32.437  32.239  1.00  0.00     0.049 A 
ATOM     42  N   UNL A   1      39.468  30.235  30.671  1.00  0.00    -0.248 NA
ATOM     43  C   UNL A   1      37.940  30.614  28.949  1.00  0.00     0.031 C 
ATOM     44  C   UNL A   1      37.519  33.461  33.071  1.00  0.00     0.029 A 
ATOM     45  N   UNL A   1      39.185  31.972  33.013  1.00  0.00    -0.354 N 
ATOM     46  C   UNL A   1      39.702  29.332  29.643  1.00  0.00     0.074 A 
ATOM     47  C   UNL A   1      38.685  29.565  28.639  1.00  0.00     0.031 C 
ATOM     48  C   UNL A   1      38.187  33.559  34.231  1.00  0.00     0.029 A 
ATOM     49  C   UNL A   1      39.269  32.580  34.243  1.00  0.00     0.049 A 
ATOM     50  H   UNL A   1      39.808  31.270  32.716  1.00  0.00     0.167 HD
ATOM     51  C   UNL A   1      40.688  28.410  29.530  1.00  0.00     0.037 A 
ATOM     52  C   UNL A   1      40.113  32.364  35.269  1.00  0.00     0.037 A 
ATOM     53  C   UNL A   1      41.702  28.185  30.527  1.00  0.00     0.049 A 
ATOM     54  C   UNL A   1      41.190  31.325  35.132  1.00  0.00     0.074 A 
ATOM     55  C   UNL A   1      42.774  27.310  30.485  1.00  0.00     0.029 A 
ATOM     56  N   UNL A   1      41.763  28.832  31.752  1.00  0.00    -0.354 N 
ATOM     57  N   UNL A   1      41.445  30.527  34.124  1.00  0.00    -0.248 NA
ATOM     58  C   UNL A   1      42.103  31.163  36.272  1.00  0.00     0.031 C 
ATOM     59  C   UNL A   1      43.453  27.391  31.706  1.00  0.00     0.029 A 
ATOM     60  C   UNL A   1      42.840  28.359  32.486  1.00  0.00     0.049 A 
ATOM     61  H   UNL A   1      41.135  29.528  32.056  1.00  0.00     0.167 HD
ATOM     62  C   UNL A   1      42.559  29.785  34.495  1.00  0.00     0.074 A 
ATOM     63  C   UNL A   1      42.940  30.240  35.816  1.00  0.00     0.031 C 
ATOM     64  C   UNL A   1      43.208  28.817  33.802  1.00  0.00     0.037 A 
BRANCH  51  65
ATOM     65  C   UNL A   1      40.707  27.574  28.280  1.00  0.00     0.057 A 
ATOM     66  C   UNL A   1      40.013  26.359  28.192  1.00  0.00     0.134 A 
ATOM     67  C   UNL A   1      41.421  27.991  27.150  1.00  0.00     0.134 A 
ATOM     68  F   UNL A   1      39.318  25.894  29.241  1.00  0.00    -0.206 F 
ATOM     69  C   UNL A   1      40.066  25.569  27.042  1.00  0.00     0.040 A 
ATOM     70  C   UNL A   1      41.452  27.225  25.983  1.00  0.00     0.040 A 
ATOM     71  F   UNL A   1      42.100  29.147  27.159  1.00  0.00    -0.206 F 
ATOM     72  C   UNL A   1      40.783  26.005  25.930  1.00  0.00     0.006 A 
ENDBRANCH  51  65
BRANCH  52  73
ATOM     73  C   UNL A   1      39.980  33.168  36.511  1.00  0.00     0.057 A 
ATOM     74  C   UNL A   1      39.122  32.772  37.542  1.00  0.00     0.134 A 
ATOM     75  C   UNL A   1      40.721  34.341  36.703  1.00  0.00     0.134 A 
ATOM     76  F   UNL A   1      38.373  31.666  37.409  1.00  0.00    -0.206 F 
ATOM     77  C   UNL A   1      38.995  33.516  38.715  1.00  0.00     0.040 A 
ATOM     78  C   UNL A   1      40.623  35.083  37.882  1.00  0.00     0.040 A 
ATOM     79  F   UNL A   1      41.568  34.770  35.756  1.00  0.00    -0.206 F 
ATOM     80  C   UNL A   1      39.753  34.672  38.891  1.00  0.00     0.006 A 
ENDBRANCH  52  73
BRANCH  64  81
ATOM     81  C   UNL A   1      44.418  28.203  34.447  1.00  0.00     0.057 A 
ATOM     82  C   UNL A   1      44.338  27.030  35.209  1.00  0.00     0.134 A 
ATOM     83  C   UNL A   1      45.686  28.772  34.269  1.00  0.00     0.134 A 
ATOM     84  F   UNL A   1      43.154  26.440  35.430  1.00  0.00    -0.206 F 
ATOM     85  C   UNL A   1      45.473  26.458  35.788  1.00  0.00     0.040 A 
ATOM     86  C   UNL A   1      46.831  28.194  34.818  1.00  0.00     0.040 A 
ATOM     87  F   UNL A   1      45.834  29.891  33.543  1.00  0.00    -0.206 F 
ATOM     88  C   UNL A   1      46.725  27.037  35.586  1.00  0.00     0.006 A 
ENDBRANCH  64  81
ENDBRANCH  38  39
ENDBRANCH  30  33
ENDBRANCH  28  29
ENDBRANCH  27  28
ENDBRANCH  26  27
ENDBRANCH   1  26
TORSDOF 15
ENDMDL
