MODEL 1
REMARK VINA RESULT:     -13.1      0.000      0.000
REMARK SMILES Cc1ccc(NC(=O)[C@H]2CC(Cl)=CC[C@@H]2C(=O)NCCCCNC(=O)c2ccc(-c3c4nc(c(-c5c(F)cccc5F)c5ccc([nH]5)c(-c5c(F)cccc5F)c5nc(c(-c6c(F)cccc6F)c6ccc3[nH]6)C=C5)C=C4)cc2)cc1[N+](=O)[O-]
REMARK SMILES IDX 20 1 19 2 18 3 16 4 17 5 15 7 9 8 10 9 11 10 14 11 12 12
REMARK SMILES IDX 13 13 7 14 6 15 8 17 5 18 1 19 2 20 3 21 81 22 4 23 80 24
REMARK SMILES IDX 82 25 83 26 84 27 21 28 22 29 23 30 24 31 25 33 26 34 27 35
REMARK SMILES IDX 79 36 28 37 78 38 29 39 30 40 31 41 72 42 32 43 77 44 71 45
REMARK SMILES IDX 73 46 33 47 76 48 70 49 69 50 34 52 60 53 43 54 59 55 44 56
REMARK SMILES IDX 47 57 58 58 74 59 45 60 46 61 57 63 75 64 48 65 35 66 36 67
REMARK SMILES IDX 41 68 37 69 38 70 40 71 42 72 39 73 61 74 62 75 67 76 63 77
REMARK SMILES IDX 64 78 66 79 68 80 65 81 49 82 50 83 55 84 51 85 52 86 54 87
REMARK SMILES IDX 56 88 53 89
REMARK H PARENT 18 6 6 16 23 32 73 51 47 62
REMARK Flexibility Score: inf
ROOT
ATOM      1  C   UNL A   1      32.727  30.564  27.026  1.00  0.00     0.023 C 
ENDROOT
BRANCH   1   2
ATOM      2  C   UNL A   1      33.133  29.094  27.215  1.00  0.00     0.116 C 
BRANCH   2   3
ATOM      3  N   UNL A   1      32.040  28.147  27.065  1.00  0.00    -0.356 N 
ATOM      4  C   UNL A   1      31.977  26.876  26.590  1.00  0.00     0.224 C 
ATOM      5  O   UNL A   1      30.896  26.293  26.717  1.00  0.00    -0.275 OA
ATOM      6  H   UNL A   1      31.171  28.497  27.369  1.00  0.00     0.163 HD
BRANCH   4   7
ATOM      7  C   UNL A   1      33.156  26.198  25.897  1.00  0.00     0.095 C 
ATOM      8  C   UNL A   1      32.990  26.304  24.361  1.00  0.00     0.097 C 
ATOM      9  C   UNL A   1      34.046  25.450  23.630  1.00  0.00     0.062 C 
ATOM     10  C   UNL A   1      34.020  24.034  24.102  1.00  0.00     0.015 C 
ATOM     11  C   UNL A   1      33.172  24.706  26.354  1.00  0.00     0.043 C 
ATOM     12  Cl  UNL A   1      34.481  22.830  22.959  1.00  0.00    -0.089 Cl
ATOM     13  C   UNL A   1      33.621  23.698  25.333  1.00  0.00    -0.010 C 
BRANCH   8  14
ATOM     14  C   UNL A   1      33.145  27.728  23.857  1.00  0.00     0.228 C 
ATOM     15  N   UNL A   1      32.127  28.479  23.352  1.00  0.00    -0.326 N 
ATOM     16  H   UNL A   1      32.418  29.366  23.042  1.00  0.00     0.169 HD
ATOM     17  O   UNL A   1      34.233  28.307  23.980  1.00  0.00    -0.274 OA
BRANCH  15  18
ATOM     18  C   UNL A   1      30.751  28.261  23.176  1.00  0.00     0.048 A 
ATOM     19  C   UNL A   1      26.439  28.199  23.547  1.00  0.00     0.052 C 
ATOM     20  C   UNL A   1      27.915  28.230  23.283  1.00  0.00     0.027 A 
ATOM     21  C   UNL A   1      28.665  27.078  23.548  1.00  0.00     0.012 A 
ATOM     22  C   UNL A   1      28.619  29.360  22.852  1.00  0.00     0.274 A 
ATOM     23  C   UNL A   1      30.065  27.092  23.485  1.00  0.00     0.027 A 
ATOM     24  C   UNL A   1      30.016  29.358  22.727  1.00  0.00     0.112 A 
BRANCH  22  25
ATOM     25  N   UNL A   1      27.957  30.639  22.646  1.00  0.00     0.063 N 
ATOM     26  O   UNL A   1      27.643  30.928  21.484  1.00  0.00    -0.258 OA
ATOM     27  O   UNL A   1      27.825  31.378  23.632  1.00  0.00    -0.258 OA
ENDBRANCH  22  25
ENDBRANCH  15  18
ENDBRANCH   8  14
ENDBRANCH   4   7
ENDBRANCH   2   3
ENDBRANCH   1   2
BRANCH   1  28
ATOM     28  C   UNL A   1      33.606  31.601  27.728  1.00  0.00     0.023 C 
BRANCH  28  29
ATOM     29  C   UNL A   1      35.089  31.266  27.817  1.00  0.00     0.116 C 
BRANCH  29  30
ATOM     30  N   UNL A   1      35.726  31.778  29.034  1.00  0.00    -0.352 N 
ATOM     31  C   UNL A   1      36.742  31.189  29.775  1.00  0.00     0.251 C 
ATOM     32  H   UNL A   1      35.394  32.645  29.364  1.00  0.00     0.163 HD
ATOM     33  O   UNL A   1      37.294  31.770  30.691  1.00  0.00    -0.269 OA
BRANCH  31  34
ATOM     34  C   UNL A   1      37.209  29.861  29.325  1.00  0.00     0.039 A 
ATOM     35  C   UNL A   1      37.521  28.933  30.321  1.00  0.00     0.014 A 
ATOM     36  C   UNL A   1      37.693  29.731  28.025  1.00  0.00     0.014 A 
ATOM     37  C   UNL A   1      38.548  28.029  30.084  1.00  0.00     0.010 A 
ATOM     38  C   UNL A   1      38.761  28.877  27.814  1.00  0.00     0.010 A 
ATOM     39  C   UNL A   1      39.244  28.096  28.873  1.00  0.00    -0.014 A 
BRANCH  39  40
ATOM     40  C   UNL A   1      40.573  27.511  28.725  1.00  0.00     0.031 A 
ATOM     41  C   UNL A   1      40.729  26.087  28.375  1.00  0.00     0.074 A 
ATOM     42  C   UNL A   1      41.678  28.256  28.959  1.00  0.00     0.049 A 
ATOM     43  N   UNL A   1      41.693  25.344  28.804  1.00  0.00    -0.248 NA
ATOM     44  C   UNL A   1      39.772  25.375  27.538  1.00  0.00     0.031 C 
ATOM     45  C   UNL A   1      43.067  27.870  28.725  1.00  0.00     0.029 A 
ATOM     46  N   UNL A   1      41.768  29.456  29.682  1.00  0.00    -0.354 N 
ATOM     47  C   UNL A   1      41.633  24.149  28.124  1.00  0.00     0.074 A 
ATOM     48  C   UNL A   1      40.389  24.199  27.389  1.00  0.00     0.031 C 
ATOM     49  C   UNL A   1      43.860  28.609  29.515  1.00  0.00     0.029 A 
ATOM     50  C   UNL A   1      43.004  29.422  30.360  1.00  0.00     0.049 A 
ATOM     51  H   UNL A   1      41.099  30.178  29.711  1.00  0.00     0.167 HD
ATOM     52  C   UNL A   1      42.697  23.297  28.154  1.00  0.00     0.037 A 
ATOM     53  C   UNL A   1      43.088  29.511  31.717  1.00  0.00     0.037 A 
ATOM     54  C   UNL A   1      43.788  23.826  28.966  1.00  0.00     0.049 A 
ATOM     55  C   UNL A   1      43.742  28.319  32.375  1.00  0.00     0.074 A 
ATOM     56  C   UNL A   1      44.933  24.536  28.639  1.00  0.00     0.029 A 
ATOM     57  N   UNL A   1      43.645  23.924  30.344  1.00  0.00    -0.354 N 
ATOM     58  N   UNL A   1      43.957  27.185  31.768  1.00  0.00    -0.248 NA
ATOM     59  C   UNL A   1      44.160  28.287  33.775  1.00  0.00     0.031 C 
ATOM     60  C   UNL A   1      45.458  25.099  29.825  1.00  0.00     0.029 A 
ATOM     61  C   UNL A   1      44.642  24.718  30.876  1.00  0.00     0.049 A 
ATOM     62  H   UNL A   1      42.933  23.489  30.866  1.00  0.00     0.167 HD
ATOM     63  C   UNL A   1      44.468  26.278  32.661  1.00  0.00     0.074 A 
ATOM     64  C   UNL A   1      44.609  27.025  33.894  1.00  0.00     0.031 C 
ATOM     65  C   UNL A   1      44.704  24.980  32.305  1.00  0.00     0.037 A 
BRANCH  52  66
ATOM     66  C   UNL A   1      42.850  22.140  27.196  1.00  0.00     0.057 A 
ATOM     67  C   UNL A   1      42.063  20.978  27.320  1.00  0.00     0.134 A 
ATOM     68  C   UNL A   1      43.795  22.094  26.159  1.00  0.00     0.134 A 
ATOM     69  F   UNL A   1      41.038  20.907  28.178  1.00  0.00    -0.206 F 
ATOM     70  C   UNL A   1      42.294  19.819  26.570  1.00  0.00     0.040 A 
ATOM     71  C   UNL A   1      44.076  20.924  25.438  1.00  0.00     0.040 A 
ATOM     72  F   UNL A   1      44.459  23.192  25.773  1.00  0.00    -0.206 F 
ATOM     73  C   UNL A   1      43.335  19.772  25.655  1.00  0.00     0.006 A 
ENDBRANCH  52  66
BRANCH  53  74
ATOM     74  C   UNL A   1      42.025  30.350  32.323  1.00  0.00     0.057 A 
ATOM     75  C   UNL A   1      40.897  29.714  32.872  1.00  0.00     0.134 A 
ATOM     76  C   UNL A   1      42.249  31.679  32.689  1.00  0.00     0.134 A 
ATOM     77  F   UNL A   1      40.630  28.434  32.568  1.00  0.00    -0.206 F 
ATOM     78  C   UNL A   1      40.087  30.337  33.824  1.00  0.00     0.040 A 
ATOM     79  C   UNL A   1      41.440  32.315  33.637  1.00  0.00     0.040 A 
ATOM     80  F   UNL A   1      43.315  32.344  32.221  1.00  0.00    -0.206 F 
ATOM     81  C   UNL A   1      40.380  31.634  34.234  1.00  0.00     0.006 A 
ENDBRANCH  53  74
BRANCH  65  82
ATOM     82  C   UNL A   1      45.082  23.850  33.230  1.00  0.00     0.057 A 
ATOM     83  C   UNL A   1      46.346  23.695  33.815  1.00  0.00     0.134 A 
ATOM     84  C   UNL A   1      44.094  22.946  33.687  1.00  0.00     0.134 A 
ATOM     85  F   UNL A   1      47.349  24.543  33.551  1.00  0.00    -0.206 F 
ATOM     86  C   UNL A   1      46.622  22.686  34.750  1.00  0.00     0.040 A 
ATOM     87  C   UNL A   1      44.345  21.971  34.657  1.00  0.00     0.040 A 
ATOM     88  F   UNL A   1      42.836  22.985  33.225  1.00  0.00    -0.206 F 
ATOM     89  C   UNL A   1      45.618  21.829  35.184  1.00  0.00     0.006 A 
ENDBRANCH  65  82
ENDBRANCH  39  40
ENDBRANCH  31  34
ENDBRANCH  29  30
ENDBRANCH  28  29
ENDBRANCH   1  28
TORSDOF 14
ENDMDL
MODEL 2
REMARK VINA RESULT:     -13.0      4.558      9.867
REMARK SMILES Cc1ccc(NC(=O)[C@H]2CC(Cl)=CC[C@@H]2C(=O)NCCCCNC(=O)c2ccc(-c3c4nc(c(-c5c(F)cccc5F)c5ccc([nH]5)c(-c5c(F)cccc5F)c5nc(c(-c6c(F)cccc6F)c6ccc3[nH]6)C=C5)C=C4)cc2)cc1[N+](=O)[O-]
REMARK SMILES IDX 20 1 19 2 18 3 16 4 17 5 15 7 9 8 10 9 11 10 14 11 12 12
REMARK SMILES IDX 13 13 7 14 6 15 8 17 5 18 1 19 2 20 3 21 81 22 4 23 80 24
REMARK SMILES IDX 82 25 83 26 84 27 21 28 22 29 23 30 24 31 25 33 26 34 27 35
REMARK SMILES IDX 79 36 28 37 78 38 29 39 30 40 31 41 72 42 32 43 77 44 71 45
REMARK SMILES IDX 73 46 33 47 76 48 70 49 69 50 34 52 60 53 43 54 59 55 44 56
REMARK SMILES IDX 47 57 58 58 74 59 45 60 46 61 57 63 75 64 48 65 35 66 36 67
REMARK SMILES IDX 41 68 37 69 38 70 40 71 42 72 39 73 61 74 62 75 67 76 63 77
REMARK SMILES IDX 64 78 66 79 68 80 65 81 49 82 50 83 55 84 51 85 52 86 54 87
REMARK SMILES IDX 56 88 53 89
REMARK H PARENT 18 6 6 16 23 32 73 51 47 62
REMARK Flexibility Score: inf
ROOT
ATOM      1  C   UNL A   1      37.776  21.498  25.024  1.00  0.00     0.023 C 
ENDROOT
BRANCH   1   2
ATOM      2  C   UNL A   1      37.178  22.866  24.664  1.00  0.00     0.116 C 
BRANCH   2   3
ATOM      3  N   UNL A   1      36.140  22.817  23.647  1.00  0.00    -0.356 N 
ATOM      4  C   UNL A   1      35.002  23.533  23.450  1.00  0.00     0.224 C 
ATOM      5  O   UNL A   1      34.391  23.320  22.399  1.00  0.00    -0.275 OA
ATOM      6  H   UNL A   1      36.292  22.125  22.962  1.00  0.00     0.163 HD
BRANCH   4   7
ATOM      7  C   UNL A   1      34.469  24.526  24.480  1.00  0.00     0.095 C 
ATOM      8  C   UNL A   1      33.413  23.833  25.375  1.00  0.00     0.097 C 
ATOM      9  C   UNL A   1      32.700  24.854  26.283  1.00  0.00     0.062 C 
ATOM     10  C   UNL A   1      32.115  25.973  25.486  1.00  0.00     0.015 C 
ATOM     11  C   UNL A   1      33.838  25.718  23.696  1.00  0.00     0.043 C 
ATOM     12  Cl  UNL A   1      30.698  26.716  26.125  1.00  0.00    -0.089 Cl
ATOM     13  C   UNL A   1      32.627  26.360  24.314  1.00  0.00    -0.010 C 
BRANCH   8  14
ATOM     14  C   UNL A   1      34.023  22.780  26.285  1.00  0.00     0.228 C 
ATOM     15  N   UNL A   1      33.854  21.438  26.128  1.00  0.00    -0.326 N 
ATOM     16  H   UNL A   1      34.294  20.909  26.831  1.00  0.00     0.169 HD
ATOM     17  O   UNL A   1      34.803  23.124  27.184  1.00  0.00    -0.274 OA
BRANCH  15  18
ATOM     18  C   UNL A   1      33.187  20.645  25.180  1.00  0.00     0.048 A 
ATOM     19  C   UNL A   1      32.153  17.993  21.920  1.00  0.00     0.052 C 
ATOM     20  C   UNL A   1      32.410  18.854  23.120  1.00  0.00     0.027 A 
ATOM     21  C   UNL A   1      32.154  20.227  23.025  1.00  0.00     0.012 A 
ATOM     22  C   UNL A   1      32.957  18.393  24.323  1.00  0.00     0.274 A 
ATOM     23  C   UNL A   1      32.529  21.109  24.047  1.00  0.00     0.027 A 
ATOM     24  C   UNL A   1      33.275  19.266  25.373  1.00  0.00     0.112 A 
BRANCH  22  25
ATOM     25  N   UNL A   1      33.357  17.006  24.497  1.00  0.00     0.063 N 
ATOM     26  O   UNL A   1      32.588  16.274  25.133  1.00  0.00    -0.258 OA
ATOM     27  O   UNL A   1      34.471  16.675  24.065  1.00  0.00    -0.258 OA
ENDBRANCH  22  25
ENDBRANCH  15  18
ENDBRANCH   8  14
ENDBRANCH   4   7
ENDBRANCH   2   3
ENDBRANCH   1   2
BRANCH   1  28
ATOM     28  C   UNL A   1      39.053  21.521  25.867  1.00  0.00     0.023 C 
BRANCH  28  29
ATOM     29  C   UNL A   1      39.368  22.840  26.561  1.00  0.00     0.116 C 
BRANCH  29  30
ATOM     30  N   UNL A   1      40.786  23.205  26.494  1.00  0.00    -0.352 N 
ATOM     31  C   UNL A   1      41.346  24.470  26.621  1.00  0.00     0.251 C 
ATOM     32  H   UNL A   1      41.417  22.465  26.340  1.00  0.00     0.163 HD
ATOM     33  O   UNL A   1      42.549  24.639  26.689  1.00  0.00    -0.269 OA
BRANCH  31  34
ATOM     34  C   UNL A   1      40.407  25.598  26.792  1.00  0.00     0.039 A 
ATOM     35  C   UNL A   1      40.779  26.818  26.223  1.00  0.00     0.014 A 
ATOM     36  C   UNL A   1      39.453  25.523  27.805  1.00  0.00     0.014 A 
ATOM     37  C   UNL A   1      40.402  27.990  26.865  1.00  0.00     0.010 A 
ATOM     38  C   UNL A   1      39.136  26.687  28.482  1.00  0.00     0.010 A 
ATOM     39  C   UNL A   1      39.687  27.906  28.064  1.00  0.00    -0.014 A 
BRANCH  39  40
ATOM     40  C   UNL A   1      39.641  29.022  29.003  1.00  0.00     0.031 A 
ATOM     41  C   UNL A   1      38.588  30.050  28.892  1.00  0.00     0.074 A 
ATOM     42  C   UNL A   1      40.594  29.157  29.954  1.00  0.00     0.049 A 
ATOM     43  N   UNL A   1      38.768  31.295  29.181  1.00  0.00    -0.248 NA
ATOM     44  C   UNL A   1      37.250  29.753  28.401  1.00  0.00     0.031 C 
ATOM     45  C   UNL A   1      40.619  30.125  31.047  1.00  0.00     0.029 A 
ATOM     46  N   UNL A   1      41.868  28.569  29.981  1.00  0.00    -0.354 N 
ATOM     47  C   UNL A   1      37.538  31.911  29.154  1.00  0.00     0.074 A 
ATOM     48  C   UNL A   1      36.635  30.920  28.611  1.00  0.00     0.031 C 
ATOM     49  C   UNL A   1      41.888  30.295  31.444  1.00  0.00     0.029 A 
ATOM     50  C   UNL A   1      42.735  29.522  30.555  1.00  0.00     0.049 A 
ATOM     51  H   UNL A   1      42.109  27.669  29.662  1.00  0.00     0.167 HD
ATOM     52  C   UNL A   1      37.386  33.147  29.709  1.00  0.00     0.037 A 
ATOM     53  C   UNL A   1      43.828  29.997  29.893  1.00  0.00     0.037 A 
ATOM     54  C   UNL A   1      38.640  33.647  30.263  1.00  0.00     0.049 A 
ATOM     55  C   UNL A   1      43.819  31.491  29.679  1.00  0.00     0.074 A 
ATOM     56  C   UNL A   1      39.165  33.625  31.545  1.00  0.00     0.029 A 
ATOM     57  N   UNL A   1      39.684  33.997  29.417  1.00  0.00    -0.354 N 
ATOM     58  N   UNL A   1      42.764  32.240  29.844  1.00  0.00    -0.248 NA
ATOM     59  C   UNL A   1      44.975  32.257  29.217  1.00  0.00     0.031 C 
ATOM     60  C   UNL A   1      40.545  33.924  31.463  1.00  0.00     0.029 A 
ATOM     61  C   UNL A   1      40.855  34.145  30.133  1.00  0.00     0.049 A 
ATOM     62  H   UNL A   1      39.599  34.123  28.444  1.00  0.00     0.167 HD
ATOM     63  C   UNL A   1      43.054  33.529  29.474  1.00  0.00     0.074 A 
ATOM     64  C   UNL A   1      44.460  33.496  29.122  1.00  0.00     0.031 C 
ATOM     65  C   UNL A   1      42.097  34.503  29.466  1.00  0.00     0.037 A 
BRANCH  52  66
ATOM     66  C   UNL A   1      36.036  33.751  30.013  1.00  0.00     0.057 A 
ATOM     67  C   UNL A   1      35.203  34.236  28.986  1.00  0.00     0.134 A 
ATOM     68  C   UNL A   1      35.524  33.926  31.309  1.00  0.00     0.134 A 
ATOM     69  F   UNL A   1      35.487  34.039  27.692  1.00  0.00    -0.206 F 
ATOM     70  C   UNL A   1      34.030  34.960  29.235  1.00  0.00     0.040 A 
ATOM     71  C   UNL A   1      34.382  34.696  31.576  1.00  0.00     0.040 A 
ATOM     72  F   UNL A   1      36.086  33.325  32.366  1.00  0.00    -0.206 F 
ATOM     73  C   UNL A   1      33.639  35.233  30.536  1.00  0.00     0.006 A 
ENDBRANCH  52  66
BRANCH  53  74
ATOM     74  C   UNL A   1      44.448  29.003  28.983  1.00  0.00     0.057 A 
ATOM     75  C   UNL A   1      44.142  29.065  27.611  1.00  0.00     0.134 A 
ATOM     76  C   UNL A   1      45.569  28.258  29.353  1.00  0.00     0.134 A 
ATOM     77  F   UNL A   1      43.082  29.772  27.188  1.00  0.00    -0.206 F 
ATOM     78  C   UNL A   1      44.973  28.498  26.642  1.00  0.00     0.040 A 
ATOM     79  C   UNL A   1      46.405  27.680  28.391  1.00  0.00     0.040 A 
ATOM     80  F   UNL A   1      45.935  28.170  30.640  1.00  0.00    -0.206 F 
ATOM     81  C   UNL A   1      46.129  27.831  27.032  1.00  0.00     0.006 A 
ENDBRANCH  53  74
BRANCH  65  82
ATOM     82  C   UNL A   1      42.240  35.898  28.908  1.00  0.00     0.057 A 
ATOM     83  C   UNL A   1      43.002  36.913  29.502  1.00  0.00     0.134 A 
ATOM     84  C   UNL A   1      41.714  36.209  27.632  1.00  0.00     0.134 A 
ATOM     85  F   UNL A   1      43.641  36.722  30.664  1.00  0.00    -0.206 F 
ATOM     86  C   UNL A   1      43.189  38.164  28.894  1.00  0.00     0.040 A 
ATOM     87  C   UNL A   1      41.938  37.432  26.995  1.00  0.00     0.040 A 
ATOM     88  F   UNL A   1      40.977  35.328  26.941  1.00  0.00    -0.206 F 
ATOM     89  C   UNL A   1      42.668  38.422  27.632  1.00  0.00     0.006 A 
ENDBRANCH  65  82
ENDBRANCH  39  40
ENDBRANCH  31  34
ENDBRANCH  29  30
ENDBRANCH  28  29
ENDBRANCH   1  28
TORSDOF 14
ENDMDL
MODEL 3
REMARK VINA RESULT:     -12.9      2.654      4.216
REMARK SMILES Cc1ccc(NC(=O)[C@H]2CC(Cl)=CC[C@@H]2C(=O)NCCCCNC(=O)c2ccc(-c3c4nc(c(-c5c(F)cccc5F)c5ccc([nH]5)c(-c5c(F)cccc5F)c5nc(c(-c6c(F)cccc6F)c6ccc3[nH]6)C=C5)C=C4)cc2)cc1[N+](=O)[O-]
REMARK SMILES IDX 20 1 19 2 18 3 16 4 17 5 15 7 9 8 10 9 11 10 14 11 12 12
REMARK SMILES IDX 13 13 7 14 6 15 8 17 5 18 1 19 2 20 3 21 81 22 4 23 80 24
REMARK SMILES IDX 82 25 83 26 84 27 21 28 22 29 23 30 24 31 25 33 26 34 27 35
REMARK SMILES IDX 79 36 28 37 78 38 29 39 30 40 31 41 72 42 32 43 77 44 71 45
REMARK SMILES IDX 73 46 33 47 76 48 70 49 69 50 34 52 60 53 43 54 59 55 44 56
REMARK SMILES IDX 47 57 58 58 74 59 45 60 46 61 57 63 75 64 48 65 35 66 36 67
REMARK SMILES IDX 41 68 37 69 38 70 40 71 42 72 39 73 61 74 62 75 67 76 63 77
REMARK SMILES IDX 64 78 66 79 68 80 65 81 49 82 50 83 55 84 51 85 52 86 54 87
REMARK SMILES IDX 56 88 53 89
REMARK H PARENT 18 6 6 16 23 32 73 51 47 62
REMARK Flexibility Score: inf
ROOT
ATOM      1  C   UNL A   1      35.413  30.817  27.629  1.00  0.00     0.023 C 
ENDROOT
BRANCH   1   2
ATOM      2  C   UNL A   1      34.997  29.351  27.440  1.00  0.00     0.116 C 
BRANCH   2   3
ATOM      3  N   UNL A   1      33.640  29.172  26.948  1.00  0.00    -0.356 N 
ATOM      4  C   UNL A   1      33.081  28.296  26.073  1.00  0.00     0.224 C 
ATOM      5  O   UNL A   1      31.852  28.333  25.966  1.00  0.00    -0.275 OA
ATOM      6  H   UNL A   1      32.996  29.815  27.326  1.00  0.00     0.163 HD
BRANCH   4   7
ATOM      7  C   UNL A   1      33.913  27.336  25.228  1.00  0.00     0.095 C 
ATOM      8  C   UNL A   1      33.268  27.178  23.829  1.00  0.00     0.097 C 
ATOM      9  C   UNL A   1      33.956  26.057  23.025  1.00  0.00     0.062 C 
ATOM     10  C   UNL A   1      33.970  24.773  23.785  1.00  0.00     0.015 C 
ATOM     11  C   UNL A   1      33.954  25.969  25.979  1.00  0.00     0.043 C 
ATOM     12  Cl  UNL A   1      33.936  23.324  22.854  1.00  0.00    -0.089 Cl
ATOM     13  C   UNL A   1      33.965  24.734  25.121  1.00  0.00    -0.010 C 
BRANCH   8  14
ATOM     14  C   UNL A   1      33.366  28.446  22.997  1.00  0.00     0.228 C 
ATOM     15  N   UNL A   1      32.300  29.077  22.431  1.00  0.00    -0.326 N 
ATOM     16  H   UNL A   1      32.556  29.863  21.898  1.00  0.00     0.169 HD
ATOM     17  O   UNL A   1      34.457  29.020  22.881  1.00  0.00    -0.274 OA
BRANCH  15  18
ATOM     18  C   UNL A   1      30.915  28.846  22.439  1.00  0.00     0.048 A 
ATOM     19  C   UNL A   1      26.670  28.869  23.287  1.00  0.00     0.052 C 
ATOM     20  C   UNL A   1      28.108  28.852  22.861  1.00  0.00     0.027 A 
ATOM     21  C   UNL A   1      28.892  27.742  23.198  1.00  0.00     0.012 A 
ATOM     22  C   UNL A   1      28.752  29.906  22.203  1.00  0.00     0.274 A 
ATOM     23  C   UNL A   1      30.276  27.737  22.980  1.00  0.00     0.027 A 
ATOM     24  C   UNL A   1      30.126  29.876  21.926  1.00  0.00     0.112 A 
BRANCH  22  25
ATOM     25  N   UNL A   1      28.061  31.148  21.895  1.00  0.00     0.063 N 
ATOM     26  O   UNL A   1      27.974  31.983  22.804  1.00  0.00    -0.258 OA
ATOM     27  O   UNL A   1      27.542  31.249  20.773  1.00  0.00    -0.258 OA
ENDBRANCH  22  25
ENDBRANCH  15  18
ENDBRANCH   8  14
ENDBRANCH   4   7
ENDBRANCH   2   3
ENDBRANCH   1   2
BRANCH   1  28
ATOM     28  C   UNL A   1      34.448  31.695  28.429  1.00  0.00     0.023 C 
BRANCH  28  29
ATOM     29  C   UNL A   1      35.050  32.427  29.622  1.00  0.00     0.116 C 
BRANCH  29  30
ATOM     30  N   UNL A   1      34.059  33.175  30.401  1.00  0.00    -0.352 N 
ATOM     31  C   UNL A   1      34.237  33.799  31.629  1.00  0.00     0.251 C 
ATOM     32  H   UNL A   1      33.159  33.243  30.007  1.00  0.00     0.163 HD
ATOM     33  O   UNL A   1      33.383  34.512  32.121  1.00  0.00    -0.269 OA
BRANCH  31  34
ATOM     34  C   UNL A   1      35.566  33.655  32.262  1.00  0.00     0.039 A 
ATOM     35  C   UNL A   1      36.571  34.517  31.820  1.00  0.00     0.014 A 
ATOM     36  C   UNL A   1      35.861  32.466  32.926  1.00  0.00     0.014 A 
ATOM     37  C   UNL A   1      37.879  34.050  31.792  1.00  0.00     0.010 A 
ATOM     38  C   UNL A   1      37.152  31.977  32.835  1.00  0.00     0.010 A 
ATOM     39  C   UNL A   1      38.136  32.733  32.184  1.00  0.00    -0.014 A 
BRANCH  39  40
ATOM     40  C   UNL A   1      39.356  32.043  31.779  1.00  0.00     0.031 A 
ATOM     41  C   UNL A   1      39.292  30.867  30.892  1.00  0.00     0.074 A 
ATOM     42  C   UNL A   1      40.559  32.443  32.256  1.00  0.00     0.049 A 
ATOM     43  N   UNL A   1      40.105  29.867  30.965  1.00  0.00    -0.248 NA
ATOM     44  C   UNL A   1      38.265  30.709  29.871  1.00  0.00     0.031 C 
ATOM     45  C   UNL A   1      41.874  31.958  31.847  1.00  0.00     0.029 A 
ATOM     46  N   UNL A   1      40.814  33.230  33.390  1.00  0.00    -0.354 N 
ATOM     47  C   UNL A   1      39.877  29.064  29.872  1.00  0.00     0.074 A 
ATOM     48  C   UNL A   1      38.687  29.603  29.252  1.00  0.00     0.031 C 
ATOM     49  C   UNL A   1      42.745  32.184  32.841  1.00  0.00     0.029 A 
ATOM     50  C   UNL A   1      42.002  32.729  33.962  1.00  0.00     0.049 A 
ATOM     51  H   UNL A   1      40.272  33.982  33.720  1.00  0.00     0.167 HD
ATOM     52  C   UNL A   1      40.787  28.106  29.532  1.00  0.00     0.037 A 
ATOM     53  C   UNL A   1      42.046  32.262  35.242  1.00  0.00     0.037 A 
ATOM     54  C   UNL A   1      41.917  28.086  30.455  1.00  0.00     0.049 A 
ATOM     55  C   UNL A   1      42.472  30.818  35.358  1.00  0.00     0.074 A 
ATOM     56  C   UNL A   1      43.174  28.668  30.400  1.00  0.00     0.029 A 
ATOM     57  N   UNL A   1      41.739  27.657  31.763  1.00  0.00    -0.354 N 
ATOM     58  N   UNL A   1      42.523  29.995  34.348  1.00  0.00    -0.248 NA
ATOM     59  C   UNL A   1      42.825  30.169  36.619  1.00  0.00     0.031 C 
ATOM     60  C   UNL A   1      43.738  28.624  31.696  1.00  0.00     0.029 A 
ATOM     61  C   UNL A   1      42.832  28.001  32.535  1.00  0.00     0.049 A 
ATOM     62  H   UNL A   1      40.947  27.175  32.093  1.00  0.00     0.167 HD
ATOM     63  C   UNL A   1      42.845  28.739  34.795  1.00  0.00     0.074 A 
ATOM     64  C   UNL A   1      43.058  28.906  36.218  1.00  0.00     0.031 C 
ATOM     65  C   UNL A   1      42.880  27.666  33.949  1.00  0.00     0.037 A 
BRANCH  52  66
ATOM     66  C   UNL A   1      40.786  27.411  28.192  1.00  0.00     0.057 A 
ATOM     67  C   UNL A   1      40.179  26.151  28.021  1.00  0.00     0.134 A 
ATOM     68  C   UNL A   1      41.414  27.914  27.041  1.00  0.00     0.134 A 
ATOM     69  F   UNL A   1      39.438  25.587  28.983  1.00  0.00    -0.206 F 
ATOM     70  C   UNL A   1      40.310  25.396  26.849  1.00  0.00     0.040 A 
ATOM     71  C   UNL A   1      41.601  27.149  25.881  1.00  0.00     0.040 A 
ATOM     72  F   UNL A   1      41.838  29.184  26.979  1.00  0.00    -0.206 F 
ATOM     73  C   UNL A   1      41.063  25.874  25.788  1.00  0.00     0.006 A 
ENDBRANCH  52  66
BRANCH  53  74
ATOM     74  C   UNL A   1      41.112  32.958  36.160  1.00  0.00     0.057 A 
ATOM     75  C   UNL A   1      39.852  32.381  36.401  1.00  0.00     0.134 A 
ATOM     76  C   UNL A   1      41.545  33.939  37.053  1.00  0.00     0.134 A 
ATOM     77  F   UNL A   1      39.381  31.425  35.585  1.00  0.00    -0.206 F 
ATOM     78  C   UNL A   1      39.102  32.691  37.538  1.00  0.00     0.040 A 
ATOM     79  C   UNL A   1      40.799  34.263  38.192  1.00  0.00     0.040 A 
ATOM     80  F   UNL A   1      42.744  34.520  36.900  1.00  0.00    -0.206 F 
ATOM     81  C   UNL A   1      39.593  33.613  38.456  1.00  0.00     0.006 A 
ENDBRANCH  53  74
BRANCH  65  82
ATOM     82  C   UNL A   1      43.033  26.218  34.344  1.00  0.00     0.057 A 
ATOM     83  C   UNL A   1      42.105  25.505  35.115  1.00  0.00     0.134 A 
ATOM     84  C   UNL A   1      44.088  25.443  33.805  1.00  0.00     0.134 A 
ATOM     85  F   UNL A   1      41.004  26.090  35.605  1.00  0.00    -0.206 F 
ATOM     86  C   UNL A   1      42.240  24.132  35.371  1.00  0.00     0.040 A 
ATOM     87  C   UNL A   1      44.201  24.066  34.011  1.00  0.00     0.040 A 
ATOM     88  F   UNL A   1      45.041  25.989  33.037  1.00  0.00    -0.206 F 
ATOM     89  C   UNL A   1      43.282  23.405  34.808  1.00  0.00     0.006 A 
ENDBRANCH  65  82
ENDBRANCH  39  40
ENDBRANCH  31  34
ENDBRANCH  29  30
ENDBRANCH  28  29
ENDBRANCH   1  28
TORSDOF 14
ENDMDL
