MODEL 1
REMARK VINA RESULT:     -11.1      0.000      0.000
REMARK SMILES C[NH2+][C@]1(C(=O)NCCCCNC(=O)c2ccc(-c3c4nc(c(-c5c(F)cccc5F)c5ccc([nH]5)c(-c5c(F)cccc5F)c5nc(c(-c6c(F)cccc6F)c6ccc3[nH]6)C=C5)C=C4)cc2)CCC[C@@H]1CCn1nc(C)c(Cl)c1C
REMARK SMILES IDX 8 1 7 2 6 3 4 4 5 5 3 7 68 8 71 9 69 10 70 11 2 12 1 13
REMARK SMILES IDX 72 16 73 17 74 18 75 19 80 20 76 21 78 22 81 23 77 24 79 25
REMARK SMILES IDX 9 26 10 27 11 28 12 29 13 31 14 32 15 33 67 34 16 35 66 36
REMARK SMILES IDX 17 37 18 38 19 39 60 40 20 41 65 42 59 43 61 44 21 45 64 46
REMARK SMILES IDX 58 47 57 48 22 50 48 51 31 52 47 53 32 54 35 55 46 56 62 57
REMARK SMILES IDX 33 58 34 59 45 61 63 62 36 63 23 64 24 65 29 66 25 67 26 68
REMARK SMILES IDX 28 69 30 70 27 71 49 72 50 73 55 74 51 75 52 76 54 77 56 78
REMARK SMILES IDX 53 79 37 80 38 81 43 82 39 83 40 84 42 85 44 86 41 87
REMARK H PARENT 6 6 2 14 2 15 11 30 61 49 35 60
REMARK Flexibility Score: inf
ROOT
ATOM      1  C   UNL A   1      37.155  21.444  24.359  1.00  0.00     0.023 C 
ENDROOT
BRANCH   1   2
ATOM      2  C   UNL A   1      36.704  22.486  25.374  1.00  0.00     0.116 C 
BRANCH   2   3
ATOM      3  N   UNL A   1      35.728  21.964  26.315  1.00  0.00    -0.351 N 
ATOM      4  C   UNL A   1      34.362  21.984  26.365  1.00  0.00     0.281 C 
ATOM      5  O   UNL A   1      33.897  21.302  27.284  1.00  0.00    -0.268 OA
ATOM      6  H   UNL A   1      36.136  21.498  27.079  1.00  0.00     0.163 HD
BRANCH   4   7
ATOM      7  C   UNL A   1      33.484  22.771  25.325  1.00  0.00     0.178 C 
ATOM      8  C   UNL A   1      33.690  22.230  23.892  1.00  0.00     0.079 C 
ATOM      9  C   UNL A   1      31.968  22.517  25.564  1.00  0.00     0.062 C 
ATOM     10  C   UNL A   1      32.362  22.433  23.158  1.00  0.00     0.008 C 
ATOM     11  C   UNL A   1      31.311  22.798  24.208  1.00  0.00     0.011 C 
BRANCH   7  12
ATOM     12  N   UNL A   1      33.745  24.236  25.173  1.00  0.00    -0.336 N 
ATOM     13  C   UNL A   1      34.444  24.717  23.999  1.00  0.00     0.331 C 
ATOM     14  H   UNL A   1      32.838  24.703  25.189  1.00  0.00     0.346 HD
ATOM     15  H   UNL A   1      34.386  24.446  25.937  1.00  0.00     0.346 HD
ENDBRANCH   7  12
BRANCH   9  16
ATOM     16  C   UNL A   1      31.351  23.284  26.746  1.00  0.00     0.034 C 
BRANCH  16  17
ATOM     17  C   UNL A   1      30.263  24.280  26.327  1.00  0.00     0.145 C 
BRANCH  17  18
ATOM     18  N   UNL A   1      30.759  25.624  26.064  1.00  0.00    -0.268 N 
ATOM     19  N   UNL A   1      31.724  26.110  26.873  1.00  0.00    -0.176 NA
ATOM     20  C   UNL A   1      30.405  26.496  25.062  1.00  0.00     0.054 A 
ATOM     21  C   UNL A   1      32.040  27.299  26.344  1.00  0.00     0.078 A 
ATOM     22  C   UNL A   1      31.253  27.576  25.207  1.00  0.00     0.084 A 
ATOM     23  C   UNL A   1      29.322  26.274  24.073  1.00  0.00     0.068 C 
ATOM     24  C   UNL A   1      33.108  28.123  26.961  1.00  0.00     0.070 C 
ATOM     25  Cl  UNL A   1      31.333  28.964  24.238  1.00  0.00    -0.080 Cl
ENDBRANCH  17  18
ENDBRANCH  16  17
ENDBRANCH   9  16
ENDBRANCH   4   7
ENDBRANCH   2   3
ENDBRANCH   1   2
BRANCH   1  26
ATOM     26  C   UNL A   1      37.801  20.194  24.955  1.00  0.00     0.023 C 
BRANCH  26  27
ATOM     27  C   UNL A   1      38.949  20.448  25.923  1.00  0.00     0.116 C 
BRANCH  27  28
ATOM     28  N   UNL A   1      40.019  19.468  25.812  1.00  0.00    -0.352 N 
ATOM     29  C   UNL A   1      41.365  19.614  26.042  1.00  0.00     0.251 C 
ATOM     30  H   UNL A   1      39.736  18.568  25.530  1.00  0.00     0.163 HD
ATOM     31  O   UNL A   1      42.144  18.706  25.765  1.00  0.00    -0.269 OA
BRANCH  29  32
ATOM     32  C   UNL A   1      41.883  20.887  26.584  1.00  0.00     0.039 A 
ATOM     33  C   UNL A   1      42.328  21.863  25.689  1.00  0.00     0.014 A 
ATOM     34  C   UNL A   1      41.897  21.132  27.960  1.00  0.00     0.014 A 
ATOM     35  C   UNL A   1      42.704  23.118  26.168  1.00  0.00     0.010 A 
ATOM     36  C   UNL A   1      42.199  22.406  28.429  1.00  0.00     0.010 A 
ATOM     37  C   UNL A   1      42.595  23.414  27.536  1.00  0.00    -0.014 A 
BRANCH  37  38
ATOM     38  C   UNL A   1      42.870  24.781  28.046  1.00  0.00     0.031 A 
ATOM     39  C   UNL A   1      44.265  25.175  28.441  1.00  0.00     0.074 A 
ATOM     40  C   UNL A   1      41.849  25.642  28.217  1.00  0.00     0.049 A 
ATOM     41  N   UNL A   1      44.689  26.299  28.959  1.00  0.00    -0.248 NA
ATOM     42  C   UNL A   1      45.316  24.163  28.255  1.00  0.00     0.031 C 
ATOM     43  C   UNL A   1      40.442  25.358  27.925  1.00  0.00     0.029 A 
ATOM     44  N   UNL A   1      41.835  26.931  28.686  1.00  0.00    -0.354 N 
ATOM     45  C   UNL A   1      46.049  26.125  29.174  1.00  0.00     0.074 A 
ATOM     46  C   UNL A   1      46.370  24.772  28.778  1.00  0.00     0.031 C 
ATOM     47  C   UNL A   1      39.707  26.447  28.198  1.00  0.00     0.029 A 
ATOM     48  C   UNL A   1      40.583  27.494  28.714  1.00  0.00     0.049 A 
ATOM     49  H   UNL A   1      42.647  27.408  28.975  1.00  0.00     0.167 HD
ATOM     50  C   UNL A   1      46.953  27.020  29.638  1.00  0.00     0.037 A 
ATOM     51  C   UNL A   1      40.185  28.717  29.113  1.00  0.00     0.037 A 
ATOM     52  C   UNL A   1      46.637  28.375  30.005  1.00  0.00     0.049 A 
ATOM     53  C   UNL A   1      41.210  29.696  29.612  1.00  0.00     0.074 A 
ATOM     54  C   UNL A   1      47.492  29.378  30.426  1.00  0.00     0.029 A 
ATOM     55  N   UNL A   1      45.361  28.917  29.994  1.00  0.00    -0.354 N 
ATOM     56  N   UNL A   1      42.504  29.542  29.743  1.00  0.00    -0.248 NA
ATOM     57  C   UNL A   1      40.719  31.023  30.012  1.00  0.00     0.031 C 
ATOM     58  C   UNL A   1      46.729  30.517  30.703  1.00  0.00     0.029 A 
ATOM     59  C   UNL A   1      45.404  30.236  30.417  1.00  0.00     0.049 A 
ATOM     60  H   UNL A   1      44.544  28.436  29.727  1.00  0.00     0.167 HD
ATOM     61  C   UNL A   1      42.987  30.755  30.215  1.00  0.00     0.074 A 
ATOM     62  C   UNL A   1      41.847  31.641  30.335  1.00  0.00     0.031 C 
ATOM     63  C   UNL A   1      44.260  31.105  30.522  1.00  0.00     0.037 A 
BRANCH  50  64
ATOM     64  C   UNL A   1      48.375  26.560  29.765  1.00  0.00     0.057 A 
ATOM     65  C   UNL A   1      49.315  26.786  28.751  1.00  0.00     0.134 A 
ATOM     66  C   UNL A   1      48.816  25.907  30.923  1.00  0.00     0.134 A 
ATOM     67  F   UNL A   1      48.954  27.395  27.611  1.00  0.00    -0.206 F 
ATOM     68  C   UNL A   1      50.637  26.356  28.872  1.00  0.00     0.040 A 
ATOM     69  C   UNL A   1      50.142  25.494  31.065  1.00  0.00     0.040 A 
ATOM     70  F   UNL A   1      47.969  25.663  31.934  1.00  0.00    -0.206 F 
ATOM     71  C   UNL A   1      51.055  25.712  30.035  1.00  0.00     0.006 A 
ENDBRANCH  50  64
BRANCH  51  72
ATOM     72  C   UNL A   1      38.753  29.097  29.029  1.00  0.00     0.057 A 
ATOM     73  C   UNL A   1      37.917  29.000  30.147  1.00  0.00     0.134 A 
ATOM     74  C   UNL A   1      38.185  29.557  27.835  1.00  0.00     0.134 A 
ATOM     75  F   UNL A   1      38.399  28.549  31.314  1.00  0.00    -0.206 F 
ATOM     76  C   UNL A   1      36.562  29.331  30.077  1.00  0.00     0.040 A 
ATOM     77  C   UNL A   1      36.838  29.912  27.757  1.00  0.00     0.040 A 
ATOM     78  F   UNL A   1      38.937  29.678  26.731  1.00  0.00    -0.206 F 
ATOM     79  C   UNL A   1      36.020  29.794  28.879  1.00  0.00     0.006 A 
ENDBRANCH  51  72
BRANCH  63  80
ATOM     80  C   UNL A   1      44.489  32.513  30.984  1.00  0.00     0.057 A 
ATOM     81  C   UNL A   1      44.734  33.554  30.082  1.00  0.00     0.134 A 
ATOM     82  C   UNL A   1      44.427  32.833  32.347  1.00  0.00     0.134 A 
ATOM     83  F   UNL A   1      44.819  33.309  28.766  1.00  0.00    -0.206 F 
ATOM     84  C   UNL A   1      44.931  34.865  30.521  1.00  0.00     0.040 A 
ATOM     85  C   UNL A   1      44.598  34.144  32.794  1.00  0.00     0.040 A 
ATOM     86  F   UNL A   1      44.189  31.881  33.260  1.00  0.00    -0.206 F 
ATOM     87  C   UNL A   1      44.856  35.163  31.881  1.00  0.00     0.006 A 
ENDBRANCH  63  80
ENDBRANCH  37  38
ENDBRANCH  29  32
ENDBRANCH  27  28
ENDBRANCH  26  27
ENDBRANCH   1  26
TORSDOF 15
ENDMDL
MODEL 2
REMARK VINA RESULT:     -11.1      1.309      6.313
REMARK SMILES C[NH2+][C@]1(C(=O)NCCCCNC(=O)c2ccc(-c3c4nc(c(-c5c(F)cccc5F)c5ccc([nH]5)c(-c5c(F)cccc5F)c5nc(c(-c6c(F)cccc6F)c6ccc3[nH]6)C=C5)C=C4)cc2)CCC[C@@H]1CCn1nc(C)c(Cl)c1C
REMARK SMILES IDX 8 1 7 2 6 3 4 4 5 5 3 7 68 8 71 9 69 10 70 11 2 12 1 13
REMARK SMILES IDX 72 16 73 17 74 18 75 19 80 20 76 21 78 22 81 23 77 24 79 25
REMARK SMILES IDX 9 26 10 27 11 28 12 29 13 31 14 32 15 33 67 34 16 35 66 36
REMARK SMILES IDX 17 37 18 38 19 39 60 40 20 41 65 42 59 43 61 44 21 45 64 46
REMARK SMILES IDX 58 47 57 48 22 50 48 51 31 52 47 53 32 54 35 55 46 56 62 57
REMARK SMILES IDX 33 58 34 59 45 61 63 62 36 63 23 64 24 65 29 66 25 67 26 68
REMARK SMILES IDX 28 69 30 70 27 71 49 72 50 73 55 74 51 75 52 76 54 77 56 78
REMARK SMILES IDX 53 79 37 80 38 81 43 82 39 83 40 84 42 85 44 86 41 87
REMARK H PARENT 6 6 2 14 2 15 11 30 61 49 35 60
REMARK Flexibility Score: inf
ROOT
ATOM      1  C   UNL A   1      37.179  21.273  24.371  1.00  0.00     0.023 C 
ENDROOT
BRANCH   1   2
ATOM      2  C   UNL A   1      36.890  22.442  25.304  1.00  0.00     0.116 C 
BRANCH   2   3
ATOM      3  N   UNL A   1      35.984  22.085  26.383  1.00  0.00    -0.351 N 
ATOM      4  C   UNL A   1      34.623  22.072  26.506  1.00  0.00     0.281 C 
ATOM      5  O   UNL A   1      34.232  21.569  27.564  1.00  0.00    -0.268 OA
ATOM      6  H   UNL A   1      36.449  21.790  27.198  1.00  0.00     0.163 HD
BRANCH   4   7
ATOM      7  C   UNL A   1      33.662  22.614  25.384  1.00  0.00     0.178 C 
ATOM      8  C   UNL A   1      33.736  21.742  24.111  1.00  0.00     0.079 C 
ATOM      9  C   UNL A   1      32.171  22.468  25.804  1.00  0.00     0.062 C 
ATOM     10  C   UNL A   1      32.351  21.802  23.464  1.00  0.00     0.008 C 
ATOM     11  C   UNL A   1      31.399  22.436  24.480  1.00  0.00     0.011 C 
BRANCH   7  12
ATOM     12  N   UNL A   1      33.920  23.992  24.864  1.00  0.00    -0.336 N 
ATOM     13  C   UNL A   1      34.362  25.027  25.776  1.00  0.00     0.331 C 
ATOM     14  H   UNL A   1      34.636  23.908  24.141  1.00  0.00     0.346 HD
ATOM     15  H   UNL A   1      32.999  24.313  24.566  1.00  0.00     0.346 HD
ENDBRANCH   7  12
BRANCH   9  16
ATOM     16  C   UNL A   1      31.667  23.512  26.815  1.00  0.00     0.034 C 
BRANCH  16  17
ATOM     17  C   UNL A   1      30.484  24.340  26.298  1.00  0.00     0.145 C 
BRANCH  17  18
ATOM     18  N   UNL A   1      30.809  25.733  26.028  1.00  0.00    -0.268 N 
ATOM     19  N   UNL A   1      31.209  26.501  27.063  1.00  0.00    -0.176 NA
ATOM     20  C   UNL A   1      30.802  26.406  24.828  1.00  0.00     0.054 A 
ATOM     21  C   UNL A   1      31.522  27.679  26.508  1.00  0.00     0.078 A 
ATOM     22  C   UNL A   1      31.297  27.662  25.116  1.00  0.00     0.084 A 
ATOM     23  C   UNL A   1      30.335  25.850  23.534  1.00  0.00     0.068 C 
ATOM     24  C   UNL A   1      32.041  28.781  27.354  1.00  0.00     0.070 C 
ATOM     25  Cl  UNL A   1      31.568  28.939  24.035  1.00  0.00    -0.080 Cl
ENDBRANCH  17  18
ENDBRANCH  16  17
ENDBRANCH   9  16
ENDBRANCH   4   7
ENDBRANCH   2   3
ENDBRANCH   1   2
BRANCH   1  26
ATOM     26  C   UNL A   1      37.880  20.081  25.020  1.00  0.00     0.023 C 
BRANCH  26  27
ATOM     27  C   UNL A   1      39.140  20.413  25.809  1.00  0.00     0.116 C 
BRANCH  27  28
ATOM     28  N   UNL A   1      40.086  19.308  25.867  1.00  0.00    -0.352 N 
ATOM     29  C   UNL A   1      41.433  19.325  26.134  1.00  0.00     0.251 C 
ATOM     30  H   UNL A   1      39.705  18.418  25.686  1.00  0.00     0.163 HD
ATOM     31  O   UNL A   1      42.104  18.304  26.007  1.00  0.00    -0.269 OA
BRANCH  29  32
ATOM     32  C   UNL A   1      42.086  20.588  26.536  1.00  0.00     0.039 A 
ATOM     33  C   UNL A   1      42.665  21.385  25.547  1.00  0.00     0.014 A 
ATOM     34  C   UNL A   1      42.096  21.000  27.872  1.00  0.00     0.014 A 
ATOM     35  C   UNL A   1      43.176  22.640  25.884  1.00  0.00     0.010 A 
ATOM     36  C   UNL A   1      42.535  22.280  28.194  1.00  0.00     0.010 A 
ATOM     37  C   UNL A   1      43.070  23.116  27.201  1.00  0.00    -0.014 A 
BRANCH  37  38
ATOM     38  C   UNL A   1      43.494  24.495  27.551  1.00  0.00     0.031 A 
ATOM     39  C   UNL A   1      42.472  25.528  27.929  1.00  0.00     0.074 A 
ATOM     40  C   UNL A   1      44.795  24.831  27.460  1.00  0.00     0.049 A 
ATOM     41  N   UNL A   1      42.644  26.795  28.210  1.00  0.00    -0.248 NA
ATOM     42  C   UNL A   1      41.069  25.087  27.971  1.00  0.00     0.031 C 
ATOM     43  C   UNL A   1      45.876  23.932  27.047  1.00  0.00     0.029 A 
ATOM     44  N   UNL A   1      45.430  26.023  27.700  1.00  0.00    -0.354 N 
ATOM     45  C   UNL A   1      41.375  27.304  28.446  1.00  0.00     0.074 A 
ATOM     46  C   UNL A   1      40.438  26.224  28.227  1.00  0.00     0.031 C 
ATOM     47  C   UNL A   1      47.041  24.598  27.088  1.00  0.00     0.029 A 
ATOM     48  C   UNL A   1      46.787  25.975  27.496  1.00  0.00     0.049 A 
ATOM     49  H   UNL A   1      44.957  26.836  27.992  1.00  0.00     0.167 HD
ATOM     50  C   UNL A   1      41.023  28.553  28.833  1.00  0.00     0.037 A 
ATOM     51  C   UNL A   1      47.722  26.936  27.622  1.00  0.00     0.037 A 
ATOM     52  C   UNL A   1      41.959  29.619  29.077  1.00  0.00     0.049 A 
ATOM     53  C   UNL A   1      47.307  28.311  28.064  1.00  0.00     0.074 A 
ATOM     54  C   UNL A   1      41.707  30.901  29.532  1.00  0.00     0.029 A 
ATOM     55  N   UNL A   1      43.328  29.524  28.885  1.00  0.00    -0.354 N 
ATOM     56  N   UNL A   1      46.111  28.759  28.354  1.00  0.00    -0.248 NA
ATOM     57  C   UNL A   1      48.375  29.311  28.206  1.00  0.00     0.031 C 
ATOM     58  C   UNL A   1      42.921  31.594  29.583  1.00  0.00     0.029 A 
ATOM     59  C   UNL A   1      43.933  30.731  29.198  1.00  0.00     0.049 A 
ATOM     60  H   UNL A   1      43.801  28.720  28.572  1.00  0.00     0.167 HD
ATOM     61  C   UNL A   1      46.282  30.083  28.735  1.00  0.00     0.074 A 
ATOM     62  C   UNL A   1      47.701  30.362  28.653  1.00  0.00     0.031 C 
ATOM     63  C   UNL A   1      45.348  30.988  29.118  1.00  0.00     0.037 A 
BRANCH  50  64
ATOM     64  C   UNL A   1      39.561  28.829  29.024  1.00  0.00     0.057 A 
ATOM     65  C   UNL A   1      38.939  28.672  30.270  1.00  0.00     0.134 A 
ATOM     66  C   UNL A   1      38.771  29.280  27.959  1.00  0.00     0.134 A 
ATOM     67  F   UNL A   1      39.636  28.230  31.327  1.00  0.00    -0.206 F 
ATOM     68  C   UNL A   1      37.578  28.929  30.444  1.00  0.00     0.040 A 
ATOM     69  C   UNL A   1      37.415  29.565  28.127  1.00  0.00     0.040 A 
ATOM     70  F   UNL A   1      39.305  29.457  26.741  1.00  0.00    -0.206 F 
ATOM     71  C   UNL A   1      36.813  29.382  29.371  1.00  0.00     0.006 A 
ENDBRANCH  50  64
BRANCH  51  72
ATOM     72  C   UNL A   1      49.148  26.624  27.354  1.00  0.00     0.057 A 
ATOM     73  C   UNL A   1      49.709  26.853  26.092  1.00  0.00     0.134 A 
ATOM     74  C   UNL A   1      49.980  26.088  28.343  1.00  0.00     0.134 A 
ATOM     75  F   UNL A   1      48.956  27.348  25.099  1.00  0.00    -0.206 F 
ATOM     76  C   UNL A   1      51.042  26.543  25.818  1.00  0.00     0.040 A 
ATOM     77  C   UNL A   1      51.320  25.795  28.090  1.00  0.00     0.040 A 
ATOM     78  F   UNL A   1      49.503  25.854  29.574  1.00  0.00    -0.206 F 
ATOM     79  C   UNL A   1      51.854  26.016  26.821  1.00  0.00     0.006 A 
ENDBRANCH  51  72
BRANCH  63  80
ATOM     80  C   UNL A   1      45.837  32.351  29.509  1.00  0.00     0.057 A 
ATOM     81  C   UNL A   1      45.934  33.393  28.579  1.00  0.00     0.134 A 
ATOM     82  C   UNL A   1      46.178  32.630  30.838  1.00  0.00     0.134 A 
ATOM     83  F   UNL A   1      45.634  33.184  27.289  1.00  0.00    -0.206 F 
ATOM     84  C   UNL A   1      46.374  34.663  28.956  1.00  0.00     0.040 A 
ATOM     85  C   UNL A   1      46.597  33.903  31.230  1.00  0.00     0.040 A 
ATOM     86  F   UNL A   1      46.100  31.676  31.777  1.00  0.00    -0.206 F 
ATOM     87  C   UNL A   1      46.700  34.921  30.286  1.00  0.00     0.006 A 
ENDBRANCH  63  80
ENDBRANCH  37  38
ENDBRANCH  29  32
ENDBRANCH  27  28
ENDBRANCH  26  27
ENDBRANCH   1  26
TORSDOF 15
ENDMDL
MODEL 3
REMARK VINA RESULT:     -11.1      4.492      9.391
REMARK SMILES C[NH2+][C@]1(C(=O)NCCCCNC(=O)c2ccc(-c3c4nc(c(-c5c(F)cccc5F)c5ccc([nH]5)c(-c5c(F)cccc5F)c5nc(c(-c6c(F)cccc6F)c6ccc3[nH]6)C=C5)C=C4)cc2)CCC[C@@H]1CCn1nc(C)c(Cl)c1C
REMARK SMILES IDX 8 1 7 2 6 3 4 4 5 5 3 7 68 8 71 9 69 10 70 11 2 12 1 13
REMARK SMILES IDX 72 16 73 17 74 18 75 19 80 20 76 21 78 22 81 23 77 24 79 25
REMARK SMILES IDX 9 26 10 27 11 28 12 29 13 31 14 32 15 33 67 34 16 35 66 36
REMARK SMILES IDX 17 37 18 38 19 39 60 40 20 41 65 42 59 43 61 44 21 45 64 46
REMARK SMILES IDX 58 47 57 48 22 50 48 51 31 52 47 53 32 54 35 55 46 56 62 57
REMARK SMILES IDX 33 58 34 59 45 61 63 62 36 63 23 64 24 65 29 66 25 67 26 68
REMARK SMILES IDX 28 69 30 70 27 71 49 72 50 73 55 74 51 75 52 76 54 77 56 78
REMARK SMILES IDX 53 79 37 80 38 81 43 82 39 83 40 84 42 85 44 86 41 87
REMARK H PARENT 6 6 2 14 2 15 11 30 61 49 35 60
REMARK Flexibility Score: inf
ROOT
ATOM      1  C   UNL A   1      31.492  30.970  25.839  1.00  0.00     0.023 C 
ENDROOT
BRANCH   1   2
ATOM      2  C   UNL A   1      32.613  29.951  26.004  1.00  0.00     0.116 C 
BRANCH   2   3
ATOM      3  N   UNL A   1      33.324  29.696  24.763  1.00  0.00    -0.351 N 
ATOM      4  C   UNL A   1      33.245  28.715  23.815  1.00  0.00     0.281 C 
ATOM      5  O   UNL A   1      33.949  28.934  22.825  1.00  0.00    -0.268 OA
ATOM      6  H   UNL A   1      34.008  30.374  24.562  1.00  0.00     0.163 HD
BRANCH   4   7
ATOM      7  C   UNL A   1      32.314  27.456  23.970  1.00  0.00     0.178 C 
ATOM      8  C   UNL A   1      30.877  27.865  24.365  1.00  0.00     0.079 C 
ATOM      9  C   UNL A   1      32.095  26.749  22.601  1.00  0.00     0.062 C 
ATOM     10  C   UNL A   1      29.944  26.820  23.750  1.00  0.00     0.008 C 
ATOM     11  C   UNL A   1      30.773  25.993  22.765  1.00  0.00     0.011 C 
BRANCH   7  12
ATOM     12  N   UNL A   1      32.680  26.454  25.017  1.00  0.00    -0.336 N 
ATOM     13  C   UNL A   1      33.995  26.504  25.622  1.00  0.00     0.331 C 
ATOM     14  H   UNL A   1      32.001  26.552  25.773  1.00  0.00     0.346 HD
ATOM     15  H   UNL A   1      32.683  25.568  24.511  1.00  0.00     0.346 HD
ENDBRANCH   7  12
BRANCH   9  16
ATOM     16  C   UNL A   1      33.271  25.887  22.112  1.00  0.00     0.034 C 
BRANCH  16  17
ATOM     17  C   UNL A   1      32.945  24.389  22.050  1.00  0.00     0.145 C 
BRANCH  17  18
ATOM     18  N   UNL A   1      33.694  23.580  23.000  1.00  0.00    -0.268 N 
ATOM     19  N   UNL A   1      35.015  23.411  22.783  1.00  0.00    -0.176 NA
ATOM     20  C   UNL A   1      33.253  22.962  24.147  1.00  0.00     0.054 A 
ATOM     21  C   UNL A   1      35.446  22.718  23.844  1.00  0.00     0.078 A 
ATOM     22  C   UNL A   1      34.385  22.427  24.727  1.00  0.00     0.084 A 
ATOM     23  C   UNL A   1      31.842  22.904  24.603  1.00  0.00     0.068 C 
ATOM     24  C   UNL A   1      36.883  22.371  23.968  1.00  0.00     0.070 C 
ATOM     25  Cl  UNL A   1      34.495  21.578  26.190  1.00  0.00    -0.080 Cl
ENDBRANCH  17  18
ENDBRANCH  16  17
ENDBRANCH   9  16
ENDBRANCH   4   7
ENDBRANCH   2   3
ENDBRANCH   1   2
BRANCH   1  26
ATOM     26  C   UNL A   1      31.371  31.991  26.968  1.00  0.00     0.023 C 
BRANCH  26  27
ATOM     27  C   UNL A   1      32.626  32.810  27.249  1.00  0.00     0.116 C 
BRANCH  27  28
ATOM     28  N   UNL A   1      32.338  34.186  27.627  1.00  0.00    -0.352 N 
ATOM     29  C   UNL A   1      32.958  34.983  28.557  1.00  0.00     0.251 C 
ATOM     30  H   UNL A   1      31.588  34.605  27.146  1.00  0.00     0.163 HD
ATOM     31  O   UNL A   1      32.491  36.083  28.841  1.00  0.00    -0.269 OA
BRANCH  29  32
ATOM     32  C   UNL A   1      34.168  34.497  29.251  1.00  0.00     0.039 A 
ATOM     33  C   UNL A   1      34.023  33.883  30.497  1.00  0.00     0.014 A 
ATOM     34  C   UNL A   1      35.431  34.613  28.663  1.00  0.00     0.014 A 
ATOM     35  C   UNL A   1      35.133  33.305  31.114  1.00  0.00     0.010 A 
ATOM     36  C   UNL A   1      36.521  33.971  29.241  1.00  0.00     0.010 A 
ATOM     37  C   UNL A   1      36.380  33.302  30.467  1.00  0.00    -0.014 A 
BRANCH  37  38
ATOM     38  C   UNL A   1      37.541  32.584  31.051  1.00  0.00     0.031 A 
ATOM     39  C   UNL A   1      38.149  33.050  32.343  1.00  0.00     0.074 A 
ATOM     40  C   UNL A   1      38.088  31.553  30.378  1.00  0.00     0.049 A 
ATOM     41  N   UNL A   1      39.197  32.588  32.976  1.00  0.00    -0.248 NA
ATOM     42  C   UNL A   1      37.511  34.203  32.995  1.00  0.00     0.031 C 
ATOM     43  C   UNL A   1      37.625  31.043  29.085  1.00  0.00     0.029 A 
ATOM     44  N   UNL A   1      39.160  30.754  30.683  1.00  0.00    -0.354 N 
ATOM     45  C   UNL A   1      39.353  33.401  34.089  1.00  0.00     0.074 A 
ATOM     46  C   UNL A   1      38.324  34.416  34.020  1.00  0.00     0.031 C 
ATOM     47  C   UNL A   1      38.392  30.002  28.722  1.00  0.00     0.029 A 
ATOM     48  C   UNL A   1      39.419  29.793  29.737  1.00  0.00     0.049 A 
ATOM     49  H   UNL A   1      39.693  30.858  31.505  1.00  0.00     0.167 HD
ATOM     50  C   UNL A   1      40.258  33.298  35.091  1.00  0.00     0.037 A 
ATOM     51  C   UNL A   1      40.379  28.849  29.692  1.00  0.00     0.037 A 
ATOM     52  C   UNL A   1      41.263  32.271  35.173  1.00  0.00     0.049 A 
ATOM     53  C   UNL A   1      41.363  28.748  30.823  1.00  0.00     0.074 A 
ATOM     54  C   UNL A   1      42.185  32.045  36.179  1.00  0.00     0.029 A 
ATOM     55  N   UNL A   1      41.476  31.299  34.208  1.00  0.00    -0.354 N 
ATOM     56  N   UNL A   1      41.455  29.480  31.906  1.00  0.00    -0.248 NA
ATOM     57  C   UNL A   1      42.373  27.684  30.728  1.00  0.00     0.031 C 
ATOM     58  C   UNL A   1      42.980  30.956  35.807  1.00  0.00     0.029 A 
ATOM     59  C   UNL A   1      42.527  30.480  34.587  1.00  0.00     0.049 A 
ATOM     60  H   UNL A   1      40.959  31.206  33.375  1.00  0.00     0.167 HD
ATOM     61  C   UNL A   1      42.513  28.952  32.634  1.00  0.00     0.074 A 
ATOM     62  C   UNL A   1      43.023  27.829  31.875  1.00  0.00     0.031 C 
ATOM     63  C   UNL A   1      43.017  29.361  33.823  1.00  0.00     0.037 A 
BRANCH  50  64
ATOM     64  C   UNL A   1      40.192  34.322  36.186  1.00  0.00     0.057 A 
ATOM     65  C   UNL A   1      40.885  35.537  36.100  1.00  0.00     0.134 A 
ATOM     66  C   UNL A   1      39.410  34.102  37.327  1.00  0.00     0.134 A 
ATOM     67  F   UNL A   1      41.662  35.803  35.039  1.00  0.00    -0.206 F 
ATOM     68  C   UNL A   1      40.823  36.486  37.121  1.00  0.00     0.040 A 
ATOM     69  C   UNL A   1      39.320  35.056  38.342  1.00  0.00     0.040 A 
ATOM     70  F   UNL A   1      38.717  32.963  37.470  1.00  0.00    -0.206 F 
ATOM     71  C   UNL A   1      40.034  36.249  38.244  1.00  0.00     0.006 A 
ENDBRANCH  50  64
BRANCH  51  72
ATOM     72  C   UNL A   1      40.437  27.904  28.549  1.00  0.00     0.057 A 
ATOM     73  C   UNL A   1      41.165  28.216  27.395  1.00  0.00     0.134 A 
ATOM     74  C   UNL A   1      39.767  26.675  28.578  1.00  0.00     0.134 A 
ATOM     75  F   UNL A   1      41.813  29.386  27.302  1.00  0.00    -0.206 F 
ATOM     76  C   UNL A   1      41.211  27.348  26.303  1.00  0.00     0.040 A 
ATOM     77  C   UNL A   1      39.823  25.788  27.503  1.00  0.00     0.040 A 
ATOM     78  F   UNL A   1      39.059  26.316  29.659  1.00  0.00    -0.206 F 
ATOM     79  C   UNL A   1      40.541  26.126  26.357  1.00  0.00     0.006 A 
ENDBRANCH  51  72
BRANCH  63  80
ATOM     80  C   UNL A   1      44.156  28.569  34.391  1.00  0.00     0.057 A 
ATOM     81  C   UNL A   1      45.490  28.920  34.148  1.00  0.00     0.134 A 
ATOM     82  C   UNL A   1      43.914  27.466  35.219  1.00  0.00     0.134 A 
ATOM     83  F   UNL A   1      45.787  29.957  33.353  1.00  0.00    -0.206 F 
ATOM     84  C   UNL A   1      46.545  28.186  34.695  1.00  0.00     0.040 A 
ATOM     85  C   UNL A   1      44.960  26.740  35.790  1.00  0.00     0.040 A 
ATOM     86  F   UNL A   1      42.658  27.085  35.495  1.00  0.00    -0.206 F 
ATOM     87  C   UNL A   1      46.280  27.097  35.523  1.00  0.00     0.006 A 
ENDBRANCH  63  80
ENDBRANCH  37  38
ENDBRANCH  29  32
ENDBRANCH  27  28
ENDBRANCH  26  27
ENDBRANCH   1  26
TORSDOF 15
ENDMDL
