MODEL 1
REMARK VINA RESULT:      -9.0      0.000      0.000
REMARK SMILES C[C@@H](C[C@H]([NH3+])C(=O)NCCCCNC(=O)c1ccc(-c2c3nc(c(-c4c(F)cccc4F)c4ccc([nH]4)c(-c4c(F)cccc4F)c4nc(c(-c5c(F)cccc5F)c5ccc2[nH]5)C=C4)C=C3)cc1)C1CCOCC1
REMARK SMILES IDX 10 1 9 2 8 3 6 4 7 5 4 7 3 8 2 9 1 10 70 11 71 12 75 13
REMARK SMILES IDX 72 14 74 15 73 16 5 17 11 21 12 22 13 23 14 24 15 26 16 27
REMARK SMILES IDX 17 28 69 29 18 30 68 31 19 32 20 33 21 34 62 35 22 36 67 37
REMARK SMILES IDX 61 38 63 39 23 40 66 41 60 42 59 43 24 45 50 46 33 47 49 48
REMARK SMILES IDX 34 49 37 50 48 51 64 52 35 53 36 54 47 56 65 57 38 58 25 59
REMARK SMILES IDX 26 60 31 61 27 62 28 63 30 64 32 65 29 66 51 67 52 68 57 69
REMARK SMILES IDX 53 70 54 71 56 72 58 73 55 74 39 75 40 76 45 77 41 78 42 79
REMARK SMILES IDX 44 80 46 81 43 82
REMARK H PARENT 8 6 5 18 5 19 5 20 13 25 63 44 37 55
REMARK Flexibility Score: inf
ROOT
ATOM      1  C   UNL A   1      34.021  36.380  33.323  1.00  0.00     0.023 C 
ENDROOT
BRANCH   1   2
ATOM      2  C   UNL A   1      34.889  35.134  33.454  1.00  0.00     0.116 C 
BRANCH   2   3
ATOM      3  N   UNL A   1      34.991  34.609  34.794  1.00  0.00    -0.351 N 
ATOM      4  C   UNL A   1      36.017  33.864  35.314  1.00  0.00     0.278 C 
ATOM      5  O   UNL A   1      35.989  33.594  36.518  1.00  0.00    -0.268 OA
ATOM      6  H   UNL A   1      34.242  34.808  35.401  1.00  0.00     0.163 HD
BRANCH   4   7
ATOM      7  C   UNL A   1      37.161  33.327  34.397  1.00  0.00     0.271 C 
BRANCH   7   8
ATOM      8  C   UNL A   1      37.426  31.810  34.596  1.00  0.00     0.079 C 
BRANCH   8   9
ATOM      9  C   UNL A   1      38.147  30.962  33.503  1.00  0.00    -0.005 C 
ATOM     10  C   UNL A   1      37.191  30.103  32.664  1.00  0.00     0.008 C 
BRANCH   9  11
ATOM     11  C   UNL A   1      39.402  30.211  34.038  1.00  0.00    -0.004 C 
ATOM     12  C   UNL A   1      40.462  31.218  34.518  1.00  0.00     0.032 C 
ATOM     13  C   UNL A   1      40.061  29.240  33.041  1.00  0.00     0.032 C 
ATOM     14  C   UNL A   1      41.703  30.495  35.026  1.00  0.00     0.160 C 
ATOM     15  C   UNL A   1      41.323  28.623  33.628  1.00  0.00     0.160 C 
ATOM     16  O   UNL A   1      42.242  29.640  34.020  1.00  0.00    -0.381 OA
ENDBRANCH   9  11
ENDBRANCH   8   9
ENDBRANCH   7   8
BRANCH   7  17
ATOM     17  N   UNL A   1      38.317  34.236  34.520  1.00  0.00    -0.347 N 
ATOM     18  H   UNL A   1      38.943  34.098  33.726  1.00  0.00     0.345 HD
ATOM     19  H   UNL A   1      38.817  34.035  35.385  1.00  0.00     0.345 HD
ATOM     20  H   UNL A   1      37.991  35.202  34.531  1.00  0.00     0.345 HD
ENDBRANCH   7  17
ENDBRANCH   4   7
ENDBRANCH   2   3
ENDBRANCH   1   2
BRANCH   1  21
ATOM     21  C   UNL A   1      33.076  36.368  32.127  1.00  0.00     0.023 C 
BRANCH  21  22
ATOM     22  C   UNL A   1      33.744  36.183  30.770  1.00  0.00     0.116 C 
BRANCH  22  23
ATOM     23  N   UNL A   1      32.878  35.618  29.747  1.00  0.00    -0.352 N 
ATOM     24  C   UNL A   1      33.121  34.535  28.928  1.00  0.00     0.251 C 
ATOM     25  H   UNL A   1      32.009  36.063  29.624  1.00  0.00     0.163 HD
ATOM     26  O   UNL A   1      32.330  34.225  28.053  1.00  0.00    -0.269 OA
BRANCH  24  27
ATOM     27  C   UNL A   1      34.385  33.781  29.093  1.00  0.00     0.039 A 
ATOM     28  C   UNL A   1      35.366  33.894  28.106  1.00  0.00     0.014 A 
ATOM     29  C   UNL A   1      34.621  33.016  30.237  1.00  0.00     0.014 A 
ATOM     30  C   UNL A   1      36.611  33.297  28.304  1.00  0.00     0.010 A 
ATOM     31  C   UNL A   1      35.890  32.500  30.475  1.00  0.00     0.010 A 
ATOM     32  C   UNL A   1      36.898  32.628  29.509  1.00  0.00    -0.014 A 
BRANCH  32  33
ATOM     33  C   UNL A   1      38.250  32.070  29.760  1.00  0.00     0.031 A 
ATOM     34  C   UNL A   1      39.262  32.852  30.556  1.00  0.00     0.074 A 
ATOM     35  C   UNL A   1      38.582  30.871  29.242  1.00  0.00     0.049 A 
ATOM     36  N   UNL A   1      40.477  32.510  30.905  1.00  0.00    -0.248 NA
ATOM     37  C   UNL A   1      38.870  34.201  30.988  1.00  0.00     0.031 C 
ATOM     38  C   UNL A   1      37.720  30.051  28.389  1.00  0.00     0.029 A 
ATOM     39  N   UNL A   1      39.730  30.133  29.362  1.00  0.00    -0.354 N 
ATOM     40  C   UNL A   1      40.991  33.602  31.594  1.00  0.00     0.074 A 
ATOM     41  C   UNL A   1      39.985  34.640  31.551  1.00  0.00     0.031 C 
ATOM     42  C   UNL A   1      38.352  28.902  28.101  1.00  0.00     0.029 A 
ATOM     43  C   UNL A   1      39.670  28.914  28.725  1.00  0.00     0.049 A 
ATOM     44  H   UNL A   1      40.523  30.444  29.857  1.00  0.00     0.167 HD
ATOM     45  C   UNL A   1      42.180  33.719  32.232  1.00  0.00     0.037 A 
ATOM     46  C   UNL A   1      40.572  27.915  28.667  1.00  0.00     0.037 A 
ATOM     47  C   UNL A   1      43.172  32.677  32.290  1.00  0.00     0.049 A 
ATOM     48  C   UNL A   1      41.872  28.058  29.406  1.00  0.00     0.074 A 
ATOM     49  C   UNL A   1      44.385  32.676  32.956  1.00  0.00     0.029 A 
ATOM     50  N   UNL A   1      43.064  31.449  31.655  1.00  0.00    -0.354 N 
ATOM     51  N   UNL A   1      42.309  29.063  30.126  1.00  0.00    -0.248 NA
ATOM     52  C   UNL A   1      42.796  26.918  29.339  1.00  0.00     0.031 C 
ATOM     53  C   UNL A   1      45.029  31.463  32.690  1.00  0.00     0.029 A 
ATOM     54  C   UNL A   1      44.194  30.688  31.901  1.00  0.00     0.049 A 
ATOM     55  H   UNL A   1      42.296  31.162  31.109  1.00  0.00     0.167 HD
ATOM     56  C   UNL A   1      43.544  28.665  30.623  1.00  0.00     0.074 A 
ATOM     57  C   UNL A   1      43.776  27.321  30.136  1.00  0.00     0.031 C 
ATOM     58  C   UNL A   1      44.408  29.349  31.413  1.00  0.00     0.037 A 
BRANCH  45  59
ATOM     59  C   UNL A   1      42.463  35.019  32.929  1.00  0.00     0.057 A 
ATOM     60  C   UNL A   1      43.136  36.069  32.287  1.00  0.00     0.134 A 
ATOM     61  C   UNL A   1      42.041  35.235  34.246  1.00  0.00     0.134 A 
ATOM     62  F   UNL A   1      43.581  35.923  31.030  1.00  0.00    -0.206 F 
ATOM     63  C   UNL A   1      43.404  37.273  32.940  1.00  0.00     0.040 A 
ATOM     64  C   UNL A   1      42.277  36.447  34.899  1.00  0.00     0.040 A 
ATOM     65  F   UNL A   1      41.388  34.275  34.918  1.00  0.00    -0.206 F 
ATOM     66  C   UNL A   1      42.967  37.466  34.248  1.00  0.00     0.006 A 
ENDBRANCH  45  59
BRANCH  46  67
ATOM     67  C   UNL A   1      40.252  26.669  27.926  1.00  0.00     0.057 A 
ATOM     68  C   UNL A   1      39.439  25.680  28.494  1.00  0.00     0.134 A 
ATOM     69  C   UNL A   1      40.756  26.431  26.642  1.00  0.00     0.134 A 
ATOM     70  F   UNL A   1      38.941  25.844  29.729  1.00  0.00    -0.206 F 
ATOM     71  C   UNL A   1      39.157  24.489  27.823  1.00  0.00     0.040 A 
ATOM     72  C   UNL A   1      40.460  25.256  25.948  1.00  0.00     0.040 A 
ATOM     73  F   UNL A   1      41.531  27.343  26.039  1.00  0.00    -0.206 F 
ATOM     74  C   UNL A   1      39.665  24.278  26.542  1.00  0.00     0.006 A 
ENDBRANCH  46  67
BRANCH  58  75
ATOM     75  C   UNL A   1      45.661  28.637  31.830  1.00  0.00     0.057 A 
ATOM     76  C   UNL A   1      46.859  28.756  31.112  1.00  0.00     0.134 A 
ATOM     77  C   UNL A   1      45.672  27.829  32.975  1.00  0.00     0.134 A 
ATOM     78  F   UNL A   1      46.913  29.504  30.000  1.00  0.00    -0.206 F 
ATOM     79  C   UNL A   1      48.010  28.067  31.497  1.00  0.00     0.040 A 
ATOM     80  C   UNL A   1      46.826  27.160  33.386  1.00  0.00     0.040 A 
ATOM     81  F   UNL A   1      44.563  27.681  33.715  1.00  0.00    -0.206 F 
ATOM     82  C   UNL A   1      47.996  27.270  32.639  1.00  0.00     0.006 A 
ENDBRANCH  58  75
ENDBRANCH  32  33
ENDBRANCH  24  27
ENDBRANCH  22  23
ENDBRANCH  21  22
ENDBRANCH   1  21
TORSDOF 15
ENDMDL
MODEL 2
REMARK VINA RESULT:      -8.9      5.780     11.673
REMARK SMILES C[C@@H](C[C@H]([NH3+])C(=O)NCCCCNC(=O)c1ccc(-c2c3nc(c(-c4c(F)cccc4F)c4ccc([nH]4)c(-c4c(F)cccc4F)c4nc(c(-c5c(F)cccc5F)c5ccc2[nH]5)C=C4)C=C3)cc1)C1CCOCC1
REMARK SMILES IDX 10 1 9 2 8 3 6 4 7 5 4 7 3 8 2 9 1 10 70 11 71 12 75 13
REMARK SMILES IDX 72 14 74 15 73 16 5 17 11 21 12 22 13 23 14 24 15 26 16 27
REMARK SMILES IDX 17 28 69 29 18 30 68 31 19 32 20 33 21 34 62 35 22 36 67 37
REMARK SMILES IDX 61 38 63 39 23 40 66 41 60 42 59 43 24 45 50 46 33 47 49 48
REMARK SMILES IDX 34 49 37 50 48 51 64 52 35 53 36 54 47 56 65 57 38 58 25 59
REMARK SMILES IDX 26 60 31 61 27 62 28 63 30 64 32 65 29 66 51 67 52 68 57 69
REMARK SMILES IDX 53 70 54 71 56 72 58 73 55 74 39 75 40 76 45 77 41 78 42 79
REMARK SMILES IDX 44 80 46 81 43 82
REMARK H PARENT 8 6 5 18 5 19 5 20 13 25 63 44 37 55
REMARK Flexibility Score: inf
ROOT
ATOM      1  C   UNL A   1      36.948  21.291  24.548  1.00  0.00     0.023 C 
ENDROOT
BRANCH   1   2
ATOM      2  C   UNL A   1      36.575  22.219  25.697  1.00  0.00     0.116 C 
BRANCH   2   3
ATOM      3  N   UNL A   1      35.337  22.937  25.515  1.00  0.00    -0.351 N 
ATOM      4  C   UNL A   1      34.066  22.444  25.661  1.00  0.00     0.278 C 
ATOM      5  O   UNL A   1      33.122  23.233  25.575  1.00  0.00    -0.268 OA
ATOM      6  H   UNL A   1      35.413  23.884  25.258  1.00  0.00     0.163 HD
BRANCH   4   7
ATOM      7  C   UNL A   1      33.820  20.918  25.878  1.00  0.00     0.271 C 
BRANCH   7   8
ATOM      8  C   UNL A   1      32.869  20.307  24.812  1.00  0.00     0.079 C 
BRANCH   8   9
ATOM      9  C   UNL A   1      33.272  19.040  23.996  1.00  0.00    -0.005 C 
ATOM     10  C   UNL A   1      32.352  18.763  22.800  1.00  0.00     0.008 C 
BRANCH   9  11
ATOM     11  C   UNL A   1      33.569  17.802  24.894  1.00  0.00    -0.004 C 
ATOM     12  C   UNL A   1      34.870  17.115  24.443  1.00  0.00     0.032 C 
ATOM     13  C   UNL A   1      32.448  16.747  24.948  1.00  0.00     0.032 C 
ATOM     14  C   UNL A   1      35.160  15.891  25.302  1.00  0.00     0.160 C 
ATOM     15  C   UNL A   1      32.867  15.542  25.778  1.00  0.00     0.160 C 
ATOM     16  O   UNL A   1      34.069  14.973  25.264  1.00  0.00    -0.381 OA
ENDBRANCH   9  11
ENDBRANCH   8   9
ENDBRANCH   7   8
BRANCH   7  17
ATOM     17  N   UNL A   1      33.471  20.702  27.295  1.00  0.00    -0.347 N 
ATOM     18  H   UNL A   1      34.010  21.342  27.879  1.00  0.00     0.345 HD
ATOM     19  H   UNL A   1      33.689  19.740  27.556  1.00  0.00     0.345 HD
ATOM     20  H   UNL A   1      32.475  20.874  27.431  1.00  0.00     0.345 HD
ENDBRANCH   7  17
ENDBRANCH   4   7
ENDBRANCH   2   3
ENDBRANCH   1   2
BRANCH   1  21
ATOM     21  C   UNL A   1      37.756  20.067  24.961  1.00  0.00     0.023 C 
BRANCH  21  22
ATOM     22  C   UNL A   1      39.015  20.359  25.769  1.00  0.00     0.116 C 
BRANCH  22  23
ATOM     23  N   UNL A   1      39.997  19.285  25.759  1.00  0.00    -0.352 N 
ATOM     24  C   UNL A   1      41.335  19.351  26.087  1.00  0.00     0.251 C 
ATOM     25  H   UNL A   1      39.664  18.400  25.485  1.00  0.00     0.163 HD
ATOM     26  O   UNL A   1      42.059  18.379  25.951  1.00  0.00    -0.269 OA
BRANCH  24  27
ATOM     27  C   UNL A   1      41.894  20.638  26.561  1.00  0.00     0.039 A 
ATOM     28  C   UNL A   1      42.273  21.593  25.616  1.00  0.00     0.014 A 
ATOM     29  C   UNL A   1      41.989  20.920  27.926  1.00  0.00     0.014 A 
ATOM     30  C   UNL A   1      42.680  22.857  26.042  1.00  0.00     0.010 A 
ATOM     31  C   UNL A   1      42.306  22.208  28.345  1.00  0.00     0.010 A 
ATOM     32  C   UNL A   1      42.661  23.189  27.409  1.00  0.00    -0.014 A 
BRANCH  32  33
ATOM     33  C   UNL A   1      43.007  24.560  27.858  1.00  0.00     0.031 A 
ATOM     34  C   UNL A   1      44.447  24.994  27.949  1.00  0.00     0.074 A 
ATOM     35  C   UNL A   1      42.026  25.410  28.221  1.00  0.00     0.049 A 
ATOM     36  N   UNL A   1      44.937  26.160  28.285  1.00  0.00    -0.248 NA
ATOM     37  C   UNL A   1      45.466  23.978  27.651  1.00  0.00     0.031 C 
ATOM     38  C   UNL A   1      40.597  25.086  28.253  1.00  0.00     0.029 A 
ATOM     39  N   UNL A   1      42.079  26.718  28.625  1.00  0.00    -0.354 N 
ATOM     40  C   UNL A   1      46.318  26.014  28.242  1.00  0.00     0.074 A 
ATOM     41  C   UNL A   1      46.587  24.632  27.917  1.00  0.00     0.031 C 
ATOM     42  C   UNL A   1      39.907  26.182  28.611  1.00  0.00     0.029 A 
ATOM     43  C   UNL A   1      40.842  27.274  28.857  1.00  0.00     0.049 A 
ATOM     44  H   UNL A   1      42.923  27.214  28.737  1.00  0.00     0.167 HD
ATOM     45  C   UNL A   1      47.276  26.954  28.425  1.00  0.00     0.037 A 
ATOM     46  C   UNL A   1      40.502  28.528  29.212  1.00  0.00     0.037 A 
ATOM     47  C   UNL A   1      47.005  28.335  28.730  1.00  0.00     0.049 A 
ATOM     48  C   UNL A   1      41.582  29.559  29.382  1.00  0.00     0.074 A 
ATOM     49  C   UNL A   1      47.903  29.378  28.880  1.00  0.00     0.029 A 
ATOM     50  N   UNL A   1      45.740  28.865  28.932  1.00  0.00    -0.354 N 
ATOM     51  N   UNL A   1      42.880  29.429  29.253  1.00  0.00    -0.248 NA
ATOM     52  C   UNL A   1      41.145  30.919  29.729  1.00  0.00     0.031 C 
ATOM     53  C   UNL A   1      47.182  30.530  29.214  1.00  0.00     0.029 A 
ATOM     54  C   UNL A   1      45.833  30.217  29.220  1.00  0.00     0.049 A 
ATOM     55  H   UNL A   1      44.899  28.355  28.878  1.00  0.00     0.167 HD
ATOM     56  C   UNL A   1      43.412  30.693  29.472  1.00  0.00     0.074 A 
ATOM     57  C   UNL A   1      42.294  31.578  29.724  1.00  0.00     0.031 C 
ATOM     58  C   UNL A   1      44.710  31.086  29.464  1.00  0.00     0.037 A 
BRANCH  45  59
ATOM     59  C   UNL A   1      48.706  26.517  28.287  1.00  0.00     0.057 A 
ATOM     60  C   UNL A   1      49.448  26.061  29.387  1.00  0.00     0.134 A 
ATOM     61  C   UNL A   1      49.344  26.528  27.041  1.00  0.00     0.134 A 
ATOM     62  F   UNL A   1      48.902  26.039  30.612  1.00  0.00    -0.206 F 
ATOM     63  C   UNL A   1      50.778  25.662  29.256  1.00  0.00     0.040 A 
ATOM     64  C   UNL A   1      50.665  26.103  26.893  1.00  0.00     0.040 A 
ATOM     65  F   UNL A   1      48.692  26.948  25.946  1.00  0.00    -0.206 F 
ATOM     66  C   UNL A   1      51.389  25.676  28.004  1.00  0.00     0.006 A 
ENDBRANCH  45  59
BRANCH  46  67
ATOM     67  C   UNL A   1      39.071  28.891  29.375  1.00  0.00     0.057 A 
ATOM     68  C   UNL A   1      38.330  29.404  28.304  1.00  0.00     0.134 A 
ATOM     69  C   UNL A   1      38.415  28.746  30.604  1.00  0.00     0.134 A 
ATOM     70  F   UNL A   1      38.909  29.582  27.107  1.00  0.00    -0.206 F 
ATOM     71  C   UNL A   1      36.994  29.780  28.452  1.00  0.00     0.040 A 
ATOM     72  C   UNL A   1      37.072  29.094  30.759  1.00  0.00     0.040 A 
ATOM     73  F   UNL A   1      39.067  28.251  31.666  1.00  0.00    -0.206 F 
ATOM     74  C   UNL A   1      36.360  29.620  29.682  1.00  0.00     0.006 A 
ENDBRANCH  46  67
BRANCH  58  75
ATOM     75  C   UNL A   1      44.982  32.544  29.694  1.00  0.00     0.057 A 
ATOM     76  C   UNL A   1      45.238  33.060  30.971  1.00  0.00     0.134 A 
ATOM     77  C   UNL A   1      45.000  33.442  28.619  1.00  0.00     0.134 A 
ATOM     78  F   UNL A   1      45.224  32.256  32.045  1.00  0.00    -0.206 F 
ATOM     79  C   UNL A   1      45.464  34.423  31.174  1.00  0.00     0.040 A 
ATOM     80  C   UNL A   1      45.255  34.801  28.806  1.00  0.00     0.040 A 
ATOM     81  F   UNL A   1      44.775  33.012  27.368  1.00  0.00    -0.206 F 
ATOM     82  C   UNL A   1      45.477  35.296  30.089  1.00  0.00     0.006 A 
ENDBRANCH  58  75
ENDBRANCH  32  33
ENDBRANCH  24  27
ENDBRANCH  22  23
ENDBRANCH  21  22
ENDBRANCH   1  21
TORSDOF 15
ENDMDL
MODEL 3
REMARK VINA RESULT:      -8.8      4.147      7.094
REMARK SMILES C[C@@H](C[C@H]([NH3+])C(=O)NCCCCNC(=O)c1ccc(-c2c3nc(c(-c4c(F)cccc4F)c4ccc([nH]4)c(-c4c(F)cccc4F)c4nc(c(-c5c(F)cccc5F)c5ccc2[nH]5)C=C4)C=C3)cc1)C1CCOCC1
REMARK SMILES IDX 10 1 9 2 8 3 6 4 7 5 4 7 3 8 2 9 1 10 70 11 71 12 75 13
REMARK SMILES IDX 72 14 74 15 73 16 5 17 11 21 12 22 13 23 14 24 15 26 16 27
REMARK SMILES IDX 17 28 69 29 18 30 68 31 19 32 20 33 21 34 62 35 22 36 67 37
REMARK SMILES IDX 61 38 63 39 23 40 66 41 60 42 59 43 24 45 50 46 33 47 49 48
REMARK SMILES IDX 34 49 37 50 48 51 64 52 35 53 36 54 47 56 65 57 38 58 25 59
REMARK SMILES IDX 26 60 31 61 27 62 28 63 30 64 32 65 29 66 51 67 52 68 57 69
REMARK SMILES IDX 53 70 54 71 56 72 58 73 55 74 39 75 40 76 45 77 41 78 42 79
REMARK SMILES IDX 44 80 46 81 43 82
REMARK H PARENT 8 6 5 18 5 19 5 20 13 25 63 44 37 55
REMARK Flexibility Score: inf
ROOT
ATOM      1  C   UNL A   1      31.809  30.499  26.384  1.00  0.00     0.023 C 
ENDROOT
BRANCH   1   2
ATOM      2  C   UNL A   1      33.266  30.117  26.614  1.00  0.00     0.116 C 
BRANCH   2   3
ATOM      3  N   UNL A   1      33.559  28.717  26.428  1.00  0.00    -0.351 N 
ATOM      4  C   UNL A   1      33.680  28.049  25.238  1.00  0.00     0.278 C 
ATOM      5  O   UNL A   1      34.047  26.871  25.265  1.00  0.00    -0.268 OA
ATOM      6  H   UNL A   1      33.688  28.184  27.246  1.00  0.00     0.163 HD
BRANCH   4   7
ATOM      7  C   UNL A   1      33.311  28.744  23.889  1.00  0.00     0.271 C 
BRANCH   7   8
ATOM      8  C   UNL A   1      32.149  28.030  23.146  1.00  0.00     0.079 C 
BRANCH   8   9
ATOM      9  C   UNL A   1      30.731  27.905  23.787  1.00  0.00    -0.005 C 
ATOM     10  C   UNL A   1      30.166  26.480  23.749  1.00  0.00     0.008 C 
BRANCH   9  11
ATOM     11  C   UNL A   1      29.745  29.014  23.314  1.00  0.00    -0.004 C 
ATOM     12  C   UNL A   1      28.340  28.423  23.101  1.00  0.00     0.032 C 
ATOM     13  C   UNL A   1      30.164  29.761  22.034  1.00  0.00     0.032 C 
ATOM     14  C   UNL A   1      27.371  29.495  22.619  1.00  0.00     0.160 C 
ATOM     15  C   UNL A   1      29.097  30.761  21.608  1.00  0.00     0.160 C 
ATOM     16  O   UNL A   1      27.844  30.107  21.420  1.00  0.00    -0.381 OA
ENDBRANCH   9  11
ENDBRANCH   8   9
ENDBRANCH   7   8
BRANCH   7  17
ATOM     17  N   UNL A   1      34.556  28.973  23.131  1.00  0.00    -0.347 N 
ATOM     18  H   UNL A   1      34.720  29.977  23.042  1.00  0.00     0.345 HD
ATOM     19  H   UNL A   1      34.471  28.560  22.203  1.00  0.00     0.345 HD
ATOM     20  H   UNL A   1      35.339  28.544  23.625  1.00  0.00     0.345 HD
ENDBRANCH   7  17
ENDBRANCH   4   7
ENDBRANCH   2   3
ENDBRANCH   1   2
BRANCH   1  21
ATOM     21  C   UNL A   1      31.479  31.952  26.702  1.00  0.00     0.023 C 
BRANCH  21  22
ATOM     22  C   UNL A   1      32.632  32.776  27.262  1.00  0.00     0.116 C 
BRANCH  22  23
ATOM     23  N   UNL A   1      32.273  34.134  27.640  1.00  0.00    -0.352 N 
ATOM     24  C   UNL A   1      32.912  34.968  28.533  1.00  0.00     0.251 C 
ATOM     25  H   UNL A   1      31.473  34.505  27.201  1.00  0.00     0.163 HD
ATOM     26  O   UNL A   1      32.444  36.059  28.812  1.00  0.00    -0.269 OA
BRANCH  24  27
ATOM     27  C   UNL A   1      34.153  34.497  29.190  1.00  0.00     0.039 A 
ATOM     28  C   UNL A   1      34.055  33.854  30.426  1.00  0.00     0.014 A 
ATOM     29  C   UNL A   1      35.394  34.640  28.566  1.00  0.00     0.014 A 
ATOM     30  C   UNL A   1      35.195  33.291  30.999  1.00  0.00     0.010 A 
ATOM     31  C   UNL A   1      36.511  33.999  29.093  1.00  0.00     0.010 A 
ATOM     32  C   UNL A   1      36.426  33.322  30.318  1.00  0.00    -0.014 A 
BRANCH  32  33
ATOM     33  C   UNL A   1      37.619  32.646  30.882  1.00  0.00     0.031 A 
ATOM     34  C   UNL A   1      38.220  33.116  32.181  1.00  0.00     0.074 A 
ATOM     35  C   UNL A   1      38.189  31.627  30.209  1.00  0.00     0.049 A 
ATOM     36  N   UNL A   1      39.238  32.627  32.844  1.00  0.00    -0.248 NA
ATOM     37  C   UNL A   1      37.618  34.306  32.800  1.00  0.00     0.031 C 
ATOM     38  C   UNL A   1      37.750  31.128  28.904  1.00  0.00     0.029 A 
ATOM     39  N   UNL A   1      39.252  30.825  30.531  1.00  0.00    -0.354 N 
ATOM     40  C   UNL A   1      39.397  33.451  33.951  1.00  0.00     0.074 A 
ATOM     41  C   UNL A   1      38.420  34.509  33.834  1.00  0.00     0.031 C 
ATOM     42  C   UNL A   1      38.510  30.075  28.559  1.00  0.00     0.029 A 
ATOM     43  C   UNL A   1      39.502  29.842  29.602  1.00  0.00     0.049 A 
ATOM     44  H   UNL A   1      39.787  30.942  31.350  1.00  0.00     0.167 HD
ATOM     45  C   UNL A   1      40.259  33.320  34.989  1.00  0.00     0.037 A 
ATOM     46  C   UNL A   1      40.418  28.854  29.602  1.00  0.00     0.037 A 
ATOM     47  C   UNL A   1      41.218  32.254  35.112  1.00  0.00     0.049 A 
ATOM     48  C   UNL A   1      41.344  28.714  30.777  1.00  0.00     0.074 A 
ATOM     49  C   UNL A   1      42.098  32.001  36.150  1.00  0.00     0.029 A 
ATOM     50  N   UNL A   1      41.424  31.263  34.164  1.00  0.00    -0.354 N 
ATOM     51  N   UNL A   1      41.426  29.449  31.859  1.00  0.00    -0.248 NA
ATOM     52  C   UNL A   1      42.292  27.593  30.738  1.00  0.00     0.031 C 
ATOM     53  C   UNL A   1      42.864  30.880  35.811  1.00  0.00     0.029 A 
ATOM     54  C   UNL A   1      42.426  30.405  34.585  1.00  0.00     0.049 A 
ATOM     55  H   UNL A   1      40.929  31.182  33.316  1.00  0.00     0.167 HD
ATOM     56  C   UNL A   1      42.411  28.863  32.644  1.00  0.00     0.074 A 
ATOM     57  C   UNL A   1      42.884  27.701  31.919  1.00  0.00     0.031 C 
ATOM     58  C   UNL A   1      42.882  29.250  33.855  1.00  0.00     0.037 A 
BRANCH  45  59
ATOM     59  C   UNL A   1      40.189  34.353  36.076  1.00  0.00     0.057 A 
ATOM     60  C   UNL A   1      39.358  34.193  37.194  1.00  0.00     0.134 A 
ATOM     61  C   UNL A   1      40.976  35.510  36.019  1.00  0.00     0.134 A 
ATOM     62  F   UNL A   1      38.568  33.115  37.304  1.00  0.00    -0.206 F 
ATOM     63  C   UNL A   1      39.291  35.158  38.200  1.00  0.00     0.040 A 
ATOM     64  C   UNL A   1      40.939  36.469  37.033  1.00  0.00     0.040 A 
ATOM     65  F   UNL A   1      41.796  35.726  34.980  1.00  0.00    -0.206 F 
ATOM     66  C   UNL A   1      40.088  36.298  38.124  1.00  0.00     0.006 A 
ENDBRANCH  45  59
BRANCH  46  67
ATOM     67  C   UNL A   1      40.467  27.887  28.477  1.00  0.00     0.057 A 
ATOM     68  C   UNL A   1      41.212  28.158  27.323  1.00  0.00     0.134 A 
ATOM     69  C   UNL A   1      39.764  26.676  28.520  1.00  0.00     0.134 A 
ATOM     70  F   UNL A   1      41.893  29.309  27.216  1.00  0.00    -0.206 F 
ATOM     71  C   UNL A   1      41.241  27.273  26.244  1.00  0.00     0.040 A 
ATOM     72  C   UNL A   1      39.804  25.770  27.460  1.00  0.00     0.040 A 
ATOM     73  F   UNL A   1      39.040  26.352  29.602  1.00  0.00    -0.206 F 
ATOM     74  C   UNL A   1      40.538  26.072  26.314  1.00  0.00     0.006 A 
ENDBRANCH  46  67
BRANCH  58  75
ATOM     75  C   UNL A   1      43.932  28.384  34.487  1.00  0.00     0.057 A 
ATOM     76  C   UNL A   1      45.301  28.619  34.301  1.00  0.00     0.134 A 
ATOM     77  C   UNL A   1      43.567  27.305  35.303  1.00  0.00     0.134 A 
ATOM     78  F   UNL A   1      45.717  29.629  33.521  1.00  0.00    -0.206 F 
ATOM     79  C   UNL A   1      46.267  27.790  34.873  1.00  0.00     0.040 A 
ATOM     80  C   UNL A   1      44.525  26.488  35.905  1.00  0.00     0.040 A 
ATOM     81  F   UNL A   1      42.275  27.031  35.532  1.00  0.00    -0.206 F 
ATOM     82  C   UNL A   1      45.880  26.724  35.681  1.00  0.00     0.006 A 
ENDBRANCH  58  75
ENDBRANCH  32  33
ENDBRANCH  24  27
ENDBRANCH  22  23
ENDBRANCH  21  22
ENDBRANCH   1  21
TORSDOF 15
ENDMDL
