MODEL 1
REMARK VINA RESULT:     -12.0      0.000      0.000
REMARK SMILES COc1cc(NC(=O)c2ccc([N+](=O)[O-])cc2)c(C(=O)NCCCCNC(=O)c2ccc(-c3c4nc(c(-c5c(F)cccc5F)c5ccc([nH]5)c(-c5c(F)cccc5F)c5nc(c(-c6c(F)cccc6F)c6ccc3[nH]6)C=C5)C=C4)cc2)cc1OC
REMARK SMILES IDX 23 1 22 2 21 3 19 4 20 5 18 7 3 8 4 9 84 10 5 11 83 12 2 13
REMARK SMILES IDX 1 14 85 15 86 16 6 17 7 18 8 20 9 21 10 22 17 23 11 24 16 25
REMARK SMILES IDX 12 26 13 27 14 28 15 29 24 30 25 31 26 32 27 33 28 35 29 36
REMARK SMILES IDX 30 37 82 38 31 39 81 40 32 41 33 42 34 43 75 44 35 45 80 46
REMARK SMILES IDX 74 47 76 48 36 49 79 50 73 51 72 52 37 54 63 55 46 56 62 57
REMARK SMILES IDX 47 58 50 59 61 60 77 61 48 62 49 63 60 65 78 66 51 67 38 68
REMARK SMILES IDX 39 69 44 70 40 71 41 72 43 73 45 74 42 75 64 76 65 77 70 78
REMARK SMILES IDX 66 79 67 80 69 81 71 82 68 83 52 84 53 85 58 86 54 87 55 88
REMARK SMILES IDX 57 89 59 90 56 91
REMARK H PARENT 21 6 6 19 26 34 76 53 50 64
REMARK Flexibility Score: inf
ROOT
ATOM      1  C   UNL A   1      35.857  21.229  25.176  1.00  0.00     0.023 C 
ENDROOT
BRANCH   1   2
ATOM      2  C   UNL A   1      34.470  20.607  25.361  1.00  0.00     0.116 C 
BRANCH   2   3
ATOM      3  N   UNL A   1      33.712  20.694  24.131  1.00  0.00    -0.352 N 
ATOM      4  C   UNL A   1      32.671  21.489  23.720  1.00  0.00     0.253 C 
ATOM      5  O   UNL A   1      32.233  21.245  22.592  1.00  0.00    -0.269 OA
ATOM      6  H   UNL A   1      34.003  20.050  23.446  1.00  0.00     0.163 HD
BRANCH   4   7
ATOM      7  C   UNL A   1      32.074  22.621  24.515  1.00  0.00     0.067 A 
ATOM      8  C   UNL A   1      31.023  24.730  26.078  1.00  0.00     0.162 A 
ATOM      9  C   UNL A   1      31.612  24.978  24.829  1.00  0.00     0.077 A 
ATOM     10  C   UNL A   1      30.880  23.425  26.516  1.00  0.00     0.161 A 
ATOM     11  C   UNL A   1      32.187  23.957  24.048  1.00  0.00     0.058 A 
ATOM     12  C   UNL A   1      31.364  22.395  25.705  1.00  0.00     0.066 A 
BRANCH   8  13
ATOM     13  O   UNL A   1      30.457  25.779  26.748  1.00  0.00    -0.493 OA
ATOM     14  C   UNL A   1      31.236  26.973  26.631  1.00  0.00     0.278 C 
ENDBRANCH   8  13
BRANCH  10  15
ATOM     15  O   UNL A   1      30.246  22.972  27.639  1.00  0.00    -0.493 OA
ATOM     16  C   UNL A   1      28.891  22.567  27.505  1.00  0.00     0.278 C 
ENDBRANCH  10  15
BRANCH  11  17
ATOM     17  N   UNL A   1      32.810  24.203  22.791  1.00  0.00    -0.321 N 
ATOM     18  C   UNL A   1      32.881  25.277  21.934  1.00  0.00     0.255 C 
ATOM     19  H   UNL A   1      33.307  23.421  22.456  1.00  0.00     0.170 HD
ATOM     20  O   UNL A   1      33.340  25.168  20.800  1.00  0.00    -0.269 OA
BRANCH  18  21
ATOM     21  C   UNL A   1      32.425  26.603  22.363  1.00  0.00     0.040 A 
ATOM     22  C   UNL A   1      31.107  26.981  22.080  1.00  0.00     0.021 A 
ATOM     23  C   UNL A   1      33.266  27.409  23.139  1.00  0.00     0.021 A 
ATOM     24  C   UNL A   1      30.580  28.119  22.689  1.00  0.00     0.086 A 
ATOM     25  C   UNL A   1      32.741  28.545  23.753  1.00  0.00     0.086 A 
ATOM     26  C   UNL A   1      31.388  28.871  23.556  1.00  0.00     0.269 A 
BRANCH  26  27
ATOM     27  N   UNL A   1      30.792  29.959  24.338  1.00  0.00     0.062 N 
ATOM     28  O   UNL A   1      31.428  30.385  25.312  1.00  0.00    -0.258 OA
ATOM     29  O   UNL A   1      29.704  30.410  23.952  1.00  0.00    -0.258 OA
ENDBRANCH  26  27
ENDBRANCH  18  21
ENDBRANCH  11  17
ENDBRANCH   4   7
ENDBRANCH   2   3
ENDBRANCH   1   2
BRANCH   1  30
ATOM     30  C   UNL A   1      36.979  20.207  24.989  1.00  0.00     0.023 C 
BRANCH  30  31
ATOM     31  C   UNL A   1      38.359  20.702  25.404  1.00  0.00     0.116 C 
BRANCH  31  32
ATOM     32  N   UNL A   1      39.356  19.644  25.449  1.00  0.00    -0.352 N 
ATOM     33  C   UNL A   1      40.646  19.701  25.908  1.00  0.00     0.251 C 
ATOM     34  H   UNL A   1      39.065  18.770  25.103  1.00  0.00     0.163 HD
ATOM     35  O   UNL A   1      41.394  18.739  25.761  1.00  0.00    -0.269 OA
BRANCH  33  36
ATOM     36  C   UNL A   1      41.144  20.938  26.540  1.00  0.00     0.039 A 
ATOM     37  C   UNL A   1      41.719  21.914  25.725  1.00  0.00     0.014 A 
ATOM     38  C   UNL A   1      41.037  21.146  27.919  1.00  0.00     0.014 A 
ATOM     39  C   UNL A   1      42.140  23.118  26.287  1.00  0.00     0.010 A 
ATOM     40  C   UNL A   1      41.381  22.379  28.465  1.00  0.00     0.010 A 
ATOM     41  C   UNL A   1      41.944  23.376  27.656  1.00  0.00    -0.014 A 
BRANCH  41  42
ATOM     42  C   UNL A   1      42.318  24.693  28.227  1.00  0.00     0.031 A 
ATOM     43  C   UNL A   1      43.742  24.990  28.610  1.00  0.00     0.074 A 
ATOM     44  C   UNL A   1      41.358  25.622  28.410  1.00  0.00     0.049 A 
ATOM     45  N   UNL A   1      44.257  26.108  29.057  1.00  0.00    -0.248 NA
ATOM     46  C   UNL A   1      44.711  23.887  28.505  1.00  0.00     0.031 C 
ATOM     47  C   UNL A   1      39.929  25.426  28.148  1.00  0.00     0.029 A 
ATOM     48  N   UNL A   1      41.438  26.919  28.849  1.00  0.00    -0.354 N 
ATOM     49  C   UNL A   1      45.601  25.840  29.291  1.00  0.00     0.074 A 
ATOM     50  C   UNL A   1      45.813  24.442  28.989  1.00  0.00     0.031 C 
ATOM     51  C   UNL A   1      39.276  26.574  28.388  1.00  0.00     0.029 A 
ATOM     52  C   UNL A   1      40.229  27.575  28.850  1.00  0.00     0.049 A 
ATOM     53  H   UNL A   1      42.280  27.340  29.136  1.00  0.00     0.167 HD
ATOM     54  C   UNL A   1      46.572  26.690  29.698  1.00  0.00     0.037 A 
ATOM     55  C   UNL A   1      39.929  28.846  29.178  1.00  0.00     0.037 A 
ATOM     56  C   UNL A   1      46.361  28.090  29.967  1.00  0.00     0.049 A 
ATOM     57  C   UNL A   1      41.038  29.771  29.600  1.00  0.00     0.074 A 
ATOM     58  C   UNL A   1      47.299  29.052  30.297  1.00  0.00     0.029 A 
ATOM     59  N   UNL A   1      45.128  28.723  29.944  1.00  0.00    -0.354 N 
ATOM     60  N   UNL A   1      42.323  29.532  29.703  1.00  0.00    -0.248 NA
ATOM     61  C   UNL A   1      40.654  31.149  29.936  1.00  0.00     0.031 C 
ATOM     62  C   UNL A   1      46.625  30.255  30.533  1.00  0.00     0.029 A 
ATOM     63  C   UNL A   1      45.277  30.056  30.287  1.00  0.00     0.049 A 
ATOM     64  H   UNL A   1      44.274  28.289  29.717  1.00  0.00     0.167 HD
ATOM     65  C   UNL A   1      42.902  30.734  30.086  1.00  0.00     0.074 A 
ATOM     66  C   UNL A   1      41.833  31.707  30.164  1.00  0.00     0.031 C 
ATOM     67  C   UNL A   1      44.201  31.011  30.360  1.00  0.00     0.037 A 
BRANCH  54  68
ATOM     68  C   UNL A   1      47.960  26.144  29.877  1.00  0.00     0.057 A 
ATOM     69  C   UNL A   1      48.878  26.095  28.821  1.00  0.00     0.134 A 
ATOM     70  C   UNL A   1      48.406  25.738  31.141  1.00  0.00     0.134 A 
ATOM     71  F   UNL A   1      48.512  26.458  27.582  1.00  0.00    -0.206 F 
ATOM     72  C   UNL A   1      50.189  25.655  29.015  1.00  0.00     0.040 A 
ATOM     73  C   UNL A   1      49.722  25.321  31.352  1.00  0.00     0.040 A 
ATOM     74  F   UNL A   1      47.578  25.763  32.197  1.00  0.00    -0.206 F 
ATOM     75  C   UNL A   1      50.617  25.278  30.286  1.00  0.00     0.006 A 
ENDBRANCH  54  68
BRANCH  55  76
ATOM     76  C   UNL A   1      38.526  29.334  29.109  1.00  0.00     0.057 A 
ATOM     77  C   UNL A   1      37.696  29.322  30.238  1.00  0.00     0.134 A 
ATOM     78  C   UNL A   1      37.964  29.770  27.903  1.00  0.00     0.134 A 
ATOM     79  F   UNL A   1      38.169  28.900  31.420  1.00  0.00    -0.206 F 
ATOM     80  C   UNL A   1      36.349  29.683  30.160  1.00  0.00     0.040 A 
ATOM     81  C   UNL A   1      36.629  30.166  27.819  1.00  0.00     0.040 A 
ATOM     82  F   UNL A   1      38.707  29.818  26.788  1.00  0.00    -0.206 F 
ATOM     83  C   UNL A   1      35.812  30.106  28.946  1.00  0.00     0.006 A 
ENDBRANCH  55  76
BRANCH  67  84
ATOM     84  C   UNL A   1      44.531  32.429  30.733  1.00  0.00     0.057 A 
ATOM     85  C   UNL A   1      44.562  32.857  32.067  1.00  0.00     0.134 A 
ATOM     86  C   UNL A   1      44.812  33.379  29.743  1.00  0.00     0.134 A 
ATOM     87  F   UNL A   1      44.290  31.999  33.063  1.00  0.00    -0.206 F 
ATOM     88  C   UNL A   1      44.814  34.188  32.400  1.00  0.00     0.040 A 
ATOM     89  C   UNL A   1      45.102  34.705  30.066  1.00  0.00     0.040 A 
ATOM     90  F   UNL A   1      44.814  33.035  28.447  1.00  0.00    -0.206 F 
ATOM     91  C   UNL A   1      45.089  35.116  31.397  1.00  0.00     0.006 A 
ENDBRANCH  67  84
ENDBRANCH  41  42
ENDBRANCH  33  36
ENDBRANCH  31  32
ENDBRANCH  30  31
ENDBRANCH   1  30
TORSDOF 16
ENDMDL
MODEL 2
REMARK VINA RESULT:     -11.9      2.236      3.430
REMARK SMILES COc1cc(NC(=O)c2ccc([N+](=O)[O-])cc2)c(C(=O)NCCCCNC(=O)c2ccc(-c3c4nc(c(-c5c(F)cccc5F)c5ccc([nH]5)c(-c5c(F)cccc5F)c5nc(c(-c6c(F)cccc6F)c6ccc3[nH]6)C=C5)C=C4)cc2)cc1OC
REMARK SMILES IDX 23 1 22 2 21 3 19 4 20 5 18 7 3 8 4 9 84 10 5 11 83 12 2 13
REMARK SMILES IDX 1 14 85 15 86 16 6 17 7 18 8 20 9 21 10 22 17 23 11 24 16 25
REMARK SMILES IDX 12 26 13 27 14 28 15 29 24 30 25 31 26 32 27 33 28 35 29 36
REMARK SMILES IDX 30 37 82 38 31 39 81 40 32 41 33 42 34 43 75 44 35 45 80 46
REMARK SMILES IDX 74 47 76 48 36 49 79 50 73 51 72 52 37 54 63 55 46 56 62 57
REMARK SMILES IDX 47 58 50 59 61 60 77 61 48 62 49 63 60 65 78 66 51 67 38 68
REMARK SMILES IDX 39 69 44 70 40 71 41 72 43 73 45 74 42 75 64 76 65 77 70 78
REMARK SMILES IDX 66 79 67 80 69 81 71 82 68 83 52 84 53 85 58 86 54 87 55 88
REMARK SMILES IDX 57 89 59 90 56 91
REMARK H PARENT 21 6 6 19 26 34 76 53 50 64
REMARK Flexibility Score: inf
ROOT
ATOM      1  C   UNL A   1      34.917  22.109  26.800  1.00  0.00     0.023 C 
ENDROOT
BRANCH   1   2
ATOM      2  C   UNL A   1      33.674  21.376  27.312  1.00  0.00     0.116 C 
BRANCH   2   3
ATOM      3  N   UNL A   1      32.585  22.311  27.510  1.00  0.00    -0.352 N 
ATOM      4  C   UNL A   1      32.011  23.271  26.714  1.00  0.00     0.253 C 
ATOM      5  O   UNL A   1      31.111  23.927  27.245  1.00  0.00    -0.269 OA
ATOM      6  H   UNL A   1      32.171  22.244  28.400  1.00  0.00     0.163 HD
BRANCH   4   7
ATOM      7  C   UNL A   1      32.372  23.540  25.277  1.00  0.00     0.067 A 
ATOM      8  C   UNL A   1      32.950  24.041  22.555  1.00  0.00     0.162 A 
ATOM      9  C   UNL A   1      33.225  24.999  23.542  1.00  0.00     0.077 A 
ATOM     10  C   UNL A   1      32.466  22.799  22.927  1.00  0.00     0.161 A 
ATOM     11  C   UNL A   1      32.905  24.800  24.899  1.00  0.00     0.058 A 
ATOM     12  C   UNL A   1      32.233  22.557  24.284  1.00  0.00     0.066 A 
BRANCH   8  13
ATOM     13  O   UNL A   1      33.330  24.308  21.268  1.00  0.00    -0.493 OA
ATOM     14  C   UNL A   1      32.702  25.487  20.757  1.00  0.00     0.278 C 
ENDBRANCH   8  13
BRANCH  10  15
ATOM     15  O   UNL A   1      32.240  21.706  22.139  1.00  0.00    -0.493 OA
ATOM     16  C   UNL A   1      32.208  20.437  22.777  1.00  0.00     0.278 C 
ENDBRANCH  10  15
BRANCH  11  17
ATOM     17  N   UNL A   1      33.155  25.778  25.904  1.00  0.00    -0.321 N 
ATOM     18  C   UNL A   1      32.727  27.064  26.138  1.00  0.00     0.255 C 
ATOM     19  H   UNL A   1      33.781  25.459  26.594  1.00  0.00     0.170 HD
ATOM     20  O   UNL A   1      33.248  27.771  26.996  1.00  0.00    -0.269 OA
BRANCH  18  21
ATOM     21  C   UNL A   1      31.608  27.627  25.375  1.00  0.00     0.040 A 
ATOM     22  C   UNL A   1      31.627  28.993  25.069  1.00  0.00     0.021 A 
ATOM     23  C   UNL A   1      30.614  26.779  24.872  1.00  0.00     0.021 A 
ATOM     24  C   UNL A   1      30.715  29.496  24.142  1.00  0.00     0.086 A 
ATOM     25  C   UNL A   1      29.703  27.277  23.942  1.00  0.00     0.086 A 
ATOM     26  C   UNL A   1      29.785  28.625  23.552  1.00  0.00     0.269 A 
BRANCH  26  27
ATOM     27  N   UNL A   1      28.946  29.104  22.448  1.00  0.00     0.062 N 
ATOM     28  O   UNL A   1      29.515  29.499  21.421  1.00  0.00    -0.258 OA
ATOM     29  O   UNL A   1      27.717  29.048  22.599  1.00  0.00    -0.258 OA
ENDBRANCH  26  27
ENDBRANCH  18  21
ENDBRANCH  11  17
ENDBRANCH   4   7
ENDBRANCH   2   3
ENDBRANCH   1   2
BRANCH   1  30
ATOM     30  C   UNL A   1      35.520  21.506  25.531  1.00  0.00     0.023 C 
BRANCH  30  31
ATOM     31  C   UNL A   1      36.964  21.911  25.264  1.00  0.00     0.116 C 
BRANCH  31  32
ATOM     32  N   UNL A   1      37.915  20.842  25.525  1.00  0.00    -0.352 N 
ATOM     33  C   UNL A   1      39.178  20.927  26.049  1.00  0.00     0.251 C 
ATOM     34  H   UNL A   1      37.610  19.935  25.294  1.00  0.00     0.163 HD
ATOM     35  O   UNL A   1      39.895  19.931  26.091  1.00  0.00    -0.269 OA
BRANCH  33  36
ATOM     36  C   UNL A   1      39.688  22.228  26.523  1.00  0.00     0.039 A 
ATOM     37  C   UNL A   1      40.773  22.235  27.400  1.00  0.00     0.014 A 
ATOM     38  C   UNL A   1      39.116  23.432  26.101  1.00  0.00     0.014 A 
ATOM     39  C   UNL A   1      41.315  23.451  27.813  1.00  0.00     0.010 A 
ATOM     40  C   UNL A   1      39.709  24.643  26.447  1.00  0.00     0.010 A 
ATOM     41  C   UNL A   1      40.810  24.665  27.315  1.00  0.00    -0.014 A 
BRANCH  41  42
ATOM     42  C   UNL A   1      41.449  25.950  27.694  1.00  0.00     0.031 A 
ATOM     43  C   UNL A   1      42.845  26.279  27.241  1.00  0.00     0.074 A 
ATOM     44  C   UNL A   1      40.762  26.818  28.464  1.00  0.00     0.049 A 
ATOM     45  N   UNL A   1      43.529  27.381  27.421  1.00  0.00    -0.248 NA
ATOM     46  C   UNL A   1      43.581  25.232  26.515  1.00  0.00     0.031 C 
ATOM     47  C   UNL A   1      39.431  26.579  29.029  1.00  0.00     0.029 A 
ATOM     48  N   UNL A   1      41.083  28.079  28.898  1.00  0.00    -0.354 N 
ATOM     49  C   UNL A   1      44.771  27.156  26.840  1.00  0.00     0.074 A 
ATOM     50  C   UNL A   1      44.769  25.796  26.348  1.00  0.00     0.031 C 
ATOM     51  C   UNL A   1      39.032  27.675  29.694  1.00  0.00     0.029 A 
ATOM     52  C   UNL A   1      40.087  28.679  29.631  1.00  0.00     0.049 A 
ATOM     53  H   UNL A   1      41.944  28.514  28.701  1.00  0.00     0.167 HD
ATOM     54  C   UNL A   1      45.809  28.014  26.709  1.00  0.00     0.037 A 
ATOM     55  C   UNL A   1      40.030  29.906  30.183  1.00  0.00     0.037 A 
ATOM     56  C   UNL A   1      45.794  29.378  27.173  1.00  0.00     0.049 A 
ATOM     57  C   UNL A   1      41.191  30.844  29.994  1.00  0.00     0.074 A 
ATOM     58  C   UNL A   1      46.762  30.353  27.007  1.00  0.00     0.029 A 
ATOM     59  N   UNL A   1      44.765  29.955  27.899  1.00  0.00    -0.354 N 
ATOM     60  N   UNL A   1      42.311  30.655  29.340  1.00  0.00    -0.248 NA
ATOM     61  C   UNL A   1      41.071  32.173  30.608  1.00  0.00     0.031 C 
ATOM     62  C   UNL A   1      46.344  31.502  27.685  1.00  0.00     0.029 A 
ATOM     63  C   UNL A   1      45.089  31.264  28.218  1.00  0.00     0.049 A 
ATOM     64  H   UNL A   1      43.927  29.503  28.150  1.00  0.00     0.167 HD
ATOM     65  C   UNL A   1      43.014  31.849  29.439  1.00  0.00     0.074 A 
ATOM     66  C   UNL A   1      42.178  32.763  30.188  1.00  0.00     0.031 C 
ATOM     67  C   UNL A   1      44.245  32.161  28.964  1.00  0.00     0.037 A 
BRANCH  54  68
ATOM     68  C   UNL A   1      47.055  27.518  26.032  1.00  0.00     0.057 A 
ATOM     69  C   UNL A   1      48.090  26.902  26.745  1.00  0.00     0.134 A 
ATOM     70  C   UNL A   1      47.181  27.583  24.638  1.00  0.00     0.134 A 
ATOM     71  F   UNL A   1      48.038  26.816  28.083  1.00  0.00    -0.206 F 
ATOM     72  C   UNL A   1      49.210  26.377  26.098  1.00  0.00     0.040 A 
ATOM     73  C   UNL A   1      48.283  27.039  23.977  1.00  0.00     0.040 A 
ATOM     74  F   UNL A   1      46.223  28.157  23.894  1.00  0.00    -0.206 F 
ATOM     75  C   UNL A   1      49.303  26.434  24.709  1.00  0.00     0.006 A 
ENDBRANCH  54  68
BRANCH  55  76
ATOM     76  C   UNL A   1      38.833  30.335  30.954  1.00  0.00     0.057 A 
ATOM     77  C   UNL A   1      38.699  30.034  32.315  1.00  0.00     0.134 A 
ATOM     78  C   UNL A   1      37.770  31.005  30.336  1.00  0.00     0.134 A 
ATOM     79  F   UNL A   1      39.675  29.379  32.962  1.00  0.00    -0.206 F 
ATOM     80  C   UNL A   1      37.535  30.343  33.022  1.00  0.00     0.040 A 
ATOM     81  C   UNL A   1      36.615  31.350  31.039  1.00  0.00     0.040 A 
ATOM     82  F   UNL A   1      37.839  31.334  29.038  1.00  0.00    -0.206 F 
ATOM     83  C   UNL A   1      36.488  31.004  32.383  1.00  0.00     0.006 A 
ENDBRANCH  55  76
BRANCH  67  84
ATOM     84  C   UNL A   1      44.736  33.559  29.214  1.00  0.00     0.057 A 
ATOM     85  C   UNL A   1      44.469  34.609  28.325  1.00  0.00     0.134 A 
ATOM     86  C   UNL A   1      45.493  33.855  30.355  1.00  0.00     0.134 A 
ATOM     87  F   UNL A   1      43.761  34.390  27.206  1.00  0.00    -0.206 F 
ATOM     88  C   UNL A   1      44.978  35.891  28.537  1.00  0.00     0.040 A 
ATOM     89  C   UNL A   1      45.975  35.142  30.596  1.00  0.00     0.040 A 
ATOM     90  F   UNL A   1      45.774  32.901  31.255  1.00  0.00    -0.206 F 
ATOM     91  C   UNL A   1      45.730  36.161  29.679  1.00  0.00     0.006 A 
ENDBRANCH  67  84
ENDBRANCH  41  42
ENDBRANCH  33  36
ENDBRANCH  31  32
ENDBRANCH  30  31
ENDBRANCH   1  30
TORSDOF 16
ENDMDL
MODEL 3
REMARK VINA RESULT:     -11.9      1.918      7.608
REMARK SMILES COc1cc(NC(=O)c2ccc([N+](=O)[O-])cc2)c(C(=O)NCCCCNC(=O)c2ccc(-c3c4nc(c(-c5c(F)cccc5F)c5ccc([nH]5)c(-c5c(F)cccc5F)c5nc(c(-c6c(F)cccc6F)c6ccc3[nH]6)C=C5)C=C4)cc2)cc1OC
REMARK SMILES IDX 23 1 22 2 21 3 19 4 20 5 18 7 3 8 4 9 84 10 5 11 83 12 2 13
REMARK SMILES IDX 1 14 85 15 86 16 6 17 7 18 8 20 9 21 10 22 17 23 11 24 16 25
REMARK SMILES IDX 12 26 13 27 14 28 15 29 24 30 25 31 26 32 27 33 28 35 29 36
REMARK SMILES IDX 30 37 82 38 31 39 81 40 32 41 33 42 34 43 75 44 35 45 80 46
REMARK SMILES IDX 74 47 76 48 36 49 79 50 73 51 72 52 37 54 63 55 46 56 62 57
REMARK SMILES IDX 47 58 50 59 61 60 77 61 48 62 49 63 60 65 78 66 51 67 38 68
REMARK SMILES IDX 39 69 44 70 40 71 41 72 43 73 45 74 42 75 64 76 65 77 70 78
REMARK SMILES IDX 66 79 67 80 69 81 71 82 68 83 52 84 53 85 58 86 54 87 55 88
REMARK SMILES IDX 57 89 59 90 56 91
REMARK H PARENT 21 6 6 19 26 34 76 53 50 64
REMARK Flexibility Score: inf
ROOT
ATOM      1  C   UNL A   1      32.115  29.403  25.626  1.00  0.00     0.023 C 
ENDROOT
BRANCH   1   2
ATOM      2  C   UNL A   1      31.430  29.294  24.260  1.00  0.00     0.116 C 
BRANCH   2   3
ATOM      3  N   UNL A   1      30.305  28.386  24.333  1.00  0.00    -0.352 N 
ATOM      4  C   UNL A   1      30.133  27.069  23.988  1.00  0.00     0.253 C 
ATOM      5  O   UNL A   1      28.994  26.624  24.152  1.00  0.00    -0.269 OA
ATOM      6  H   UNL A   1      29.494  28.799  24.709  1.00  0.00     0.163 HD
BRANCH   4   7
ATOM      7  C   UNL A   1      31.215  26.155  23.475  1.00  0.00     0.067 A 
ATOM      8  C   UNL A   1      33.313  24.517  22.520  1.00  0.00     0.162 A 
ATOM      9  C   UNL A   1      32.673  24.238  23.736  1.00  0.00     0.077 A 
ATOM     10  C   UNL A   1      32.857  25.562  21.734  1.00  0.00     0.161 A 
ATOM     11  C   UNL A   1      31.658  25.061  24.263  1.00  0.00     0.058 A 
ATOM     12  C   UNL A   1      31.788  26.328  22.205  1.00  0.00     0.066 A 
BRANCH   8  13
ATOM     13  O   UNL A   1      34.262  23.641  22.070  1.00  0.00    -0.493 OA
ATOM     14  C   UNL A   1      35.160  23.243  23.110  1.00  0.00     0.278 C 
ENDBRANCH   8  13
BRANCH  10  15
ATOM     15  O   UNL A   1      33.270  25.925  20.483  1.00  0.00    -0.493 OA
ATOM     16  C   UNL A   1      32.480  25.493  19.385  1.00  0.00     0.278 C 
ENDBRANCH  10  15
BRANCH  11  17
ATOM     17  N   UNL A   1      31.021  24.800  25.510  1.00  0.00    -0.321 N 
ATOM     18  C   UNL A   1      30.997  23.741  26.388  1.00  0.00     0.255 C 
ATOM     19  H   UNL A   1      30.468  25.555  25.816  1.00  0.00     0.170 HD
ATOM     20  O   UNL A   1      30.203  23.697  27.323  1.00  0.00    -0.269 OA
BRANCH  18  21
ATOM     21  C   UNL A   1      31.945  22.632  26.242  1.00  0.00     0.040 A 
ATOM     22  C   UNL A   1      31.575  21.535  25.453  1.00  0.00     0.021 A 
ATOM     23  C   UNL A   1      33.229  22.739  26.789  1.00  0.00     0.021 A 
ATOM     24  C   UNL A   1      32.543  20.595  25.098  1.00  0.00     0.086 A 
ATOM     25  C   UNL A   1      34.199  21.804  26.432  1.00  0.00     0.086 A 
ATOM     26  C   UNL A   1      33.860  20.759  25.556  1.00  0.00     0.269 A 
BRANCH  26  27
ATOM     27  N   UNL A   1      34.917  19.882  25.042  1.00  0.00     0.062 N 
ATOM     28  O   UNL A   1      34.579  18.798  24.547  1.00  0.00    -0.258 OA
ATOM     29  O   UNL A   1      36.083  20.299  25.101  1.00  0.00    -0.258 OA
ENDBRANCH  26  27
ENDBRANCH  18  21
ENDBRANCH  11  17
ENDBRANCH   4   7
ENDBRANCH   2   3
ENDBRANCH   1   2
BRANCH   1  30
ATOM     30  C   UNL A   1      33.301  28.455  25.807  1.00  0.00     0.023 C 
BRANCH  30  31
ATOM     31  C   UNL A   1      34.013  28.584  27.148  1.00  0.00     0.116 C 
BRANCH  31  32
ATOM     32  N   UNL A   1      33.909  29.915  27.724  1.00  0.00    -0.352 N 
ATOM     33  C   UNL A   1      34.854  30.626  28.415  1.00  0.00     0.251 C 
ATOM     34  H   UNL A   1      33.042  30.366  27.601  1.00  0.00     0.163 HD
ATOM     35  O   UNL A   1      34.558  31.697  28.939  1.00  0.00    -0.269 OA
BRANCH  33  36
ATOM     36  C   UNL A   1      36.217  30.081  28.563  1.00  0.00     0.039 A 
ATOM     37  C   UNL A   1      37.111  30.235  27.503  1.00  0.00     0.014 A 
ATOM     38  C   UNL A   1      36.620  29.435  29.737  1.00  0.00     0.014 A 
ATOM     39  C   UNL A   1      38.424  29.785  27.641  1.00  0.00     0.010 A 
ATOM     40  C   UNL A   1      37.951  29.063  29.903  1.00  0.00     0.010 A 
ATOM     41  C   UNL A   1      38.865  29.226  28.853  1.00  0.00    -0.014 A 
BRANCH  41  42
ATOM     42  C   UNL A   1      40.286  28.829  29.018  1.00  0.00     0.031 A 
ATOM     43  C   UNL A   1      40.762  27.473  28.574  1.00  0.00     0.074 A 
ATOM     44  C   UNL A   1      41.145  29.700  29.583  1.00  0.00     0.049 A 
ATOM     45  N   UNL A   1      41.978  26.988  28.578  1.00  0.00    -0.248 NA
ATOM     46  C   UNL A   1      39.745  26.529  28.086  1.00  0.00     0.031 C 
ATOM     47  C   UNL A   1      40.787  31.014  30.124  1.00  0.00     0.029 A 
ATOM     48  N   UNL A   1      42.499  29.616  29.791  1.00  0.00    -0.354 N 
ATOM     49  C   UNL A   1      41.869  25.686  28.104  1.00  0.00     0.074 A 
ATOM     50  C   UNL A   1      40.464  25.436  27.871  1.00  0.00     0.031 C 
ATOM     51  C   UNL A   1      41.899  31.630  30.557  1.00  0.00     0.029 A 
ATOM     52  C   UNL A   1      43.040  30.746  30.357  1.00  0.00     0.049 A 
ATOM     53  H   UNL A   1      43.032  28.822  29.556  1.00  0.00     0.167 HD
ATOM     54  C   UNL A   1      42.854  24.790  27.862  1.00  0.00     0.037 A 
ATOM     55  C   UNL A   1      44.317  31.037  30.671  1.00  0.00     0.037 A 
ATOM     56  C   UNL A   1      44.255  25.055  28.067  1.00  0.00     0.049 A 
ATOM     57  C   UNL A   1      45.390  30.028  30.363  1.00  0.00     0.074 A 
ATOM     58  C   UNL A   1      45.336  24.244  27.767  1.00  0.00     0.029 A 
ATOM     59  N   UNL A   1      44.768  26.214  28.628  1.00  0.00    -0.354 N 
ATOM     60  N   UNL A   1      45.282  28.847  29.805  1.00  0.00    -0.248 NA
ATOM     61  C   UNL A   1      46.766  30.403  30.717  1.00  0.00     0.031 C 
ATOM     62  C   UNL A   1      46.499  24.888  28.203  1.00  0.00     0.029 A 
ATOM     63  C   UNL A   1      46.148  26.125  28.715  1.00  0.00     0.049 A 
ATOM     64  H   UNL A   1      44.231  26.986  28.921  1.00  0.00     0.167 HD
ATOM     65  C   UNL A   1      46.577  28.351  29.715  1.00  0.00     0.074 A 
ATOM     66  C   UNL A   1      47.453  29.375  30.244  1.00  0.00     0.031 C 
ATOM     67  C   UNL A   1      47.005  27.154  29.244  1.00  0.00     0.037 A 
BRANCH  54  68
ATOM     68  C   UNL A   1      42.466  23.435  27.344  1.00  0.00     0.057 A 
ATOM     69  C   UNL A   1      42.511  23.122  25.980  1.00  0.00     0.134 A 
ATOM     70  C   UNL A   1      42.121  22.407  28.232  1.00  0.00     0.134 A 
ATOM     71  F   UNL A   1      42.822  24.063  25.076  1.00  0.00    -0.206 F 
ATOM     72  C   UNL A   1      42.220  21.838  25.516  1.00  0.00     0.040 A 
ATOM     73  C   UNL A   1      41.853  21.112  27.782  1.00  0.00     0.040 A 
ATOM     74  F   UNL A   1      42.063  22.638  29.552  1.00  0.00    -0.206 F 
ATOM     75  C   UNL A   1      41.901  20.826  26.420  1.00  0.00     0.006 A 
ENDBRANCH  54  68
BRANCH  55  76
ATOM     76  C   UNL A   1      44.664  32.340  31.295  1.00  0.00     0.057 A 
ATOM     77  C   UNL A   1      44.647  32.508  32.686  1.00  0.00     0.134 A 
ATOM     78  C   UNL A   1      44.967  33.464  30.517  1.00  0.00     0.134 A 
ATOM     79  F   UNL A   1      44.348  31.474  33.488  1.00  0.00    -0.206 F 
ATOM     80  C   UNL A   1      44.873  33.753  33.277  1.00  0.00     0.040 A 
ATOM     81  C   UNL A   1      45.229  34.707  31.096  1.00  0.00     0.040 A 
ATOM     82  F   UNL A   1      45.013  33.370  29.180  1.00  0.00    -0.206 F 
ATOM     83  C   UNL A   1      45.165  34.857  32.480  1.00  0.00     0.006 A 
ENDBRANCH  55  76
BRANCH  67  84
ATOM     84  C   UNL A   1      48.488  26.910  29.254  1.00  0.00     0.057 A 
ATOM     85  C   UNL A   1      49.309  27.288  28.182  1.00  0.00     0.134 A 
ATOM     86  C   UNL A   1      49.100  26.282  30.347  1.00  0.00     0.134 A 
ATOM     87  F   UNL A   1      48.784  27.882  27.100  1.00  0.00    -0.206 F 
ATOM     88  C   UNL A   1      50.676  27.006  28.177  1.00  0.00     0.040 A 
ATOM     89  C   UNL A   1      50.472  26.029  30.368  1.00  0.00     0.040 A 
ATOM     90  F   UNL A   1      48.377  25.908  31.412  1.00  0.00    -0.206 F 
ATOM     91  C   UNL A   1      51.261  26.378  29.275  1.00  0.00     0.006 A 
ENDBRANCH  67  84
ENDBRANCH  41  42
ENDBRANCH  33  36
ENDBRANCH  31  32
ENDBRANCH  30  31
ENDBRANCH   1  30
TORSDOF 16
ENDMDL
