MODEL 1
REMARK VINA RESULT:     -12.3      0.000      0.000
REMARK SMILES Cc1ccc(C(=O)NCCCCNC(=O)c2ccc(-c3c4nc(c(-c5c(F)cccc5F)c5ccc([nH]5)c(-c5c(F)cccc5F)c5nc(c(-c6c(F)cccc6F)c6ccc3[nH]6)C=C5)C=C4)cc2)cc1S(=O)(=O)N(CC1CC1)C(C)C
REMARK SMILES IDX 9 1 8 2 6 3 7 4 5 6 1 7 2 8 3 9 71 10 4 11 70 12 72 13 73 14
REMARK SMILES IDX 74 15 75 16 76 17 77 18 78 19 79 20 80 21 81 22 82 23 10 24
REMARK SMILES IDX 11 25 12 26 13 27 14 28 15 30 16 31 17 32 69 33 18 34 68 35
REMARK SMILES IDX 19 36 20 37 21 38 62 39 22 40 67 41 61 42 63 43 23 44 66 45
REMARK SMILES IDX 60 46 59 47 24 49 50 50 33 51 49 52 34 53 37 54 48 55 64 56
REMARK SMILES IDX 35 57 36 58 47 60 65 61 38 62 25 63 26 64 31 65 27 66 28 67
REMARK SMILES IDX 30 68 32 69 29 70 51 71 52 72 57 73 53 74 54 75 56 76 58 77
REMARK SMILES IDX 55 78 39 79 40 80 45 81 41 82 42 83 44 84 46 85 43 86
REMARK H PARENT 8 5 13 29 63 48 37 59
REMARK Flexibility Score: inf
ROOT
ATOM      1  C   UNL A   1      31.032  29.935  25.140  1.00  0.00     0.116 C 
ENDROOT
BRANCH   1   2
ATOM      2  N   UNL A   1      30.738  30.096  23.723  1.00  0.00    -0.352 N 
ATOM      3  C   UNL A   1      30.526  29.209  22.696  1.00  0.00     0.251 C 
ATOM      4  O   UNL A   1      30.248  29.683  21.592  1.00  0.00    -0.269 OA
ATOM      5  H   UNL A   1      30.679  31.039  23.442  1.00  0.00     0.163 HD
BRANCH   3   6
ATOM      6  C   UNL A   1      30.549  27.724  22.853  1.00  0.00     0.041 A 
ATOM      7  C   UNL A   1      30.654  23.558  24.062  1.00  0.00     0.046 C 
ATOM      8  C   UNL A   1      30.649  24.959  23.529  1.00  0.00    -0.031 A 
ATOM      9  C   UNL A   1      29.548  25.765  23.886  1.00  0.00     0.005 A 
ATOM     10  C   UNL A   1      31.642  25.533  22.724  1.00  0.00     0.086 A 
ATOM     11  C   UNL A   1      29.513  27.130  23.577  1.00  0.00     0.014 A 
ATOM     12  C   UNL A   1      31.552  26.894  22.362  1.00  0.00     0.035 A 
BRANCH  10  13
ATOM     13  S   UNL A   1      33.253  24.822  22.366  1.00  0.00     0.243 S 
ATOM     14  O   UNL A   1      33.051  23.759  21.418  1.00  0.00    -0.207 OA
ATOM     15  O   UNL A   1      34.032  25.988  21.972  1.00  0.00    -0.207 OA
BRANCH  13  16
ATOM     16  N   UNL A   1      33.914  24.152  23.769  1.00  0.00    -0.195 NA
BRANCH  16  17
ATOM     17  C   UNL A   1      34.445  22.766  23.783  1.00  0.00     0.106 C 
BRANCH  17  18
ATOM     18  C   UNL A   1      33.741  21.726  24.603  1.00  0.00     0.004 C 
ATOM     19  C   UNL A   1      32.959  20.531  24.108  1.00  0.00     0.005 C 
ATOM     20  C   UNL A   1      34.349  20.335  24.621  1.00  0.00     0.005 C 
ENDBRANCH  17  18
ENDBRANCH  16  17
BRANCH  16  21
ATOM     21  C   UNL A   1      34.579  25.054  24.785  1.00  0.00     0.067 C 
ATOM     22  C   UNL A   1      33.597  25.626  25.800  1.00  0.00     0.025 C 
ATOM     23  C   UNL A   1      35.761  24.427  25.522  1.00  0.00     0.025 C 
ENDBRANCH  16  21
ENDBRANCH  13  16
ENDBRANCH  10  13
ENDBRANCH   3   6
ENDBRANCH   1   2
BRANCH   1  24
ATOM     24  C   UNL A   1      32.545  29.982  25.418  1.00  0.00     0.023 C 
BRANCH  24  25
ATOM     25  C   UNL A   1      32.917  30.452  26.828  1.00  0.00     0.023 C 
BRANCH  25  26
ATOM     26  C   UNL A   1      34.331  30.070  27.237  1.00  0.00     0.116 C 
BRANCH  26  27
ATOM     27  N   UNL A   1      35.135  31.160  27.773  1.00  0.00    -0.352 N 
ATOM     28  C   UNL A   1      36.369  31.130  28.396  1.00  0.00     0.251 C 
ATOM     29  H   UNL A   1      34.738  32.056  27.676  1.00  0.00     0.163 HD
ATOM     30  O   UNL A   1      36.826  32.165  28.877  1.00  0.00    -0.269 OA
BRANCH  28  31
ATOM     31  C   UNL A   1      37.215  29.906  28.361  1.00  0.00     0.039 A 
ATOM     32  C   UNL A   1      37.205  29.070  29.489  1.00  0.00     0.014 A 
ATOM     33  C   UNL A   1      38.149  29.685  27.356  1.00  0.00     0.014 A 
ATOM     34  C   UNL A   1      38.282  28.222  29.729  1.00  0.00     0.010 A 
ATOM     35  C   UNL A   1      39.275  28.943  27.645  1.00  0.00     0.010 A 
ATOM     36  C   UNL A   1      39.370  28.269  28.866  1.00  0.00    -0.014 A 
BRANCH  36  37
ATOM     37  C   UNL A   1      40.693  27.754  29.189  1.00  0.00     0.031 A 
ATOM     38  C   UNL A   1      41.106  26.419  28.715  1.00  0.00     0.074 A 
ATOM     39  C   UNL A   1      41.590  28.599  29.749  1.00  0.00     0.049 A 
ATOM     40  N   UNL A   1      42.188  25.827  29.087  1.00  0.00    -0.248 NA
ATOM     41  C   UNL A   1      40.291  25.602  27.816  1.00  0.00     0.031 C 
ATOM     42  C   UNL A   1      43.045  28.474  29.772  1.00  0.00     0.029 A 
ATOM     43  N   UNL A   1      41.321  29.660  30.629  1.00  0.00    -0.354 N 
ATOM     44  C   UNL A   1      42.376  24.759  28.245  1.00  0.00     0.074 A 
ATOM     45  C   UNL A   1      41.110  24.571  27.588  1.00  0.00     0.031 C 
ATOM     46  C   UNL A   1      43.527  29.193  30.799  1.00  0.00     0.029 A 
ATOM     47  C   UNL A   1      42.381  29.648  31.565  1.00  0.00     0.049 A 
ATOM     48  H   UNL A   1      40.557  30.281  30.599  1.00  0.00     0.167 HD
ATOM     49  C   UNL A   1      43.637  24.276  28.084  1.00  0.00     0.037 A 
ATOM     50  C   UNL A   1      42.164  29.345  32.879  1.00  0.00     0.037 A 
ATOM     51  C   UNL A   1      44.518  24.750  29.150  1.00  0.00     0.049 A 
ATOM     52  C   UNL A   1      42.947  28.150  33.372  1.00  0.00     0.074 A 
ATOM     53  C   UNL A   1      45.557  25.661  29.198  1.00  0.00     0.029 A 
ATOM     54  N   UNL A   1      44.191  24.451  30.471  1.00  0.00    -0.354 N 
ATOM     55  N   UNL A   1      43.461  27.242  32.588  1.00  0.00    -0.248 NA
ATOM     56  C   UNL A   1      43.196  27.871  34.784  1.00  0.00     0.031 C 
ATOM     57  C   UNL A   1      45.761  26.008  30.564  1.00  0.00     0.029 A 
ATOM     58  C   UNL A   1      44.889  25.262  31.342  1.00  0.00     0.049 A 
ATOM     59  H   UNL A   1      43.549  23.757  30.746  1.00  0.00     0.167 HD
ATOM     60  C   UNL A   1      44.069  26.275  33.343  1.00  0.00     0.074 A 
ATOM     61  C   UNL A   1      43.892  26.723  34.711  1.00  0.00     0.031 C 
ATOM     62  C   UNL A   1      44.656  25.178  32.778  1.00  0.00     0.037 A 
BRANCH  49  63
ATOM     63  C   UNL A   1      44.127  23.542  26.853  1.00  0.00     0.057 A 
ATOM     64  C   UNL A   1      44.848  24.233  25.860  1.00  0.00     0.134 A 
ATOM     65  C   UNL A   1      43.801  22.213  26.510  1.00  0.00     0.134 A 
ATOM     66  F   UNL A   1      45.213  25.513  26.026  1.00  0.00    -0.206 F 
ATOM     67  C   UNL A   1      45.209  23.651  24.633  1.00  0.00     0.040 A 
ATOM     68  C   UNL A   1      44.202  21.604  25.313  1.00  0.00     0.040 A 
ATOM     69  F   UNL A   1      43.019  21.443  27.275  1.00  0.00    -0.206 F 
ATOM     70  C   UNL A   1      44.896  22.327  24.361  1.00  0.00     0.006 A 
ENDBRANCH  49  63
BRANCH  50  71
ATOM     71  C   UNL A   1      40.808  29.735  33.351  1.00  0.00     0.057 A 
ATOM     72  C   UNL A   1      40.584  31.079  33.701  1.00  0.00     0.134 A 
ATOM     73  C   UNL A   1      39.683  28.950  33.083  1.00  0.00     0.134 A 
ATOM     74  F   UNL A   1      41.622  31.883  33.978  1.00  0.00    -0.206 F 
ATOM     75  C   UNL A   1      39.310  31.650  33.656  1.00  0.00     0.040 A 
ATOM     76  C   UNL A   1      38.399  29.508  33.054  1.00  0.00     0.040 A 
ATOM     77  F   UNL A   1      39.817  27.665  32.724  1.00  0.00    -0.206 F 
ATOM     78  C   UNL A   1      38.216  30.870  33.295  1.00  0.00     0.006 A 
ENDBRANCH  50  71
BRANCH  62  79
ATOM     79  C   UNL A   1      45.124  23.956  33.528  1.00  0.00     0.057 A 
ATOM     80  C   UNL A   1      46.432  23.774  34.001  1.00  0.00     0.134 A 
ATOM     81  C   UNL A   1      44.198  22.969  33.935  1.00  0.00     0.134 A 
ATOM     82  F   UNL A   1      47.388  24.690  33.792  1.00  0.00    -0.206 F 
ATOM     83  C   UNL A   1      46.809  22.660  34.765  1.00  0.00     0.040 A 
ATOM     84  C   UNL A   1      44.551  21.882  34.740  1.00  0.00     0.040 A 
ATOM     85  F   UNL A   1      42.905  23.032  33.585  1.00  0.00    -0.206 F 
ATOM     86  C   UNL A   1      45.866  21.715  35.145  1.00  0.00     0.006 A 
ENDBRANCH  62  79
ENDBRANCH  36  37
ENDBRANCH  28  31
ENDBRANCH  26  27
ENDBRANCH  25  26
ENDBRANCH  24  25
ENDBRANCH   1  24
TORSDOF 16
ENDMDL
MODEL 2
REMARK VINA RESULT:     -12.1      3.847      9.116
REMARK SMILES Cc1ccc(C(=O)NCCCCNC(=O)c2ccc(-c3c4nc(c(-c5c(F)cccc5F)c5ccc([nH]5)c(-c5c(F)cccc5F)c5nc(c(-c6c(F)cccc6F)c6ccc3[nH]6)C=C5)C=C4)cc2)cc1S(=O)(=O)N(CC1CC1)C(C)C
REMARK SMILES IDX 9 1 8 2 6 3 7 4 5 6 1 7 2 8 3 9 71 10 4 11 70 12 72 13 73 14
REMARK SMILES IDX 74 15 75 16 76 17 77 18 78 19 79 20 80 21 81 22 82 23 10 24
REMARK SMILES IDX 11 25 12 26 13 27 14 28 15 30 16 31 17 32 69 33 18 34 68 35
REMARK SMILES IDX 19 36 20 37 21 38 62 39 22 40 67 41 61 42 63 43 23 44 66 45
REMARK SMILES IDX 60 46 59 47 24 49 50 50 33 51 49 52 34 53 37 54 48 55 64 56
REMARK SMILES IDX 35 57 36 58 47 60 65 61 38 62 25 63 26 64 31 65 27 66 28 67
REMARK SMILES IDX 30 68 32 69 29 70 51 71 52 72 57 73 53 74 54 75 56 76 58 77
REMARK SMILES IDX 55 78 39 79 40 80 45 81 41 82 42 83 44 84 46 85 43 86
REMARK H PARENT 8 5 13 29 63 48 37 59
REMARK Flexibility Score: inf
ROOT
ATOM      1  C   UNL A   1      35.396  20.998  25.275  1.00  0.00     0.116 C 
ENDROOT
BRANCH   1   2
ATOM      2  N   UNL A   1      34.347  19.998  25.421  1.00  0.00    -0.352 N 
ATOM      3  C   UNL A   1      32.990  20.017  25.212  1.00  0.00     0.251 C 
ATOM      4  O   UNL A   1      32.379  18.961  25.392  1.00  0.00    -0.269 OA
ATOM      5  H   UNL A   1      34.681  19.128  25.739  1.00  0.00     0.163 HD
BRANCH   3   6
ATOM      6  C   UNL A   1      32.235  21.208  24.721  1.00  0.00     0.041 A 
ATOM      7  C   UNL A   1      30.693  24.855  22.944  1.00  0.00     0.046 C 
ATOM      8  C   UNL A   1      31.128  23.599  23.636  1.00  0.00    -0.031 A 
ATOM      9  C   UNL A   1      31.513  22.524  22.809  1.00  0.00     0.005 A 
ATOM     10  C   UNL A   1      31.194  23.408  25.023  1.00  0.00     0.086 A 
ATOM     11  C   UNL A   1      32.083  21.361  23.341  1.00  0.00     0.014 A 
ATOM     12  C   UNL A   1      31.703  22.198  25.542  1.00  0.00     0.035 A 
BRANCH  10  13
ATOM     13  S   UNL A   1      31.028  24.688  26.274  1.00  0.00     0.243 S 
ATOM     14  O   UNL A   1      29.633  25.030  26.355  1.00  0.00    -0.207 OA
ATOM     15  O   UNL A   1      31.682  24.087  27.429  1.00  0.00    -0.207 OA
BRANCH  13  16
ATOM     16  N   UNL A   1      31.879  26.070  25.803  1.00  0.00    -0.195 NA
BRANCH  16  17
ATOM     17  C   UNL A   1      31.235  27.407  25.808  1.00  0.00     0.106 C 
BRANCH  17  18
ATOM     18  C   UNL A   1      30.692  27.957  24.523  1.00  0.00     0.004 C 
ATOM     19  C   UNL A   1      30.673  29.399  24.068  1.00  0.00     0.005 C 
ATOM     20  C   UNL A   1      31.701  28.469  23.510  1.00  0.00     0.005 C 
ENDBRANCH  17  18
ENDBRANCH  16  17
BRANCH  16  21
ATOM     21  C   UNL A   1      33.376  26.129  26.006  1.00  0.00     0.067 C 
ATOM     22  C   UNL A   1      34.153  25.484  24.865  1.00  0.00     0.025 C 
ATOM     23  C   UNL A   1      33.932  27.528  26.270  1.00  0.00     0.025 C 
ENDBRANCH  16  21
ENDBRANCH  13  16
ENDBRANCH  10  13
ENDBRANCH   3   6
ENDBRANCH   1   2
BRANCH   1  24
ATOM     24  C   UNL A   1      36.767  20.352  25.006  1.00  0.00     0.023 C 
BRANCH  24  25
ATOM     25  C   UNL A   1      37.901  21.350  24.748  1.00  0.00     0.023 C 
BRANCH  25  26
ATOM     26  C   UNL A   1      38.259  22.184  25.968  1.00  0.00     0.116 C 
BRANCH  26  27
ATOM     27  N   UNL A   1      39.647  22.087  26.397  1.00  0.00    -0.352 N 
ATOM     28  C   UNL A   1      40.535  23.081  26.764  1.00  0.00     0.251 C 
ATOM     29  H   UNL A   1      40.009  21.171  26.430  1.00  0.00     0.163 HD
ATOM     30  O   UNL A   1      41.708  22.789  26.987  1.00  0.00    -0.269 OA
BRANCH  28  31
ATOM     31  C   UNL A   1      40.063  24.466  27.037  1.00  0.00     0.039 A 
ATOM     32  C   UNL A   1      40.496  25.488  26.179  1.00  0.00     0.014 A 
ATOM     33  C   UNL A   1      39.395  24.797  28.210  1.00  0.00     0.014 A 
ATOM     34  C   UNL A   1      40.509  26.806  26.625  1.00  0.00     0.010 A 
ATOM     35  C   UNL A   1      39.519  26.078  28.707  1.00  0.00     0.010 A 
ATOM     36  C   UNL A   1      40.142  27.065  27.940  1.00  0.00    -0.014 A 
BRANCH  36  37
ATOM     37  C   UNL A   1      40.470  28.291  28.654  1.00  0.00     0.031 A 
ATOM     38  C   UNL A   1      39.490  29.391  28.730  1.00  0.00     0.074 A 
ATOM     39  C   UNL A   1      41.596  28.314  29.405  1.00  0.00     0.049 A 
ATOM     40  N   UNL A   1      39.756  30.561  29.200  1.00  0.00    -0.248 NA
ATOM     41  C   UNL A   1      38.123  29.282  28.217  1.00  0.00     0.031 C 
ATOM     42  C   UNL A   1      41.918  29.213  30.510  1.00  0.00     0.029 A 
ATOM     43  N   UNL A   1      42.800  27.637  29.150  1.00  0.00    -0.354 N 
ATOM     44  C   UNL A   1      38.559  31.212  29.370  1.00  0.00     0.074 A 
ATOM     45  C   UNL A   1      37.605  30.449  28.609  1.00  0.00     0.031 C 
ATOM     46  C   UNL A   1      43.252  29.258  30.659  1.00  0.00     0.029 A 
ATOM     47  C   UNL A   1      43.823  28.531  29.539  1.00  0.00     0.049 A 
ATOM     48  H   UNL A   1      42.908  26.731  28.779  1.00  0.00     0.167 HD
ATOM     49  C   UNL A   1      38.493  32.220  30.279  1.00  0.00     0.037 A 
ATOM     50  C   UNL A   1      44.676  29.076  28.624  1.00  0.00     0.037 A 
ATOM     51  C   UNL A   1      39.832  32.686  30.639  1.00  0.00     0.049 A 
ATOM     52  C   UNL A   1      44.649  30.587  28.579  1.00  0.00     0.074 A 
ATOM     53  C   UNL A   1      40.613  32.567  31.774  1.00  0.00     0.029 A 
ATOM     54  N   UNL A   1      40.666  33.168  29.633  1.00  0.00    -0.354 N 
ATOM     55  N   UNL A   1      43.666  31.311  29.039  1.00  0.00    -0.248 NA
ATOM     56  C   UNL A   1      45.714  31.400  27.996  1.00  0.00     0.031 C 
ATOM     57  C   UNL A   1      41.956  32.858  31.404  1.00  0.00     0.029 A 
ATOM     58  C   UNL A   1      41.976  33.210  30.064  1.00  0.00     0.049 A 
ATOM     59  H   UNL A   1      40.363  33.442  28.737  1.00  0.00     0.167 HD
ATOM     60  C   UNL A   1      43.926  32.636  28.810  1.00  0.00     0.074 A 
ATOM     61  C   UNL A   1      45.228  32.641  28.171  1.00  0.00     0.031 C 
ATOM     62  C   UNL A   1      43.040  33.617  29.155  1.00  0.00     0.037 A 
BRANCH  49  63
ATOM     63  C   UNL A   1      37.233  32.651  30.998  1.00  0.00     0.057 A 
ATOM     64  C   UNL A   1      36.830  31.990  32.174  1.00  0.00     0.134 A 
ATOM     65  C   UNL A   1      36.299  33.593  30.517  1.00  0.00     0.134 A 
ATOM     66  F   UNL A   1      37.598  31.050  32.744  1.00  0.00    -0.206 F 
ATOM     67  C   UNL A   1      35.603  32.243  32.812  1.00  0.00     0.040 A 
ATOM     68  C   UNL A   1      35.097  33.894  31.173  1.00  0.00     0.040 A 
ATOM     69  F   UNL A   1      36.453  34.230  29.351  1.00  0.00    -0.206 F 
ATOM     70  C   UNL A   1      34.736  33.207  32.318  1.00  0.00     0.006 A 
ENDBRANCH  49  63
BRANCH  50  71
ATOM     71  C   UNL A   1      44.922  28.189  27.455  1.00  0.00     0.057 A 
ATOM     72  C   UNL A   1      45.835  27.129  27.601  1.00  0.00     0.134 A 
ATOM     73  C   UNL A   1      44.018  28.109  26.391  1.00  0.00     0.134 A 
ATOM     74  F   UNL A   1      46.733  27.148  28.598  1.00  0.00    -0.206 F 
ATOM     75  C   UNL A   1      45.766  25.981  26.808  1.00  0.00     0.040 A 
ATOM     76  C   UNL A   1      43.954  26.971  25.577  1.00  0.00     0.040 A 
ATOM     77  F   UNL A   1      43.104  29.071  26.198  1.00  0.00    -0.206 F 
ATOM     78  C   UNL A   1      44.797  25.886  25.814  1.00  0.00     0.006 A 
ENDBRANCH  50  71
BRANCH  62  79
ATOM     79  C   UNL A   1      43.127  35.060  28.724  1.00  0.00     0.057 A 
ATOM     80  C   UNL A   1      42.869  35.511  27.421  1.00  0.00     0.134 A 
ATOM     81  C   UNL A   1      43.334  36.080  29.680  1.00  0.00     0.134 A 
ATOM     82  F   UNL A   1      42.540  34.663  26.437  1.00  0.00    -0.206 F 
ATOM     83  C   UNL A   1      42.882  36.871  27.078  1.00  0.00     0.040 A 
ATOM     84  C   UNL A   1      43.296  37.440  29.359  1.00  0.00     0.040 A 
ATOM     85  F   UNL A   1      43.559  35.798  30.971  1.00  0.00    -0.206 F 
ATOM     86  C   UNL A   1      43.085  37.841  28.049  1.00  0.00     0.006 A 
ENDBRANCH  62  79
ENDBRANCH  36  37
ENDBRANCH  28  31
ENDBRANCH  26  27
ENDBRANCH  25  26
ENDBRANCH  24  25
ENDBRANCH   1  24
TORSDOF 16
ENDMDL
MODEL 3
REMARK VINA RESULT:     -11.9      2.823      4.456
REMARK SMILES Cc1ccc(C(=O)NCCCCNC(=O)c2ccc(-c3c4nc(c(-c5c(F)cccc5F)c5ccc([nH]5)c(-c5c(F)cccc5F)c5nc(c(-c6c(F)cccc6F)c6ccc3[nH]6)C=C5)C=C4)cc2)cc1S(=O)(=O)N(CC1CC1)C(C)C
REMARK SMILES IDX 9 1 8 2 6 3 7 4 5 6 1 7 2 8 3 9 71 10 4 11 70 12 72 13 73 14
REMARK SMILES IDX 74 15 75 16 76 17 77 18 78 19 79 20 80 21 81 22 82 23 10 24
REMARK SMILES IDX 11 25 12 26 13 27 14 28 15 30 16 31 17 32 69 33 18 34 68 35
REMARK SMILES IDX 19 36 20 37 21 38 62 39 22 40 67 41 61 42 63 43 23 44 66 45
REMARK SMILES IDX 60 46 59 47 24 49 50 50 33 51 49 52 34 53 37 54 48 55 64 56
REMARK SMILES IDX 35 57 36 58 47 60 65 61 38 62 25 63 26 64 31 65 27 66 28 67
REMARK SMILES IDX 30 68 32 69 29 70 51 71 52 72 57 73 53 74 54 75 56 76 58 77
REMARK SMILES IDX 55 78 39 79 40 80 45 81 41 82 42 83 44 84 46 85 43 86
REMARK H PARENT 8 5 13 29 63 48 37 59
REMARK Flexibility Score: inf
ROOT
ATOM      1  C   UNL A   1      34.460  28.547  26.854  1.00  0.00     0.116 C 
ENDROOT
BRANCH   1   2
ATOM      2  N   UNL A   1      33.141  28.597  27.468  1.00  0.00    -0.352 N 
ATOM      3  C   UNL A   1      31.975  27.903  27.257  1.00  0.00     0.251 C 
ATOM      4  O   UNL A   1      31.024  28.162  27.999  1.00  0.00    -0.269 OA
ATOM      5  H   UNL A   1      33.070  29.270  28.185  1.00  0.00     0.163 HD
BRANCH   3   6
ATOM      6  C   UNL A   1      31.816  26.823  26.239  1.00  0.00     0.041 A 
ATOM      7  C   UNL A   1      30.609  23.862  23.304  1.00  0.00     0.046 C 
ATOM      8  C   UNL A   1      31.134  24.821  24.329  1.00  0.00    -0.031 A 
ATOM      9  C   UNL A   1      30.990  26.194  24.040  1.00  0.00     0.005 A 
ATOM     10  C   UNL A   1      31.737  24.472  25.545  1.00  0.00     0.086 A 
ATOM     11  C   UNL A   1      31.300  27.176  24.989  1.00  0.00     0.014 A 
ATOM     12  C   UNL A   1      32.110  25.481  26.459  1.00  0.00     0.035 A 
BRANCH  10  13
ATOM     13  S   UNL A   1      31.786  22.826  26.265  1.00  0.00     0.243 S 
ATOM     14  O   UNL A   1      32.368  22.948  27.576  1.00  0.00    -0.207 OA
ATOM     15  O   UNL A   1      30.403  22.386  26.139  1.00  0.00    -0.207 OA
BRANCH  13  16
ATOM     16  N   UNL A   1      32.782  21.821  25.342  1.00  0.00    -0.195 NA
BRANCH  16  17
ATOM     17  C   UNL A   1      34.250  21.790  25.554  1.00  0.00     0.106 C 
BRANCH  17  18
ATOM     18  C   UNL A   1      35.143  22.475  24.562  1.00  0.00     0.004 C 
ATOM     19  C   UNL A   1      34.734  23.367  23.411  1.00  0.00     0.005 C 
ATOM     20  C   UNL A   1      35.259  23.985  24.666  1.00  0.00     0.005 C 
ENDBRANCH  17  18
ENDBRANCH  16  17
BRANCH  16  21
ATOM     21  C   UNL A   1      32.232  20.522  24.798  1.00  0.00     0.067 C 
ATOM     22  C   UNL A   1      32.261  20.460  23.275  1.00  0.00     0.025 C 
ATOM     23  C   UNL A   1      32.880  19.262  25.368  1.00  0.00     0.025 C 
ENDBRANCH  16  21
ENDBRANCH  13  16
ENDBRANCH  10  13
ENDBRANCH   3   6
ENDBRANCH   1   2
BRANCH   1  24
ATOM     24  C   UNL A   1      35.325  29.754  27.260  1.00  0.00     0.023 C 
BRANCH  24  25
ATOM     25  C   UNL A   1      34.621  30.763  28.171  1.00  0.00     0.023 C 
BRANCH  25  26
ATOM     26  C   UNL A   1      34.702  32.194  27.663  1.00  0.00     0.116 C 
BRANCH  26  27
ATOM     27  N   UNL A   1      33.899  33.158  28.402  1.00  0.00    -0.352 N 
ATOM     28  C   UNL A   1      34.145  33.776  29.615  1.00  0.00     0.251 C 
ATOM     29  H   UNL A   1      33.049  33.409  27.971  1.00  0.00     0.163 HD
ATOM     30  O   UNL A   1      33.274  34.481  30.119  1.00  0.00    -0.269 OA
BRANCH  28  31
ATOM     31  C   UNL A   1      35.494  33.721  30.240  1.00  0.00     0.039 A 
ATOM     32  C   UNL A   1      36.581  34.206  29.497  1.00  0.00     0.014 A 
ATOM     33  C   UNL A   1      35.730  33.028  31.422  1.00  0.00     0.014 A 
ATOM     34  C   UNL A   1      37.869  33.761  29.784  1.00  0.00     0.010 A 
ATOM     35  C   UNL A   1      36.980  32.486  31.637  1.00  0.00     0.010 A 
ATOM     36  C   UNL A   1      38.033  32.797  30.773  1.00  0.00    -0.014 A 
BRANCH  36  37
ATOM     37  C   UNL A   1      39.220  31.968  30.916  1.00  0.00     0.031 A 
ATOM     38  C   UNL A   1      39.307  30.669  30.220  1.00  0.00     0.074 A 
ATOM     39  C   UNL A   1      40.305  32.500  31.526  1.00  0.00     0.049 A 
ATOM     40  N   UNL A   1      40.244  29.808  30.418  1.00  0.00    -0.248 NA
ATOM     41  C   UNL A   1      38.293  30.200  29.274  1.00  0.00     0.031 C 
ATOM     42  C   UNL A   1      41.695  32.066  31.419  1.00  0.00     0.029 A 
ATOM     43  N   UNL A   1      40.315  33.439  32.570  1.00  0.00    -0.354 N 
ATOM     44  C   UNL A   1      40.156  28.874  29.415  1.00  0.00     0.074 A 
ATOM     45  C   UNL A   1      38.854  29.069  28.834  1.00  0.00     0.031 C 
ATOM     46  C   UNL A   1      42.367  32.491  32.502  1.00  0.00     0.029 A 
ATOM     47  C   UNL A   1      41.383  33.051  33.412  1.00  0.00     0.049 A 
ATOM     48  H   UNL A   1      39.708  34.205  32.691  1.00  0.00     0.167 HD
ATOM     49  C   UNL A   1      41.269  28.166  29.089  1.00  0.00     0.037 A 
ATOM     50  C   UNL A   1      41.159  32.594  34.679  1.00  0.00     0.037 A 
ATOM     51  C   UNL A   1      42.277  28.264  30.144  1.00  0.00     0.049 A 
ATOM     52  C   UNL A   1      41.676  31.196  34.929  1.00  0.00     0.074 A 
ATOM     53  C   UNL A   1      43.493  28.913  30.249  1.00  0.00     0.029 A 
ATOM     54  N   UNL A   1      41.946  27.833  31.427  1.00  0.00    -0.354 N 
ATOM     55  N   UNL A   1      41.943  30.338  33.983  1.00  0.00    -0.248 NA
ATOM     56  C   UNL A   1      41.915  30.647  36.262  1.00  0.00     0.031 C 
ATOM     57  C   UNL A   1      43.825  28.984  31.631  1.00  0.00     0.029 A 
ATOM     58  C   UNL A   1      42.843  28.326  32.353  1.00  0.00     0.049 A 
ATOM     59  H   UNL A   1      41.178  27.257  31.644  1.00  0.00     0.167 HD
ATOM     60  C   UNL A   1      42.351  29.154  34.539  1.00  0.00     0.074 A 
ATOM     61  C   UNL A   1      42.335  29.404  35.968  1.00  0.00     0.031 C 
ATOM     62  C   UNL A   1      42.656  28.064  33.775  1.00  0.00     0.037 A 
BRANCH  49  63
ATOM     63  C   UNL A   1      41.533  27.553  27.730  1.00  0.00     0.057 A 
ATOM     64  C   UNL A   1      41.472  26.156  27.562  1.00  0.00     0.134 A 
ATOM     65  C   UNL A   1      41.995  28.251  26.595  1.00  0.00     0.134 A 
ATOM     66  F   UNL A   1      41.075  25.350  28.558  1.00  0.00    -0.206 F 
ATOM     67  C   UNL A   1      41.842  25.512  26.369  1.00  0.00     0.040 A 
ATOM     68  C   UNL A   1      42.315  27.626  25.381  1.00  0.00     0.040 A 
ATOM     69  F   UNL A   1      42.232  29.567  26.605  1.00  0.00    -0.206 F 
ATOM     70  C   UNL A   1      42.255  26.249  25.268  1.00  0.00     0.006 A 
ENDBRANCH  49  63
BRANCH  50  71
ATOM     71  C   UNL A   1      39.944  33.182  35.304  1.00  0.00     0.057 A 
ATOM     72  C   UNL A   1      38.749  32.441  35.271  1.00  0.00     0.134 A 
ATOM     73  C   UNL A   1      40.030  34.211  36.247  1.00  0.00     0.134 A 
ATOM     74  F   UNL A   1      38.601  31.445  34.384  1.00  0.00    -0.206 F 
ATOM     75  C   UNL A   1      37.739  32.627  36.217  1.00  0.00     0.040 A 
ATOM     76  C   UNL A   1      39.014  34.419  37.189  1.00  0.00     0.040 A 
ATOM     77  F   UNL A   1      41.144  34.949  36.353  1.00  0.00    -0.206 F 
ATOM     78  C   UNL A   1      37.887  33.597  37.204  1.00  0.00     0.006 A 
ENDBRANCH  50  71
BRANCH  62  79
ATOM     79  C   UNL A   1      42.871  26.665  34.299  1.00  0.00     0.057 A 
ATOM     80  C   UNL A   1      44.129  26.061  34.440  1.00  0.00     0.134 A 
ATOM     81  C   UNL A   1      41.790  25.927  34.830  1.00  0.00     0.134 A 
ATOM     82  F   UNL A   1      45.256  26.695  34.087  1.00  0.00    -0.206 F 
ATOM     83  C   UNL A   1      44.295  24.789  35.006  1.00  0.00     0.040 A 
ATOM     84  C   UNL A   1      41.950  24.682  35.445  1.00  0.00     0.040 A 
ATOM     85  F   UNL A   1      40.534  26.396  34.796  1.00  0.00    -0.206 F 
ATOM     86  C   UNL A   1      43.205  24.099  35.520  1.00  0.00     0.006 A 
ENDBRANCH  62  79
ENDBRANCH  36  37
ENDBRANCH  28  31
ENDBRANCH  26  27
ENDBRANCH  25  26
ENDBRANCH  24  25
ENDBRANCH   1  24
TORSDOF 16
ENDMDL
