MODEL 1
REMARK VINA RESULT:      -9.5      0.000      0.000
REMARK SMILES COCCC(=O)N[C@H](C)CC(=O)NCCCCNC(=O)c1ccc(-c2c3nc(c(-c4c(F)cccc4F)c4ccc([nH]4)c(-c4c(F)cccc4F)c4nc(c(-c5c(F)cccc5F)c5ccc2[nH]5)C=C4)C=C3)cc1
REMARK SMILES IDX 14 1 13 2 11 3 12 4 10 6 8 7 9 8 7 9 5 10 6 11 4 13 3 14
REMARK SMILES IDX 2 15 1 16 15 17 16 18 17 19 18 20 19 21 20 23 21 24 22 25
REMARK SMILES IDX 74 26 23 27 73 28 24 29 25 30 26 31 67 32 27 33 72 34 66 35
REMARK SMILES IDX 68 36 28 37 71 38 65 39 64 40 29 42 55 43 38 44 54 45 39 46
REMARK SMILES IDX 42 47 53 48 69 49 40 50 41 51 52 53 70 54 43 55 30 56 31 57
REMARK SMILES IDX 36 58 32 59 33 60 35 61 37 62 34 63 56 64 57 65 62 66 58 67
REMARK SMILES IDX 59 68 61 69 63 70 60 71 44 72 45 73 50 74 46 75 47 76 49 77
REMARK SMILES IDX 51 78 48 79
REMARK H PARENT 13 5 7 12 18 22 68 41 42 52
REMARK Flexibility Score: inf
ROOT
ATOM      1  C   UNL A   1      37.520  23.701  25.861  1.00  0.00     0.116 C 
ENDROOT
BRANCH   1   2
ATOM      2  N   UNL A   1      37.326  23.524  24.440  1.00  0.00    -0.356 N 
ATOM      3  C   UNL A   1      36.193  23.198  23.759  1.00  0.00     0.222 C 
ATOM      4  O   UNL A   1      36.266  23.071  22.536  1.00  0.00    -0.275 OA
ATOM      5  H   UNL A   1      38.128  23.658  23.884  1.00  0.00     0.163 HD
BRANCH   3   6
ATOM      6  C   UNL A   1      34.872  23.031  24.487  1.00  0.00     0.124 C 
BRANCH   6   7
ATOM      7  C   UNL A   1      33.949  24.253  24.362  1.00  0.00     0.088 C 
ATOM      8  C   UNL A   1      34.181  25.306  25.450  1.00  0.00     0.031 C 
BRANCH   7   9
ATOM      9  N   UNL A   1      34.152  24.920  23.072  1.00  0.00    -0.353 N 
ATOM     10  C   UNL A   1      33.213  25.520  22.283  1.00  0.00     0.222 C 
ATOM     11  O   UNL A   1      33.582  26.123  21.275  1.00  0.00    -0.275 OA
ATOM     12  H   UNL A   1      35.076  24.937  22.734  1.00  0.00     0.163 HD
BRANCH  10  13
ATOM     13  C   UNL A   1      31.747  25.403  22.634  1.00  0.00     0.128 C 
BRANCH  13  14
ATOM     14  C   UNL A   1      31.213  26.745  23.109  1.00  0.00     0.169 C 
BRANCH  14  15
ATOM     15  O   UNL A   1      30.605  27.459  22.031  1.00  0.00    -0.384 OA
ATOM     16  C   UNL A   1      30.122  28.740  22.426  1.00  0.00     0.194 C 
ENDBRANCH  14  15
ENDBRANCH  13  14
ENDBRANCH  10  13
ENDBRANCH   7   9
ENDBRANCH   6   7
ENDBRANCH   3   6
ENDBRANCH   1   2
BRANCH   1  17
ATOM     17  C   UNL A   1      38.762  22.949  26.338  1.00  0.00     0.023 C 
BRANCH  17  18
ATOM     18  C   UNL A   1      39.008  21.610  25.657  1.00  0.00     0.023 C 
BRANCH  18  19
ATOM     19  C   UNL A   1      39.487  20.499  26.582  1.00  0.00     0.116 C 
BRANCH  19  20
ATOM     20  N   UNL A   1      40.484  19.614  25.991  1.00  0.00    -0.352 N 
ATOM     21  C   UNL A   1      41.838  19.820  25.874  1.00  0.00     0.251 C 
ATOM     22  H   UNL A   1      40.143  18.763  25.629  1.00  0.00     0.163 HD
ATOM     23  O   UNL A   1      42.554  19.010  25.295  1.00  0.00    -0.269 OA
BRANCH  21  24
ATOM     24  C   UNL A   1      42.405  21.068  26.416  1.00  0.00     0.039 A 
ATOM     25  C   UNL A   1      42.783  22.077  25.531  1.00  0.00     0.014 A 
ATOM     26  C   UNL A   1      42.439  21.273  27.797  1.00  0.00     0.014 A 
ATOM     27  C   UNL A   1      43.106  23.337  26.032  1.00  0.00     0.010 A 
ATOM     28  C   UNL A   1      42.674  22.550  28.287  1.00  0.00     0.010 A 
ATOM     29  C   UNL A   1      43.001  23.595  27.409  1.00  0.00    -0.014 A 
BRANCH  29  30
ATOM     30  C   UNL A   1      43.208  24.956  27.956  1.00  0.00     0.031 A 
ATOM     31  C   UNL A   1      44.581  25.391  28.379  1.00  0.00     0.074 A 
ATOM     32  C   UNL A   1      42.148  25.762  28.158  1.00  0.00     0.049 A 
ATOM     33  N   UNL A   1      44.955  26.501  28.960  1.00  0.00    -0.248 NA
ATOM     34  C   UNL A   1      45.675  24.432  28.155  1.00  0.00     0.031 C 
ATOM     35  C   UNL A   1      40.756  25.425  27.852  1.00  0.00     0.029 A 
ATOM     36  N   UNL A   1      42.076  27.028  28.680  1.00  0.00    -0.354 N 
ATOM     37  C   UNL A   1      46.316  26.363  29.193  1.00  0.00     0.074 A 
ATOM     38  C   UNL A   1      46.693  25.042  28.742  1.00  0.00     0.031 C 
ATOM     39  C   UNL A   1      39.972  26.471  28.161  1.00  0.00     0.029 A 
ATOM     40  C   UNL A   1      40.800  27.537  28.717  1.00  0.00     0.049 A 
ATOM     41  H   UNL A   1      42.863  27.526  28.997  1.00  0.00     0.167 HD
ATOM     42  C   UNL A   1      47.181  27.268  29.710  1.00  0.00     0.037 A 
ATOM     43  C   UNL A   1      40.351  28.728  29.151  1.00  0.00     0.037 A 
ATOM     44  C   UNL A   1      46.810  28.595  30.116  1.00  0.00     0.049 A 
ATOM     45  C   UNL A   1      41.332  29.725  29.700  1.00  0.00     0.074 A 
ATOM     46  C   UNL A   1      47.623  29.620  30.565  1.00  0.00     0.029 A 
ATOM     47  N   UNL A   1      45.511  29.082  30.119  1.00  0.00    -0.354 N 
ATOM     48  N   UNL A   1      42.631  29.612  29.842  1.00  0.00    -0.248 NA
ATOM     49  C   UNL A   1      40.787  31.013  30.148  1.00  0.00     0.031 C 
ATOM     50  C   UNL A   1      46.811  30.718  30.873  1.00  0.00     0.029 A 
ATOM     51  C   UNL A   1      45.496  30.387  30.583  1.00  0.00     0.049 A 
ATOM     52  H   UNL A   1      44.716  28.577  29.833  1.00  0.00     0.167 HD
ATOM     53  C   UNL A   1      43.060  30.818  30.379  1.00  0.00     0.074 A 
ATOM     54  C   UNL A   1      41.885  31.653  30.524  1.00  0.00     0.031 C 
ATOM     55  C   UNL A   1      44.315  31.198  30.724  1.00  0.00     0.037 A 
BRANCH  42  56
ATOM     56  C   UNL A   1      48.612  26.841  29.851  1.00  0.00     0.057 A 
ATOM     57  C   UNL A   1      49.543  27.032  28.822  1.00  0.00     0.134 A 
ATOM     58  C   UNL A   1      49.063  26.231  31.027  1.00  0.00     0.134 A 
ATOM     59  F   UNL A   1      49.171  27.595  27.663  1.00  0.00    -0.206 F 
ATOM     60  C   UNL A   1      50.865  26.599  28.944  1.00  0.00     0.040 A 
ATOM     61  C   UNL A   1      50.388  25.817  31.172  1.00  0.00     0.040 A 
ATOM     62  F   UNL A   1      48.222  26.020  32.052  1.00  0.00    -0.206 F 
ATOM     63  C   UNL A   1      51.290  25.993  30.125  1.00  0.00     0.006 A 
ENDBRANCH  42  56
BRANCH  43  64
ATOM     64  C   UNL A   1      38.909  29.059  29.045  1.00  0.00     0.057 A 
ATOM     65  C   UNL A   1      38.069  28.955  30.159  1.00  0.00     0.134 A 
ATOM     66  C   UNL A   1      38.340  29.494  27.843  1.00  0.00     0.134 A 
ATOM     67  F   UNL A   1      38.554  28.527  31.333  1.00  0.00    -0.206 F 
ATOM     68  C   UNL A   1      36.710  29.264  30.081  1.00  0.00     0.040 A 
ATOM     69  C   UNL A   1      36.987  29.824  27.754  1.00  0.00     0.040 A 
ATOM     70  F   UNL A   1      39.096  29.621  26.743  1.00  0.00    -0.206 F 
ATOM     71  C   UNL A   1      36.167  29.705  28.876  1.00  0.00     0.006 A 
ENDBRANCH  43  64
BRANCH  55  72
ATOM     72  C   UNL A   1      44.477  32.580  31.279  1.00  0.00     0.057 A 
ATOM     73  C   UNL A   1      44.673  33.687  30.444  1.00  0.00     0.134 A 
ATOM     74  C   UNL A   1      44.397  32.811  32.658  1.00  0.00     0.134 A 
ATOM     75  F   UNL A   1      44.771  33.528  29.116  1.00  0.00    -0.206 F 
ATOM     76  C   UNL A   1      44.799  34.976  30.964  1.00  0.00     0.040 A 
ATOM     77  C   UNL A   1      44.501  34.098  33.188  1.00  0.00     0.040 A 
ATOM     78  F   UNL A   1      44.204  31.793  33.510  1.00  0.00    -0.206 F 
ATOM     79  C   UNL A   1      44.707  35.184  32.339  1.00  0.00     0.006 A 
ENDBRANCH  55  72
ENDBRANCH  29  30
ENDBRANCH  21  24
ENDBRANCH  19  20
ENDBRANCH  18  19
ENDBRANCH  17  18
ENDBRANCH   1  17
TORSDOF 16
ENDMDL
MODEL 2
REMARK VINA RESULT:      -9.4      1.791      2.485
REMARK SMILES COCCC(=O)N[C@H](C)CC(=O)NCCCCNC(=O)c1ccc(-c2c3nc(c(-c4c(F)cccc4F)c4ccc([nH]4)c(-c4c(F)cccc4F)c4nc(c(-c5c(F)cccc5F)c5ccc2[nH]5)C=C4)C=C3)cc1
REMARK SMILES IDX 14 1 13 2 11 3 12 4 10 6 8 7 9 8 7 9 5 10 6 11 4 13 3 14
REMARK SMILES IDX 2 15 1 16 15 17 16 18 17 19 18 20 19 21 20 23 21 24 22 25
REMARK SMILES IDX 74 26 23 27 73 28 24 29 25 30 26 31 67 32 27 33 72 34 66 35
REMARK SMILES IDX 68 36 28 37 71 38 65 39 64 40 29 42 55 43 38 44 54 45 39 46
REMARK SMILES IDX 42 47 53 48 69 49 40 50 41 51 52 53 70 54 43 55 30 56 31 57
REMARK SMILES IDX 36 58 32 59 33 60 35 61 37 62 34 63 56 64 57 65 62 66 58 67
REMARK SMILES IDX 59 68 61 69 63 70 60 71 44 72 45 73 50 74 46 75 47 76 49 77
REMARK SMILES IDX 51 78 48 79
REMARK H PARENT 13 5 7 12 18 22 68 41 42 52
REMARK Flexibility Score: inf
ROOT
ATOM      1  C   UNL A   1      35.221  21.012  25.489  1.00  0.00     0.116 C 
ENDROOT
BRANCH   1   2
ATOM      2  N   UNL A   1      34.091  20.142  25.726  1.00  0.00    -0.356 N 
ATOM      3  C   UNL A   1      32.905  20.071  25.064  1.00  0.00     0.222 C 
ATOM      4  O   UNL A   1      32.064  19.262  25.461  1.00  0.00    -0.275 OA
ATOM      5  H   UNL A   1      34.195  19.509  26.475  1.00  0.00     0.163 HD
BRANCH   3   6
ATOM      6  C   UNL A   1      32.642  20.941  23.849  1.00  0.00     0.124 C 
BRANCH   6   7
ATOM      7  C   UNL A   1      32.240  22.381  24.207  1.00  0.00     0.088 C 
ATOM      8  C   UNL A   1      31.389  23.061  23.130  1.00  0.00     0.031 C 
BRANCH   7   9
ATOM      9  N   UNL A   1      31.459  22.402  25.447  1.00  0.00    -0.353 N 
ATOM     10  C   UNL A   1      31.569  23.276  26.491  1.00  0.00     0.222 C 
ATOM     11  O   UNL A   1      30.755  23.206  27.412  1.00  0.00    -0.275 OA
ATOM     12  H   UNL A   1      30.772  21.704  25.538  1.00  0.00     0.163 HD
BRANCH  10  13
ATOM     13  C   UNL A   1      32.699  24.280  26.516  1.00  0.00     0.128 C 
BRANCH  13  14
ATOM     14  C   UNL A   1      32.163  25.679  26.256  1.00  0.00     0.169 C 
BRANCH  14  15
ATOM     15  O   UNL A   1      31.226  25.671  25.179  1.00  0.00    -0.384 OA
ATOM     16  C   UNL A   1      30.678  26.961  24.919  1.00  0.00     0.194 C 
ENDBRANCH  14  15
ENDBRANCH  13  14
ENDBRANCH  10  13
ENDBRANCH   7   9
ENDBRANCH   6   7
ENDBRANCH   3   6
ENDBRANCH   1   2
BRANCH   1  17
ATOM     17  C   UNL A   1      36.419  20.217  24.972  1.00  0.00     0.023 C 
BRANCH  17  18
ATOM     18  C   UNL A   1      37.673  21.038  24.705  1.00  0.00     0.023 C 
BRANCH  18  19
ATOM     19  C   UNL A   1      38.732  20.966  25.795  1.00  0.00     0.116 C 
BRANCH  19  20
ATOM     20  N   UNL A   1      39.642  19.832  25.676  1.00  0.00    -0.352 N 
ATOM     21  C   UNL A   1      40.978  19.780  25.995  1.00  0.00     0.251 C 
ATOM     22  H   UNL A   1      39.249  19.002  25.321  1.00  0.00     0.163 HD
ATOM     23  O   UNL A   1      41.640  18.770  25.785  1.00  0.00    -0.269 OA
BRANCH  21  24
ATOM     24  C   UNL A   1      41.612  20.990  26.549  1.00  0.00     0.039 A 
ATOM     25  C   UNL A   1      42.132  21.941  25.671  1.00  0.00     0.014 A 
ATOM     26  C   UNL A   1      41.573  21.228  27.925  1.00  0.00     0.014 A 
ATOM     27  C   UNL A   1      42.528  23.182  26.168  1.00  0.00     0.010 A 
ATOM     28  C   UNL A   1      41.883  22.493  28.404  1.00  0.00     0.010 A 
ATOM     29  C   UNL A   1      42.355  23.484  27.529  1.00  0.00    -0.014 A 
BRANCH  29  30
ATOM     30  C   UNL A   1      42.641  24.836  28.062  1.00  0.00     0.031 A 
ATOM     31  C   UNL A   1      44.035  25.191  28.491  1.00  0.00     0.074 A 
ATOM     32  C   UNL A   1      41.631  25.708  28.246  1.00  0.00     0.049 A 
ATOM     33  N   UNL A   1      44.471  26.284  29.061  1.00  0.00    -0.248 NA
ATOM     34  C   UNL A   1      45.070  24.165  28.287  1.00  0.00     0.031 C 
ATOM     35  C   UNL A   1      40.223  25.453  27.932  1.00  0.00     0.029 A 
ATOM     36  N   UNL A   1      41.632  26.982  28.751  1.00  0.00    -0.354 N 
ATOM     37  C   UNL A   1      45.820  26.066  29.307  1.00  0.00     0.074 A 
ATOM     38  C   UNL A   1      46.119  24.719  28.875  1.00  0.00     0.031 C 
ATOM     39  C   UNL A   1      39.503  26.549  28.222  1.00  0.00     0.029 A 
ATOM     40  C   UNL A   1      40.390  27.568  28.772  1.00  0.00     0.049 A 
ATOM     41  H   UNL A   1      42.446  27.435  29.069  1.00  0.00     0.167 HD
ATOM     42  C   UNL A   1      46.734  26.922  29.820  1.00  0.00     0.037 A 
ATOM     43  C   UNL A   1      40.011  28.791  29.187  1.00  0.00     0.037 A 
ATOM     44  C   UNL A   1      46.442  28.275  30.207  1.00  0.00     0.049 A 
ATOM     45  C   UNL A   1      41.048  29.732  29.733  1.00  0.00     0.074 A 
ATOM     46  C   UNL A   1      47.313  29.254  30.651  1.00  0.00     0.029 A 
ATOM     47  N   UNL A   1      45.175  28.841  30.193  1.00  0.00    -0.354 N 
ATOM     48  N   UNL A   1      42.336  29.542  29.886  1.00  0.00    -0.248 NA
ATOM     49  C   UNL A   1      40.578  31.057  30.161  1.00  0.00     0.031 C 
ATOM     50  C   UNL A   1      46.568  30.403  30.938  1.00  0.00     0.029 A 
ATOM     51  C   UNL A   1      45.238  30.150  30.642  1.00  0.00     0.049 A 
ATOM     52  H   UNL A   1      44.354  28.381  29.907  1.00  0.00     0.167 HD
ATOM     53  C   UNL A   1      42.834  30.726  30.413  1.00  0.00     0.074 A 
ATOM     54  C   UNL A   1      41.711  31.633  30.538  1.00  0.00     0.031 C 
ATOM     55  C   UNL A   1      44.107  31.033  30.763  1.00  0.00     0.037 A 
BRANCH  42  56
ATOM     56  C   UNL A   1      48.135  26.411  29.978  1.00  0.00     0.057 A 
ATOM     57  C   UNL A   1      48.566  25.794  31.161  1.00  0.00     0.134 A 
ATOM     58  C   UNL A   1      49.065  26.538  28.940  1.00  0.00     0.134 A 
ATOM     59  F   UNL A   1      47.729  25.658  32.200  1.00  0.00    -0.206 F 
ATOM     60  C   UNL A   1      49.882  25.354  31.317  1.00  0.00     0.040 A 
ATOM     61  C   UNL A   1      50.376  26.078  29.074  1.00  0.00     0.040 A 
ATOM     62  F   UNL A   1      48.717  27.117  27.780  1.00  0.00    -0.206 F 
ATOM     63  C   UNL A   1      50.789  25.492  30.269  1.00  0.00     0.006 A 
ENDBRANCH  42  56
BRANCH  43  64
ATOM     64  C   UNL A   1      38.593  29.207  29.066  1.00  0.00     0.057 A 
ATOM     65  C   UNL A   1      38.081  29.650  27.841  1.00  0.00     0.134 A 
ATOM     66  C   UNL A   1      37.717  29.164  30.156  1.00  0.00     0.134 A 
ATOM     67  F   UNL A   1      38.878  29.729  26.765  1.00  0.00    -0.206 F 
ATOM     68  C   UNL A   1      36.749  30.043  27.705  1.00  0.00     0.040 A 
ATOM     69  C   UNL A   1      36.378  29.536  30.031  1.00  0.00     0.040 A 
ATOM     70  F   UNL A   1      38.147  28.741  31.353  1.00  0.00    -0.206 F 
ATOM     71  C   UNL A   1      35.892  29.982  28.802  1.00  0.00     0.006 A 
ENDBRANCH  43  64
BRANCH  55  72
ATOM     72  C   UNL A   1      44.349  32.409  31.303  1.00  0.00     0.057 A 
ATOM     73  C   UNL A   1      44.624  33.491  30.457  1.00  0.00     0.134 A 
ATOM     74  C   UNL A   1      44.267  32.663  32.677  1.00  0.00     0.134 A 
ATOM     75  F   UNL A   1      44.729  33.308  29.132  1.00  0.00    -0.206 F 
ATOM     76  C   UNL A   1      44.826  34.776  30.962  1.00  0.00     0.040 A 
ATOM     77  C   UNL A   1      44.445  33.948  33.192  1.00  0.00     0.040 A 
ATOM     78  F   UNL A   1      44.000  31.671  33.539  1.00  0.00    -0.206 F 
ATOM     79  C   UNL A   1      44.730  35.008  32.333  1.00  0.00     0.006 A 
ENDBRANCH  55  72
ENDBRANCH  29  30
ENDBRANCH  21  24
ENDBRANCH  19  20
ENDBRANCH  18  19
ENDBRANCH  17  18
ENDBRANCH   1  17
TORSDOF 16
ENDMDL
MODEL 3
REMARK VINA RESULT:      -9.4      1.830      6.782
REMARK SMILES COCCC(=O)N[C@H](C)CC(=O)NCCCCNC(=O)c1ccc(-c2c3nc(c(-c4c(F)cccc4F)c4ccc([nH]4)c(-c4c(F)cccc4F)c4nc(c(-c5c(F)cccc5F)c5ccc2[nH]5)C=C4)C=C3)cc1
REMARK SMILES IDX 14 1 13 2 11 3 12 4 10 6 8 7 9 8 7 9 5 10 6 11 4 13 3 14
REMARK SMILES IDX 2 15 1 16 15 17 16 18 17 19 18 20 19 21 20 23 21 24 22 25
REMARK SMILES IDX 74 26 23 27 73 28 24 29 25 30 26 31 67 32 27 33 72 34 66 35
REMARK SMILES IDX 68 36 28 37 71 38 65 39 64 40 29 42 55 43 38 44 54 45 39 46
REMARK SMILES IDX 42 47 53 48 69 49 40 50 41 51 52 53 70 54 43 55 30 56 31 57
REMARK SMILES IDX 36 58 32 59 33 60 35 61 37 62 34 63 56 64 57 65 62 66 58 67
REMARK SMILES IDX 59 68 61 69 63 70 60 71 44 72 45 73 50 74 46 75 47 76 49 77
REMARK SMILES IDX 51 78 48 79
REMARK H PARENT 13 5 7 12 18 22 68 41 42 52
REMARK Flexibility Score: inf
ROOT
ATOM      1  C   UNL A   1      35.371  21.224  25.681  1.00  0.00     0.116 C 
ENDROOT
BRANCH   1   2
ATOM      2  N   UNL A   1      34.210  20.367  25.765  1.00  0.00    -0.356 N 
ATOM      3  C   UNL A   1      33.058  20.405  25.042  1.00  0.00     0.222 C 
ATOM      4  O   UNL A   1      32.179  19.582  25.306  1.00  0.00    -0.275 OA
ATOM      5  H   UNL A   1      34.261  19.654  26.443  1.00  0.00     0.163 HD
BRANCH   3   6
ATOM      6  C   UNL A   1      32.879  21.410  23.920  1.00  0.00     0.124 C 
BRANCH   6   7
ATOM      7  C   UNL A   1      32.178  22.702  24.366  1.00  0.00     0.088 C 
ATOM      8  C   UNL A   1      31.208  23.262  23.321  1.00  0.00     0.031 C 
BRANCH   7   9
ATOM      9  N   UNL A   1      31.402  22.470  25.588  1.00  0.00    -0.353 N 
ATOM     10  C   UNL A   1      31.104  23.367  26.574  1.00  0.00     0.222 C 
ATOM     11  O   UNL A   1      30.350  23.021  27.484  1.00  0.00    -0.275 OA
ATOM     12  H   UNL A   1      31.055  21.558  25.714  1.00  0.00     0.163 HD
BRANCH  10  13
ATOM     13  C   UNL A   1      31.728  24.744  26.554  1.00  0.00     0.128 C 
BRANCH  13  14
ATOM     14  C   UNL A   1      30.680  25.789  26.205  1.00  0.00     0.169 C 
BRANCH  14  15
ATOM     15  O   UNL A   1      30.988  27.040  26.821  1.00  0.00    -0.384 OA
ATOM     16  C   UNL A   1      32.350  27.418  26.644  1.00  0.00     0.194 C 
ENDBRANCH  14  15
ENDBRANCH  13  14
ENDBRANCH  10  13
ENDBRANCH   7   9
ENDBRANCH   6   7
ENDBRANCH   3   6
ENDBRANCH   1   2
BRANCH   1  17
ATOM     17  C   UNL A   1      36.522  20.512  24.971  1.00  0.00     0.023 C 
BRANCH  17  18
ATOM     18  C   UNL A   1      37.787  21.341  24.798  1.00  0.00     0.023 C 
BRANCH  18  19
ATOM     19  C   UNL A   1      38.821  21.171  25.902  1.00  0.00     0.116 C 
BRANCH  19  20
ATOM     20  N   UNL A   1      39.676  19.999  25.749  1.00  0.00    -0.352 N 
ATOM     21  C   UNL A   1      41.012  19.879  26.050  1.00  0.00     0.251 C 
ATOM     22  H   UNL A   1      39.242  19.195  25.383  1.00  0.00     0.163 HD
ATOM     23  O   UNL A   1      41.624  18.844  25.812  1.00  0.00    -0.269 OA
BRANCH  21  24
ATOM     24  C   UNL A   1      41.708  21.048  26.620  1.00  0.00     0.039 A 
ATOM     25  C   UNL A   1      42.248  21.998  25.754  1.00  0.00     0.014 A 
ATOM     26  C   UNL A   1      41.708  21.251  28.002  1.00  0.00     0.014 A 
ATOM     27  C   UNL A   1      42.707  23.208  26.272  1.00  0.00     0.010 A 
ATOM     28  C   UNL A   1      42.081  22.489  28.505  1.00  0.00     0.010 A 
ATOM     29  C   UNL A   1      42.575  23.482  27.644  1.00  0.00    -0.014 A 
BRANCH  29  30
ATOM     30  C   UNL A   1      42.929  24.808  28.203  1.00  0.00     0.031 A 
ATOM     31  C   UNL A   1      41.859  25.838  28.419  1.00  0.00     0.074 A 
ATOM     32  C   UNL A   1      44.221  25.113  28.426  1.00  0.00     0.049 A 
ATOM     33  N   UNL A   1      41.975  27.080  28.812  1.00  0.00    -0.248 NA
ATOM     34  C   UNL A   1      40.478  25.430  28.114  1.00  0.00     0.031 C 
ATOM     35  C   UNL A   1      45.358  24.219  28.189  1.00  0.00     0.029 A 
ATOM     36  N   UNL A   1      44.798  26.266  28.893  1.00  0.00    -0.354 N 
ATOM     37  C   UNL A   1      40.691  27.605  28.777  1.00  0.00     0.074 A 
ATOM     38  C   UNL A   1      39.819  26.568  28.272  1.00  0.00     0.031 C 
ATOM     39  C   UNL A   1      46.491  24.846  28.543  1.00  0.00     0.029 A 
ATOM     40  C   UNL A   1      46.167  26.193  28.999  1.00  0.00     0.049 A 
ATOM     41  H   UNL A   1      44.282  27.069  29.131  1.00  0.00     0.167 HD
ATOM     42  C   UNL A   1      40.270  28.835  29.158  1.00  0.00     0.037 A 
ATOM     43  C   UNL A   1      47.056  27.112  29.417  1.00  0.00     0.037 A 
ATOM     44  C   UNL A   1      41.132  29.848  29.701  1.00  0.00     0.049 A 
ATOM     45  C   UNL A   1      46.564  28.461  29.856  1.00  0.00     0.074 A 
ATOM     46  C   UNL A   1      40.794  31.092  30.204  1.00  0.00     0.029 A 
ATOM     47  N   UNL A   1      42.510  29.731  29.812  1.00  0.00    -0.354 N 
ATOM     48  N   UNL A   1      45.336  28.920  29.893  1.00  0.00    -0.248 NA
ATOM     49  C   UNL A   1      47.579  29.420  30.313  1.00  0.00     0.031 C 
ATOM     50  C   UNL A   1      41.972  31.741  30.589  1.00  0.00     0.029 A 
ATOM     51  C   UNL A   1      43.040  30.889  30.356  1.00  0.00     0.049 A 
ATOM     52  H   UNL A   1      43.034  28.942  29.546  1.00  0.00     0.167 HD
ATOM     53  C   UNL A   1      45.428  30.213  30.391  1.00  0.00     0.074 A 
ATOM     54  C   UNL A   1      46.831  30.460  30.656  1.00  0.00     0.031 C 
ATOM     55  C   UNL A   1      44.440  31.115  30.607  1.00  0.00     0.037 A 
BRANCH  42  56
ATOM     56  C   UNL A   1      38.808  29.134  29.005  1.00  0.00     0.057 A 
ATOM     57  C   UNL A   1      38.266  29.556  27.784  1.00  0.00     0.134 A 
ATOM     58  C   UNL A   1      37.934  29.002  30.090  1.00  0.00     0.134 A 
ATOM     59  F   UNL A   1      39.053  29.720  26.710  1.00  0.00    -0.206 F 
ATOM     60  C   UNL A   1      36.912  29.870  27.656  1.00  0.00     0.040 A 
ATOM     61  C   UNL A   1      36.573  29.288  29.968  1.00  0.00     0.040 A 
ATOM     62  F   UNL A   1      38.388  28.601  31.287  1.00  0.00    -0.206 F 
ATOM     63  C   UNL A   1      36.061  29.731  28.750  1.00  0.00     0.006 A 
ENDBRANCH  42  56
BRANCH  43  64
ATOM     64  C   UNL A   1      48.498  26.771  29.478  1.00  0.00     0.057 A 
ATOM     65  C   UNL A   1      49.347  27.062  28.404  1.00  0.00     0.134 A 
ATOM     66  C   UNL A   1      49.063  26.162  30.604  1.00  0.00     0.134 A 
ATOM     67  F   UNL A   1      48.858  27.629  27.292  1.00  0.00    -0.206 F 
ATOM     68  C   UNL A   1      50.707  26.751  28.443  1.00  0.00     0.040 A 
ATOM     69  C   UNL A   1      50.426  25.863  30.664  1.00  0.00     0.040 A 
ATOM     70  F   UNL A   1      48.303  25.866  31.667  1.00  0.00    -0.206 F 
ATOM     71  C   UNL A   1      51.250  26.154  29.579  1.00  0.00     0.006 A 
ENDBRANCH  43  64
BRANCH  55  72
ATOM     72  C   UNL A   1      44.844  32.445  31.167  1.00  0.00     0.057 A 
ATOM     73  C   UNL A   1      45.141  33.531  30.335  1.00  0.00     0.134 A 
ATOM     74  C   UNL A   1      44.898  32.651  32.551  1.00  0.00     0.134 A 
ATOM     75  F   UNL A   1      45.120  33.392  29.001  1.00  0.00    -0.206 F 
ATOM     76  C   UNL A   1      45.494  34.775  30.862  1.00  0.00     0.040 A 
ATOM     77  C   UNL A   1      45.228  33.896  33.089  1.00  0.00     0.040 A 
ATOM     78  F   UNL A   1      44.618  31.652  33.401  1.00  0.00    -0.206 F 
ATOM     79  C   UNL A   1      45.531  34.960  32.243  1.00  0.00     0.006 A 
ENDBRANCH  55  72
ENDBRANCH  29  30
ENDBRANCH  21  24
ENDBRANCH  19  20
ENDBRANCH  18  19
ENDBRANCH  17  18
ENDBRANCH   1  17
TORSDOF 16
ENDMDL
