MODEL 1
REMARK VINA RESULT:     -12.2      0.000      0.000
REMARK SMILES O=C(COc1ccc(/C=C2\SC(=O)N(Cc3cc4c(cc3Cl)OCO4)C2=O)cc1)NCCCCNC(=O)c1ccc(-c2c3nc(c(-c4c(F)cccc4F)c4ccc([nH]4)c(-c4c(F)cccc4F)c4nc(c(-c5c(F)cccc5F)c5ccc2[nH]5)C=C4)C=C3)cc1
REMARK SMILES IDX 31 1 30 2 1 3 2 4 3 6 4 7 5 8 6 9 29 10 7 11 28 12 8 13 9 14
REMARK SMILES IDX 10 15 11 16 26 17 12 18 14 19 27 20 13 21 15 22 16 23 17 24
REMARK SMILES IDX 21 25 18 26 20 27 22 28 19 29 25 30 23 31 24 32 32 33 33 34
REMARK SMILES IDX 34 35 35 36 36 37 37 39 38 40 39 41 91 42 40 43 90 44 41 45
REMARK SMILES IDX 42 46 43 47 84 48 44 49 89 50 83 51 85 52 45 53 88 54 82 55
REMARK SMILES IDX 81 56 46 58 72 59 55 60 71 61 56 62 59 63 70 64 86 65 57 66
REMARK SMILES IDX 58 67 69 69 87 70 60 71 47 72 48 73 53 74 49 75 50 76 52 77
REMARK SMILES IDX 54 78 51 79 73 80 74 81 79 82 75 83 76 84 78 85 80 86 77 87
REMARK SMILES IDX 61 88 62 89 67 90 63 91 64 92 66 93 68 94 65 95
REMARK H PARENT 30 5 35 38 85 57 59 68
REMARK Flexibility Score: inf
ROOT
ATOM      1  C   UNL A   1      31.608  28.398  23.144  1.00  0.00     0.116 C 
ENDROOT
BRANCH   1   2
ATOM      2  N   UNL A   1      31.660  26.999  22.775  1.00  0.00    -0.353 N 
ATOM      3  O   UNL A   1      33.655  27.122  21.643  1.00  0.00    -0.271 OA
ATOM      4  C   UNL A   1      32.769  26.449  22.161  1.00  0.00     0.257 C 
ATOM      5  H   UNL A   1      30.885  26.423  22.967  1.00  0.00     0.163 HD
BRANCH   4   6
ATOM      6  C   UNL A   1      32.847  24.915  22.241  1.00  0.00     0.329 C 
BRANCH   6   7
ATOM      7  O   UNL A   1      32.931  24.313  23.533  1.00  0.00    -0.484 OA
BRANCH   7   8
ATOM      8  C   UNL A   1      34.192  24.123  24.034  1.00  0.00     0.120 A 
ATOM      9  C   UNL A   1      35.124  23.514  23.186  1.00  0.00     0.047 A 
ATOM     10  C   UNL A   1      34.559  24.414  25.344  1.00  0.00     0.047 A 
ATOM     11  C   UNL A   1      36.417  23.211  23.642  1.00  0.00     0.012 A 
ATOM     12  C   UNL A   1      35.821  24.080  25.811  1.00  0.00     0.012 A 
ATOM     13  C   UNL A   1      36.756  23.483  24.965  1.00  0.00    -0.024 A 
BRANCH  13  14
ATOM     14  C   UNL A   1      38.082  23.321  25.542  1.00  0.00     0.029 C 
ATOM     15  C   UNL A   1      38.706  22.156  25.745  1.00  0.00     0.083 C 
ATOM     16  S   UNL A   1      38.464  20.595  25.093  1.00  0.00    -0.022 SA
ATOM     17  C   UNL A   1      39.749  22.090  26.786  1.00  0.00     0.268 C 
ATOM     18  C   UNL A   1      39.942  19.987  25.862  1.00  0.00     0.293 C 
ATOM     19  N   UNL A   1      40.523  20.981  26.606  1.00  0.00    -0.264 N 
ATOM     20  O   UNL A   1      39.766  22.848  27.746  1.00  0.00    -0.268 OA
ATOM     21  O   UNL A   1      40.313  18.833  25.753  1.00  0.00    -0.261 OA
BRANCH  19  22
ATOM     22  C   UNL A   1      41.750  20.797  27.361  1.00  0.00     0.167 C 
BRANCH  22  23
ATOM     23  C   UNL A   1      42.850  21.739  26.894  1.00  0.00    -0.005 A 
ATOM     24  C   UNL A   1      43.390  21.555  25.604  1.00  0.00     0.057 A 
ATOM     25  C   UNL A   1      43.370  22.797  27.692  1.00  0.00     0.050 A 
ATOM     26  C   UNL A   1      44.395  22.404  25.181  1.00  0.00     0.166 A 
ATOM     27  C   UNL A   1      44.312  23.701  27.193  1.00  0.00     0.071 A 
ATOM     28  Cl  UNL A   1      43.011  22.996  29.365  1.00  0.00    -0.084 Cl
ATOM     29  C   UNL A   1      44.820  23.462  25.944  1.00  0.00     0.167 A 
ATOM     30  O   UNL A   1      45.102  22.300  24.023  1.00  0.00    -0.454 OA
ATOM     31  O   UNL A   1      45.819  24.169  25.354  1.00  0.00    -0.454 OA
ATOM     32  C   UNL A   1      46.122  23.300  24.247  1.00  0.00     0.468 C 
ENDBRANCH  22  23
ENDBRANCH  19  22
ENDBRANCH  13  14
ENDBRANCH   7   8
ENDBRANCH   6   7
ENDBRANCH   4   6
ENDBRANCH   1   2
BRANCH   1  33
ATOM     33  C   UNL A   1      31.745  28.635  24.641  1.00  0.00     0.023 C 
BRANCH  33  34
ATOM     34  C   UNL A   1      31.395  30.051  25.098  1.00  0.00     0.023 C 
BRANCH  34  35
ATOM     35  C   UNL A   1      32.013  30.492  26.423  1.00  0.00     0.116 C 
BRANCH  35  36
ATOM     36  N   UNL A   1      31.845  31.911  26.692  1.00  0.00    -0.352 N 
ATOM     37  C   UNL A   1      32.648  32.769  27.405  1.00  0.00     0.251 C 
ATOM     38  H   UNL A   1      31.036  32.319  26.304  1.00  0.00     0.163 HD
ATOM     39  O   UNL A   1      32.275  33.917  27.628  1.00  0.00    -0.269 OA
BRANCH  37  40
ATOM     40  C   UNL A   1      33.949  32.305  27.941  1.00  0.00     0.039 A 
ATOM     41  C   UNL A   1      34.950  33.251  28.185  1.00  0.00     0.014 A 
ATOM     42  C   UNL A   1      34.190  30.954  28.200  1.00  0.00     0.014 A 
ATOM     43  C   UNL A   1      36.159  32.853  28.761  1.00  0.00     0.010 A 
ATOM     44  C   UNL A   1      35.369  30.567  28.836  1.00  0.00     0.010 A 
ATOM     45  C   UNL A   1      36.363  31.514  29.130  1.00  0.00    -0.014 A 
BRANCH  45  46
ATOM     46  C   UNL A   1      37.599  31.087  29.837  1.00  0.00     0.031 A 
ATOM     47  C   UNL A   1      38.598  30.195  29.155  1.00  0.00     0.074 A 
ATOM     48  C   UNL A   1      37.789  31.445  31.123  1.00  0.00     0.049 A 
ATOM     49  N   UNL A   1      39.692  29.658  29.636  1.00  0.00    -0.248 NA
ATOM     50  C   UNL A   1      38.320  29.839  27.755  1.00  0.00     0.031 C 
ATOM     51  C   UNL A   1      36.876  32.271  31.915  1.00  0.00     0.029 A 
ATOM     52  N   UNL A   1      38.808  31.149  31.994  1.00  0.00    -0.354 N 
ATOM     53  C   UNL A   1      40.219  28.888  28.608  1.00  0.00     0.074 A 
ATOM     54  C   UNL A   1      39.304  28.993  27.491  1.00  0.00     0.031 C 
ATOM     55  C   UNL A   1      37.387  32.433  33.147  1.00  0.00     0.029 A 
ATOM     56  C   UNL A   1      38.641  31.693  33.244  1.00  0.00     0.049 A 
ATOM     57  H   UNL A   1      39.585  30.599  31.745  1.00  0.00     0.167 HD
ATOM     58  C   UNL A   1      41.370  28.174  28.588  1.00  0.00     0.037 A 
ATOM     59  C   UNL A   1      39.408  31.602  34.347  1.00  0.00     0.037 A 
ATOM     60  C   UNL A   1      42.297  28.095  29.687  1.00  0.00     0.049 A 
ATOM     61  C   UNL A   1      40.679  30.801  34.300  1.00  0.00     0.074 A 
ATOM     62  C   UNL A   1      43.523  27.453  29.736  1.00  0.00     0.029 A 
ATOM     63  N   UNL A   1      42.098  28.672  30.931  1.00  0.00    -0.354 N 
ATOM     64  N   UNL A   1      41.198  30.133  33.299  1.00  0.00    -0.248 NA
ATOM     65  C   UNL A   1      41.472  30.744  35.536  1.00  0.00     0.031 C 
ATOM     66  C   UNL A   1      44.048  27.610  31.022  1.00  0.00     0.029 A 
ATOM     67  C   UNL A   1      43.169  28.384  31.762  1.00  0.00     0.049 A 
ATOM     68  H   UNL A   1      41.313  29.209  31.187  1.00  0.00     0.167 HD
ATOM     69  C   UNL A   1      42.390  29.602  33.775  1.00  0.00     0.074 A 
ATOM     70  C   UNL A   1      42.523  30.033  35.150  1.00  0.00     0.031 C 
ATOM     71  C   UNL A   1      43.294  28.827  33.127  1.00  0.00     0.037 A 
BRANCH  58  72
ATOM     72  C   UNL A   1      41.695  27.420  27.332  1.00  0.00     0.057 A 
ATOM     73  C   UNL A   1      42.603  27.915  26.387  1.00  0.00     0.134 A 
ATOM     74  C   UNL A   1      41.122  26.167  27.082  1.00  0.00     0.134 A 
ATOM     75  F   UNL A   1      43.179  29.114  26.561  1.00  0.00    -0.206 F 
ATOM     76  C   UNL A   1      42.909  27.203  25.226  1.00  0.00     0.040 A 
ATOM     77  C   UNL A   1      41.440  25.434  25.937  1.00  0.00     0.040 A 
ATOM     78  F   UNL A   1      40.250  25.631  27.949  1.00  0.00    -0.206 F 
ATOM     79  C   UNL A   1      42.332  25.955  25.001  1.00  0.00     0.006 A 
ENDBRANCH  58  72
BRANCH  59  80
ATOM     80  C   UNL A   1      39.009  32.308  35.590  1.00  0.00     0.057 A 
ATOM     81  C   UNL A   1      38.204  31.680  36.546  1.00  0.00     0.134 A 
ATOM     82  C   UNL A   1      39.409  33.625  35.846  1.00  0.00     0.134 A 
ATOM     83  F   UNL A   1      37.773  30.425  36.345  1.00  0.00    -0.206 F 
ATOM     84  C   UNL A   1      37.797  32.339  37.707  1.00  0.00     0.040 A 
ATOM     85  C   UNL A   1      39.028  34.289  37.014  1.00  0.00     0.040 A 
ATOM     86  F   UNL A   1      40.185  34.281  34.971  1.00  0.00    -0.206 F 
ATOM     87  C   UNL A   1      38.213  33.648  37.945  1.00  0.00     0.006 A 
ENDBRANCH  59  80
BRANCH  71  88
ATOM     88  C   UNL A   1      44.523  28.426  33.887  1.00  0.00     0.057 A 
ATOM     89  C   UNL A   1      44.593  27.222  34.600  1.00  0.00     0.134 A 
ATOM     90  C   UNL A   1      45.665  29.237  33.873  1.00  0.00     0.134 A 
ATOM     91  F   UNL A   1      43.529  26.408  34.663  1.00  0.00    -0.206 F 
ATOM     92  C   UNL A   1      45.748  26.850  35.290  1.00  0.00     0.040 A 
ATOM     93  C   UNL A   1      46.833  28.865  34.540  1.00  0.00     0.040 A 
ATOM     94  F   UNL A   1      45.667  30.399  33.204  1.00  0.00    -0.206 F 
ATOM     95  C   UNL A   1      46.875  27.670  35.255  1.00  0.00     0.006 A 
ENDBRANCH  71  88
ENDBRANCH  45  46
ENDBRANCH  37  40
ENDBRANCH  35  36
ENDBRANCH  34  35
ENDBRANCH  33  34
ENDBRANCH   1  33
TORSDOF 16
ENDMDL
MODEL 2
REMARK VINA RESULT:     -12.2      4.329      9.391
REMARK SMILES O=C(COc1ccc(/C=C2\SC(=O)N(Cc3cc4c(cc3Cl)OCO4)C2=O)cc1)NCCCCNC(=O)c1ccc(-c2c3nc(c(-c4c(F)cccc4F)c4ccc([nH]4)c(-c4c(F)cccc4F)c4nc(c(-c5c(F)cccc5F)c5ccc2[nH]5)C=C4)C=C3)cc1
REMARK SMILES IDX 31 1 30 2 1 3 2 4 3 6 4 7 5 8 6 9 29 10 7 11 28 12 8 13 9 14
REMARK SMILES IDX 10 15 11 16 26 17 12 18 14 19 27 20 13 21 15 22 16 23 17 24
REMARK SMILES IDX 21 25 18 26 20 27 22 28 19 29 25 30 23 31 24 32 32 33 33 34
REMARK SMILES IDX 34 35 35 36 36 37 37 39 38 40 39 41 91 42 40 43 90 44 41 45
REMARK SMILES IDX 42 46 43 47 84 48 44 49 89 50 83 51 85 52 45 53 88 54 82 55
REMARK SMILES IDX 81 56 46 58 72 59 55 60 71 61 56 62 59 63 70 64 86 65 57 66
REMARK SMILES IDX 58 67 69 69 87 70 60 71 47 72 48 73 53 74 49 75 50 76 52 77
REMARK SMILES IDX 54 78 51 79 73 80 74 81 79 82 75 83 76 84 78 85 80 86 77 87
REMARK SMILES IDX 61 88 62 89 67 90 63 91 64 92 66 93 68 94 65 95
REMARK H PARENT 30 5 35 38 85 57 59 68
REMARK Flexibility Score: inf
ROOT
ATOM      1  C   UNL A   1      35.523  34.652  32.514  1.00  0.00     0.116 C 
ENDROOT
BRANCH   1   2
ATOM      2  N   UNL A   1      36.549  33.774  33.037  1.00  0.00    -0.353 N 
ATOM      3  O   UNL A   1      35.732  33.700  35.183  1.00  0.00    -0.271 OA
ATOM      4  C   UNL A   1      36.482  33.258  34.317  1.00  0.00     0.257 C 
ATOM      5  H   UNL A   1      37.314  33.537  32.465  1.00  0.00     0.163 HD
BRANCH   4   6
ATOM      6  C   UNL A   1      37.376  32.030  34.556  1.00  0.00     0.329 C 
BRANCH   6   7
ATOM      7  O   UNL A   1      37.461  31.049  33.522  1.00  0.00    -0.484 OA
BRANCH   7   8
ATOM      8  C   UNL A   1      38.582  30.262  33.521  1.00  0.00     0.120 A 
ATOM      9  C   UNL A   1      39.742  30.813  34.077  1.00  0.00     0.047 A 
ATOM     10  C   UNL A   1      38.648  29.005  32.927  1.00  0.00     0.047 A 
ATOM     11  C   UNL A   1      40.956  30.107  34.050  1.00  0.00     0.012 A 
ATOM     12  C   UNL A   1      39.852  28.322  32.862  1.00  0.00     0.012 A 
ATOM     13  C   UNL A   1      41.008  28.864  33.424  1.00  0.00    -0.024 A 
BRANCH  13  14
ATOM     14  C   UNL A   1      42.163  27.979  33.412  1.00  0.00     0.029 C 
ATOM     15  C   UNL A   1      42.724  27.414  34.486  1.00  0.00     0.083 C 
ATOM     16  S   UNL A   1      42.147  27.140  36.071  1.00  0.00    -0.022 SA
ATOM     17  C   UNL A   1      44.141  27.011  34.409  1.00  0.00     0.268 C 
ATOM     18  C   UNL A   1      43.575  26.171  36.480  1.00  0.00     0.293 C 
ATOM     19  N   UNL A   1      44.435  26.136  35.413  1.00  0.00    -0.264 N 
ATOM     20  O   UNL A   1      44.934  27.546  33.646  1.00  0.00    -0.268 OA
ATOM     21  O   UNL A   1      43.740  25.674  37.578  1.00  0.00    -0.261 OA
BRANCH  19  22
ATOM     22  C   UNL A   1      45.700  25.422  35.432  1.00  0.00     0.167 C 
BRANCH  22  23
ATOM     23  C   UNL A   1      45.507  23.921  35.265  1.00  0.00    -0.005 A 
ATOM     24  C   UNL A   1      45.864  23.074  36.336  1.00  0.00     0.057 A 
ATOM     25  C   UNL A   1      44.989  23.322  34.083  1.00  0.00     0.050 A 
ATOM     26  C   UNL A   1      45.697  21.711  36.184  1.00  0.00     0.166 A 
ATOM     27  C   UNL A   1      44.736  21.950  34.003  1.00  0.00     0.071 A 
ATOM     28  Cl  UNL A   1      44.752  24.176  32.606  1.00  0.00    -0.084 Cl
ATOM     29  C   UNL A   1      45.124  21.171  35.061  1.00  0.00     0.167 A 
ATOM     30  O   UNL A   1      46.092  20.749  37.061  1.00  0.00    -0.454 OA
ATOM     31  O   UNL A   1      45.058  19.815  35.103  1.00  0.00    -0.454 OA
ATOM     32  C   UNL A   1      45.860  19.561  36.272  1.00  0.00     0.468 C 
ENDBRANCH  22  23
ENDBRANCH  19  22
ENDBRANCH  13  14
ENDBRANCH   7   8
ENDBRANCH   6   7
ENDBRANCH   4   6
ENDBRANCH   1   2
BRANCH   1  33
ATOM     33  C   UNL A   1      34.397  33.913  31.804  1.00  0.00     0.023 C 
BRANCH  33  34
ATOM     34  C   UNL A   1      34.821  32.622  31.105  1.00  0.00     0.023 C 
BRANCH  34  35
ATOM     35  C   UNL A   1      35.118  32.743  29.612  1.00  0.00     0.116 C 
BRANCH  35  36
ATOM     36  N   UNL A   1      34.319  31.844  28.794  1.00  0.00    -0.352 N 
ATOM     37  C   UNL A   1      34.678  30.666  28.183  1.00  0.00     0.251 C 
ATOM     38  H   UNL A   1      33.383  32.119  28.659  1.00  0.00     0.163 HD
ATOM     39  O   UNL A   1      33.893  30.104  27.424  1.00  0.00    -0.269 OA
BRANCH  37  40
ATOM     40  C   UNL A   1      36.023  30.086  28.403  1.00  0.00     0.039 A 
ATOM     41  C   UNL A   1      36.980  30.206  27.391  1.00  0.00     0.014 A 
ATOM     42  C   UNL A   1      36.345  29.427  29.592  1.00  0.00     0.014 A 
ATOM     43  C   UNL A   1      38.279  29.736  27.601  1.00  0.00     0.010 A 
ATOM     44  C   UNL A   1      37.658  29.019  29.828  1.00  0.00     0.010 A 
ATOM     45  C   UNL A   1      38.641  29.176  28.837  1.00  0.00    -0.014 A 
BRANCH  45  46
ATOM     46  C   UNL A   1      40.041  28.764  29.119  1.00  0.00     0.031 A 
ATOM     47  C   UNL A   1      40.990  29.705  29.806  1.00  0.00     0.074 A 
ATOM     48  C   UNL A   1      40.481  27.564  28.690  1.00  0.00     0.049 A 
ATOM     49  N   UNL A   1      42.265  29.553  30.065  1.00  0.00    -0.248 NA
ATOM     50  C   UNL A   1      40.441  31.000  30.238  1.00  0.00     0.031 C 
ATOM     51  C   UNL A   1      39.676  26.574  27.972  1.00  0.00     0.029 A 
ATOM     52  N   UNL A   1      41.719  26.978  28.786  1.00  0.00    -0.354 N 
ATOM     53  C   UNL A   1      42.672  30.734  30.670  1.00  0.00     0.074 A 
ATOM     54  C   UNL A   1      41.521  31.611  30.701  1.00  0.00     0.031 C 
ATOM     55  C   UNL A   1      40.434  25.496  27.712  1.00  0.00     0.029 A 
ATOM     56  C   UNL A   1      41.786  25.733  28.209  1.00  0.00     0.049 A 
ATOM     57  H   UNL A   1      42.486  27.411  29.226  1.00  0.00     0.167 HD
ATOM     58  C   UNL A   1      43.890  31.054  31.171  1.00  0.00     0.037 A 
ATOM     59  C   UNL A   1      42.821  24.880  28.088  1.00  0.00     0.037 A 
ATOM     60  C   UNL A   1      45.027  30.172  31.170  1.00  0.00     0.049 A 
ATOM     61  C   UNL A   1      44.162  25.260  28.650  1.00  0.00     0.074 A 
ATOM     62  C   UNL A   1      46.281  30.381  31.718  1.00  0.00     0.029 A 
ATOM     63  N   UNL A   1      45.049  28.913  30.590  1.00  0.00    -0.354 N 
ATOM     64  N   UNL A   1      44.515  26.355  29.279  1.00  0.00    -0.248 NA
ATOM     65  C   UNL A   1      45.249  24.283  28.488  1.00  0.00     0.031 C 
ATOM     66  C   UNL A   1      47.075  29.265  31.434  1.00  0.00     0.029 A 
ATOM     67  C   UNL A   1      46.303  28.343  30.747  1.00  0.00     0.049 A 
ATOM     68  H   UNL A   1      44.288  28.486  30.133  1.00  0.00     0.167 HD
ATOM     69  C   UNL A   1      45.852  26.186  29.612  1.00  0.00     0.074 A 
ATOM     70  C   UNL A   1      46.245  24.881  29.126  1.00  0.00     0.031 C 
ATOM     71  C   UNL A   1      46.679  27.039  30.266  1.00  0.00     0.037 A 
BRANCH  58  72
ATOM     72  C   UNL A   1      44.054  32.421  31.769  1.00  0.00     0.057 A 
ATOM     73  C   UNL A   1      43.981  32.636  33.151  1.00  0.00     0.134 A 
ATOM     74  C   UNL A   1      44.326  33.528  30.956  1.00  0.00     0.134 A 
ATOM     75  F   UNL A   1      43.713  31.620  33.984  1.00  0.00    -0.206 F 
ATOM     76  C   UNL A   1      44.147  33.908  33.701  1.00  0.00     0.040 A 
ATOM     77  C   UNL A   1      44.519  34.801  31.496  1.00  0.00     0.040 A 
ATOM     78  F   UNL A   1      44.416  33.391  29.624  1.00  0.00    -0.206 F 
ATOM     79  C   UNL A   1      44.423  34.995  32.873  1.00  0.00     0.006 A 
ENDBRANCH  58  72
BRANCH  59  80
ATOM     80  C   UNL A   1      42.627  23.566  27.425  1.00  0.00     0.057 A 
ATOM     81  C   UNL A   1      42.318  22.424  28.171  1.00  0.00     0.134 A 
ATOM     82  C   UNL A   1      42.756  23.418  26.039  1.00  0.00     0.134 A 
ATOM     83  F   UNL A   1      42.202  22.501  29.506  1.00  0.00    -0.206 F 
ATOM     84  C   UNL A   1      42.160  21.176  27.567  1.00  0.00     0.040 A 
ATOM     85  C   UNL A   1      42.578  22.180  25.419  1.00  0.00     0.040 A 
ATOM     86  F   UNL A   1      43.046  24.475  25.268  1.00  0.00    -0.206 F 
ATOM     87  C   UNL A   1      42.286  21.053  26.184  1.00  0.00     0.006 A 
ENDBRANCH  59  80
BRANCH  71  88
ATOM     88  C   UNL A   1      48.081  26.572  30.524  1.00  0.00     0.057 A 
ATOM     89  C   UNL A   1      49.119  26.806  29.612  1.00  0.00     0.134 A 
ATOM     90  C   UNL A   1      48.404  25.912  31.717  1.00  0.00     0.134 A 
ATOM     91  F   UNL A   1      48.872  27.421  28.446  1.00  0.00    -0.206 F 
ATOM     92  C   UNL A   1      50.424  26.383  29.870  1.00  0.00     0.040 A 
ATOM     93  C   UNL A   1      49.709  25.505  31.995  1.00  0.00     0.040 A 
ATOM     94  F   UNL A   1      47.458  25.663  32.634  1.00  0.00    -0.206 F 
ATOM     95  C   UNL A   1      50.723  25.735  31.068  1.00  0.00     0.006 A 
ENDBRANCH  71  88
ENDBRANCH  45  46
ENDBRANCH  37  40
ENDBRANCH  35  36
ENDBRANCH  34  35
ENDBRANCH  33  34
ENDBRANCH   1  33
TORSDOF 16
ENDMDL
MODEL 3
REMARK VINA RESULT:     -12.1      2.853      9.234
REMARK SMILES O=C(COc1ccc(/C=C2\SC(=O)N(Cc3cc4c(cc3Cl)OCO4)C2=O)cc1)NCCCCNC(=O)c1ccc(-c2c3nc(c(-c4c(F)cccc4F)c4ccc([nH]4)c(-c4c(F)cccc4F)c4nc(c(-c5c(F)cccc5F)c5ccc2[nH]5)C=C4)C=C3)cc1
REMARK SMILES IDX 31 1 30 2 1 3 2 4 3 6 4 7 5 8 6 9 29 10 7 11 28 12 8 13 9 14
REMARK SMILES IDX 10 15 11 16 26 17 12 18 14 19 27 20 13 21 15 22 16 23 17 24
REMARK SMILES IDX 21 25 18 26 20 27 22 28 19 29 25 30 23 31 24 32 32 33 33 34
REMARK SMILES IDX 34 35 35 36 36 37 37 39 38 40 39 41 91 42 40 43 90 44 41 45
REMARK SMILES IDX 42 46 43 47 84 48 44 49 89 50 83 51 85 52 45 53 88 54 82 55
REMARK SMILES IDX 81 56 46 58 72 59 55 60 71 61 56 62 59 63 70 64 86 65 57 66
REMARK SMILES IDX 58 67 69 69 87 70 60 71 47 72 48 73 53 74 49 75 50 76 52 77
REMARK SMILES IDX 54 78 51 79 73 80 74 81 79 82 75 83 76 84 78 85 80 86 77 87
REMARK SMILES IDX 61 88 62 89 67 90 63 91 64 92 66 93 68 94 65 95
REMARK H PARENT 30 5 35 38 85 57 59 68
REMARK Flexibility Score: inf
ROOT
ATOM      1  C   UNL A   1      44.673  21.023  25.158  1.00  0.00     0.116 C 
ENDROOT
BRANCH   1   2
ATOM      2  N   UNL A   1      43.251  20.864  25.384  1.00  0.00    -0.353 N 
ATOM      3  O   UNL A   1      43.303  18.583  25.651  1.00  0.00    -0.271 OA
ATOM      4  C   UNL A   1      42.705  19.650  25.752  1.00  0.00     0.257 C 
ATOM      5  H   UNL A   1      42.658  21.642  25.273  1.00  0.00     0.163 HD
BRANCH   4   6
ATOM      6  C   UNL A   1      41.300  19.745  26.372  1.00  0.00     0.329 C 
BRANCH   6   7
ATOM      7  O   UNL A   1      40.869  21.012  26.866  1.00  0.00    -0.484 OA
BRANCH   7   8
ATOM      8  C   UNL A   1      39.700  21.503  26.345  1.00  0.00     0.120 A 
ATOM      9  C   UNL A   1      38.956  20.637  25.536  1.00  0.00     0.047 A 
ATOM     10  C   UNL A   1      39.272  22.817  26.501  1.00  0.00     0.047 A 
ATOM     11  C   UNL A   1      37.786  21.079  24.899  1.00  0.00     0.012 A 
ATOM     12  C   UNL A   1      38.139  23.270  25.842  1.00  0.00     0.012 A 
ATOM     13  C   UNL A   1      37.390  22.406  25.043  1.00  0.00    -0.024 A 
BRANCH  13  14
ATOM     14  C   UNL A   1      36.151  22.972  24.530  1.00  0.00     0.029 C 
ATOM     15  C   UNL A   1      34.964  22.358  24.507  1.00  0.00     0.083 C 
ATOM     16  S   UNL A   1      34.352  21.010  25.361  1.00  0.00    -0.022 SA
ATOM     17  C   UNL A   1      33.965  22.796  23.513  1.00  0.00     0.268 C 
ATOM     18  C   UNL A   1      32.719  21.280  24.723  1.00  0.00     0.293 C 
ATOM     19  N   UNL A   1      32.725  22.349  23.866  1.00  0.00    -0.264 N 
ATOM     20  O   UNL A   1      34.281  23.329  22.459  1.00  0.00    -0.268 OA
ATOM     21  O   UNL A   1      31.778  20.561  25.001  1.00  0.00    -0.261 OA
BRANCH  19  22
ATOM     22  C   UNL A   1      31.538  22.824  23.177  1.00  0.00     0.167 C 
BRANCH  22  23
ATOM     23  C   UNL A   1      31.202  24.261  23.550  1.00  0.00    -0.005 A 
ATOM     24  C   UNL A   1      31.400  25.270  22.583  1.00  0.00     0.057 A 
ATOM     25  C   UNL A   1      30.702  24.646  24.825  1.00  0.00     0.050 A 
ATOM     26  C   UNL A   1      31.103  26.576  22.922  1.00  0.00     0.166 A 
ATOM     27  C   UNL A   1      30.314  25.961  25.098  1.00  0.00     0.071 A 
ATOM     28  Cl  UNL A   1      30.650  23.592  26.187  1.00  0.00    -0.084 Cl
ATOM     29  C   UNL A   1      30.550  26.904  24.134  1.00  0.00     0.167 A 
ATOM     30  O   UNL A   1      31.338  27.679  22.160  1.00  0.00    -0.454 OA
ATOM     31  O   UNL A   1      30.341  28.239  24.274  1.00  0.00    -0.454 OA
ATOM     32  C   UNL A   1      31.035  28.725  23.110  1.00  0.00     0.468 C 
ENDBRANCH  22  23
ENDBRANCH  19  22
ENDBRANCH  13  14
ENDBRANCH   7   8
ENDBRANCH   6   7
ENDBRANCH   4   6
ENDBRANCH   1   2
BRANCH   1  33
ATOM     33  C   UNL A   1      45.272  22.218  25.886  1.00  0.00     0.023 C 
BRANCH  33  34
ATOM     34  C   UNL A   1      44.319  22.920  26.854  1.00  0.00     0.023 C 
BRANCH  34  35
ATOM     35  C   UNL A   1      44.141  24.421  26.635  1.00  0.00     0.116 C 
BRANCH  35  36
ATOM     36  N   UNL A   1      43.074  24.742  25.700  1.00  0.00    -0.352 N 
ATOM     37  C   UNL A   1      41.967  25.537  25.874  1.00  0.00     0.251 C 
ATOM     38  H   UNL A   1      43.159  24.329  24.809  1.00  0.00     0.163 HD
ATOM     39  O   UNL A   1      41.105  25.591  25.001  1.00  0.00    -0.269 OA
BRANCH  37  40
ATOM     40  C   UNL A   1      41.785  26.305  27.129  1.00  0.00     0.039 A 
ATOM     41  C   UNL A   1      42.499  27.495  27.296  1.00  0.00     0.014 A 
ATOM     42  C   UNL A   1      40.925  25.861  28.135  1.00  0.00     0.014 A 
ATOM     43  C   UNL A   1      42.291  28.278  28.435  1.00  0.00     0.010 A 
ATOM     44  C   UNL A   1      40.667  26.674  29.238  1.00  0.00     0.010 A 
ATOM     45  C   UNL A   1      41.341  27.895  29.396  1.00  0.00    -0.014 A 
BRANCH  45  46
ATOM     46  C   UNL A   1      41.030  28.763  30.562  1.00  0.00     0.031 A 
ATOM     47  C   UNL A   1      39.904  29.757  30.494  1.00  0.00     0.074 A 
ATOM     48  C   UNL A   1      41.808  28.706  31.662  1.00  0.00     0.049 A 
ATOM     49  N   UNL A   1      39.534  30.650  31.378  1.00  0.00    -0.248 NA
ATOM     50  C   UNL A   1      39.104  29.767  29.259  1.00  0.00     0.031 C 
ATOM     51  C   UNL A   1      42.958  27.818  31.840  1.00  0.00     0.029 A 
ATOM     52  N   UNL A   1      41.755  29.421  32.833  1.00  0.00    -0.354 N 
ATOM     53  C   UNL A   1      38.475  31.337  30.800  1.00  0.00     0.074 A 
ATOM     54  C   UNL A   1      38.289  30.788  29.474  1.00  0.00     0.031 C 
ATOM     55  C   UNL A   1      43.488  28.025  33.057  1.00  0.00     0.029 A 
ATOM     56  C   UNL A   1      42.741  29.084  33.728  1.00  0.00     0.049 A 
ATOM     57  H   UNL A   1      41.075  30.109  33.013  1.00  0.00     0.167 HD
ATOM     58  C   UNL A   1      37.714  32.323  31.333  1.00  0.00     0.037 A 
ATOM     59  C   UNL A   1      43.018  29.578  34.950  1.00  0.00     0.037 A 
ATOM     60  C   UNL A   1      37.876  32.848  32.664  1.00  0.00     0.049 A 
ATOM     61  C   UNL A   1      42.160  30.674  35.517  1.00  0.00     0.074 A 
ATOM     62  C   UNL A   1      37.109  33.798  33.316  1.00  0.00     0.029 A 
ATOM     63  N   UNL A   1      38.878  32.470  33.544  1.00  0.00    -0.354 N 
ATOM     64  N   UNL A   1      41.120  31.268  34.985  1.00  0.00    -0.248 NA
ATOM     65  C   UNL A   1      42.514  31.166  36.857  1.00  0.00     0.031 C 
ATOM     66  C   UNL A   1      37.670  34.024  34.577  1.00  0.00     0.029 A 
ATOM     67  C   UNL A   1      38.761  33.184  34.726  1.00  0.00     0.049 A 
ATOM     68  H   UNL A   1      39.570  31.795  33.359  1.00  0.00     0.167 HD
ATOM     69  C   UNL A   1      40.678  32.181  35.934  1.00  0.00     0.074 A 
ATOM     70  C   UNL A   1      41.556  32.055  37.078  1.00  0.00     0.031 C 
ATOM     71  C   UNL A   1      39.636  33.044  35.862  1.00  0.00     0.037 A 
BRANCH  58  72
ATOM     72  C   UNL A   1      36.627  32.900  30.473  1.00  0.00     0.057 A 
ATOM     73  C   UNL A   1      35.288  32.517  30.618  1.00  0.00     0.134 A 
ATOM     74  C   UNL A   1      36.919  33.877  29.513  1.00  0.00     0.134 A 
ATOM     75  F   UNL A   1      34.943  31.578  31.512  1.00  0.00    -0.206 F 
ATOM     76  C   UNL A   1      34.281  33.065  29.822  1.00  0.00     0.040 A 
ATOM     77  C   UNL A   1      35.918  34.452  28.728  1.00  0.00     0.040 A 
ATOM     78  F   UNL A   1      38.180  34.294  29.326  1.00  0.00    -0.206 F 
ATOM     79  C   UNL A   1      34.594  34.041  28.877  1.00  0.00     0.006 A 
ENDBRANCH  58  72
BRANCH  59  80
ATOM     80  C   UNL A   1      44.149  29.023  35.737  1.00  0.00     0.057 A 
ATOM     81  C   UNL A   1      43.953  27.959  36.623  1.00  0.00     0.134 A 
ATOM     82  C   UNL A   1      45.442  29.547  35.631  1.00  0.00     0.134 A 
ATOM     83  F   UNL A   1      42.730  27.429  36.781  1.00  0.00    -0.206 F 
ATOM     84  C   UNL A   1      44.999  27.444  37.391  1.00  0.00     0.040 A 
ATOM     85  C   UNL A   1      46.503  29.027  36.376  1.00  0.00     0.040 A 
ATOM     86  F   UNL A   1      45.696  30.564  34.796  1.00  0.00    -0.206 F 
ATOM     87  C   UNL A   1      46.280  27.976  37.264  1.00  0.00     0.006 A 
ENDBRANCH  59  80
BRANCH  71  88
ATOM     88  C   UNL A   1      39.366  33.895  37.067  1.00  0.00     0.057 A 
ATOM     89  C   UNL A   1      38.654  33.409  38.172  1.00  0.00     0.134 A 
ATOM     90  C   UNL A   1      39.857  35.205  37.139  1.00  0.00     0.134 A 
ATOM     91  F   UNL A   1      38.146  32.168  38.160  1.00  0.00    -0.206 F 
ATOM     92  C   UNL A   1      38.424  34.204  39.296  1.00  0.00     0.040 A 
ATOM     93  C   UNL A   1      39.652  36.001  38.267  1.00  0.00     0.040 A 
ATOM     94  F   UNL A   1      40.552  35.728  36.118  1.00  0.00    -0.206 F 
ATOM     95  C   UNL A   1      38.929  35.502  39.348  1.00  0.00     0.006 A 
ENDBRANCH  71  88
ENDBRANCH  45  46
ENDBRANCH  37  40
ENDBRANCH  35  36
ENDBRANCH  34  35
ENDBRANCH  33  34
ENDBRANCH   1  33
TORSDOF 16
ENDMDL
