MODEL 1
REMARK VINA RESULT:     -12.0      0.000      0.000
REMARK SMILES CCOc1ccc(-c2ccc(=O)n(CC(=O)NCCCCNC(=O)c3ccc(-c4c5nc(c(-c6c(F)cccc6F)c6ccc([nH]6)c(-c6c(F)cccc6F)c6nc(c(-c7c(F)cccc7F)c7ccc4[nH]7)C=C6)C=C5)cc3)n2)cc1
REMARK SMILES IDX 18 1 17 2 15 3 16 4 14 6 13 7 8 8 9 9 79 10 10 11 11 12
REMARK SMILES IDX 12 13 7 14 4 15 5 16 81 17 6 18 80 19 3 20 2 21 1 22 19 23
REMARK SMILES IDX 20 24 21 25 22 26 23 27 24 29 25 30 26 31 78 32 27 33 77 34
REMARK SMILES IDX 28 35 29 36 30 37 71 38 31 39 76 40 70 41 72 42 32 43 75 44
REMARK SMILES IDX 69 45 68 46 33 48 59 49 42 50 58 51 43 52 46 53 57 54 73 55
REMARK SMILES IDX 44 56 45 57 56 59 74 60 47 61 34 62 35 63 40 64 36 65 37 66
REMARK SMILES IDX 39 67 41 68 38 69 60 70 61 71 66 72 62 73 63 74 65 75 67 76
REMARK SMILES IDX 64 77 48 78 49 79 54 80 50 81 51 82 53 83 55 84 52 85
REMARK H PARENT 17 5 22 28 72 47 46 58
REMARK Flexibility Score: inf
ROOT
ATOM      1  C   UNL A   1      33.178  29.958  27.083  1.00  0.00     0.116 C 
ENDROOT
BRANCH   1   2
ATOM      2  N   UNL A   1      33.860  29.643  25.845  1.00  0.00    -0.354 N 
ATOM      3  C   UNL A   1      33.955  28.440  25.199  1.00  0.00     0.241 C 
ATOM      4  O   UNL A   1      34.362  28.466  24.034  1.00  0.00    -0.273 OA
ATOM      5  H   UNL A   1      34.319  30.396  25.409  1.00  0.00     0.163 HD
BRANCH   3   6
ATOM      6  C   UNL A   1      33.403  27.151  25.818  1.00  0.00     0.248 C 
BRANCH   6   7
ATOM      7  N   UNL A   1      32.088  26.777  25.312  1.00  0.00    -0.220 N 
ATOM      8  C   UNL A   1      30.254  27.388  24.088  1.00  0.00     0.091 A 
ATOM      9  C   UNL A   1      29.555  26.122  24.382  1.00  0.00     0.036 A 
ATOM     10  N   UNL A   1      31.442  27.691  24.508  1.00  0.00    -0.169 NA
ATOM     11  C   UNL A   1      30.239  25.217  25.084  1.00  0.00     0.075 A 
ATOM     12  C   UNL A   1      31.603  25.504  25.577  1.00  0.00     0.267 A 
ATOM     13  O   UNL A   1      32.202  24.638  26.206  1.00  0.00    -0.268 OA
BRANCH   8  14
ATOM     14  C   UNL A   1      29.533  28.348  23.227  1.00  0.00     0.002 A 
ATOM     15  C   UNL A   1      28.261  30.205  21.596  1.00  0.00     0.119 A 
ATOM     16  C   UNL A   1      27.508  29.432  22.479  1.00  0.00     0.047 A 
ATOM     17  C   UNL A   1      29.649  30.090  21.560  1.00  0.00     0.047 A 
ATOM     18  C   UNL A   1      28.142  28.492  23.296  1.00  0.00     0.014 A 
ATOM     19  C   UNL A   1      30.288  29.157  22.372  1.00  0.00     0.014 A 
BRANCH  15  20
ATOM     20  O   UNL A   1      27.626  31.162  20.854  1.00  0.00    -0.494 OA
BRANCH  20  21
ATOM     21  C   UNL A   1      28.152  32.477  21.084  1.00  0.00     0.226 C 
ATOM     22  C   UNL A   1      28.351  32.750  22.566  1.00  0.00     0.049 C 
ENDBRANCH  20  21
ENDBRANCH  15  20
ENDBRANCH   8  14
ENDBRANCH   6   7
ENDBRANCH   3   6
ENDBRANCH   1   2
BRANCH   1  23
ATOM     23  C   UNL A   1      31.751  30.452  26.854  1.00  0.00     0.023 C 
BRANCH  23  24
ATOM     24  C   UNL A   1      31.606  31.970  26.729  1.00  0.00     0.023 C 
BRANCH  24  25
ATOM     25  C   UNL A   1      32.774  32.787  27.266  1.00  0.00     0.116 C 
BRANCH  25  26
ATOM     26  N   UNL A   1      32.411  34.153  27.608  1.00  0.00    -0.352 N 
ATOM     27  C   UNL A   1      32.963  34.985  28.552  1.00  0.00     0.251 C 
ATOM     28  H   UNL A   1      31.665  34.536  27.092  1.00  0.00     0.163 HD
ATOM     29  O   UNL A   1      32.450  36.074  28.792  1.00  0.00    -0.269 OA
BRANCH  27  30
ATOM     30  C   UNL A   1      34.157  34.548  29.309  1.00  0.00     0.039 A 
ATOM     31  C   UNL A   1      33.986  34.042  30.601  1.00  0.00     0.014 A 
ATOM     32  C   UNL A   1      35.433  34.616  28.745  1.00  0.00     0.014 A 
ATOM     33  C   UNL A   1      35.084  33.531  31.295  1.00  0.00     0.010 A 
ATOM     34  C   UNL A   1      36.514  34.041  29.408  1.00  0.00     0.010 A 
ATOM     35  C   UNL A   1      36.349  33.487  30.687  1.00  0.00    -0.014 A 
BRANCH  35  36
ATOM     36  C   UNL A   1      37.502  32.838  31.359  1.00  0.00     0.031 A 
ATOM     37  C   UNL A   1      38.159  31.630  30.753  1.00  0.00     0.074 A 
ATOM     38  C   UNL A   1      37.905  33.290  32.562  1.00  0.00     0.049 A 
ATOM     39  N   UNL A   1      39.135  30.897  31.225  1.00  0.00    -0.248 NA
ATOM     40  C   UNL A   1      37.630  31.171  29.460  1.00  0.00     0.031 C 
ATOM     41  C   UNL A   1      37.309  34.413  33.286  1.00  0.00     0.029 A 
ATOM     42  N   UNL A   1      38.903  32.849  33.395  1.00  0.00    -0.354 N 
ATOM     43  C   UNL A   1      39.325  29.880  30.298  1.00  0.00     0.074 A 
ATOM     44  C   UNL A   1      38.330  30.064  29.262  1.00  0.00     0.031 C 
ATOM     45  C   UNL A   1      37.962  34.584  34.446  1.00  0.00     0.029 A 
ATOM     46  C   UNL A   1      38.999  33.564  34.563  1.00  0.00     0.049 A 
ATOM     47  H   UNL A   1      39.493  32.092  33.176  1.00  0.00     0.167 HD
ATOM     48  C   UNL A   1      40.256  28.897  30.299  1.00  0.00     0.037 A 
ATOM     49  C   UNL A   1      39.824  33.411  35.617  1.00  0.00     0.037 A 
ATOM     50  C   UNL A   1      41.257  28.729  31.320  1.00  0.00     0.049 A 
ATOM     51  C   UNL A   1      40.854  32.318  35.593  1.00  0.00     0.074 A 
ATOM     52  C   UNL A   1      42.295  27.815  31.369  1.00  0.00     0.029 A 
ATOM     53  N   UNL A   1      41.336  29.487  32.480  1.00  0.00    -0.354 N 
ATOM     54  N   UNL A   1      41.081  31.418  34.669  1.00  0.00    -0.248 NA
ATOM     55  C   UNL A   1      41.746  32.223  36.758  1.00  0.00     0.031 C 
ATOM     56  C   UNL A   1      42.973  27.988  32.581  1.00  0.00     0.029 A 
ATOM     57  C   UNL A   1      42.388  29.041  33.265  1.00  0.00     0.049 A 
ATOM     58  H   UNL A   1      40.735  30.231  32.710  1.00  0.00     0.167 HD
ATOM     59  C   UNL A   1      42.151  30.661  35.128  1.00  0.00     0.074 A 
ATOM     60  C   UNL A   1      42.538  31.220  36.408  1.00  0.00     0.031 C 
ATOM     61  C   UNL A   1      42.757  29.600  34.541  1.00  0.00     0.037 A 
BRANCH  48  62
ATOM     62  C   UNL A   1      40.228  27.924  29.155  1.00  0.00     0.057 A 
ATOM     63  C   UNL A   1      40.953  28.143  27.976  1.00  0.00     0.134 A 
ATOM     64  C   UNL A   1      39.473  26.747  29.237  1.00  0.00     0.134 A 
ATOM     65  F   UNL A   1      41.688  29.256  27.827  1.00  0.00    -0.206 F 
ATOM     66  C   UNL A   1      40.900  27.247  26.907  1.00  0.00     0.040 A 
ATOM     67  C   UNL A   1      39.434  25.829  28.186  1.00  0.00     0.040 A 
ATOM     68  F   UNL A   1      38.760  26.469  30.340  1.00  0.00    -0.206 F 
ATOM     69  C   UNL A   1      40.141  26.083  27.013  1.00  0.00     0.006 A 
ENDBRANCH  48  62
BRANCH  49  70
ATOM     70  C   UNL A   1      39.718  34.339  36.770  1.00  0.00     0.057 A 
ATOM     71  C   UNL A   1      38.971  33.998  37.903  1.00  0.00     0.134 A 
ATOM     72  C   UNL A   1      40.382  35.571  36.779  1.00  0.00     0.134 A 
ATOM     73  F   UNL A   1      38.300  32.837  37.943  1.00  0.00    -0.206 F 
ATOM     74  C   UNL A   1      38.880  34.852  39.002  1.00  0.00     0.040 A 
ATOM     75  C   UNL A   1      40.319  36.426  37.881  1.00  0.00     0.040 A 
ATOM     76  F   UNL A   1      41.121  35.951  35.727  1.00  0.00    -0.206 F 
ATOM     77  C   UNL A   1      39.562  36.068  38.995  1.00  0.00     0.006 A 
ENDBRANCH  49  70
BRANCH  61  78
ATOM     78  C   UNL A   1      43.913  28.982  35.272  1.00  0.00     0.057 A 
ATOM     79  C   UNL A   1      45.233  29.402  35.057  1.00  0.00     0.134 A 
ATOM     80  C   UNL A   1      43.702  27.982  36.229  1.00  0.00     0.134 A 
ATOM     81  F   UNL A   1      45.505  30.348  34.144  1.00  0.00    -0.206 F 
ATOM     82  C   UNL A   1      46.301  28.834  35.752  1.00  0.00     0.040 A 
ATOM     83  C   UNL A   1      44.759  27.423  36.949  1.00  0.00     0.040 A 
ATOM     84  F   UNL A   1      42.462  27.538  36.489  1.00  0.00    -0.206 F 
ATOM     85  C   UNL A   1      46.064  27.846  36.707  1.00  0.00     0.006 A 
ENDBRANCH  61  78
ENDBRANCH  35  36
ENDBRANCH  27  30
ENDBRANCH  25  26
ENDBRANCH  24  25
ENDBRANCH  23  24
ENDBRANCH   1  23
TORSDOF 15
ENDMDL
MODEL 2
REMARK VINA RESULT:     -11.9      2.268      7.772
REMARK SMILES CCOc1ccc(-c2ccc(=O)n(CC(=O)NCCCCNC(=O)c3ccc(-c4c5nc(c(-c6c(F)cccc6F)c6ccc([nH]6)c(-c6c(F)cccc6F)c6nc(c(-c7c(F)cccc7F)c7ccc4[nH]7)C=C6)C=C5)cc3)n2)cc1
REMARK SMILES IDX 18 1 17 2 15 3 16 4 14 6 13 7 8 8 9 9 79 10 10 11 11 12
REMARK SMILES IDX 12 13 7 14 4 15 5 16 81 17 6 18 80 19 3 20 2 21 1 22 19 23
REMARK SMILES IDX 20 24 21 25 22 26 23 27 24 29 25 30 26 31 78 32 27 33 77 34
REMARK SMILES IDX 28 35 29 36 30 37 71 38 31 39 76 40 70 41 72 42 32 43 75 44
REMARK SMILES IDX 69 45 68 46 33 48 59 49 42 50 58 51 43 52 46 53 57 54 73 55
REMARK SMILES IDX 44 56 45 57 56 59 74 60 47 61 34 62 35 63 40 64 36 65 37 66
REMARK SMILES IDX 39 67 41 68 38 69 60 70 61 71 66 72 62 73 63 74 65 75 67 76
REMARK SMILES IDX 64 77 48 78 49 79 54 80 50 81 51 82 53 83 55 84 52 85
REMARK H PARENT 17 5 22 28 72 47 46 58
REMARK Flexibility Score: inf
ROOT
ATOM      1  C   UNL A   1      33.022  29.753  26.007  1.00  0.00     0.116 C 
ENDROOT
BRANCH   1   2
ATOM      2  N   UNL A   1      33.679  29.379  24.772  1.00  0.00    -0.354 N 
ATOM      3  C   UNL A   1      33.654  28.178  24.115  1.00  0.00     0.241 C 
ATOM      4  O   UNL A   1      34.073  28.172  22.953  1.00  0.00    -0.273 OA
ATOM      5  H   UNL A   1      34.219  30.084  24.347  1.00  0.00     0.163 HD
BRANCH   3   6
ATOM      6  C   UNL A   1      32.965  26.948  24.717  1.00  0.00     0.248 C 
BRANCH   6   7
ATOM      7  N   UNL A   1      33.383  25.690  24.111  1.00  0.00    -0.220 N 
ATOM      8  C   UNL A   1      34.909  23.986  24.078  1.00  0.00     0.091 A 
ATOM      9  C   UNL A   1      34.245  23.326  22.938  1.00  0.00     0.036 A 
ATOM     10  N   UNL A   1      34.503  25.082  24.638  1.00  0.00    -0.169 NA
ATOM     11  C   UNL A   1      33.113  23.885  22.508  1.00  0.00     0.075 A 
ATOM     12  C   UNL A   1      32.595  25.128  23.118  1.00  0.00     0.267 A 
ATOM     13  O   UNL A   1      31.542  25.600  22.701  1.00  0.00    -0.268 OA
BRANCH   8  14
ATOM     14  C   UNL A   1      36.108  23.310  24.617  1.00  0.00     0.002 A 
ATOM     15  C   UNL A   1      38.321  21.952  25.610  1.00  0.00     0.119 A 
ATOM     16  C   UNL A   1      38.076  23.263  26.017  1.00  0.00     0.047 A 
ATOM     17  C   UNL A   1      37.438  21.300  24.751  1.00  0.00     0.047 A 
ATOM     18  C   UNL A   1      36.969  23.953  25.515  1.00  0.00     0.014 A 
ATOM     19  C   UNL A   1      36.333  21.980  24.247  1.00  0.00     0.014 A 
BRANCH  15  20
ATOM     20  O   UNL A   1      39.372  21.277  26.164  1.00  0.00    -0.494 OA
BRANCH  20  21
ATOM     21  C   UNL A   1      40.146  22.094  27.053  1.00  0.00     0.226 C 
ATOM     22  C   UNL A   1      41.615  22.115  26.660  1.00  0.00     0.049 C 
ENDBRANCH  20  21
ENDBRANCH  15  20
ENDBRANCH   8  14
ENDBRANCH   6   7
ENDBRANCH   3   6
ENDBRANCH   1   2
BRANCH   1  23
ATOM     23  C   UNL A   1      31.690  30.461  25.769  1.00  0.00     0.023 C 
BRANCH  23  24
ATOM     24  C   UNL A   1      31.462  31.711  26.620  1.00  0.00     0.023 C 
BRANCH  24  25
ATOM     25  C   UNL A   1      32.725  32.407  27.114  1.00  0.00     0.116 C 
BRANCH  25  26
ATOM     26  N   UNL A   1      32.501  33.787  27.516  1.00  0.00    -0.352 N 
ATOM     27  C   UNL A   1      33.150  34.524  28.477  1.00  0.00     0.251 C 
ATOM     28  H   UNL A   1      31.786  34.259  27.031  1.00  0.00     0.163 HD
ATOM     29  O   UNL A   1      32.748  35.647  28.769  1.00  0.00    -0.269 OA
BRANCH  27  30
ATOM     30  C   UNL A   1      34.310  33.946  29.190  1.00  0.00     0.039 A 
ATOM     31  C   UNL A   1      34.077  33.044  30.232  1.00  0.00     0.014 A 
ATOM     32  C   UNL A   1      35.617  34.272  28.822  1.00  0.00     0.014 A 
ATOM     33  C   UNL A   1      35.155  32.410  30.851  1.00  0.00     0.010 A 
ATOM     34  C   UNL A   1      36.687  33.586  29.391  1.00  0.00     0.010 A 
ATOM     35  C   UNL A   1      36.466  32.643  30.406  1.00  0.00    -0.014 A 
BRANCH  35  36
ATOM     36  C   UNL A   1      37.614  31.889  30.969  1.00  0.00     0.031 A 
ATOM     37  C   UNL A   1      38.128  32.197  32.347  1.00  0.00     0.074 A 
ATOM     38  C   UNL A   1      38.248  30.981  30.202  1.00  0.00     0.049 A 
ATOM     39  N   UNL A   1      39.154  31.686  32.979  1.00  0.00    -0.248 NA
ATOM     40  C   UNL A   1      37.410  33.234  33.102  1.00  0.00     0.031 C 
ATOM     41  C   UNL A   1      37.887  30.637  28.826  1.00  0.00     0.029 A 
ATOM     42  N   UNL A   1      39.339  30.191  30.468  1.00  0.00    -0.354 N 
ATOM     43  C   UNL A   1      39.217  32.352  34.196  1.00  0.00     0.074 A 
ATOM     44  C   UNL A   1      38.155  33.336  34.193  1.00  0.00     0.031 C 
ATOM     45  C   UNL A   1      38.730  29.695  28.374  1.00  0.00     0.029 A 
ATOM     46  C   UNL A   1      39.709  29.394  29.413  1.00  0.00     0.049 A 
ATOM     47  H   UNL A   1      39.812  30.197  31.332  1.00  0.00     0.167 HD
ATOM     48  C   UNL A   1      40.067  32.147  35.230  1.00  0.00     0.037 A 
ATOM     49  C   UNL A   1      40.728  28.521  29.292  1.00  0.00     0.037 A 
ATOM     50  C   UNL A   1      41.109  31.154  35.239  1.00  0.00     0.049 A 
ATOM     51  C   UNL A   1      41.655  28.305  30.454  1.00  0.00     0.074 A 
ATOM     52  C   UNL A   1      41.969  30.813  36.268  1.00  0.00     0.029 A 
ATOM     53  N   UNL A   1      41.441  30.348  34.158  1.00  0.00    -0.354 N 
ATOM     54  N   UNL A   1      41.649  28.878  31.633  1.00  0.00    -0.248 NA
ATOM     55  C   UNL A   1      42.727  27.317  30.271  1.00  0.00     0.031 C 
ATOM     56  C   UNL A   1      42.852  29.837  35.796  1.00  0.00     0.029 A 
ATOM     57  C   UNL A   1      42.511  29.533  34.488  1.00  0.00     0.049 A 
ATOM     58  H   UNL A   1      40.983  30.355  33.287  1.00  0.00     0.167 HD
ATOM     59  C   UNL A   1      42.700  28.310  32.339  1.00  0.00     0.074 A 
ATOM     60  C   UNL A   1      43.314  27.334  31.460  1.00  0.00     0.031 C 
ATOM     61  C   UNL A   1      43.119  28.572  33.601  1.00  0.00     0.037 A 
BRANCH  48  62
ATOM     62  C   UNL A   1      39.902  33.024  36.439  1.00  0.00     0.057 A 
ATOM     63  C   UNL A   1      40.642  34.202  36.607  1.00  0.00     0.134 A 
ATOM     64  C   UNL A   1      38.986  32.690  37.444  1.00  0.00     0.134 A 
ATOM     65  F   UNL A   1      41.546  34.574  35.687  1.00  0.00    -0.206 F 
ATOM     66  C   UNL A   1      40.504  34.996  37.746  1.00  0.00     0.040 A 
ATOM     67  C   UNL A   1      38.817  33.492  38.574  1.00  0.00     0.040 A 
ATOM     68  F   UNL A   1      38.238  31.580  37.345  1.00  0.00    -0.206 F 
ATOM     69  C   UNL A   1      39.584  34.644  38.733  1.00  0.00     0.006 A 
ENDBRANCH  48  62
BRANCH  49  70
ATOM     70  C   UNL A   1      40.903  27.772  28.023  1.00  0.00     0.057 A 
ATOM     71  C   UNL A   1      41.682  28.291  26.983  1.00  0.00     0.134 A 
ATOM     72  C   UNL A   1      40.322  26.514  27.831  1.00  0.00     0.134 A 
ATOM     73  F   UNL A   1      42.249  29.500  27.103  1.00  0.00    -0.206 F 
ATOM     74  C   UNL A   1      41.872  27.588  25.793  1.00  0.00     0.040 A 
ATOM     75  C   UNL A   1      40.522  25.789  26.656  1.00  0.00     0.040 A 
ATOM     76  F   UNL A   1      39.573  25.959  28.796  1.00  0.00    -0.206 F 
ATOM     77  C   UNL A   1      41.296  26.328  25.630  1.00  0.00     0.006 A 
ENDBRANCH  49  70
BRANCH  61  78
ATOM     78  C   UNL A   1      44.288  27.783  34.112  1.00  0.00     0.057 A 
ATOM     79  C   UNL A   1      45.599  28.273  34.041  1.00  0.00     0.134 A 
ATOM     80  C   UNL A   1      44.098  26.534  34.716  1.00  0.00     0.134 A 
ATOM     81  F   UNL A   1      45.851  29.458  33.462  1.00  0.00    -0.206 F 
ATOM     82  C   UNL A   1      46.680  27.540  34.533  1.00  0.00     0.040 A 
ATOM     83  C   UNL A   1      45.168  25.802  35.235  1.00  0.00     0.040 A 
ATOM     84  F   UNL A   1      42.868  26.009  34.823  1.00  0.00    -0.206 F 
ATOM     85  C   UNL A   1      46.464  26.303  35.139  1.00  0.00     0.006 A 
ENDBRANCH  61  78
ENDBRANCH  35  36
ENDBRANCH  27  30
ENDBRANCH  25  26
ENDBRANCH  24  25
ENDBRANCH  23  24
ENDBRANCH   1  23
TORSDOF 15
ENDMDL
MODEL 3
REMARK VINA RESULT:     -11.9      0.740      6.258
REMARK SMILES CCOc1ccc(-c2ccc(=O)n(CC(=O)NCCCCNC(=O)c3ccc(-c4c5nc(c(-c6c(F)cccc6F)c6ccc([nH]6)c(-c6c(F)cccc6F)c6nc(c(-c7c(F)cccc7F)c7ccc4[nH]7)C=C6)C=C5)cc3)n2)cc1
REMARK SMILES IDX 18 1 17 2 15 3 16 4 14 6 13 7 8 8 9 9 79 10 10 11 11 12
REMARK SMILES IDX 12 13 7 14 4 15 5 16 81 17 6 18 80 19 3 20 2 21 1 22 19 23
REMARK SMILES IDX 20 24 21 25 22 26 23 27 24 29 25 30 26 31 78 32 27 33 77 34
REMARK SMILES IDX 28 35 29 36 30 37 71 38 31 39 76 40 70 41 72 42 32 43 75 44
REMARK SMILES IDX 69 45 68 46 33 48 59 49 42 50 58 51 43 52 46 53 57 54 73 55
REMARK SMILES IDX 44 56 45 57 56 59 74 60 47 61 34 62 35 63 40 64 36 65 37 66
REMARK SMILES IDX 39 67 41 68 38 69 60 70 61 71 66 72 62 73 63 74 65 75 67 76
REMARK SMILES IDX 64 77 48 78 49 79 54 80 50 81 51 82 53 83 55 84 52 85
REMARK H PARENT 17 5 22 28 72 47 46 58
REMARK Flexibility Score: inf
ROOT
ATOM      1  C   UNL A   1      33.165  29.988  27.042  1.00  0.00     0.116 C 
ENDROOT
BRANCH   1   2
ATOM      2  N   UNL A   1      33.868  29.629  25.829  1.00  0.00    -0.354 N 
ATOM      3  C   UNL A   1      33.978  28.404  25.230  1.00  0.00     0.241 C 
ATOM      4  O   UNL A   1      34.405  28.387  24.071  1.00  0.00    -0.273 OA
ATOM      5  H   UNL A   1      34.332  30.368  25.372  1.00  0.00     0.163 HD
BRANCH   3   6
ATOM      6  C   UNL A   1      33.422  27.135  25.889  1.00  0.00     0.248 C 
BRANCH   6   7
ATOM      7  N   UNL A   1      32.088  26.774  25.424  1.00  0.00    -0.220 N 
ATOM      8  C   UNL A   1      30.249  27.376  24.204  1.00  0.00     0.091 A 
ATOM      9  C   UNL A   1      29.522  26.146  24.571  1.00  0.00     0.036 A 
ATOM     10  N   UNL A   1      31.452  27.667  24.588  1.00  0.00    -0.169 NA
ATOM     11  C   UNL A   1      30.195  25.257  25.304  1.00  0.00     0.075 A 
ATOM     12  C   UNL A   1      31.575  25.530  25.759  1.00  0.00     0.267 A 
ATOM     13  O   UNL A   1      32.162  24.679  26.418  1.00  0.00    -0.268 OA
BRANCH   8  14
ATOM     14  C   UNL A   1      29.537  28.314  23.310  1.00  0.00     0.002 A 
ATOM     15  C   UNL A   1      28.283  30.130  21.621  1.00  0.00     0.119 A 
ATOM     16  C   UNL A   1      27.515  29.328  22.464  1.00  0.00     0.047 A 
ATOM     17  C   UNL A   1      29.674  30.065  21.655  1.00  0.00     0.047 A 
ATOM     18  C   UNL A   1      28.141  28.407  23.310  1.00  0.00     0.014 A 
ATOM     19  C   UNL A   1      30.305  29.152  22.495  1.00  0.00     0.014 A 
BRANCH  15  20
ATOM     20  O   UNL A   1      27.652  31.067  20.851  1.00  0.00    -0.494 OA
BRANCH  20  21
ATOM     21  C   UNL A   1      28.298  32.347  20.898  1.00  0.00     0.226 C 
ATOM     22  C   UNL A   1      28.295  32.925  22.304  1.00  0.00     0.049 C 
ENDBRANCH  20  21
ENDBRANCH  15  20
ENDBRANCH   8  14
ENDBRANCH   6   7
ENDBRANCH   3   6
ENDBRANCH   1   2
BRANCH   1  23
ATOM     23  C   UNL A   1      31.747  30.485  26.771  1.00  0.00     0.023 C 
BRANCH  23  24
ATOM     24  C   UNL A   1      31.589  32.006  26.752  1.00  0.00     0.023 C 
BRANCH  24  25
ATOM     25  C   UNL A   1      32.828  32.799  27.147  1.00  0.00     0.116 C 
BRANCH  25  26
ATOM     26  N   UNL A   1      32.525  34.138  27.629  1.00  0.00    -0.352 N 
ATOM     27  C   UNL A   1      33.097  34.834  28.667  1.00  0.00     0.251 C 
ATOM     28  H   UNL A   1      31.811  34.611  27.145  1.00  0.00     0.163 HD
ATOM     29  O   UNL A   1      32.632  35.916  29.014  1.00  0.00    -0.269 OA
BRANCH  27  30
ATOM     30  C   UNL A   1      34.251  34.258  29.392  1.00  0.00     0.039 A 
ATOM     31  C   UNL A   1      34.008  33.427  30.488  1.00  0.00     0.014 A 
ATOM     32  C   UNL A   1      35.561  34.516  28.983  1.00  0.00     0.014 A 
ATOM     33  C   UNL A   1      35.076  32.792  31.125  1.00  0.00     0.010 A 
ATOM     34  C   UNL A   1      36.618  33.828  29.572  1.00  0.00     0.010 A 
ATOM     35  C   UNL A   1      36.385  32.953  30.644  1.00  0.00    -0.014 A 
BRANCH  35  36
ATOM     36  C   UNL A   1      37.518  32.194  31.230  1.00  0.00     0.031 A 
ATOM     37  C   UNL A   1      38.057  32.551  32.586  1.00  0.00     0.074 A 
ATOM     38  C   UNL A   1      38.115  31.231  30.501  1.00  0.00     0.049 A 
ATOM     39  N   UNL A   1      39.076  32.041  33.231  1.00  0.00    -0.248 NA
ATOM     40  C   UNL A   1      37.379  33.644  33.298  1.00  0.00     0.031 C 
ATOM     41  C   UNL A   1      37.728  30.833  29.148  1.00  0.00     0.029 A 
ATOM     42  N   UNL A   1      39.187  30.424  30.793  1.00  0.00    -0.354 N 
ATOM     43  C   UNL A   1      39.173  32.762  34.414  1.00  0.00     0.074 A 
ATOM     44  C   UNL A   1      38.140  33.776  34.375  1.00  0.00     0.031 C 
ATOM     45  C   UNL A   1      38.537  29.846  28.732  1.00  0.00     0.029 A 
ATOM     46  C   UNL A   1      39.520  29.566  29.774  1.00  0.00     0.049 A 
ATOM     47  H   UNL A   1      39.670  30.457  31.650  1.00  0.00     0.167 HD
ATOM     48  C   UNL A   1      40.029  32.582  35.447  1.00  0.00     0.037 A 
ATOM     49  C   UNL A   1      40.512  28.660  29.683  1.00  0.00     0.037 A 
ATOM     50  C   UNL A   1      41.042  31.560  35.492  1.00  0.00     0.049 A 
ATOM     51  C   UNL A   1      41.447  28.472  30.844  1.00  0.00     0.074 A 
ATOM     52  C   UNL A   1      41.904  31.244  36.527  1.00  0.00     0.029 A 
ATOM     53  N   UNL A   1      41.337  30.695  34.448  1.00  0.00    -0.354 N 
ATOM     54  N   UNL A   1      41.471  29.100  31.994  1.00  0.00    -0.248 NA
ATOM     55  C   UNL A   1      42.488  27.445  30.697  1.00  0.00     0.031 C 
ATOM     56  C   UNL A   1      42.753  30.221  36.093  1.00  0.00     0.029 A 
ATOM     57  C   UNL A   1      42.388  29.865  34.805  1.00  0.00     0.049 A 
ATOM     58  H   UNL A   1      40.869  30.673  33.583  1.00  0.00     0.167 HD
ATOM     59  C   UNL A   1      42.515  28.536  32.715  1.00  0.00     0.074 A 
ATOM     60  C   UNL A   1      43.089  27.501  31.877  1.00  0.00     0.031 C 
ATOM     61  C   UNL A   1      42.956  28.846  33.958  1.00  0.00     0.037 A 
BRANCH  48  62
ATOM     62  C   UNL A   1      39.904  33.520  36.614  1.00  0.00     0.057 A 
ATOM     63  C   UNL A   1      39.036  33.263  37.684  1.00  0.00     0.134 A 
ATOM     64  C   UNL A   1      40.668  34.693  36.672  1.00  0.00     0.134 A 
ATOM     65  F   UNL A   1      38.268  32.163  37.685  1.00  0.00    -0.206 F 
ATOM     66  C   UNL A   1      38.906  34.153  38.751  1.00  0.00     0.040 A 
ATOM     67  C   UNL A   1      40.568  35.577  37.748  1.00  0.00     0.040 A 
ATOM     68  F   UNL A   1      41.525  34.999  35.685  1.00  0.00    -0.206 F 
ATOM     69  C   UNL A   1      39.678  35.313  38.787  1.00  0.00     0.006 A 
ENDBRANCH  48  62
BRANCH  49  70
ATOM     70  C   UNL A   1      40.650  27.846  28.450  1.00  0.00     0.057 A 
ATOM     71  C   UNL A   1      41.424  28.295  27.374  1.00  0.00     0.134 A 
ATOM     72  C   UNL A   1      40.038  26.593  28.329  1.00  0.00     0.134 A 
ATOM     73  F   UNL A   1      42.020  29.495  27.427  1.00  0.00    -0.206 F 
ATOM     74  C   UNL A   1      41.578  27.530  26.217  1.00  0.00     0.040 A 
ATOM     75  C   UNL A   1      40.202  25.808  27.187  1.00  0.00     0.040 A 
ATOM     76  F   UNL A   1      39.291  26.104  29.330  1.00  0.00    -0.206 F 
ATOM     77  C   UNL A   1      40.972  26.279  26.125  1.00  0.00     0.006 A 
ENDBRANCH  49  70
BRANCH  61  78
ATOM     78  C   UNL A   1      44.109  28.047  34.494  1.00  0.00     0.057 A 
ATOM     79  C   UNL A   1      45.436  28.470  34.340  1.00  0.00     0.134 A 
ATOM     80  C   UNL A   1      43.887  26.861  35.205  1.00  0.00     0.134 A 
ATOM     81  F   UNL A   1      45.717  29.591  33.658  1.00  0.00    -0.206 F 
ATOM     82  C   UNL A   1      46.501  27.730  34.855  1.00  0.00     0.040 A 
ATOM     83  C   UNL A   1      44.942  26.126  35.747  1.00  0.00     0.040 A 
ATOM     84  F   UNL A   1      42.640  26.404  35.395  1.00  0.00    -0.206 F 
ATOM     85  C   UNL A   1      46.254  26.558  35.568  1.00  0.00     0.006 A 
ENDBRANCH  61  78
ENDBRANCH  35  36
ENDBRANCH  27  30
ENDBRANCH  25  26
ENDBRANCH  24  25
ENDBRANCH  23  24
ENDBRANCH   1  23
TORSDOF 15
ENDMDL
