MODEL 1
REMARK VINA RESULT:     -13.5      0.000      0.000
REMARK SMILES Cc1ccc([C@H]2NC(=O)N(C)C3=C2C(=O)N(c2cccc(C(=O)NCCCCNC(=O)c4ccc(-c5c6nc(c(-c7c(F)cccc7F)c7ccc([nH]7)c(-c7c(F)cccc7F)c7nc(c(-c8c(F)cccc8F)c8ccc5[nH]8)C=C7)C=C6)cc4)c2)C3)cc1
REMARK SMILES IDX 26 1 25 2 24 3 22 4 23 5 21 7 17 8 18 9 86 10 19 11 20 12
REMARK SMILES IDX 16 13 6 14 7 15 13 16 8 17 12 19 14 20 9 21 10 22 87 23
REMARK SMILES IDX 15 24 11 25 5 26 1 27 2 28 3 29 89 30 4 31 88 32 27 33 28 34
REMARK SMILES IDX 29 35 30 36 31 38 32 39 33 40 85 41 34 42 84 43 35 44 36 45
REMARK SMILES IDX 37 46 78 47 38 48 83 49 77 50 79 51 39 52 82 53 76 54 75 55
REMARK SMILES IDX 40 57 66 58 49 59 65 60 50 61 53 62 64 63 80 64 51 65 52 66
REMARK SMILES IDX 63 68 81 69 54 70 41 71 42 72 47 73 43 74 44 75 46 76 48 77
REMARK SMILES IDX 45 78 67 79 68 80 73 81 69 82 70 83 72 84 74 85 71 86 55 87
REMARK SMILES IDX 56 88 61 89 57 90 58 91 60 92 62 93 59 94
REMARK H PARENT 24 6 7 18 29 37 79 56 53 67
REMARK Flexibility Score: inf
ROOT
ATOM      1  C   UNL A   1      34.189  33.999  27.776  1.00  0.00     0.023 C 
ENDROOT
BRANCH   1   2
ATOM      2  C   UNL A   1      33.590  32.679  28.267  1.00  0.00     0.116 C 
BRANCH   2   3
ATOM      3  N   UNL A   1      34.512  31.559  28.169  1.00  0.00    -0.352 N 
ATOM      4  C   UNL A   1      34.464  30.302  27.618  1.00  0.00     0.251 C 
ATOM      5  O   UNL A   1      35.449  29.585  27.820  1.00  0.00    -0.269 OA
ATOM      6  H   UNL A   1      35.377  31.746  28.600  1.00  0.00     0.163 HD
BRANCH   4   7
ATOM      7  C   UNL A   1      33.332  29.741  26.817  1.00  0.00     0.041 A 
ATOM      8  C   UNL A   1      32.328  27.732  25.845  1.00  0.00     0.045 A 
ATOM      9  C   UNL A   1      31.392  28.528  25.182  1.00  0.00     0.026 A 
ATOM     10  C   UNL A   1      33.260  28.334  26.702  1.00  0.00     0.040 A 
ATOM     11  C   UNL A   1      31.426  29.907  25.314  1.00  0.00     0.003 A 
ATOM     12  C   UNL A   1      32.424  30.504  26.079  1.00  0.00     0.014 A 
BRANCH   8  13
ATOM     13  N   UNL A   1      32.371  26.358  25.552  1.00  0.00    -0.303 N 
ATOM     14  C   UNL A   1      33.901  23.341  24.054  1.00  0.00     0.152 C 
ATOM     15  N   UNL A   1      33.190  22.071  24.140  1.00  0.00    -0.327 N 
ATOM     16  C   UNL A   1      33.051  24.366  24.674  1.00  0.00     0.066 C 
ATOM     17  C   UNL A   1      32.143  21.773  24.968  1.00  0.00     0.322 C 
ATOM     18  H   UNL A   1      33.495  21.353  23.539  1.00  0.00     0.166 HD
ATOM     19  C   UNL A   1      32.044  24.123  25.511  1.00  0.00     0.053 C 
ATOM     20  C   UNL A   1      33.225  25.807  24.600  1.00  0.00     0.258 C 
ATOM     21  O   UNL A   1      31.724  20.619  25.008  1.00  0.00    -0.248 OA
ATOM     22  N   UNL A   1      31.594  22.834  25.692  1.00  0.00    -0.299 N 
ATOM     23  C   UNL A   1      31.568  25.355  26.208  1.00  0.00     0.180 C 
ATOM     24  O   UNL A   1      34.027  26.353  23.855  1.00  0.00    -0.269 OA
ATOM     25  C   UNL A   1      30.466  22.576  26.571  1.00  0.00     0.155 C 
BRANCH  14  26
ATOM     26  C   UNL A   1      35.290  23.209  24.686  1.00  0.00    -0.021 A 
ATOM     27  C   UNL A   1      39.275  22.805  26.356  1.00  0.00     0.044 C 
ATOM     28  C   UNL A   1      37.896  22.942  25.784  1.00  0.00    -0.051 A 
ATOM     29  C   UNL A   1      37.442  22.059  24.798  1.00  0.00     0.004 A 
ATOM     30  C   UNL A   1      37.040  23.947  26.230  1.00  0.00     0.004 A 
ATOM     31  C   UNL A   1      36.159  22.194  24.251  1.00  0.00     0.006 A 
ATOM     32  C   UNL A   1      35.755  24.072  25.696  1.00  0.00     0.006 A 
ENDBRANCH  14  26
ENDBRANCH   8  13
ENDBRANCH   4   7
ENDBRANCH   2   3
ENDBRANCH   1   2
BRANCH   1  33
ATOM     33  C   UNL A   1      33.815  35.224  28.607  1.00  0.00     0.023 C 
BRANCH  33  34
ATOM     34  C   UNL A   1      33.286  34.911  29.998  1.00  0.00     0.116 C 
BRANCH  34  35
ATOM     35  N   UNL A   1      34.115  35.334  31.119  1.00  0.00    -0.352 N 
ATOM     36  C   UNL A   1      35.192  34.693  31.715  1.00  0.00     0.251 C 
ATOM     37  H   UNL A   1      33.874  36.203  31.513  1.00  0.00     0.163 HD
ATOM     38  O   UNL A   1      35.698  35.187  32.721  1.00  0.00    -0.269 OA
BRANCH  36  39
ATOM     39  C   UNL A   1      35.859  33.535  31.056  1.00  0.00     0.039 A 
ATOM     40  C   UNL A   1      35.827  32.304  31.730  1.00  0.00     0.014 A 
ATOM     41  C   UNL A   1      36.787  33.734  30.047  1.00  0.00     0.014 A 
ATOM     42  C   UNL A   1      36.933  31.467  31.659  1.00  0.00     0.010 A 
ATOM     43  C   UNL A   1      37.954  33.022  30.105  1.00  0.00     0.010 A 
ATOM     44  C   UNL A   1      38.039  31.929  30.960  1.00  0.00    -0.014 A 
BRANCH  44  45
ATOM     45  C   UNL A   1      39.340  31.304  30.968  1.00  0.00     0.031 A 
ATOM     46  C   UNL A   1      39.489  30.102  30.144  1.00  0.00     0.074 A 
ATOM     47  C   UNL A   1      40.360  31.939  31.583  1.00  0.00     0.049 A 
ATOM     48  N   UNL A   1      40.305  29.148  30.400  1.00  0.00    -0.248 NA
ATOM     49  C   UNL A   1      38.664  29.854  28.962  1.00  0.00     0.031 C 
ATOM     50  C   UNL A   1      41.786  31.650  31.516  1.00  0.00     0.029 A 
ATOM     51  N   UNL A   1      40.257  32.924  32.575  1.00  0.00    -0.354 N 
ATOM     52  C   UNL A   1      40.358  28.355  29.274  1.00  0.00     0.074 A 
ATOM     53  C   UNL A   1      39.235  28.753  28.466  1.00  0.00     0.031 C 
ATOM     54  C   UNL A   1      42.383  32.171  32.605  1.00  0.00     0.029 A 
ATOM     55  C   UNL A   1      41.333  32.702  33.460  1.00  0.00     0.049 A 
ATOM     56  H   UNL A   1      39.573  33.629  32.639  1.00  0.00     0.167 HD
ATOM     57  C   UNL A   1      41.466  27.588  29.079  1.00  0.00     0.037 A 
ATOM     58  C   UNL A   1      41.080  32.292  34.739  1.00  0.00     0.037 A 
ATOM     59  C   UNL A   1      42.400  27.794  30.183  1.00  0.00     0.049 A 
ATOM     60  C   UNL A   1      41.573  30.886  34.991  1.00  0.00     0.074 A 
ATOM     61  C   UNL A   1      43.480  28.652  30.325  1.00  0.00     0.029 A 
ATOM     62  N   UNL A   1      42.034  27.406  31.466  1.00  0.00    -0.354 N 
ATOM     63  N   UNL A   1      41.748  29.995  34.052  1.00  0.00    -0.248 NA
ATOM     64  C   UNL A   1      41.974  30.397  36.306  1.00  0.00     0.031 C 
ATOM     65  C   UNL A   1      43.729  28.816  31.712  1.00  0.00     0.029 A 
ATOM     66  C   UNL A   1      42.814  28.047  32.410  1.00  0.00     0.049 A 
ATOM     67  H   UNL A   1      41.318  26.763  31.674  1.00  0.00     0.167 HD
ATOM     68  C   UNL A   1      42.301  28.860  34.591  1.00  0.00     0.074 A 
ATOM     69  C   UNL A   1      42.424  29.166  36.004  1.00  0.00     0.031 C 
ATOM     70  C   UNL A   1      42.638  27.773  33.829  1.00  0.00     0.037 A 
BRANCH  57  71
ATOM     71  C   UNL A   1      41.839  26.941  27.769  1.00  0.00     0.057 A 
ATOM     72  C   UNL A   1      41.919  25.538  27.662  1.00  0.00     0.134 A 
ATOM     73  C   UNL A   1      42.144  27.631  26.582  1.00  0.00     0.134 A 
ATOM     74  F   UNL A   1      41.590  24.732  28.679  1.00  0.00    -0.206 F 
ATOM     75  C   UNL A   1      42.343  24.881  26.500  1.00  0.00     0.040 A 
ATOM     76  C   UNL A   1      42.610  26.989  25.424  1.00  0.00     0.040 A 
ATOM     77  F   UNL A   1      41.957  28.952  26.470  1.00  0.00    -0.206 F 
ATOM     78  C   UNL A   1      42.716  25.607  25.381  1.00  0.00     0.006 A 
ENDBRANCH  57  71
BRANCH  58  79
ATOM     79  C   UNL A   1      39.843  32.929  35.285  1.00  0.00     0.057 A 
ATOM     80  C   UNL A   1      38.701  32.108  35.395  1.00  0.00     0.134 A 
ATOM     81  C   UNL A   1      39.907  34.036  36.136  1.00  0.00     0.134 A 
ATOM     82  F   UNL A   1      38.555  31.048  34.583  1.00  0.00    -0.206 F 
ATOM     83  C   UNL A   1      37.778  32.259  36.433  1.00  0.00     0.040 A 
ATOM     84  C   UNL A   1      38.968  34.210  37.164  1.00  0.00     0.040 A 
ATOM     85  F   UNL A   1      40.951  34.876  36.090  1.00  0.00    -0.206 F 
ATOM     86  C   UNL A   1      37.943  33.284  37.357  1.00  0.00     0.006 A 
ENDBRANCH  58  79
BRANCH  70  87
ATOM     87  C   UNL A   1      42.944  26.373  34.326  1.00  0.00     0.057 A 
ATOM     88  C   UNL A   1      42.029  25.547  34.992  1.00  0.00     0.134 A 
ATOM     89  C   UNL A   1      44.173  25.741  34.000  1.00  0.00     0.134 A 
ATOM     90  F   UNL A   1      40.779  25.943  35.256  1.00  0.00    -0.206 F 
ATOM     91  C   UNL A   1      42.334  24.231  35.368  1.00  0.00     0.040 A 
ATOM     92  C   UNL A   1      44.455  24.405  34.298  1.00  0.00     0.040 A 
ATOM     93  F   UNL A   1      45.157  26.375  33.347  1.00  0.00    -0.206 F 
ATOM     94  C   UNL A   1      43.542  23.649  35.008  1.00  0.00     0.006 A 
ENDBRANCH  70  87
ENDBRANCH  44  45
ENDBRANCH  36  39
ENDBRANCH  34  35
ENDBRANCH  33  34
ENDBRANCH   1  33
TORSDOF 13
ENDMDL
MODEL 2
REMARK VINA RESULT:     -12.7      3.960      9.117
REMARK SMILES Cc1ccc([C@H]2NC(=O)N(C)C3=C2C(=O)N(c2cccc(C(=O)NCCCCNC(=O)c4ccc(-c5c6nc(c(-c7c(F)cccc7F)c7ccc([nH]7)c(-c7c(F)cccc7F)c7nc(c(-c8c(F)cccc8F)c8ccc5[nH]8)C=C7)C=C6)cc4)c2)C3)cc1
REMARK SMILES IDX 26 1 25 2 24 3 22 4 23 5 21 7 17 8 18 9 86 10 19 11 20 12
REMARK SMILES IDX 16 13 6 14 7 15 13 16 8 17 12 19 14 20 9 21 10 22 87 23
REMARK SMILES IDX 15 24 11 25 5 26 1 27 2 28 3 29 89 30 4 31 88 32 27 33 28 34
REMARK SMILES IDX 29 35 30 36 31 38 32 39 33 40 85 41 34 42 84 43 35 44 36 45
REMARK SMILES IDX 37 46 78 47 38 48 83 49 77 50 79 51 39 52 82 53 76 54 75 55
REMARK SMILES IDX 40 57 66 58 49 59 65 60 50 61 53 62 64 63 80 64 51 65 52 66
REMARK SMILES IDX 63 68 81 69 54 70 41 71 42 72 47 73 43 74 44 75 46 76 48 77
REMARK SMILES IDX 45 78 67 79 68 80 73 81 69 82 70 83 72 84 74 85 71 86 55 87
REMARK SMILES IDX 56 88 61 89 57 90 58 91 60 92 62 93 59 94
REMARK H PARENT 24 6 7 18 29 37 79 56 53 67
REMARK Flexibility Score: inf
ROOT
ATOM      1  C   UNL A   1      44.406  27.237  30.224  1.00  0.00     0.023 C 
ENDROOT
BRANCH   1   2
ATOM      2  C   UNL A   1      45.594  26.282  30.355  1.00  0.00     0.116 C 
BRANCH   2   3
ATOM      3  N   UNL A   1      46.648  26.541  29.388  1.00  0.00    -0.352 N 
ATOM      4  C   UNL A   1      46.758  26.467  28.021  1.00  0.00     0.251 C 
ATOM      5  O   UNL A   1      47.877  26.694  27.554  1.00  0.00    -0.269 OA
ATOM      6  H   UNL A   1      47.483  26.842  29.814  1.00  0.00     0.163 HD
BRANCH   4   7
ATOM      7  C   UNL A   1      45.650  26.133  27.072  1.00  0.00     0.041 A 
ATOM      8  C   UNL A   1      44.090  24.416  26.292  1.00  0.00     0.045 A 
ATOM      9  C   UNL A   1      43.693  25.258  25.252  1.00  0.00     0.026 A 
ATOM     10  C   UNL A   1      45.026  24.874  27.229  1.00  0.00     0.040 A 
ATOM     11  C   UNL A   1      44.268  26.510  25.105  1.00  0.00     0.003 A 
ATOM     12  C   UNL A   1      45.277  26.914  25.976  1.00  0.00     0.014 A 
BRANCH   8  13
ATOM     13  N   UNL A   1      43.614  23.093  26.306  1.00  0.00    -0.303 N 
ATOM     14  C   UNL A   1      41.098  20.491  27.072  1.00  0.00     0.152 C 
ATOM     15  N   UNL A   1      41.415  19.096  26.792  1.00  0.00    -0.327 N 
ATOM     16  C   UNL A   1      42.280  21.292  26.727  1.00  0.00     0.066 C 
ATOM     17  C   UNL A   1      42.429  18.631  25.998  1.00  0.00     0.322 C 
ATOM     18  H   UNL A   1      40.842  18.418  27.217  1.00  0.00     0.166 HD
ATOM     19  C   UNL A   1      43.272  20.892  25.934  1.00  0.00     0.053 C 
ATOM     20  C   UNL A   1      42.523  22.684  27.069  1.00  0.00     0.258 C 
ATOM     21  O   UNL A   1      42.497  17.427  25.764  1.00  0.00    -0.248 OA
ATOM     22  N   UNL A   1      43.349  19.575  25.537  1.00  0.00    -0.299 N 
ATOM     23  C   UNL A   1      44.169  22.014  25.526  1.00  0.00     0.180 C 
ATOM     24  O   UNL A   1      41.825  23.320  27.847  1.00  0.00    -0.269 OA
ATOM     25  C   UNL A   1      44.456  19.130  24.708  1.00  0.00     0.155 C 
BRANCH  14  26
ATOM     26  C   UNL A   1      39.823  20.899  26.329  1.00  0.00    -0.021 A 
ATOM     27  C   UNL A   1      36.155  21.938  24.255  1.00  0.00     0.044 C 
ATOM     28  C   UNL A   1      37.425  21.581  24.967  1.00  0.00    -0.051 A 
ATOM     29  C   UNL A   1      37.938  20.282  24.903  1.00  0.00     0.004 A 
ATOM     30  C   UNL A   1      38.120  22.542  25.700  1.00  0.00     0.004 A 
ATOM     31  C   UNL A   1      39.118  19.943  25.580  1.00  0.00     0.006 A 
ATOM     32  C   UNL A   1      39.304  22.208  26.362  1.00  0.00     0.006 A 
ENDBRANCH  14  26
ENDBRANCH   8  13
ENDBRANCH   4   7
ENDBRANCH   2   3
ENDBRANCH   1   2
BRANCH   1  33
ATOM     33  C   UNL A   1      43.088  26.574  29.830  1.00  0.00     0.023 C 
BRANCH  33  34
ATOM     34  C   UNL A   1      42.468  27.105  28.547  1.00  0.00     0.116 C 
BRANCH  34  35
ATOM     35  N   UNL A   1      41.443  26.276  27.928  1.00  0.00    -0.352 N 
ATOM     36  C   UNL A   1      40.063  26.426  27.928  1.00  0.00     0.251 C 
ATOM     37  H   UNL A   1      41.779  25.492  27.437  1.00  0.00     0.163 HD
ATOM     38  O   UNL A   1      39.367  25.551  27.416  1.00  0.00    -0.269 OA
BRANCH  36  39
ATOM     39  C   UNL A   1      39.428  27.704  28.361  1.00  0.00     0.039 A 
ATOM     40  C   UNL A   1      39.705  28.849  27.598  1.00  0.00     0.014 A 
ATOM     41  C   UNL A   1      38.924  27.845  29.643  1.00  0.00     0.014 A 
ATOM     42  C   UNL A   1      39.841  30.072  28.243  1.00  0.00     0.010 A 
ATOM     43  C   UNL A   1      39.229  28.990  30.325  1.00  0.00     0.010 A 
ATOM     44  C   UNL A   1      39.746  30.077  29.628  1.00  0.00    -0.014 A 
BRANCH  44  45
ATOM     45  C   UNL A   1      40.079  31.198  30.473  1.00  0.00     0.031 A 
ATOM     46  C   UNL A   1      41.173  30.991  31.427  1.00  0.00     0.074 A 
ATOM     47  C   UNL A   1      39.495  32.390  30.229  1.00  0.00     0.049 A 
ATOM     48  N   UNL A   1      41.271  31.593  32.553  1.00  0.00    -0.248 NA
ATOM     49  C   UNL A   1      42.243  30.021  31.195  1.00  0.00     0.031 C 
ATOM     50  C   UNL A   1      39.841  33.701  30.761  1.00  0.00     0.029 A 
ATOM     51  N   UNL A   1      38.298  32.608  29.534  1.00  0.00    -0.354 N 
ATOM     52  C   UNL A   1      42.545  31.357  33.022  1.00  0.00     0.074 A 
ATOM     53  C   UNL A   1      43.060  30.278  32.219  1.00  0.00     0.031 C 
ATOM     54  C   UNL A   1      38.763  34.503  30.666  1.00  0.00     0.029 A 
ATOM     55  C   UNL A   1      37.660  33.688  30.181  1.00  0.00     0.049 A 
ATOM     56  H   UNL A   1      37.969  32.110  28.751  1.00  0.00     0.167 HD
ATOM     57  C   UNL A   1      43.078  32.239  33.912  1.00  0.00     0.037 A 
ATOM     58  C   UNL A   1      36.488  33.475  30.851  1.00  0.00     0.037 A 
ATOM     59  C   UNL A   1      42.109  33.299  34.184  1.00  0.00     0.049 A 
ATOM     60  C   UNL A   1      36.647  33.661  32.343  1.00  0.00     0.074 A 
ATOM     61  C   UNL A   1      41.936  34.553  33.618  1.00  0.00     0.029 A 
ATOM     62  N   UNL A   1      40.911  32.982  34.812  1.00  0.00    -0.354 N 
ATOM     63  N   UNL A   1      37.782  33.539  32.976  1.00  0.00    -0.248 NA
ATOM     64  C   UNL A   1      35.556  34.068  33.223  1.00  0.00     0.031 C 
ATOM     65  C   UNL A   1      40.603  34.966  33.869  1.00  0.00     0.029 A 
ATOM     66  C   UNL A   1      39.973  33.974  34.600  1.00  0.00     0.049 A 
ATOM     67  H   UNL A   1      40.753  32.163  35.336  1.00  0.00     0.167 HD
ATOM     68  C   UNL A   1      37.611  33.873  34.297  1.00  0.00     0.074 A 
ATOM     69  C   UNL A   1      36.200  34.198  34.397  1.00  0.00     0.031 C 
ATOM     70  C   UNL A   1      38.647  33.880  35.193  1.00  0.00     0.037 A 
BRANCH  57  71
ATOM     71  C   UNL A   1      44.543  32.327  34.258  1.00  0.00     0.057 A 
ATOM     72  C   UNL A   1      45.103  31.465  35.222  1.00  0.00     0.134 A 
ATOM     73  C   UNL A   1      45.454  33.240  33.696  1.00  0.00     0.134 A 
ATOM     74  F   UNL A   1      44.388  30.491  35.799  1.00  0.00    -0.206 F 
ATOM     75  C   UNL A   1      46.434  31.555  35.648  1.00  0.00     0.040 A 
ATOM     76  C   UNL A   1      46.778  33.368  34.143  1.00  0.00     0.040 A 
ATOM     77  F   UNL A   1      45.122  34.013  32.654  1.00  0.00    -0.206 F 
ATOM     78  C   UNL A   1      47.273  32.526  35.128  1.00  0.00     0.006 A 
ENDBRANCH  57  71
BRANCH  58  79
ATOM     79  C   UNL A   1      35.630  32.472  30.150  1.00  0.00     0.057 A 
ATOM     80  C   UNL A   1      34.915  32.925  29.022  1.00  0.00     0.134 A 
ATOM     81  C   UNL A   1      35.910  31.104  30.210  1.00  0.00     0.134 A 
ATOM     82  F   UNL A   1      34.580  34.222  28.916  1.00  0.00    -0.206 F 
ATOM     83  C   UNL A   1      34.676  32.103  27.917  1.00  0.00     0.040 A 
ATOM     84  C   UNL A   1      35.647  30.266  29.116  1.00  0.00     0.040 A 
ATOM     85  F   UNL A   1      36.574  30.586  31.253  1.00  0.00    -0.206 F 
ATOM     86  C   UNL A   1      35.094  30.778  27.943  1.00  0.00     0.006 A 
ENDBRANCH  58  79
BRANCH  70  87
ATOM     87  C   UNL A   1      38.539  33.911  36.707  1.00  0.00     0.057 A 
ATOM     88  C   UNL A   1      38.083  32.846  37.494  1.00  0.00     0.134 A 
ATOM     89  C   UNL A   1      39.057  35.006  37.447  1.00  0.00     0.134 A 
ATOM     90  F   UNL A   1      37.687  31.687  36.957  1.00  0.00    -0.206 F 
ATOM     91  C   UNL A   1      38.071  32.893  38.895  1.00  0.00     0.040 A 
ATOM     92  C   UNL A   1      39.124  35.029  38.842  1.00  0.00     0.040 A 
ATOM     93  F   UNL A   1      39.553  36.103  36.857  1.00  0.00    -0.206 F 
ATOM     94  C   UNL A   1      38.607  33.978  39.575  1.00  0.00     0.006 A 
ENDBRANCH  70  87
ENDBRANCH  44  45
ENDBRANCH  36  39
ENDBRANCH  34  35
ENDBRANCH  33  34
ENDBRANCH   1  33
TORSDOF 13
ENDMDL
MODEL 3
REMARK VINA RESULT:     -12.3      3.562      9.188
REMARK SMILES Cc1ccc([C@H]2NC(=O)N(C)C3=C2C(=O)N(c2cccc(C(=O)NCCCCNC(=O)c4ccc(-c5c6nc(c(-c7c(F)cccc7F)c7ccc([nH]7)c(-c7c(F)cccc7F)c7nc(c(-c8c(F)cccc8F)c8ccc5[nH]8)C=C7)C=C6)cc4)c2)C3)cc1
REMARK SMILES IDX 26 1 25 2 24 3 22 4 23 5 21 7 17 8 18 9 86 10 19 11 20 12
REMARK SMILES IDX 16 13 6 14 7 15 13 16 8 17 12 19 14 20 9 21 10 22 87 23
REMARK SMILES IDX 15 24 11 25 5 26 1 27 2 28 3 29 89 30 4 31 88 32 27 33 28 34
REMARK SMILES IDX 29 35 30 36 31 38 32 39 33 40 85 41 34 42 84 43 35 44 36 45
REMARK SMILES IDX 37 46 78 47 38 48 83 49 77 50 79 51 39 52 82 53 76 54 75 55
REMARK SMILES IDX 40 57 66 58 49 59 65 60 50 61 53 62 64 63 80 64 51 65 52 66
REMARK SMILES IDX 63 68 81 69 54 70 41 71 42 72 47 73 43 74 44 75 46 76 48 77
REMARK SMILES IDX 45 78 67 79 68 80 73 81 69 82 70 83 72 84 74 85 71 86 55 87
REMARK SMILES IDX 56 88 61 89 57 90 58 91 60 92 62 93 59 94
REMARK H PARENT 24 6 7 18 29 37 79 56 53 67
REMARK Flexibility Score: inf
ROOT
ATOM      1  C   UNL A   1      38.721  24.155  26.801  1.00  0.00     0.023 C 
ENDROOT
BRANCH   1   2
ATOM      2  C   UNL A   1      37.568  23.491  26.047  1.00  0.00     0.116 C 
BRANCH   2   3
ATOM      3  N   UNL A   1      37.938  22.229  25.426  1.00  0.00    -0.352 N 
ATOM      4  C   UNL A   1      37.251  21.156  24.914  1.00  0.00     0.251 C 
ATOM      5  O   UNL A   1      37.939  20.203  24.537  1.00  0.00    -0.269 OA
ATOM      6  H   UNL A   1      38.913  22.118  25.355  1.00  0.00     0.163 HD
BRANCH   4   7
ATOM      7  C   UNL A   1      35.764  21.049  24.787  1.00  0.00     0.041 A 
ATOM      8  C   UNL A   1      33.676  22.225  24.288  1.00  0.00     0.045 A 
ATOM      9  C   UNL A   1      32.955  21.095  24.677  1.00  0.00     0.026 A 
ATOM     10  C   UNL A   1      35.077  22.181  24.292  1.00  0.00     0.040 A 
ATOM     11  C   UNL A   1      33.613  19.963  25.129  1.00  0.00     0.003 A 
ATOM     12  C   UNL A   1      35.002  19.968  25.235  1.00  0.00     0.014 A 
BRANCH   8  13
ATOM     13  N   UNL A   1      32.973  23.407  24.002  1.00  0.00    -0.303 N 
ATOM     14  C   UNL A   1      31.214  26.523  24.946  1.00  0.00     0.152 C 
ATOM     15  N   UNL A   1      30.597  27.331  23.901  1.00  0.00    -0.327 N 
ATOM     16  C   UNL A   1      31.787  25.332  24.304  1.00  0.00     0.066 C 
ATOM     17  C   UNL A   1      30.831  27.246  22.555  1.00  0.00     0.322 C 
ATOM     18  H   UNL A   1      29.946  28.009  24.194  1.00  0.00     0.166 HD
ATOM     19  C   UNL A   1      32.060  25.218  23.005  1.00  0.00     0.053 C 
ATOM     20  C   UNL A   1      32.275  24.132  24.964  1.00  0.00     0.258 C 
ATOM     21  O   UNL A   1      30.321  28.077  21.808  1.00  0.00    -0.248 OA
ATOM     22  N   UNL A   1      31.616  26.176  22.121  1.00  0.00    -0.299 N 
ATOM     23  C   UNL A   1      32.907  24.027  22.700  1.00  0.00     0.180 C 
ATOM     24  O   UNL A   1      32.108  23.901  26.154  1.00  0.00    -0.269 OA
ATOM     25  C   UNL A   1      31.876  26.027  20.699  1.00  0.00     0.155 C 
BRANCH  14  26
ATOM     26  C   UNL A   1      32.226  27.363  25.730  1.00  0.00    -0.021 A 
ATOM     27  C   UNL A   1      35.041  29.697  28.068  1.00  0.00     0.044 C 
ATOM     28  C   UNL A   1      34.068  28.895  27.256  1.00  0.00    -0.051 A 
ATOM     29  C   UNL A   1      32.732  28.779  27.655  1.00  0.00     0.004 A 
ATOM     30  C   UNL A   1      34.477  28.257  26.087  1.00  0.00     0.004 A 
ATOM     31  C   UNL A   1      31.825  28.018  26.906  1.00  0.00     0.006 A 
ATOM     32  C   UNL A   1      33.569  27.511  25.332  1.00  0.00     0.006 A 
ENDBRANCH  14  26
ENDBRANCH   8  13
ENDBRANCH   4   7
ENDBRANCH   2   3
ENDBRANCH   1   2
BRANCH   1  33
ATOM     33  C   UNL A   1      39.916  23.247  27.079  1.00  0.00     0.023 C 
BRANCH  33  34
ATOM     34  C   UNL A   1      41.089  23.431  26.129  1.00  0.00     0.116 C 
BRANCH  34  35
ATOM     35  N   UNL A   1      42.381  23.721  26.738  1.00  0.00    -0.352 N 
ATOM     36  C   UNL A   1      42.844  24.896  27.316  1.00  0.00     0.251 C 
ATOM     37  H   UNL A   1      43.020  22.973  26.739  1.00  0.00     0.163 HD
ATOM     38  O   UNL A   1      44.013  24.955  27.692  1.00  0.00    -0.269 OA
BRANCH  36  39
ATOM     39  C   UNL A   1      41.909  26.005  27.659  1.00  0.00     0.039 A 
ATOM     40  C   UNL A   1      41.919  27.135  26.826  1.00  0.00     0.014 A 
ATOM     41  C   UNL A   1      41.356  26.097  28.925  1.00  0.00     0.014 A 
ATOM     42  C   UNL A   1      41.740  28.390  27.392  1.00  0.00     0.010 A 
ATOM     43  C   UNL A   1      41.359  27.321  29.535  1.00  0.00     0.010 A 
ATOM     44  C   UNL A   1      41.614  28.457  28.773  1.00  0.00    -0.014 A 
BRANCH  44  45
ATOM     45  C   UNL A   1      41.646  29.674  29.546  1.00  0.00     0.031 A 
ATOM     46  C   UNL A   1      40.390  30.423  29.632  1.00  0.00     0.074 A 
ATOM     47  C   UNL A   1      42.754  29.957  30.264  1.00  0.00     0.049 A 
ATOM     48  N   UNL A   1      40.316  31.693  29.781  1.00  0.00    -0.248 NA
ATOM     49  C   UNL A   1      39.083  29.781  29.499  1.00  0.00     0.031 C 
ATOM     50  C   UNL A   1      42.937  30.967  31.298  1.00  0.00     0.029 A 
ATOM     51  N   UNL A   1      44.043  29.452  30.048  1.00  0.00    -0.354 N 
ATOM     52  C   UNL A   1      39.006  31.983  30.098  1.00  0.00     0.074 A 
ATOM     53  C   UNL A   1      38.259  30.792  29.784  1.00  0.00     0.031 C 
ATOM     54  C   UNL A   1      44.251  31.242  31.404  1.00  0.00     0.029 A 
ATOM     55  C   UNL A   1      44.933  30.504  30.352  1.00  0.00     0.049 A 
ATOM     56  H   UNL A   1      44.280  28.545  29.746  1.00  0.00     0.167 HD
ATOM     57  C   UNL A   1      38.747  33.137  30.772  1.00  0.00     0.037 A 
ATOM     58  C   UNL A   1      45.677  31.068  29.354  1.00  0.00     0.037 A 
ATOM     59  C   UNL A   1      39.999  33.850  31.014  1.00  0.00     0.049 A 
ATOM     60  C   UNL A   1      45.273  32.499  29.085  1.00  0.00     0.074 A 
ATOM     61  C   UNL A   1      40.860  33.851  32.101  1.00  0.00     0.029 A 
ATOM     62  N   UNL A   1      40.728  34.333  29.934  1.00  0.00    -0.354 N 
ATOM     63  N   UNL A   1      44.095  32.990  29.366  1.00  0.00    -0.248 NA
ATOM     64  C   UNL A   1      46.184  33.505  28.547  1.00  0.00     0.031 C 
ATOM     65  C   UNL A   1      42.131  34.293  31.653  1.00  0.00     0.029 A 
ATOM     66  C   UNL A   1      42.038  34.576  30.301  1.00  0.00     0.049 A 
ATOM     67  H   UNL A   1      40.361  34.482  29.033  1.00  0.00     0.167 HD
ATOM     68  C   UNL A   1      44.082  34.337  29.099  1.00  0.00     0.074 A 
ATOM     69  C   UNL A   1      45.414  34.607  28.592  1.00  0.00     0.031 C 
ATOM     70  C   UNL A   1      42.987  35.123  29.342  1.00  0.00     0.037 A 
BRANCH  57  71
ATOM     71  C   UNL A   1      37.453  33.439  31.485  1.00  0.00     0.057 A 
ATOM     72  C   UNL A   1      36.324  33.876  30.763  1.00  0.00     0.134 A 
ATOM     73  C   UNL A   1      37.251  33.339  32.873  1.00  0.00     0.134 A 
ATOM     74  F   UNL A   1      36.328  33.956  29.426  1.00  0.00    -0.206 F 
ATOM     75  C   UNL A   1      35.123  34.255  31.375  1.00  0.00     0.040 A 
ATOM     76  C   UNL A   1      36.067  33.754  33.503  1.00  0.00     0.040 A 
ATOM     77  F   UNL A   1      38.166  32.786  33.678  1.00  0.00    -0.206 F 
ATOM     78  C   UNL A   1      34.998  34.220  32.754  1.00  0.00     0.006 A 
ENDBRANCH  57  71
BRANCH  58  79
ATOM     79  C   UNL A   1      46.114  30.047  28.353  1.00  0.00     0.057 A 
ATOM     80  C   UNL A   1      47.118  29.144  28.763  1.00  0.00     0.134 A 
ATOM     81  C   UNL A   1      45.266  29.622  27.327  1.00  0.00     0.134 A 
ATOM     82  F   UNL A   1      47.991  29.501  29.719  1.00  0.00    -0.206 F 
ATOM     83  C   UNL A   1      47.144  27.818  28.325  1.00  0.00     0.040 A 
ATOM     84  C   UNL A   1      45.305  28.299  26.861  1.00  0.00     0.040 A 
ATOM     85  F   UNL A   1      44.293  30.421  26.867  1.00  0.00    -0.206 F 
ATOM     86  C   UNL A   1      46.197  27.377  27.408  1.00  0.00     0.006 A 
ENDBRANCH  58  79
BRANCH  70  87
ATOM     87  C   UNL A   1      42.734  36.519  28.806  1.00  0.00     0.057 A 
ATOM     88  C   UNL A   1      43.172  37.699  29.421  1.00  0.00     0.134 A 
ATOM     89  C   UNL A   1      42.148  36.709  27.527  1.00  0.00     0.134 A 
ATOM     90  F   UNL A   1      43.863  37.687  30.567  1.00  0.00    -0.206 F 
ATOM     91  C   UNL A   1      42.979  38.966  28.850  1.00  0.00     0.040 A 
ATOM     92  C   UNL A   1      42.024  37.959  26.915  1.00  0.00     0.040 A 
ATOM     93  F   UNL A   1      41.689  35.689  26.788  1.00  0.00    -0.206 F 
ATOM     94  C   UNL A   1      42.419  39.099  27.588  1.00  0.00     0.006 A 
ENDBRANCH  70  87
ENDBRANCH  44  45
ENDBRANCH  36  39
ENDBRANCH  34  35
ENDBRANCH  33  34
ENDBRANCH   1  33
TORSDOF 13
ENDMDL
