MODEL 1
REMARK VINA RESULT:     -11.7      0.000      0.000
REMARK SMILES O=C(NCCCCNC(=O)[C@H](F)Sc1cc2ccccc2[nH]1)c1ccc(-c2c3nc(c(-c4c(F)cccc4F)c4ccc([nH]4)c(-c4c(F)cccc4F)c4nc(c(-c5c(F)cccc5F)c5ccc2[nH]5)C=C4)C=C3)cc1
REMARK SMILES IDX 5 1 4 2 3 3 1 4 2 5 23 7 24 8 76 9 25 10 75 11 26 12 27 13
REMARK SMILES IDX 28 14 69 15 29 16 74 17 68 18 70 19 30 20 73 21 67 22 66 23
REMARK SMILES IDX 31 25 57 26 40 27 56 28 41 29 44 30 55 31 71 32 42 33 43 34
REMARK SMILES IDX 54 36 72 37 45 38 32 39 33 40 38 41 34 42 35 43 37 44 39 45
REMARK SMILES IDX 36 46 58 47 59 48 64 49 60 50 61 51 63 52 65 53 62 54 46 55
REMARK SMILES IDX 47 56 52 57 48 58 49 59 51 60 53 61 50 62 6 63 7 64 8 65
REMARK SMILES IDX 9 66 10 68 11 69 12 70 13 71 14 72 15 73 22 74 16 75 21 76
REMARK SMILES IDX 17 78 20 79 18 80 19 81
REMARK H PARENT 3 6 70 24 44 35 8 67 22 77
REMARK Flexibility Score: inf
ROOT
ATOM      1  C   UNL A   1      37.779  19.940  24.985  1.00  0.00     0.023 C 
ENDROOT
BRANCH   1   2
ATOM      2  C   UNL A   1      39.011  20.278  25.816  1.00  0.00     0.116 C 
BRANCH   2   3
ATOM      3  N   UNL A   1      40.031  19.241  25.792  1.00  0.00    -0.352 N 
ATOM      4  O   UNL A   1      42.105  18.358  25.883  1.00  0.00    -0.269 OA
ATOM      5  C   UNL A   1      41.379  19.334  26.055  1.00  0.00     0.251 C 
ATOM      6  H   UNL A   1      39.710  18.341  25.554  1.00  0.00     0.163 HD
BRANCH   5   7
ATOM      7  C   UNL A   1      41.966  20.617  26.505  1.00  0.00     0.039 A 
ATOM      8  C   UNL A   1      42.090  20.918  27.862  1.00  0.00     0.014 A 
ATOM      9  C   UNL A   1      42.386  21.544  25.545  1.00  0.00     0.014 A 
ATOM     10  C   UNL A   1      42.461  22.200  28.254  1.00  0.00     0.010 A 
ATOM     11  C   UNL A   1      42.842  22.805  25.945  1.00  0.00     0.010 A 
ATOM     12  C   UNL A   1      42.833  23.163  27.301  1.00  0.00    -0.014 A 
BRANCH  12  13
ATOM     13  C   UNL A   1      43.206  24.529  27.754  1.00  0.00     0.031 A 
ATOM     14  C   UNL A   1      44.640  24.991  27.735  1.00  0.00     0.074 A 
ATOM     15  C   UNL A   1      42.235  25.382  28.134  1.00  0.00     0.049 A 
ATOM     16  N   UNL A   1      45.130  26.171  28.026  1.00  0.00    -0.248 NA
ATOM     17  C   UNL A   1      45.657  24.002  27.347  1.00  0.00     0.031 C 
ATOM     18  C   UNL A   1      40.810  25.053  28.213  1.00  0.00     0.029 A 
ATOM     19  N   UNL A   1      42.292  26.704  28.495  1.00  0.00    -0.354 N 
ATOM     20  C   UNL A   1      46.508  26.061  27.882  1.00  0.00     0.074 A 
ATOM     21  C   UNL A   1      46.780  24.692  27.499  1.00  0.00     0.031 C 
ATOM     22  C   UNL A   1      40.123  26.158  28.541  1.00  0.00     0.029 A 
ATOM     23  C   UNL A   1      41.060  27.258  28.741  1.00  0.00     0.049 A 
ATOM     24  H   UNL A   1      43.136  27.207  28.571  1.00  0.00     0.167 HD
ATOM     25  C   UNL A   1      47.457  27.012  28.045  1.00  0.00     0.037 A 
ATOM     26  C   UNL A   1      40.719  28.514  29.087  1.00  0.00     0.037 A 
ATOM     27  C   UNL A   1      47.188  28.384  28.394  1.00  0.00     0.049 A 
ATOM     28  C   UNL A   1      41.790  29.551  29.246  1.00  0.00     0.074 A 
ATOM     29  C   UNL A   1      48.084  29.430  28.538  1.00  0.00     0.029 A 
ATOM     30  N   UNL A   1      45.928  28.900  28.653  1.00  0.00    -0.354 N 
ATOM     31  N   UNL A   1      43.084  29.438  29.068  1.00  0.00    -0.248 NA
ATOM     32  C   UNL A   1      41.353  30.894  29.653  1.00  0.00     0.031 C 
ATOM     33  C   UNL A   1      47.369  30.572  28.915  1.00  0.00     0.029 A 
ATOM     34  C   UNL A   1      46.024  30.245  28.969  1.00  0.00     0.049 A 
ATOM     35  H   UNL A   1      45.090  28.386  28.617  1.00  0.00     0.167 HD
ATOM     36  C   UNL A   1      43.613  30.696  29.321  1.00  0.00     0.074 A 
ATOM     37  C   UNL A   1      42.499  31.561  29.650  1.00  0.00     0.031 C 
ATOM     38  C   UNL A   1      44.907  31.096  29.288  1.00  0.00     0.037 A 
BRANCH  25  39
ATOM     39  C   UNL A   1      48.890  26.603  27.858  1.00  0.00     0.057 A 
ATOM     40  C   UNL A   1      49.679  26.155  28.925  1.00  0.00     0.134 A 
ATOM     41  C   UNL A   1      49.473  26.616  26.584  1.00  0.00     0.134 A 
ATOM     42  F   UNL A   1      49.184  26.130  30.171  1.00  0.00    -0.206 F 
ATOM     43  C   UNL A   1      51.002  25.752  28.734  1.00  0.00     0.040 A 
ATOM     44  C   UNL A   1      50.788  26.195  26.377  1.00  0.00     0.040 A 
ATOM     45  F   UNL A   1      48.770  27.028  25.518  1.00  0.00    -0.206 F 
ATOM     46  C   UNL A   1      51.558  25.766  27.456  1.00  0.00     0.006 A 
ENDBRANCH  25  39
BRANCH  26  47
ATOM     47  C   UNL A   1      39.291  28.860  29.283  1.00  0.00     0.057 A 
ATOM     48  C   UNL A   1      38.675  28.707  30.530  1.00  0.00     0.134 A 
ATOM     49  C   UNL A   1      38.511  29.360  28.232  1.00  0.00     0.134 A 
ATOM     50  F   UNL A   1      39.368  28.218  31.568  1.00  0.00    -0.206 F 
ATOM     51  C   UNL A   1      37.331  29.027  30.724  1.00  0.00     0.040 A 
ATOM     52  C   UNL A   1      37.174  29.706  28.418  1.00  0.00     0.040 A 
ATOM     53  F   UNL A   1      39.048  29.536  27.016  1.00  0.00    -0.206 F 
ATOM     54  C   UNL A   1      36.579  29.534  29.666  1.00  0.00     0.006 A 
ENDBRANCH  26  47
BRANCH  38  55
ATOM     55  C   UNL A   1      45.179  32.540  29.583  1.00  0.00     0.057 A 
ATOM     56  C   UNL A   1      45.162  33.514  28.578  1.00  0.00     0.134 A 
ATOM     57  C   UNL A   1      45.448  32.962  30.892  1.00  0.00     0.134 A 
ATOM     58  F   UNL A   1      44.925  33.170  27.303  1.00  0.00    -0.206 F 
ATOM     59  C   UNL A   1      45.425  34.856  28.859  1.00  0.00     0.040 A 
ATOM     60  C   UNL A   1      45.691  34.304  31.189  1.00  0.00     0.040 A 
ATOM     61  F   UNL A   1      45.474  32.078  31.901  1.00  0.00    -0.206 F 
ATOM     62  C   UNL A   1      45.687  35.254  30.169  1.00  0.00     0.006 A 
ENDBRANCH  38  55
ENDBRANCH  12  13
ENDBRANCH   5   7
ENDBRANCH   2   3
ENDBRANCH   1   2
BRANCH   1  63
ATOM     63  C   UNL A   1      37.010  21.133  24.413  1.00  0.00     0.023 C 
BRANCH  63  64
ATOM     64  C   UNL A   1      36.709  22.257  25.402  1.00  0.00     0.116 C 
BRANCH  64  65
ATOM     65  N   UNL A   1      35.888  21.820  26.519  1.00  0.00    -0.353 N 
ATOM     66  C   UNL A   1      34.545  22.033  26.729  1.00  0.00     0.265 C 
ATOM     67  H   UNL A   1      36.354  21.306  27.217  1.00  0.00     0.163 HD
ATOM     68  O   UNL A   1      34.047  21.531  27.741  1.00  0.00    -0.271 OA
BRANCH  66  69
ATOM     69  C   UNL A   1      33.765  22.846  25.682  1.00  0.00     0.319 C 
ATOM     70  F   UNL A   1      33.742  24.176  25.990  1.00  0.00    -0.224 F 
BRANCH  69  71
ATOM     71  S   UNL A   1      32.088  22.230  25.390  1.00  0.00    -0.061 SA
BRANCH  71  72
ATOM     72  C   UNL A   1      32.352  20.593  24.908  1.00  0.00     0.076 A 
ATOM     73  C   UNL A   1      32.616  20.039  23.680  1.00  0.00     0.043 A 
ATOM     74  N   UNL A   1      32.404  19.605  25.850  1.00  0.00    -0.350 N 
ATOM     75  C   UNL A   1      32.881  18.656  23.889  1.00  0.00     0.001 A 
ATOM     76  C   UNL A   1      32.753  18.411  25.258  1.00  0.00     0.046 A 
ATOM     77  H   UNL A   1      32.220  19.729  26.810  1.00  0.00     0.167 HD
ATOM     78  C   UNL A   1      33.238  17.590  23.041  1.00  0.00     0.010 A 
ATOM     79  C   UNL A   1      32.970  17.149  25.823  1.00  0.00     0.027 A 
ATOM     80  C   UNL A   1      33.465  16.324  23.590  1.00  0.00     0.001 A 
ATOM     81  C   UNL A   1      33.335  16.109  24.961  1.00  0.00     0.002 A 
ENDBRANCH  71  72
ENDBRANCH  69  71
ENDBRANCH  66  69
ENDBRANCH  64  65
ENDBRANCH  63  64
ENDBRANCH   1  63
TORSDOF 13
ENDMDL
MODEL 2
REMARK VINA RESULT:     -11.6      6.368     10.857
REMARK SMILES O=C(NCCCCNC(=O)[C@H](F)Sc1cc2ccccc2[nH]1)c1ccc(-c2c3nc(c(-c4c(F)cccc4F)c4ccc([nH]4)c(-c4c(F)cccc4F)c4nc(c(-c5c(F)cccc5F)c5ccc2[nH]5)C=C4)C=C3)cc1
REMARK SMILES IDX 5 1 4 2 3 3 1 4 2 5 23 7 24 8 76 9 25 10 75 11 26 12 27 13
REMARK SMILES IDX 28 14 69 15 29 16 74 17 68 18 70 19 30 20 73 21 67 22 66 23
REMARK SMILES IDX 31 25 57 26 40 27 56 28 41 29 44 30 55 31 71 32 42 33 43 34
REMARK SMILES IDX 54 36 72 37 45 38 32 39 33 40 38 41 34 42 35 43 37 44 39 45
REMARK SMILES IDX 36 46 58 47 59 48 64 49 60 50 61 51 63 52 65 53 62 54 46 55
REMARK SMILES IDX 47 56 52 57 48 58 49 59 51 60 53 61 50 62 6 63 7 64 8 65
REMARK SMILES IDX 9 66 10 68 11 69 12 70 13 71 14 72 15 73 22 74 16 75 21 76
REMARK SMILES IDX 17 78 20 79 18 80 19 81
REMARK H PARENT 3 6 70 24 44 35 8 67 22 77
REMARK Flexibility Score: inf
ROOT
ATOM      1  C   UNL A   1      31.361  32.173  26.656  1.00  0.00     0.023 C 
ENDROOT
BRANCH   1   2
ATOM      2  C   UNL A   1      32.539  32.889  27.309  1.00  0.00     0.116 C 
BRANCH   2   3
ATOM      3  N   UNL A   1      32.250  34.265  27.679  1.00  0.00    -0.352 N 
ATOM      4  O   UNL A   1      32.444  36.197  28.828  1.00  0.00    -0.269 OA
ATOM      5  C   UNL A   1      32.902  35.087  28.571  1.00  0.00     0.251 C 
ATOM      6  H   UNL A   1      31.476  34.669  27.224  1.00  0.00     0.163 HD
BRANCH   5   7
ATOM      7  C   UNL A   1      34.130  34.621  29.255  1.00  0.00     0.039 A 
ATOM      8  C   UNL A   1      35.377  34.702  28.634  1.00  0.00     0.014 A 
ATOM      9  C   UNL A   1      34.026  34.078  30.540  1.00  0.00     0.014 A 
ATOM     10  C   UNL A   1      36.479  34.084  29.215  1.00  0.00     0.010 A 
ATOM     11  C   UNL A   1      35.155  33.532  31.161  1.00  0.00     0.010 A 
ATOM     12  C   UNL A   1      36.381  33.483  30.482  1.00  0.00    -0.014 A 
BRANCH  12  13
ATOM     13  C   UNL A   1      37.575  32.814  31.064  1.00  0.00     0.031 A 
ATOM     14  C   UNL A   1      38.120  33.226  32.406  1.00  0.00     0.074 A 
ATOM     15  C   UNL A   1      38.139  31.785  30.401  1.00  0.00     0.049 A 
ATOM     16  N   UNL A   1      39.105  32.702  33.092  1.00  0.00    -0.248 NA
ATOM     17  C   UNL A   1      37.484  34.379  33.062  1.00  0.00     0.031 C 
ATOM     18  C   UNL A   1      37.717  31.299  29.086  1.00  0.00     0.029 A 
ATOM     19  N   UNL A   1      39.166  30.947  30.753  1.00  0.00    -0.354 N 
ATOM     20  C   UNL A   1      39.225  33.472  34.243  1.00  0.00     0.074 A 
ATOM     21  C   UNL A   1      38.225  34.515  34.154  1.00  0.00     0.031 C 
ATOM     22  C   UNL A   1      38.438  30.214  28.769  1.00  0.00     0.029 A 
ATOM     23  C   UNL A   1      39.403  29.956  29.832  1.00  0.00     0.049 A 
ATOM     24  H   UNL A   1      39.684  31.047  31.585  1.00  0.00     0.167 HD
ATOM     25  C   UNL A   1      40.080  33.320  35.282  1.00  0.00     0.037 A 
ATOM     26  C   UNL A   1      40.296  28.949  29.842  1.00  0.00     0.037 A 
ATOM     27  C   UNL A   1      41.054  32.264  35.390  1.00  0.00     0.049 A 
ATOM     28  C   UNL A   1      41.221  28.795  31.012  1.00  0.00     0.074 A 
ATOM     29  C   UNL A   1      41.935  32.004  36.427  1.00  0.00     0.029 A 
ATOM     30  N   UNL A   1      41.275  31.292  34.427  1.00  0.00    -0.354 N 
ATOM     31  N   UNL A   1      41.293  29.510  32.108  1.00  0.00    -0.248 NA
ATOM     32  C   UNL A   1      42.191  27.692  30.946  1.00  0.00     0.031 C 
ATOM     33  C   UNL A   1      42.710  30.893  36.077  1.00  0.00     0.029 A 
ATOM     34  C   UNL A   1      42.286  30.440  34.839  1.00  0.00     0.049 A 
ATOM     35  H   UNL A   1      40.785  31.218  33.577  1.00  0.00     0.167 HD
ATOM     36  C   UNL A   1      42.299  28.933  32.871  1.00  0.00     0.074 A 
ATOM     37  C   UNL A   1      42.799  27.800  32.119  1.00  0.00     0.031 C 
ATOM     38  C   UNL A   1      42.770  29.312  34.084  1.00  0.00     0.037 A 
BRANCH  25  39
ATOM     39  C   UNL A   1      40.013  34.330  36.391  1.00  0.00     0.057 A 
ATOM     40  C   UNL A   1      40.717  35.539  36.335  1.00  0.00     0.134 A 
ATOM     41  C   UNL A   1      39.198  34.107  37.508  1.00  0.00     0.134 A 
ATOM     42  F   UNL A   1      41.524  35.809  35.299  1.00  0.00    -0.206 F 
ATOM     43  C   UNL A   1      40.626  36.484  37.361  1.00  0.00     0.040 A 
ATOM     44  C   UNL A   1      39.082  35.052  38.529  1.00  0.00     0.040 A 
ATOM     45  F   UNL A   1      38.492  32.971  37.620  1.00  0.00    -0.206 F 
ATOM     46  C   UNL A   1      39.802  36.242  38.458  1.00  0.00     0.006 A 
ENDBRANCH  25  39
BRANCH  26  47
ATOM     47  C   UNL A   1      40.336  27.991  28.710  1.00  0.00     0.057 A 
ATOM     48  C   UNL A   1      39.633  26.782  28.762  1.00  0.00     0.134 A 
ATOM     49  C   UNL A   1      41.069  28.265  27.550  1.00  0.00     0.134 A 
ATOM     50  F   UNL A   1      38.927  26.460  29.856  1.00  0.00    -0.206 F 
ATOM     51  C   UNL A   1      39.667  25.874  27.705  1.00  0.00     0.040 A 
ATOM     52  C   UNL A   1      41.093  27.377  26.476  1.00  0.00     0.040 A 
ATOM     53  F   UNL A   1      41.757  29.410  27.439  1.00  0.00    -0.206 F 
ATOM     54  C   UNL A   1      40.394  26.173  26.555  1.00  0.00     0.006 A 
ENDBRANCH  26  47
BRANCH  38  55
ATOM     55  C   UNL A   1      43.856  28.472  34.684  1.00  0.00     0.057 A 
ATOM     56  C   UNL A   1      45.210  28.764  34.484  1.00  0.00     0.134 A 
ATOM     57  C   UNL A   1      43.542  27.366  35.485  1.00  0.00     0.134 A 
ATOM     58  F   UNL A   1      45.575  29.802  33.715  1.00  0.00    -0.206 F 
ATOM     59  C   UNL A   1      46.216  27.972  35.039  1.00  0.00     0.040 A 
ATOM     60  C   UNL A   1      44.538  26.579  36.064  1.00  0.00     0.040 A 
ATOM     61  F   UNL A   1      42.263  27.037  35.720  1.00  0.00    -0.206 F 
ATOM     62  C   UNL A   1      45.880  26.878  35.835  1.00  0.00     0.006 A 
ENDBRANCH  38  55
ENDBRANCH  12  13
ENDBRANCH   5   7
ENDBRANCH   2   3
ENDBRANCH   1   2
BRANCH   1  63
ATOM     63  C   UNL A   1      31.645  30.765  26.128  1.00  0.00     0.023 C 
BRANCH  63  64
ATOM     64  C   UNL A   1      31.969  29.717  27.189  1.00  0.00     0.116 C 
BRANCH  64  65
ATOM     65  N   UNL A   1      33.397  29.567  27.416  1.00  0.00    -0.353 N 
ATOM     66  C   UNL A   1      34.267  28.673  26.834  1.00  0.00     0.265 C 
ATOM     67  H   UNL A   1      33.793  30.185  28.073  1.00  0.00     0.163 HD
ATOM     68  O   UNL A   1      35.456  28.756  27.156  1.00  0.00    -0.271 OA
BRANCH  66  69
ATOM     69  C   UNL A   1      33.705  27.671  25.814  1.00  0.00     0.319 C 
ATOM     70  F   UNL A   1      34.274  26.437  25.951  1.00  0.00    -0.224 F 
BRANCH  69  71
ATOM     71  S   UNL A   1      33.823  28.240  24.099  1.00  0.00    -0.061 SA
BRANCH  71  72
ATOM     72  C   UNL A   1      32.170  28.353  23.611  1.00  0.00     0.076 A 
ATOM     73  C   UNL A   1      31.061  27.636  23.986  1.00  0.00     0.043 A 
ATOM     74  N   UNL A   1      31.777  29.350  22.763  1.00  0.00    -0.350 N 
ATOM     75  C   UNL A   1      29.934  28.249  23.369  1.00  0.00     0.001 A 
ATOM     76  C   UNL A   1      30.407  29.327  22.617  1.00  0.00     0.046 A 
ATOM     77  H   UNL A   1      32.383  29.990  22.323  1.00  0.00     0.167 HD
ATOM     78  C   UNL A   1      28.549  27.998  23.395  1.00  0.00     0.010 A 
ATOM     79  C   UNL A   1      29.558  30.172  21.893  1.00  0.00     0.027 A 
ATOM     80  C   UNL A   1      27.686  28.837  22.682  1.00  0.00     0.001 A 
ATOM     81  C   UNL A   1      28.186  29.909  21.944  1.00  0.00     0.002 A 
ENDBRANCH  71  72
ENDBRANCH  69  71
ENDBRANCH  66  69
ENDBRANCH  64  65
ENDBRANCH  63  64
ENDBRANCH   1  63
TORSDOF 13
ENDMDL
MODEL 3
REMARK VINA RESULT:     -11.6      6.158     10.704
REMARK SMILES O=C(NCCCCNC(=O)[C@H](F)Sc1cc2ccccc2[nH]1)c1ccc(-c2c3nc(c(-c4c(F)cccc4F)c4ccc([nH]4)c(-c4c(F)cccc4F)c4nc(c(-c5c(F)cccc5F)c5ccc2[nH]5)C=C4)C=C3)cc1
REMARK SMILES IDX 5 1 4 2 3 3 1 4 2 5 23 7 24 8 76 9 25 10 75 11 26 12 27 13
REMARK SMILES IDX 28 14 69 15 29 16 74 17 68 18 70 19 30 20 73 21 67 22 66 23
REMARK SMILES IDX 31 25 57 26 40 27 56 28 41 29 44 30 55 31 71 32 42 33 43 34
REMARK SMILES IDX 54 36 72 37 45 38 32 39 33 40 38 41 34 42 35 43 37 44 39 45
REMARK SMILES IDX 36 46 58 47 59 48 64 49 60 50 61 51 63 52 65 53 62 54 46 55
REMARK SMILES IDX 47 56 52 57 48 58 49 59 51 60 53 61 50 62 6 63 7 64 8 65
REMARK SMILES IDX 9 66 10 68 11 69 12 70 13 71 14 72 15 73 22 74 16 75 21 76
REMARK SMILES IDX 17 78 20 79 18 80 19 81
REMARK H PARENT 3 6 70 24 44 35 8 67 22 77
REMARK Flexibility Score: inf
ROOT
ATOM      1  C   UNL A   1      31.415  31.277  26.510  1.00  0.00     0.023 C 
ENDROOT
BRANCH   1   2
ATOM      2  C   UNL A   1      32.656  32.054  26.936  1.00  0.00     0.116 C 
BRANCH   2   3
ATOM      3  N   UNL A   1      32.382  33.437  27.290  1.00  0.00    -0.352 N 
ATOM      4  O   UNL A   1      32.573  35.370  28.439  1.00  0.00    -0.269 OA
ATOM      5  C   UNL A   1      33.018  34.250  28.202  1.00  0.00     0.251 C 
ATOM      6  H   UNL A   1      31.632  33.855  26.807  1.00  0.00     0.163 HD
BRANCH   5   7
ATOM      7  C   UNL A   1      34.210  33.763  28.932  1.00  0.00     0.039 A 
ATOM      8  C   UNL A   1      35.483  34.258  28.646  1.00  0.00     0.014 A 
ATOM      9  C   UNL A   1      34.050  32.777  29.913  1.00  0.00     0.014 A 
ATOM     10  C   UNL A   1      36.603  33.648  29.204  1.00  0.00     0.010 A 
ATOM     11  C   UNL A   1      35.174  32.225  30.537  1.00  0.00     0.010 A 
ATOM     12  C   UNL A   1      36.464  32.618  30.150  1.00  0.00    -0.014 A 
BRANCH  12  13
ATOM     13  C   UNL A   1      37.682  31.977  30.711  1.00  0.00     0.031 A 
ATOM     14  C   UNL A   1      38.140  32.273  32.116  1.00  0.00     0.074 A 
ATOM     15  C   UNL A   1      38.350  31.074  29.967  1.00  0.00     0.049 A 
ATOM     16  N   UNL A   1      39.136  31.748  32.786  1.00  0.00    -0.248 NA
ATOM     17  C   UNL A   1      37.391  33.295  32.863  1.00  0.00     0.031 C 
ATOM     18  C   UNL A   1      38.019  30.710  28.588  1.00  0.00     0.029 A 
ATOM     19  N   UNL A   1      39.425  30.278  30.273  1.00  0.00    -0.354 N 
ATOM     20  C   UNL A   1      39.150  32.389  34.019  1.00  0.00     0.074 A 
ATOM     21  C   UNL A   1      38.076  33.360  33.998  1.00  0.00     0.031 C 
ATOM     22  C   UNL A   1      38.835  29.723  28.188  1.00  0.00     0.029 A 
ATOM     23  C   UNL A   1      39.774  29.418  29.261  1.00  0.00     0.049 A 
ATOM     24  H   UNL A   1      39.900  30.320  31.135  1.00  0.00     0.167 HD
ATOM     25  C   UNL A   1      39.973  32.183  35.074  1.00  0.00     0.037 A 
ATOM     26  C   UNL A   1      40.741  28.484  29.203  1.00  0.00     0.037 A 
ATOM     27  C   UNL A   1      41.021  31.196  35.112  1.00  0.00     0.049 A 
ATOM     28  C   UNL A   1      41.629  28.266  30.392  1.00  0.00     0.074 A 
ATOM     29  C   UNL A   1      41.878  30.885  36.155  1.00  0.00     0.029 A 
ATOM     30  N   UNL A   1      41.355  30.358  34.059  1.00  0.00    -0.354 N 
ATOM     31  N   UNL A   1      41.602  28.856  31.562  1.00  0.00    -0.248 NA
ATOM     32  C   UNL A   1      42.684  27.252  30.252  1.00  0.00     0.031 C 
ATOM     33  C   UNL A   1      42.751  29.881  35.722  1.00  0.00     0.029 A 
ATOM     34  C   UNL A   1      42.412  29.540  34.423  1.00  0.00     0.049 A 
ATOM     35  H   UNL A   1      40.906  30.345  33.184  1.00  0.00     0.167 HD
ATOM     36  C   UNL A   1      42.619  28.272  32.304  1.00  0.00     0.074 A 
ATOM     37  C   UNL A   1      43.235  27.270  31.457  1.00  0.00     0.031 C 
ATOM     38  C   UNL A   1      43.011  28.544  33.572  1.00  0.00     0.037 A 
BRANCH  25  39
ATOM     39  C   UNL A   1      39.784  33.054  36.283  1.00  0.00     0.057 A 
ATOM     40  C   UNL A   1      40.486  34.254  36.449  1.00  0.00     0.134 A 
ATOM     41  C   UNL A   1      38.855  32.706  37.272  1.00  0.00     0.134 A 
ATOM     42  F   UNL A   1      41.398  34.639  35.545  1.00  0.00    -0.206 F 
ATOM     43  C   UNL A   1      40.282  35.070  37.564  1.00  0.00     0.040 A 
ATOM     44  C   UNL A   1      38.627  33.523  38.381  1.00  0.00     0.040 A 
ATOM     45  F   UNL A   1      38.145  31.572  37.170  1.00  0.00    -0.206 F 
ATOM     46  C   UNL A   1      39.346  34.706  38.531  1.00  0.00     0.006 A 
ENDBRANCH  25  39
BRANCH  26  47
ATOM     47  C   UNL A   1      40.901  27.666  27.976  1.00  0.00     0.057 A 
ATOM     48  C   UNL A   1      40.249  26.435  27.840  1.00  0.00     0.134 A 
ATOM     49  C   UNL A   1      41.698  28.099  26.910  1.00  0.00     0.134 A 
ATOM     50  F   UNL A   1      39.485  25.962  28.836  1.00  0.00    -0.206 F 
ATOM     51  C   UNL A   1      40.395  25.657  26.691  1.00  0.00     0.040 A 
ATOM     52  C   UNL A   1      41.834  27.342  25.747  1.00  0.00     0.040 A 
ATOM     53  F   UNL A   1      42.341  29.273  26.980  1.00  0.00    -0.206 F 
ATOM     54  C   UNL A   1      41.184  26.114  25.639  1.00  0.00     0.006 A 
ENDBRANCH  26  47
BRANCH  38  55
ATOM     55  C   UNL A   1      44.135  27.723  34.128  1.00  0.00     0.057 A 
ATOM     56  C   UNL A   1      45.467  28.145  34.046  1.00  0.00     0.134 A 
ATOM     57  C   UNL A   1      43.879  26.502  34.767  1.00  0.00     0.134 A 
ATOM     58  F   UNL A   1      45.778  29.297  33.433  1.00  0.00    -0.206 F 
ATOM     59  C   UNL A   1      46.510  27.370  34.558  1.00  0.00     0.040 A 
ATOM     60  C   UNL A   1      44.910  25.729  35.302  1.00  0.00     0.040 A 
ATOM     61  F   UNL A   1      42.623  26.045  34.883  1.00  0.00    -0.206 F 
ATOM     62  C   UNL A   1      46.231  26.160  35.191  1.00  0.00     0.006 A 
ENDBRANCH  38  55
ENDBRANCH  12  13
ENDBRANCH   5   7
ENDBRANCH   2   3
ENDBRANCH   1   2
BRANCH   1  63
ATOM     63  C   UNL A   1      31.637  30.189  25.457  1.00  0.00     0.023 C 
BRANCH  63  64
ATOM     64  C   UNL A   1      32.963  29.438  25.555  1.00  0.00     0.116 C 
BRANCH  64  65
ATOM     65  N   UNL A   1      33.688  29.407  24.296  1.00  0.00    -0.353 N 
ATOM     66  C   UNL A   1      33.699  28.417  23.339  1.00  0.00     0.265 C 
ATOM     67  H   UNL A   1      34.244  30.196  24.102  1.00  0.00     0.163 HD
ATOM     68  O   UNL A   1      34.365  28.626  22.322  1.00  0.00    -0.271 OA
BRANCH  66  69
ATOM     69  C   UNL A   1      32.864  27.151  23.593  1.00  0.00     0.319 C 
ATOM     70  F   UNL A   1      33.653  26.073  23.875  1.00  0.00    -0.224 F 
BRANCH  69  71
ATOM     71  S   UNL A   1      31.710  26.764  22.252  1.00  0.00    -0.061 SA
BRANCH  71  72
ATOM     72  C   UNL A   1      30.480  27.961  22.438  1.00  0.00     0.076 A 
ATOM     73  C   UNL A   1      29.273  27.930  23.091  1.00  0.00     0.043 A 
ATOM     74  N   UNL A   1      30.678  29.223  21.953  1.00  0.00    -0.350 N 
ATOM     75  C   UNL A   1      28.728  29.244  23.036  1.00  0.00     0.001 A 
ATOM     76  C   UNL A   1      29.633  30.038  22.327  1.00  0.00     0.046 A 
ATOM     77  H   UNL A   1      31.454  29.507  21.417  1.00  0.00     0.167 HD
ATOM     78  C   UNL A   1      27.555  29.838  23.540  1.00  0.00     0.010 A 
ATOM     79  C   UNL A   1      29.423  31.404  22.103  1.00  0.00     0.027 A 
ATOM     80  C   UNL A   1      27.333  31.203  23.330  1.00  0.00     0.001 A 
ATOM     81  C   UNL A   1      28.257  31.973  22.624  1.00  0.00     0.002 A 
ENDBRANCH  71  72
ENDBRANCH  69  71
ENDBRANCH  66  69
ENDBRANCH  64  65
ENDBRANCH  63  64
ENDBRANCH   1  63
TORSDOF 13
ENDMDL
