MODEL 1
REMARK VINA RESULT:     -12.4      0.000      0.000
REMARK SMILES Cc1nn(C)c(=O)c(C(=O)N2CC[C@@H](C(=O)NCCCCNC(=O)c3ccc(-c4c5nc(c(-c6c(F)cccc6F)c6ccc([nH]6)c(-c6c(F)cccc6F)c6nc(c(-c7c(F)cccc7F)c7ccc4[nH]7)C=C6)C=C5)cc3)[C@@H]2C)c1C
REMARK SMILES IDX 19 1 18 2 17 3 15 4 16 5 14 7 11 8 12 9 79 10 13 11 80 12
REMARK SMILES IDX 9 13 10 14 8 15 1 16 2 17 3 18 81 19 4 20 82 21 5 22 6 23
REMARK SMILES IDX 7 24 20 25 21 26 22 27 23 28 24 30 25 31 26 32 78 33 27 34
REMARK SMILES IDX 77 35 28 36 29 37 30 38 71 39 31 40 76 41 70 42 72 43 32 44
REMARK SMILES IDX 75 45 69 46 68 47 33 49 59 50 42 51 58 52 43 53 46 54 57 55
REMARK SMILES IDX 73 56 44 57 45 58 56 60 74 61 47 62 34 63 35 64 40 65 36 66
REMARK SMILES IDX 37 67 39 68 41 69 38 70 60 71 61 72 66 73 62 74 63 75 65 76
REMARK SMILES IDX 67 77 64 78 48 79 49 80 54 81 50 82 51 83 53 84 55 85 52 86
REMARK H PARENT 17 6 22 29 72 48 46 59
REMARK Flexibility Score: inf
ROOT
ATOM      1  C   UNL A   1      36.642  21.188  25.010  1.00  0.00     0.023 C 
ENDROOT
BRANCH   1   2
ATOM      2  C   UNL A   1      35.275  20.517  25.049  1.00  0.00     0.116 C 
BRANCH   2   3
ATOM      3  N   UNL A   1      34.546  20.877  26.249  1.00  0.00    -0.356 N 
ATOM      4  C   UNL A   1      33.774  21.950  26.553  1.00  0.00     0.225 C 
ATOM      5  O   UNL A   1      33.358  22.012  27.716  1.00  0.00    -0.275 OA
ATOM      6  H   UNL A   1      34.627  20.222  26.979  1.00  0.00     0.163 HD
BRANCH   4   7
ATOM      7  C   UNL A   1      33.454  23.086  25.585  1.00  0.00     0.102 C 
ATOM      8  N   UNL A   1      32.036  24.909  26.205  1.00  0.00    -0.335 N 
ATOM      9  C   UNL A   1      33.291  25.500  25.766  1.00  0.00     0.121 C 
ATOM     10  C   UNL A   1      31.989  23.537  25.680  1.00  0.00     0.094 C 
ATOM     11  C   UNL A   1      34.299  24.356  25.685  1.00  0.00     0.037 C 
ATOM     12  C   UNL A   1      31.299  23.430  24.314  1.00  0.00     0.032 C 
BRANCH   8  13
ATOM     13  C   UNL A   1      30.900  25.730  26.169  1.00  0.00     0.260 C 
ATOM     14  O   UNL A   1      29.793  25.320  26.504  1.00  0.00    -0.269 OA
BRANCH  13  15
ATOM     15  C   UNL A   1      31.095  27.104  25.601  1.00  0.00     0.111 A 
ATOM     16  C   UNL A   1      32.838  30.354  26.159  1.00  0.00     0.069 C 
ATOM     17  C   UNL A   1      31.777  29.411  25.632  1.00  0.00     0.062 A 
ATOM     18  N   UNL A   1      31.238  29.723  24.502  1.00  0.00    -0.175 NA
ATOM     19  C   UNL A   1      31.483  28.148  26.359  1.00  0.00    -0.010 A 
ATOM     20  N   UNL A   1      30.470  28.765  23.901  1.00  0.00    -0.232 N 
ATOM     21  C   UNL A   1      31.466  28.200  27.848  1.00  0.00     0.047 C 
ATOM     22  C   UNL A   1      29.702  29.218  22.756  1.00  0.00     0.178 C 
ATOM     23  C   UNL A   1      30.554  27.411  24.232  1.00  0.00     0.279 A 
ATOM     24  O   UNL A   1      30.151  26.517  23.491  1.00  0.00    -0.267 OA
ENDBRANCH  13  15
ENDBRANCH   8  13
ENDBRANCH   4   7
ENDBRANCH   2   3
ENDBRANCH   1   2
BRANCH   1  25
ATOM     25  C   UNL A   1      37.838  20.270  24.838  1.00  0.00     0.023 C 
BRANCH  25  26
ATOM     26  C   UNL A   1      39.005  20.557  25.765  1.00  0.00     0.116 C 
BRANCH  26  27
ATOM     27  N   UNL A   1      40.003  19.495  25.810  1.00  0.00    -0.352 N 
ATOM     28  C   UNL A   1      41.338  19.540  26.162  1.00  0.00     0.251 C 
ATOM     29  H   UNL A   1      39.674  18.605  25.546  1.00  0.00     0.163 HD
ATOM     30  O   UNL A   1      42.038  18.546  26.051  1.00  0.00    -0.269 OA
BRANCH  28  31
ATOM     31  C   UNL A   1      41.925  20.817  26.626  1.00  0.00     0.039 A 
ATOM     32  C   UNL A   1      42.346  21.757  25.683  1.00  0.00     0.014 A 
ATOM     33  C   UNL A   1      41.987  21.111  27.986  1.00  0.00     0.014 A 
ATOM     34  C   UNL A   1      42.707  23.039  26.107  1.00  0.00     0.010 A 
ATOM     35  C   UNL A   1      42.209  22.419  28.390  1.00  0.00     0.010 A 
ATOM     36  C   UNL A   1      42.575  23.400  27.457  1.00  0.00    -0.014 A 
BRANCH  36  37
ATOM     37  C   UNL A   1      42.822  24.782  27.942  1.00  0.00     0.031 A 
ATOM     38  C   UNL A   1      44.223  25.196  28.310  1.00  0.00     0.074 A 
ATOM     39  C   UNL A   1      41.791  25.624  28.152  1.00  0.00     0.049 A 
ATOM     40  N   UNL A   1      44.634  26.280  28.916  1.00  0.00    -0.248 NA
ATOM     41  C   UNL A   1      45.299  24.239  28.000  1.00  0.00     0.031 C 
ATOM     42  C   UNL A   1      40.381  25.327  27.890  1.00  0.00     0.029 A 
ATOM     43  N   UNL A   1      41.771  26.905  28.644  1.00  0.00    -0.354 N 
ATOM     44  C   UNL A   1      46.002  26.113  29.093  1.00  0.00     0.074 A 
ATOM     45  C   UNL A   1      46.340  24.799  28.595  1.00  0.00     0.031 C 
ATOM     46  C   UNL A   1      39.640  26.410  28.181  1.00  0.00     0.029 A 
ATOM     47  C   UNL A   1      40.513  27.459  28.694  1.00  0.00     0.049 A 
ATOM     48  H   UNL A   1      42.581  27.383  28.934  1.00  0.00     0.167 HD
ATOM     49  C   UNL A   1      46.905  26.989  29.590  1.00  0.00     0.037 A 
ATOM     50  C   UNL A   1      40.113  28.677  29.108  1.00  0.00     0.037 A 
ATOM     51  C   UNL A   1      46.576  28.320  30.022  1.00  0.00     0.049 A 
ATOM     52  C   UNL A   1      41.138  29.649  29.620  1.00  0.00     0.074 A 
ATOM     53  C   UNL A   1      47.423  29.308  30.494  1.00  0.00     0.029 A 
ATOM     54  N   UNL A   1      45.297  28.856  30.011  1.00  0.00    -0.354 N 
ATOM     55  N   UNL A   1      42.432  29.486  29.760  1.00  0.00    -0.248 NA
ATOM     56  C   UNL A   1      40.652  30.974  30.029  1.00  0.00     0.031 C 
ATOM     57  C   UNL A   1      46.652  30.436  30.788  1.00  0.00     0.029 A 
ATOM     58  C   UNL A   1      45.332  30.164  30.464  1.00  0.00     0.049 A 
ATOM     59  H   UNL A   1      44.486  28.379  29.724  1.00  0.00     0.167 HD
ATOM     60  C   UNL A   1      42.918  30.694  30.243  1.00  0.00     0.074 A 
ATOM     61  C   UNL A   1      41.780  31.583  30.364  1.00  0.00     0.031 C 
ATOM     62  C   UNL A   1      44.190  31.036  30.558  1.00  0.00     0.037 A 
BRANCH  49  63
ATOM     63  C   UNL A   1      48.337  26.545  29.657  1.00  0.00     0.057 A 
ATOM     64  C   UNL A   1      48.825  25.799  30.739  1.00  0.00     0.134 A 
ATOM     65  C   UNL A   1      49.230  26.839  28.620  1.00  0.00     0.134 A 
ATOM     66  F   UNL A   1      48.026  25.499  31.774  1.00  0.00    -0.206 F 
ATOM     67  C   UNL A   1      50.156  25.386  30.801  1.00  0.00     0.040 A 
ATOM     68  C   UNL A   1      50.557  26.405  28.655  1.00  0.00     0.040 A 
ATOM     69  F   UNL A   1      48.829  27.546  27.553  1.00  0.00    -0.206 F 
ATOM     70  C   UNL A   1      51.025  25.682  29.752  1.00  0.00     0.006 A 
ENDBRANCH  49  63
BRANCH  50  71
ATOM     71  C   UNL A   1      38.683  29.063  28.998  1.00  0.00     0.057 A 
ATOM     72  C   UNL A   1      38.164  29.533  27.786  1.00  0.00     0.134 A 
ATOM     73  C   UNL A   1      37.801  28.958  30.079  1.00  0.00     0.134 A 
ATOM     74  F   UNL A   1      38.963  29.671  26.718  1.00  0.00    -0.206 F 
ATOM     75  C   UNL A   1      36.822  29.895  27.655  1.00  0.00     0.040 A 
ATOM     76  C   UNL A   1      36.452  29.296  29.957  1.00  0.00     0.040 A 
ATOM     77  F   UNL A   1      38.235  28.506  31.266  1.00  0.00    -0.206 F 
ATOM     78  C   UNL A   1      35.960  29.770  28.742  1.00  0.00     0.006 A 
ENDBRANCH  50  71
BRANCH  62  79
ATOM     79  C   UNL A   1      44.434  32.440  31.022  1.00  0.00     0.057 A 
ATOM     80  C   UNL A   1      44.439  32.776  32.381  1.00  0.00     0.134 A 
ATOM     81  C   UNL A   1      44.739  33.449  30.101  1.00  0.00     0.134 A 
ATOM     82  F   UNL A   1      44.146  31.853  33.311  1.00  0.00    -0.206 F 
ATOM     83  C   UNL A   1      44.727  34.072  32.807  1.00  0.00     0.040 A 
ATOM     84  C   UNL A   1      45.051  34.744  30.516  1.00  0.00     0.040 A 
ATOM     85  F   UNL A   1      44.760  33.187  28.786  1.00  0.00    -0.206 F 
ATOM     86  C   UNL A   1      45.043  35.059  31.873  1.00  0.00     0.006 A 
ENDBRANCH  62  79
ENDBRANCH  36  37
ENDBRANCH  28  31
ENDBRANCH  26  27
ENDBRANCH  25  26
ENDBRANCH   1  25
TORSDOF 13
ENDMDL
MODEL 2
REMARK VINA RESULT:     -12.4      4.094      9.558
REMARK SMILES Cc1nn(C)c(=O)c(C(=O)N2CC[C@@H](C(=O)NCCCCNC(=O)c3ccc(-c4c5nc(c(-c6c(F)cccc6F)c6ccc([nH]6)c(-c6c(F)cccc6F)c6nc(c(-c7c(F)cccc7F)c7ccc4[nH]7)C=C6)C=C5)cc3)[C@@H]2C)c1C
REMARK SMILES IDX 19 1 18 2 17 3 15 4 16 5 14 7 11 8 12 9 79 10 13 11 80 12
REMARK SMILES IDX 9 13 10 14 8 15 1 16 2 17 3 18 81 19 4 20 82 21 5 22 6 23
REMARK SMILES IDX 7 24 20 25 21 26 22 27 23 28 24 30 25 31 26 32 78 33 27 34
REMARK SMILES IDX 77 35 28 36 29 37 30 38 71 39 31 40 76 41 70 42 72 43 32 44
REMARK SMILES IDX 75 45 69 46 68 47 33 49 59 50 42 51 58 52 43 53 46 54 57 55
REMARK SMILES IDX 73 56 44 57 45 58 56 60 74 61 47 62 34 63 35 64 40 65 36 66
REMARK SMILES IDX 37 67 39 68 41 69 38 70 60 71 61 72 66 73 62 74 63 75 65 76
REMARK SMILES IDX 67 77 64 78 48 79 49 80 54 81 50 82 51 83 53 84 55 85 52 86
REMARK H PARENT 17 6 22 29 72 48 46 59
REMARK Flexibility Score: inf
ROOT
ATOM      1  C   UNL A   1      31.725  30.472  26.593  1.00  0.00     0.023 C 
ENDROOT
BRANCH   1   2
ATOM      2  C   UNL A   1      33.134  29.985  26.282  1.00  0.00     0.116 C 
BRANCH   2   3
ATOM      3  N   UNL A   1      33.331  29.823  24.856  1.00  0.00    -0.356 N 
ATOM      4  C   UNL A   1      33.246  28.739  24.044  1.00  0.00     0.225 C 
ATOM      5  O   UNL A   1      33.569  28.913  22.864  1.00  0.00    -0.275 OA
ATOM      6  H   UNL A   1      33.573  30.656  24.388  1.00  0.00     0.163 HD
BRANCH   4   7
ATOM      7  C   UNL A   1      32.847  27.342  24.511  1.00  0.00     0.102 C 
ATOM      8  N   UNL A   1      33.834  25.373  23.579  1.00  0.00    -0.335 N 
ATOM      9  C   UNL A   1      34.047  25.294  25.017  1.00  0.00     0.121 C 
ATOM     10  C   UNL A   1      32.755  26.344  23.347  1.00  0.00     0.094 C 
ATOM     11  C   UNL A   1      33.721  26.678  25.574  1.00  0.00     0.037 C 
ATOM     12  C   UNL A   1      31.362  25.705  23.289  1.00  0.00     0.032 C 
BRANCH   8  13
ATOM     13  C   UNL A   1      33.881  24.169  22.863  1.00  0.00     0.260 C 
ATOM     14  O   UNL A   1      33.606  24.113  21.668  1.00  0.00    -0.269 OA
BRANCH  13  15
ATOM     15  C   UNL A   1      34.185  22.936  23.661  1.00  0.00     0.111 A 
ATOM     16  C   UNL A   1      36.841  21.243  25.659  1.00  0.00     0.069 C 
ATOM     17  C   UNL A   1      35.597  21.359  24.803  1.00  0.00     0.062 A 
ATOM     18  N   UNL A   1      34.676  20.477  25.002  1.00  0.00    -0.175 NA
ATOM     19  C   UNL A   1      35.445  22.507  23.872  1.00  0.00    -0.010 A 
ATOM     20  N   UNL A   1      33.462  20.714  24.421  1.00  0.00    -0.232 N 
ATOM     21  C   UNL A   1      36.654  22.954  23.126  1.00  0.00     0.047 C 
ATOM     22  C   UNL A   1      32.525  19.606  24.475  1.00  0.00     0.178 C 
ATOM     23  C   UNL A   1      33.069  21.978  23.977  1.00  0.00     0.279 A 
ATOM     24  O   UNL A   1      31.894  22.282  23.785  1.00  0.00    -0.267 OA
ENDBRANCH  13  15
ENDBRANCH   8  13
ENDBRANCH   4   7
ENDBRANCH   2   3
ENDBRANCH   1   2
BRANCH   1  25
ATOM     25  C   UNL A   1      31.530  31.975  26.656  1.00  0.00     0.023 C 
BRANCH  25  26
ATOM     26  C   UNL A   1      32.678  32.746  27.280  1.00  0.00     0.116 C 
BRANCH  26  27
ATOM     27  N   UNL A   1      32.352  34.124  27.625  1.00  0.00    -0.352 N 
ATOM     28  C   UNL A   1      32.938  34.978  28.538  1.00  0.00     0.251 C 
ATOM     29  H   UNL A   1      31.592  34.507  27.128  1.00  0.00     0.163 HD
ATOM     30  O   UNL A   1      32.459  36.081  28.745  1.00  0.00    -0.269 OA
BRANCH  28  31
ATOM     31  C   UNL A   1      34.121  34.525  29.303  1.00  0.00     0.039 A 
ATOM     32  C   UNL A   1      33.942  33.961  30.568  1.00  0.00     0.014 A 
ATOM     33  C   UNL A   1      35.392  34.587  28.737  1.00  0.00     0.014 A 
ATOM     34  C   UNL A   1      35.023  33.346  31.206  1.00  0.00     0.010 A 
ATOM     35  C   UNL A   1      36.426  33.856  29.303  1.00  0.00     0.010 A 
ATOM     36  C   UNL A   1      36.257  33.228  30.546  1.00  0.00    -0.014 A 
BRANCH  36  37
ATOM     37  C   UNL A   1      37.401  32.475  31.122  1.00  0.00     0.031 A 
ATOM     38  C   UNL A   1      38.006  32.932  32.423  1.00  0.00     0.074 A 
ATOM     39  C   UNL A   1      37.959  31.458  30.436  1.00  0.00     0.049 A 
ATOM     40  N   UNL A   1      39.108  32.537  33.008  1.00  0.00    -0.248 NA
ATOM     41  C   UNL A   1      37.304  34.014  33.135  1.00  0.00     0.031 C 
ATOM     42  C   UNL A   1      37.505  30.954  29.138  1.00  0.00     0.029 A 
ATOM     43  N   UNL A   1      39.042  30.670  30.733  1.00  0.00    -0.354 N 
ATOM     44  C   UNL A   1      39.247  33.348  34.127  1.00  0.00     0.074 A 
ATOM     45  C   UNL A   1      38.160  34.299  34.104  1.00  0.00     0.031 C 
ATOM     46  C   UNL A   1      38.274  29.914  28.775  1.00  0.00     0.029 A 
ATOM     47  C   UNL A   1      39.303  29.708  29.787  1.00  0.00     0.049 A 
ATOM     48  H   UNL A   1      39.582  30.782  31.549  1.00  0.00     0.167 HD
ATOM     49  C   UNL A   1      40.175  33.283  35.110  1.00  0.00     0.037 A 
ATOM     50  C   UNL A   1      40.266  28.767  29.743  1.00  0.00     0.037 A 
ATOM     51  C   UNL A   1      41.216  32.292  35.165  1.00  0.00     0.049 A 
ATOM     52  C   UNL A   1      41.263  28.687  30.864  1.00  0.00     0.074 A 
ATOM     53  C   UNL A   1      42.177  32.105  36.142  1.00  0.00     0.029 A 
ATOM     54  N   UNL A   1      41.414  31.307  34.209  1.00  0.00    -0.354 N 
ATOM     55  N   UNL A   1      41.369  29.445  31.929  1.00  0.00    -0.248 NA
ATOM     56  C   UNL A   1      42.272  27.622  30.782  1.00  0.00     0.031 C 
ATOM     57  C   UNL A   1      42.971  31.017  35.767  1.00  0.00     0.029 A 
ATOM     58  C   UNL A   1      42.481  30.505  34.576  1.00  0.00     0.049 A 
ATOM     59  H   UNL A   1      40.877  31.195  33.392  1.00  0.00     0.167 HD
ATOM     60  C   UNL A   1      42.434  28.932  32.657  1.00  0.00     0.074 A 
ATOM     61  C   UNL A   1      42.936  27.792  31.916  1.00  0.00     0.031 C 
ATOM     62  C   UNL A   1      42.950  29.364  33.833  1.00  0.00     0.037 A 
BRANCH  49  63
ATOM     63  C   UNL A   1      40.081  34.289  36.219  1.00  0.00     0.057 A 
ATOM     64  C   UNL A   1      39.345  34.031  37.385  1.00  0.00     0.134 A 
ATOM     65  C   UNL A   1      40.753  35.514  36.137  1.00  0.00     0.134 A 
ATOM     66  F   UNL A   1      38.664  32.884  37.518  1.00  0.00    -0.206 F 
ATOM     67  C   UNL A   1      39.258  34.967  38.415  1.00  0.00     0.040 A 
ATOM     68  C   UNL A   1      40.698  36.446  37.175  1.00  0.00     0.040 A 
ATOM     69  F   UNL A   1      41.478  35.824  35.052  1.00  0.00    -0.206 F 
ATOM     70  C   UNL A   1      39.943  36.177  38.315  1.00  0.00     0.006 A 
ENDBRANCH  49  63
BRANCH  50  71
ATOM     71  C   UNL A   1      40.293  27.787  28.626  1.00  0.00     0.057 A 
ATOM     72  C   UNL A   1      41.025  28.053  27.463  1.00  0.00     0.134 A 
ATOM     73  C   UNL A   1      39.615  26.565  28.696  1.00  0.00     0.134 A 
ATOM     74  F   UNL A   1      41.683  29.214  27.331  1.00  0.00    -0.206 F 
ATOM     75  C   UNL A   1      41.072  27.145  26.404  1.00  0.00     0.040 A 
ATOM     76  C   UNL A   1      39.671  25.638  27.653  1.00  0.00     0.040 A 
ATOM     77  F   UNL A   1      38.903  26.246  29.787  1.00  0.00    -0.206 F 
ATOM     78  C   UNL A   1      40.399  25.930  26.500  1.00  0.00     0.006 A 
ENDBRANCH  50  71
BRANCH  62  79
ATOM     79  C   UNL A   1      44.087  28.583  34.418  1.00  0.00     0.057 A 
ATOM     80  C   UNL A   1      45.421  28.931  34.175  1.00  0.00     0.134 A 
ATOM     81  C   UNL A   1      43.841  27.517  35.291  1.00  0.00     0.134 A 
ATOM     82  F   UNL A   1      45.720  29.938  33.340  1.00  0.00    -0.206 F 
ATOM     83  C   UNL A   1      46.473  28.236  34.773  1.00  0.00     0.040 A 
ATOM     84  C   UNL A   1      44.883  26.829  35.913  1.00  0.00     0.040 A 
ATOM     85  F   UNL A   1      42.583  27.143  35.572  1.00  0.00    -0.206 F 
ATOM     86  C   UNL A   1      46.204  27.187  35.652  1.00  0.00     0.006 A 
ENDBRANCH  62  79
ENDBRANCH  36  37
ENDBRANCH  28  31
ENDBRANCH  26  27
ENDBRANCH  25  26
ENDBRANCH   1  25
TORSDOF 13
ENDMDL
MODEL 3
REMARK VINA RESULT:     -12.3      0.395      6.279
REMARK SMILES Cc1nn(C)c(=O)c(C(=O)N2CC[C@@H](C(=O)NCCCCNC(=O)c3ccc(-c4c5nc(c(-c6c(F)cccc6F)c6ccc([nH]6)c(-c6c(F)cccc6F)c6nc(c(-c7c(F)cccc7F)c7ccc4[nH]7)C=C6)C=C5)cc3)[C@@H]2C)c1C
REMARK SMILES IDX 19 1 18 2 17 3 15 4 16 5 14 7 11 8 12 9 79 10 13 11 80 12
REMARK SMILES IDX 9 13 10 14 8 15 1 16 2 17 3 18 81 19 4 20 82 21 5 22 6 23
REMARK SMILES IDX 7 24 20 25 21 26 22 27 23 28 24 30 25 31 26 32 78 33 27 34
REMARK SMILES IDX 77 35 28 36 29 37 30 38 71 39 31 40 76 41 70 42 72 43 32 44
REMARK SMILES IDX 75 45 69 46 68 47 33 49 59 50 42 51 58 52 43 53 46 54 57 55
REMARK SMILES IDX 73 56 44 57 45 58 56 60 74 61 47 62 34 63 35 64 40 65 36 66
REMARK SMILES IDX 37 67 39 68 41 69 38 70 60 71 61 72 66 73 62 74 63 75 65 76
REMARK SMILES IDX 67 77 64 78 48 79 49 80 54 81 50 82 51 83 53 84 55 85 52 86
REMARK H PARENT 17 6 22 29 72 48 46 59
REMARK Flexibility Score: inf
ROOT
ATOM      1  C   UNL A   1      36.457  19.975  24.948  1.00  0.00     0.023 C 
ENDROOT
BRANCH   1   2
ATOM      2  C   UNL A   1      34.959  20.251  24.926  1.00  0.00     0.116 C 
BRANCH   2   3
ATOM      3  N   UNL A   1      34.499  20.757  26.204  1.00  0.00    -0.356 N 
ATOM      4  C   UNL A   1      33.919  21.930  26.560  1.00  0.00     0.225 C 
ATOM      5  O   UNL A   1      33.725  22.100  27.769  1.00  0.00    -0.275 OA
ATOM      6  H   UNL A   1      34.633  20.133  26.954  1.00  0.00     0.163 HD
BRANCH   4   7
ATOM      7  C   UNL A   1      33.563  23.048  25.583  1.00  0.00     0.102 C 
ATOM      8  N   UNL A   1      32.114  24.847  26.200  1.00  0.00    -0.335 N 
ATOM      9  C   UNL A   1      33.350  25.460  25.739  1.00  0.00     0.121 C 
ATOM     10  C   UNL A   1      32.090  23.468  25.691  1.00  0.00     0.094 C 
ATOM     11  C   UNL A   1      34.381  24.337  25.659  1.00  0.00     0.037 C 
ATOM     12  C   UNL A   1      31.387  23.331  24.335  1.00  0.00     0.032 C 
BRANCH   8  13
ATOM     13  C   UNL A   1      30.959  25.643  26.169  1.00  0.00     0.260 C 
ATOM     14  O   UNL A   1      29.865  25.211  26.517  1.00  0.00    -0.269 OA
BRANCH  13  15
ATOM     15  C   UNL A   1      31.119  27.017  25.589  1.00  0.00     0.111 A 
ATOM     16  C   UNL A   1      32.806  30.304  26.101  1.00  0.00     0.069 C 
ATOM     17  C   UNL A   1      31.756  29.336  25.595  1.00  0.00     0.062 A 
ATOM     18  N   UNL A   1      31.195  29.630  24.471  1.00  0.00    -0.175 NA
ATOM     19  C   UNL A   1      31.498  28.073  26.334  1.00  0.00    -0.010 A 
ATOM     20  N   UNL A   1      30.438  28.653  23.888  1.00  0.00    -0.232 N 
ATOM     21  C   UNL A   1      31.500  28.134  27.823  1.00  0.00     0.047 C 
ATOM     22  C   UNL A   1      29.644  29.083  22.750  1.00  0.00     0.178 C 
ATOM     23  C   UNL A   1      30.553  27.303  24.226  1.00  0.00     0.279 A 
ATOM     24  O   UNL A   1      30.158  26.397  23.496  1.00  0.00    -0.267 OA
ENDBRANCH  13  15
ENDBRANCH   8  13
ENDBRANCH   4   7
ENDBRANCH   2   3
ENDBRANCH   1   2
BRANCH   1  25
ATOM     25  C   UNL A   1      37.365  21.173  24.747  1.00  0.00     0.023 C 
BRANCH  25  26
ATOM     26  C   UNL A   1      38.551  21.244  25.692  1.00  0.00     0.116 C 
BRANCH  26  27
ATOM     27  N   UNL A   1      39.433  20.084  25.628  1.00  0.00    -0.352 N 
ATOM     28  C   UNL A   1      40.760  19.953  25.985  1.00  0.00     0.251 C 
ATOM     29  H   UNL A   1      39.016  19.266  25.273  1.00  0.00     0.163 HD
ATOM     30  O   UNL A   1      41.354  18.908  25.772  1.00  0.00    -0.269 OA
BRANCH  28  31
ATOM     31  C   UNL A   1      41.472  21.107  26.578  1.00  0.00     0.039 A 
ATOM     32  C   UNL A   1      42.028  22.073  25.737  1.00  0.00     0.014 A 
ATOM     33  C   UNL A   1      41.521  21.269  27.961  1.00  0.00     0.014 A 
ATOM     34  C   UNL A   1      42.517  23.262  26.286  1.00  0.00     0.010 A 
ATOM     35  C   UNL A   1      41.874  22.501  28.490  1.00  0.00     0.010 A 
ATOM     36  C   UNL A   1      42.380  23.514  27.660  1.00  0.00    -0.014 A 
BRANCH  36  37
ATOM     37  C   UNL A   1      42.765  24.809  28.277  1.00  0.00     0.031 A 
ATOM     38  C   UNL A   1      41.715  25.866  28.493  1.00  0.00     0.074 A 
ATOM     39  C   UNL A   1      44.059  25.076  28.544  1.00  0.00     0.049 A 
ATOM     40  N   UNL A   1      41.859  27.118  28.845  1.00  0.00    -0.248 NA
ATOM     41  C   UNL A   1      40.319  25.476  28.228  1.00  0.00     0.031 C 
ATOM     42  C   UNL A   1      45.181  24.160  28.329  1.00  0.00     0.029 A 
ATOM     43  N   UNL A   1      44.650  26.207  29.049  1.00  0.00    -0.354 N 
ATOM     44  C   UNL A   1      40.584  27.667  28.803  1.00  0.00     0.074 A 
ATOM     45  C   UNL A   1      39.690  26.636  28.326  1.00  0.00     0.031 C 
ATOM     46  C   UNL A   1      46.317  24.749  28.741  1.00  0.00     0.029 A 
ATOM     47  C   UNL A   1      46.012  26.098  29.204  1.00  0.00     0.049 A 
ATOM     48  H   UNL A   1      44.147  27.021  29.279  1.00  0.00     0.167 HD
ATOM     49  C   UNL A   1      40.183  28.908  29.165  1.00  0.00     0.037 A 
ATOM     50  C   UNL A   1      46.911  26.987  29.667  1.00  0.00     0.037 A 
ATOM     51  C   UNL A   1      41.064  29.909  29.702  1.00  0.00     0.049 A 
ATOM     52  C   UNL A   1      46.439  28.346  30.101  1.00  0.00     0.074 A 
ATOM     53  C   UNL A   1      40.753  31.181  30.149  1.00  0.00     0.029 A 
ATOM     54  N   UNL A   1      42.428  29.739  29.886  1.00  0.00    -0.354 N 
ATOM     55  N   UNL A   1      45.226  28.844  30.077  1.00  0.00    -0.248 NA
ATOM     56  C   UNL A   1      47.456  29.266  30.628  1.00  0.00     0.031 C 
ATOM     57  C   UNL A   1      41.933  31.789  30.585  1.00  0.00     0.029 A 
ATOM     58  C   UNL A   1      42.972  30.882  30.445  1.00  0.00     0.049 A 
ATOM     59  H   UNL A   1      42.933  28.927  29.654  1.00  0.00     0.167 HD
ATOM     60  C   UNL A   1      45.329  30.121  30.612  1.00  0.00     0.074 A 
ATOM     61  C   UNL A   1      46.722  30.318  30.960  1.00  0.00     0.031 C 
ATOM     62  C   UNL A   1      44.358  31.048  30.800  1.00  0.00     0.037 A 
BRANCH  49  63
ATOM     63  C   UNL A   1      38.725  29.234  29.023  1.00  0.00     0.057 A 
ATOM     64  C   UNL A   1      38.167  29.587  27.787  1.00  0.00     0.134 A 
ATOM     65  C   UNL A   1      37.864  29.166  30.125  1.00  0.00     0.134 A 
ATOM     66  F   UNL A   1      38.941  29.687  26.696  1.00  0.00    -0.206 F 
ATOM     67  C   UNL A   1      36.811  29.890  27.657  1.00  0.00     0.040 A 
ATOM     68  C   UNL A   1      36.500  29.437  30.002  1.00  0.00     0.040 A 
ATOM     69  F   UNL A   1      38.331  28.831  31.337  1.00  0.00    -0.206 F 
ATOM     70  C   UNL A   1      35.972  29.807  28.766  1.00  0.00     0.006 A 
ENDBRANCH  49  63
BRANCH  50  71
ATOM     71  C   UNL A   1      48.338  26.596  29.801  1.00  0.00     0.057 A 
ATOM     72  C   UNL A   1      48.785  25.908  30.934  1.00  0.00     0.134 A 
ATOM     73  C   UNL A   1      49.280  26.878  28.805  1.00  0.00     0.134 A 
ATOM     74  F   UNL A   1      47.933  25.623  31.930  1.00  0.00    -0.206 F 
ATOM     75  C   UNL A   1      50.119  25.523  31.080  1.00  0.00     0.040 A 
ATOM     76  C   UNL A   1      50.613  26.481  28.926  1.00  0.00     0.040 A 
ATOM     77  F   UNL A   1      48.913  27.527  27.689  1.00  0.00    -0.206 F 
ATOM     78  C   UNL A   1      51.036  25.804  30.070  1.00  0.00     0.006 A 
ENDBRANCH  50  71
BRANCH  62  79
ATOM     79  C   UNL A   1      44.752  32.341  31.446  1.00  0.00     0.057 A 
ATOM     80  C   UNL A   1      45.141  33.454  30.690  1.00  0.00     0.134 A 
ATOM     81  C   UNL A   1      44.669  32.495  32.835  1.00  0.00     0.134 A 
ATOM     82  F   UNL A   1      45.247  33.365  29.356  1.00  0.00    -0.206 F 
ATOM     83  C   UNL A   1      45.447  34.672  31.297  1.00  0.00     0.040 A 
ATOM     84  C   UNL A   1      44.950  33.714  33.451  1.00  0.00     0.040 A 
ATOM     85  F   UNL A   1      44.292  31.468  33.612  1.00  0.00    -0.206 F 
ATOM     86  C   UNL A   1      45.344  34.807  32.681  1.00  0.00     0.006 A 
ENDBRANCH  62  79
ENDBRANCH  36  37
ENDBRANCH  28  31
ENDBRANCH  26  27
ENDBRANCH  25  26
ENDBRANCH   1  25
TORSDOF 13
ENDMDL
