MODEL 1
REMARK VINA RESULT:     -10.3      0.000      0.000
REMARK SMILES CC(=O)Oc1ccccc1SCCCCCC(=O)NCCCCNC(=O)c1ccc(-c2c3nc(c(-c4c(F)cccc4F)c4ccc([nH]4)c(-c4c(F)cccc4F)c4nc(c(-c5c(F)cccc5F)c5ccc2[nH]5)C=C4)C=C3)cc1
REMARK SMILES IDX 17 1 18 2 19 3 16 5 15 6 14 7 13 8 12 9 11 10 10 11 5 12
REMARK SMILES IDX 6 13 7 14 9 15 8 16 4 17 2 18 1 19 3 20 20 21 21 22 22 23
REMARK SMILES IDX 23 24 24 25 25 26 26 28 27 29 28 30 80 31 29 32 79 33 30 34
REMARK SMILES IDX 31 35 32 36 73 37 33 38 78 39 72 40 74 41 34 42 77 43 71 44
REMARK SMILES IDX 70 45 35 47 61 48 44 49 60 50 45 51 48 52 59 53 75 54 46 55
REMARK SMILES IDX 47 56 58 58 76 59 49 60 36 61 37 62 42 63 38 64 39 65 41 66
REMARK SMILES IDX 43 67 40 68 62 69 63 70 68 71 64 72 65 73 67 74 69 75 66 76
REMARK SMILES IDX 50 77 51 78 56 79 52 80 53 81 55 82 57 83 54 84
REMARK H PARENT 19 4 24 27 74 46 48 57
REMARK Flexibility Score: inf
ROOT
ATOM      1  C   UNL A   1      32.885  30.435  26.868  1.00  0.00     0.219 C 
ATOM      2  O   UNL A   1      31.871  30.575  26.185  1.00  0.00    -0.275 OA
ATOM      3  N   UNL A   1      33.555  31.545  27.282  1.00  0.00    -0.356 N 
ATOM      4  H   UNL A   1      33.122  32.409  27.093  1.00  0.00     0.163 HD
ENDROOT
BRANCH   1   5
ATOM      5  C   UNL A   1      33.381  29.062  27.279  1.00  0.00     0.100 C 
BRANCH   5   6
ATOM      6  C   UNL A   1      34.166  28.323  26.194  1.00  0.00     0.010 C 
BRANCH   6   7
ATOM      7  C   UNL A   1      33.668  26.961  25.664  1.00  0.00     0.001 C 
BRANCH   7   8
ATOM      8  C   UNL A   1      32.332  26.871  24.929  1.00  0.00     0.011 C 
BRANCH   8   9
ATOM      9  C   UNL A   1      32.133  27.301  23.464  1.00  0.00     0.075 C 
BRANCH   9  10
ATOM     10  S   UNL A   1      31.571  28.910  22.814  1.00  0.00    -0.122 SA
BRANCH  10  11
ATOM     11  C   UNL A   1      29.825  29.056  23.105  1.00  0.00     0.050 A 
ATOM     12  C   UNL A   1      28.961  30.135  22.872  1.00  0.00     0.144 A 
ATOM     13  C   UNL A   1      27.566  29.944  22.873  1.00  0.00     0.048 A 
ATOM     14  C   UNL A   1      27.019  28.695  23.161  1.00  0.00     0.004 A 
ATOM     15  C   UNL A   1      29.242  27.829  23.488  1.00  0.00     0.019 A 
ATOM     16  C   UNL A   1      27.858  27.641  23.499  1.00  0.00     0.001 A 
BRANCH  12  17
ATOM     17  O   UNL A   1      29.338  31.375  22.286  1.00  0.00    -0.426 OA
BRANCH  17  18
ATOM     18  C   UNL A   1      28.560  32.495  22.004  1.00  0.00     0.308 C 
ATOM     19  C   UNL A   1      28.028  32.335  20.601  1.00  0.00     0.139 C 
ATOM     20  O   UNL A   1      28.349  33.441  22.739  1.00  0.00    -0.252 OA
ENDBRANCH  17  18
ENDBRANCH  12  17
ENDBRANCH  10  11
ENDBRANCH   9  10
ENDBRANCH   8   9
ENDBRANCH   7   8
ENDBRANCH   6   7
ENDBRANCH   5   6
ENDBRANCH   1   5
BRANCH   3  21
ATOM     21  C   UNL A   1      34.825  31.608  27.965  1.00  0.00     0.116 C 
BRANCH  21  22
ATOM     22  C   UNL A   1      34.777  32.655  29.075  1.00  0.00     0.023 C 
BRANCH  22  23
ATOM     23  C   UNL A   1      33.628  33.632  29.006  1.00  0.00     0.023 C 
BRANCH  23  24
ATOM     24  C   UNL A   1      33.981  34.993  29.559  1.00  0.00     0.116 C 
BRANCH  24  25
ATOM     25  N   UNL A   1      32.907  35.664  30.287  1.00  0.00    -0.352 N 
ATOM     26  C   UNL A   1      32.787  35.751  31.660  1.00  0.00     0.251 C 
ATOM     27  H   UNL A   1      32.203  36.094  29.750  1.00  0.00     0.163 HD
ATOM     28  O   UNL A   1      31.834  36.295  32.200  1.00  0.00    -0.269 OA
BRANCH  26  29
ATOM     29  C   UNL A   1      33.846  35.094  32.447  1.00  0.00     0.039 A 
ATOM     30  C   UNL A   1      33.660  33.771  32.846  1.00  0.00     0.014 A 
ATOM     31  C   UNL A   1      35.103  35.701  32.498  1.00  0.00     0.014 A 
ATOM     32  C   UNL A   1      34.773  33.016  33.216  1.00  0.00     0.010 A 
ATOM     33  C   UNL A   1      36.214  34.906  32.726  1.00  0.00     0.010 A 
ATOM     34  C   UNL A   1      36.064  33.561  33.101  1.00  0.00    -0.014 A 
BRANCH  34  35
ATOM     35  C   UNL A   1      37.279  32.766  33.410  1.00  0.00     0.031 A 
ATOM     36  C   UNL A   1      38.025  33.052  34.687  1.00  0.00     0.074 A 
ATOM     37  C   UNL A   1      37.754  31.860  32.530  1.00  0.00     0.049 A 
ATOM     38  N   UNL A   1      39.168  32.573  35.104  1.00  0.00    -0.248 NA
ATOM     39  C   UNL A   1      37.431  34.051  35.594  1.00  0.00     0.031 C 
ATOM     40  C   UNL A   1      37.162  31.534  31.230  1.00  0.00     0.029 A 
ATOM     41  N   UNL A   1      38.860  31.047  32.598  1.00  0.00    -0.354 N 
ATOM     42  C   UNL A   1      39.440  33.239  36.291  1.00  0.00     0.074 A 
ATOM     43  C   UNL A   1      38.387  34.204  36.496  1.00  0.00     0.031 C 
ATOM     44  C   UNL A   1      37.887  30.566  30.642  1.00  0.00     0.029 A 
ATOM     45  C   UNL A   1      39.021  30.233  31.500  1.00  0.00     0.049 A 
ATOM     46  H   UNL A   1      39.482  31.049  33.361  1.00  0.00     0.167 HD
ATOM     47  C   UNL A   1      40.456  33.036  37.160  1.00  0.00     0.037 A 
ATOM     48  C   UNL A   1      39.976  29.326  31.222  1.00  0.00     0.037 A 
ATOM     49  C   UNL A   1      41.457  32.021  36.994  1.00  0.00     0.049 A 
ATOM     50  C   UNL A   1      41.083  29.103  32.221  1.00  0.00     0.074 A 
ATOM     51  C   UNL A   1      42.474  31.669  37.863  1.00  0.00     0.029 A 
ATOM     52  N   UNL A   1      41.557  31.188  35.892  1.00  0.00    -0.354 N 
ATOM     53  N   UNL A   1      41.279  29.681  33.382  1.00  0.00    -0.248 NA
ATOM     54  C   UNL A   1      42.099  28.098  31.875  1.00  0.00     0.031 C 
ATOM     55  C   UNL A   1      43.220  30.650  37.264  1.00  0.00     0.029 A 
ATOM     56  C   UNL A   1      42.634  30.335  36.048  1.00  0.00     0.049 A 
ATOM     57  H   UNL A   1      40.952  31.201  35.115  1.00  0.00     0.167 HD
ATOM     58  C   UNL A   1      42.412  29.082  33.920  1.00  0.00     0.074 A 
ATOM     59  C   UNL A   1      42.854  28.090  32.963  1.00  0.00     0.031 C 
ATOM     60  C   UNL A   1      43.034  29.332  35.097  1.00  0.00     0.037 A 
BRANCH  47  61
ATOM     61  C   UNL A   1      40.521  33.912  38.375  1.00  0.00     0.057 A 
ATOM     62  C   UNL A   1      41.273  35.094  38.397  1.00  0.00     0.134 A 
ATOM     63  C   UNL A   1      39.782  33.592  39.520  1.00  0.00     0.134 A 
ATOM     64  F   UNL A   1      42.019  35.446  37.339  1.00  0.00    -0.206 F 
ATOM     65  C   UNL A   1      41.301  35.919  39.522  1.00  0.00     0.040 A 
ATOM     66  C   UNL A   1      39.778  34.425  40.641  1.00  0.00     0.040 A 
ATOM     67  F   UNL A   1      39.042  32.474  39.564  1.00  0.00    -0.206 F 
ATOM     68  C   UNL A   1      40.542  35.590  40.644  1.00  0.00     0.006 A 
ENDBRANCH  47  61
BRANCH  48  69
ATOM     69  C   UNL A   1      39.938  28.536  29.961  1.00  0.00     0.057 A 
ATOM     70  C   UNL A   1      39.243  27.322  29.891  1.00  0.00     0.134 A 
ATOM     71  C   UNL A   1      40.639  28.940  28.819  1.00  0.00     0.134 A 
ATOM     72  F   UNL A   1      38.567  26.868  30.958  1.00  0.00    -0.206 F 
ATOM     73  C   UNL A   1      39.277  26.521  28.748  1.00  0.00     0.040 A 
ATOM     74  C   UNL A   1      40.658  28.163  27.658  1.00  0.00     0.040 A 
ATOM     75  F   UNL A   1      41.319  30.096  28.815  1.00  0.00    -0.206 F 
ATOM     76  C   UNL A   1      39.986  26.943  27.625  1.00  0.00     0.006 A 
ENDBRANCH  48  69
BRANCH  60  77
ATOM     77  C   UNL A   1      44.218  28.481  35.448  1.00  0.00     0.057 A 
ATOM     78  C   UNL A   1      45.524  28.856  35.117  1.00  0.00     0.134 A 
ATOM     79  C   UNL A   1      44.047  27.303  36.188  1.00  0.00     0.134 A 
ATOM     80  F   UNL A   1      45.752  29.969  34.402  1.00  0.00    -0.206 F 
ATOM     81  C   UNL A   1      46.621  28.078  35.490  1.00  0.00     0.040 A 
ATOM     82  C   UNL A   1      45.137  26.532  36.592  1.00  0.00     0.040 A 
ATOM     83  F   UNL A   1      42.821  26.897  36.549  1.00  0.00    -0.206 F 
ATOM     84  C   UNL A   1      46.428  26.917  36.238  1.00  0.00     0.006 A 
ENDBRANCH  60  77
ENDBRANCH  34  35
ENDBRANCH  26  29
ENDBRANCH  24  25
ENDBRANCH  23  24
ENDBRANCH  22  23
ENDBRANCH  21  22
ENDBRANCH   3  21
TORSDOF 19
ENDMDL
MODEL 2
REMARK VINA RESULT:     -10.1      3.076      5.155
REMARK SMILES CC(=O)Oc1ccccc1SCCCCCC(=O)NCCCCNC(=O)c1ccc(-c2c3nc(c(-c4c(F)cccc4F)c4ccc([nH]4)c(-c4c(F)cccc4F)c4nc(c(-c5c(F)cccc5F)c5ccc2[nH]5)C=C4)C=C3)cc1
REMARK SMILES IDX 17 1 18 2 19 3 16 5 15 6 14 7 13 8 12 9 11 10 10 11 5 12
REMARK SMILES IDX 6 13 7 14 9 15 8 16 4 17 2 18 1 19 3 20 20 21 21 22 22 23
REMARK SMILES IDX 23 24 24 25 25 26 26 28 27 29 28 30 80 31 29 32 79 33 30 34
REMARK SMILES IDX 31 35 32 36 73 37 33 38 78 39 72 40 74 41 34 42 77 43 71 44
REMARK SMILES IDX 70 45 35 47 61 48 44 49 60 50 45 51 48 52 59 53 75 54 46 55
REMARK SMILES IDX 47 56 58 58 76 59 49 60 36 61 37 62 42 63 38 64 39 65 41 66
REMARK SMILES IDX 43 67 40 68 62 69 63 70 68 71 64 72 65 73 67 74 69 75 66 76
REMARK SMILES IDX 50 77 51 78 56 79 52 80 53 81 55 82 57 83 54 84
REMARK H PARENT 19 4 24 27 74 46 48 57
REMARK Flexibility Score: inf
ROOT
ATOM      1  C   UNL A   1      30.606  29.003  23.383  1.00  0.00     0.219 C 
ATOM      2  O   UNL A   1      29.649  29.322  22.677  1.00  0.00    -0.275 OA
ATOM      3  N   UNL A   1      30.980  29.833  24.395  1.00  0.00    -0.356 N 
ATOM      4  H   UNL A   1      30.387  30.599  24.569  1.00  0.00     0.163 HD
ENDROOT
BRANCH   1   5
ATOM      5  C   UNL A   1      31.352  27.701  23.165  1.00  0.00     0.100 C 
BRANCH   5   6
ATOM      6  C   UNL A   1      30.702  26.482  23.821  1.00  0.00     0.010 C 
BRANCH   6   7
ATOM      7  C   UNL A   1      30.793  26.280  25.349  1.00  0.00     0.001 C 
BRANCH   7   8
ATOM      8  C   UNL A   1      30.103  25.083  26.003  1.00  0.00     0.011 C 
BRANCH   8   9
ATOM      9  C   UNL A   1      30.736  23.683  26.103  1.00  0.00     0.075 C 
BRANCH   9  10
ATOM     10  S   UNL A   1      32.203  23.160  27.051  1.00  0.00    -0.122 SA
BRANCH  10  11
ATOM     11  C   UNL A   1      33.606  23.154  25.959  1.00  0.00     0.050 A 
ATOM     12  C   UNL A   1      34.345  22.078  25.450  1.00  0.00     0.144 A 
ATOM     13  C   UNL A   1      35.213  22.264  24.358  1.00  0.00     0.048 A 
ATOM     14  C   UNL A   1      35.395  23.529  23.801  1.00  0.00     0.004 A 
ATOM     15  C   UNL A   1      33.883  24.437  25.439  1.00  0.00     0.019 A 
ATOM     16  C   UNL A   1      34.752  24.624  24.362  1.00  0.00     0.001 A 
BRANCH  12  17
ATOM     17  O   UNL A   1      34.069  20.705  25.696  1.00  0.00    -0.426 OA
BRANCH  17  18
ATOM     18  C   UNL A   1      33.107  19.878  25.121  1.00  0.00     0.308 C 
ATOM     19  C   UNL A   1      33.821  18.673  24.561  1.00  0.00     0.139 C 
ATOM     20  O   UNL A   1      31.909  20.082  25.063  1.00  0.00    -0.252 OA
ENDBRANCH  17  18
ENDBRANCH  12  17
ENDBRANCH  10  11
ENDBRANCH   9  10
ENDBRANCH   8   9
ENDBRANCH   7   8
ENDBRANCH   6   7
ENDBRANCH   5   6
ENDBRANCH   1   5
BRANCH   3  21
ATOM     21  C   UNL A   1      32.142  29.724  25.245  1.00  0.00     0.116 C 
BRANCH  21  22
ATOM     22  C   UNL A   1      31.840  30.296  26.627  1.00  0.00     0.023 C 
BRANCH  22  23
ATOM     23  C   UNL A   1      31.290  31.702  26.651  1.00  0.00     0.023 C 
BRANCH  23  24
ATOM     24  C   UNL A   1      32.367  32.755  26.540  1.00  0.00     0.116 C 
BRANCH  24  25
ATOM     25  N   UNL A   1      32.237  33.875  27.471  1.00  0.00    -0.352 N 
ATOM     26  C   UNL A   1      33.143  34.225  28.451  1.00  0.00     0.251 C 
ATOM     27  H   UNL A   1      31.428  34.430  27.392  1.00  0.00     0.163 HD
ATOM     28  O   UNL A   1      32.947  35.152  29.223  1.00  0.00    -0.269 OA
BRANCH  26  29
ATOM     29  C   UNL A   1      34.344  33.376  28.559  1.00  0.00     0.039 A 
ATOM     30  C   UNL A   1      35.599  33.980  28.490  1.00  0.00     0.014 A 
ATOM     31  C   UNL A   1      34.188  32.070  29.028  1.00  0.00     0.014 A 
ATOM     32  C   UNL A   1      36.705  33.291  28.988  1.00  0.00     0.010 A 
ATOM     33  C   UNL A   1      35.263  31.456  29.650  1.00  0.00     0.010 A 
ATOM     34  C   UNL A   1      36.536  32.050  29.625  1.00  0.00    -0.014 A 
BRANCH  34  35
ATOM     35  C   UNL A   1      37.675  31.322  30.237  1.00  0.00     0.031 A 
ATOM     36  C   UNL A   1      38.008  31.584  31.683  1.00  0.00     0.074 A 
ATOM     37  C   UNL A   1      38.448  30.500  29.497  1.00  0.00     0.049 A 
ATOM     38  N   UNL A   1      39.023  31.159  32.389  1.00  0.00    -0.248 NA
ATOM     39  C   UNL A   1      37.107  32.489  32.419  1.00  0.00     0.031 C 
ATOM     40  C   UNL A   1      38.271  30.209  28.071  1.00  0.00     0.029 A 
ATOM     41  N   UNL A   1      39.552  29.760  29.846  1.00  0.00    -0.354 N 
ATOM     42  C   UNL A   1      38.898  31.774  33.628  1.00  0.00     0.074 A 
ATOM     43  C   UNL A   1      37.757  32.654  33.559  1.00  0.00     0.031 C 
ATOM     44  C   UNL A   1      39.207  29.327  27.680  1.00  0.00     0.029 A 
ATOM     45  C   UNL A   1      40.077  29.022  28.811  1.00  0.00     0.049 A 
ATOM     46  H   UNL A   1      39.933  29.760  30.754  1.00  0.00     0.167 HD
ATOM     47  C   UNL A   1      39.643  31.590  34.741  1.00  0.00     0.037 A 
ATOM     48  C   UNL A   1      41.142  28.197  28.783  1.00  0.00     0.037 A 
ATOM     49  C   UNL A   1      40.728  30.655  34.830  1.00  0.00     0.049 A 
ATOM     50  C   UNL A   1      41.938  27.992  30.047  1.00  0.00     0.074 A 
ATOM     51  C   UNL A   1      41.486  30.323  35.938  1.00  0.00     0.029 A 
ATOM     52  N   UNL A   1      41.199  29.894  33.772  1.00  0.00    -0.354 N 
ATOM     53  N   UNL A   1      41.755  28.516  31.235  1.00  0.00    -0.248 NA
ATOM     54  C   UNL A   1      43.087  27.078  29.967  1.00  0.00     0.031 C 
ATOM     55  C   UNL A   1      42.448  29.391  35.540  1.00  0.00     0.029 A 
ATOM     56  C   UNL A   1      42.253  29.106  34.197  1.00  0.00     0.049 A 
ATOM     57  H   UNL A   1      40.836  29.911  32.857  1.00  0.00     0.167 HD
ATOM     58  C   UNL A   1      42.736  27.964  32.050  1.00  0.00     0.074 A 
ATOM     59  C   UNL A   1      43.505  27.058  31.224  1.00  0.00     0.031 C 
ATOM     60  C   UNL A   1      42.981  28.187  33.364  1.00  0.00     0.037 A 
BRANCH  47  61
ATOM     61  C   UNL A   1      39.296  32.398  35.954  1.00  0.00     0.057 A 
ATOM     62  C   UNL A   1      39.836  33.672  36.177  1.00  0.00     0.134 A 
ATOM     63  C   UNL A   1      38.370  31.916  36.887  1.00  0.00     0.134 A 
ATOM     64  F   UNL A   1      40.744  34.183  35.332  1.00  0.00    -0.206 F 
ATOM     65  C   UNL A   1      39.481  34.430  37.294  1.00  0.00     0.040 A 
ATOM     66  C   UNL A   1      37.984  32.677  37.992  1.00  0.00     0.040 A 
ATOM     67  F   UNL A   1      37.815  30.704  36.733  1.00  0.00    -0.206 F 
ATOM     68  C   UNL A   1      38.543  33.936  38.199  1.00  0.00     0.006 A 
ENDBRANCH  47  61
BRANCH  48  69
ATOM     69  C   UNL A   1      41.520  27.478  27.536  1.00  0.00     0.057 A 
ATOM     70  C   UNL A   1      41.090  26.167  27.299  1.00  0.00     0.134 A 
ATOM     71  C   UNL A   1      42.366  28.057  26.583  1.00  0.00     0.134 A 
ATOM     72  F   UNL A   1      40.295  25.547  28.185  1.00  0.00    -0.206 F 
ATOM     73  C   UNL A   1      41.516  25.444  26.183  1.00  0.00     0.040 A 
ATOM     74  C   UNL A   1      42.776  27.357  25.446  1.00  0.00     0.040 A 
ATOM     75  F   UNL A   1      42.809  29.313  26.743  1.00  0.00    -0.206 F 
ATOM     76  C   UNL A   1      42.361  26.041  25.250  1.00  0.00     0.006 A 
ENDBRANCH  48  69
BRANCH  60  77
ATOM     77  C   UNL A   1      44.083  27.398  34.006  1.00  0.00     0.057 A 
ATOM     78  C   UNL A   1      43.858  26.142  34.579  1.00  0.00     0.134 A 
ATOM     79  C   UNL A   1      45.399  27.879  33.988  1.00  0.00     0.134 A 
ATOM     80  F   UNL A   1      42.619  25.631  34.634  1.00  0.00    -0.206 F 
ATOM     81  C   UNL A   1      44.902  25.398  35.132  1.00  0.00     0.040 A 
ATOM     82  C   UNL A   1      46.455  27.132  34.511  1.00  0.00     0.040 A 
ATOM     83  F   UNL A   1      45.683  29.070  33.441  1.00  0.00    -0.206 F 
ATOM     84  C   UNL A   1      46.205  25.889  35.090  1.00  0.00     0.006 A 
ENDBRANCH  60  77
ENDBRANCH  34  35
ENDBRANCH  26  29
ENDBRANCH  24  25
ENDBRANCH  23  24
ENDBRANCH  22  23
ENDBRANCH  21  22
ENDBRANCH   3  21
TORSDOF 19
ENDMDL
MODEL 3
REMARK VINA RESULT:     -10.0      2.951      7.820
REMARK SMILES CC(=O)Oc1ccccc1SCCCCCC(=O)NCCCCNC(=O)c1ccc(-c2c3nc(c(-c4c(F)cccc4F)c4ccc([nH]4)c(-c4c(F)cccc4F)c4nc(c(-c5c(F)cccc5F)c5ccc2[nH]5)C=C4)C=C3)cc1
REMARK SMILES IDX 17 1 18 2 19 3 16 5 15 6 14 7 13 8 12 9 11 10 10 11 5 12
REMARK SMILES IDX 6 13 7 14 9 15 8 16 4 17 2 18 1 19 3 20 20 21 21 22 22 23
REMARK SMILES IDX 23 24 24 25 25 26 26 28 27 29 28 30 80 31 29 32 79 33 30 34
REMARK SMILES IDX 31 35 32 36 73 37 33 38 78 39 72 40 74 41 34 42 77 43 71 44
REMARK SMILES IDX 70 45 35 47 61 48 44 49 60 50 45 51 48 52 59 53 75 54 46 55
REMARK SMILES IDX 47 56 58 58 76 59 49 60 36 61 37 62 42 63 38 64 39 65 41 66
REMARK SMILES IDX 43 67 40 68 62 69 63 70 68 71 64 72 65 73 67 74 69 75 66 76
REMARK SMILES IDX 50 77 51 78 56 79 52 80 53 81 55 82 57 83 54 84
REMARK H PARENT 19 4 24 27 74 46 48 57
REMARK Flexibility Score: inf
ROOT
ATOM      1  C   UNL A   1      30.394  29.395  23.515  1.00  0.00     0.219 C 
ATOM      2  O   UNL A   1      29.514  29.982  22.886  1.00  0.00    -0.275 OA
ATOM      3  N   UNL A   1      30.999  30.037  24.552  1.00  0.00    -0.356 N 
ATOM      4  H   UNL A   1      30.617  30.908  24.804  1.00  0.00     0.163 HD
ENDROOT
BRANCH   1   5
ATOM      5  C   UNL A   1      30.793  27.971  23.178  1.00  0.00     0.100 C 
BRANCH   5   6
ATOM      6  C   UNL A   1      30.136  26.905  24.057  1.00  0.00     0.010 C 
BRANCH   6   7
ATOM      7  C   UNL A   1      30.877  26.350  25.292  1.00  0.00     0.001 C 
BRANCH   7   8
ATOM      8  C   UNL A   1      30.262  25.209  26.101  1.00  0.00     0.011 C 
BRANCH   8   9
ATOM      9  C   UNL A   1      30.691  23.736  25.964  1.00  0.00     0.075 C 
BRANCH   9  10
ATOM     10  S   UNL A   1      31.971  22.830  26.894  1.00  0.00    -0.122 SA
BRANCH  10  11
ATOM     11  C   UNL A   1      33.481  22.869  25.959  1.00  0.00     0.050 A 
ATOM     12  C   UNL A   1      34.228  21.818  25.411  1.00  0.00     0.144 A 
ATOM     13  C   UNL A   1      35.215  22.075  24.441  1.00  0.00     0.048 A 
ATOM     14  C   UNL A   1      35.506  23.381  24.051  1.00  0.00     0.004 A 
ATOM     15  C   UNL A   1      33.864  24.184  25.617  1.00  0.00     0.019 A 
ATOM     16  C   UNL A   1      34.850  24.441  24.662  1.00  0.00     0.001 A 
BRANCH  12  17
ATOM     17  O   UNL A   1      33.872  20.442  25.472  1.00  0.00    -0.426 OA
BRANCH  17  18
ATOM     18  C   UNL A   1      32.794  19.779  24.890  1.00  0.00     0.308 C 
ATOM     19  C   UNL A   1      32.383  20.566  23.670  1.00  0.00     0.139 C 
ATOM     20  O   UNL A   1      32.264  18.759  25.287  1.00  0.00    -0.252 OA
ENDBRANCH  17  18
ENDBRANCH  12  17
ENDBRANCH  10  11
ENDBRANCH   9  10
ENDBRANCH   8   9
ENDBRANCH   7   8
ENDBRANCH   6   7
ENDBRANCH   5   6
ENDBRANCH   1   5
BRANCH   3  21
ATOM     21  C   UNL A   1      32.134  29.593  25.326  1.00  0.00     0.116 C 
BRANCH  21  22
ATOM     22  C   UNL A   1      32.137  30.270  26.694  1.00  0.00     0.023 C 
BRANCH  22  23
ATOM     23  C   UNL A   1      31.459  31.617  26.762  1.00  0.00     0.023 C 
BRANCH  23  24
ATOM     24  C   UNL A   1      32.420  32.768  26.575  1.00  0.00     0.116 C 
BRANCH  24  25
ATOM     25  N   UNL A   1      32.158  33.937  27.412  1.00  0.00    -0.352 N 
ATOM     26  C   UNL A   1      32.980  34.422  28.409  1.00  0.00     0.251 C 
ATOM     27  H   UNL A   1      31.317  34.423  27.251  1.00  0.00     0.163 HD
ATOM     28  O   UNL A   1      32.675  35.384  29.099  1.00  0.00    -0.269 OA
BRANCH  26  29
ATOM     29  C   UNL A   1      34.231  33.676  28.640  1.00  0.00     0.039 A 
ATOM     30  C   UNL A   1      35.441  34.365  28.587  1.00  0.00     0.014 A 
ATOM     31  C   UNL A   1      34.142  32.399  29.199  1.00  0.00     0.014 A 
ATOM     32  C   UNL A   1      36.565  33.800  29.190  1.00  0.00     0.010 A 
ATOM     33  C   UNL A   1      35.223  31.913  29.918  1.00  0.00     0.010 A 
ATOM     34  C   UNL A   1      36.449  32.598  29.911  1.00  0.00    -0.014 A 
BRANCH  34  35
ATOM     35  C   UNL A   1      37.603  32.003  30.632  1.00  0.00     0.031 A 
ATOM     36  C   UNL A   1      38.396  30.917  29.955  1.00  0.00     0.074 A 
ATOM     37  C   UNL A   1      37.889  32.370  31.899  1.00  0.00     0.049 A 
ATOM     38  N   UNL A   1      39.360  30.175  30.433  1.00  0.00    -0.248 NA
ATOM     39  C   UNL A   1      38.021  30.585  28.568  1.00  0.00     0.031 C 
ATOM     40  C   UNL A   1      37.159  33.364  32.690  1.00  0.00     0.029 A 
ATOM     41  N   UNL A   1      38.876  31.935  32.750  1.00  0.00    -0.354 N 
ATOM     42  C   UNL A   1      39.672  29.273  29.425  1.00  0.00     0.074 A 
ATOM     43  C   UNL A   1      38.753  29.508  28.337  1.00  0.00     0.031 C 
ATOM     44  C   UNL A   1      37.745  33.489  33.894  1.00  0.00     0.029 A 
ATOM     45  C   UNL A   1      38.864  32.556  33.979  1.00  0.00     0.049 A 
ATOM     46  H   UNL A   1      39.530  31.242  32.505  1.00  0.00     0.167 HD
ATOM     47  C   UNL A   1      40.664  28.355  29.389  1.00  0.00     0.037 A 
ATOM     48  C   UNL A   1      39.664  32.384  35.048  1.00  0.00     0.037 A 
ATOM     49  C   UNL A   1      41.626  28.178  30.439  1.00  0.00     0.049 A 
ATOM     50  C   UNL A   1      40.779  31.372  34.969  1.00  0.00     0.074 A 
ATOM     51  C   UNL A   1      42.728  27.343  30.462  1.00  0.00     0.029 A 
ATOM     52  N   UNL A   1      41.606  28.858  31.646  1.00  0.00    -0.354 N 
ATOM     53  N   UNL A   1      41.115  30.586  33.974  1.00  0.00    -0.248 NA
ATOM     54  C   UNL A   1      41.629  31.226  36.160  1.00  0.00     0.031 C 
ATOM     55  C   UNL A   1      43.352  27.485  31.704  1.00  0.00     0.029 A 
ATOM     56  C   UNL A   1      42.667  28.445  32.432  1.00  0.00     0.049 A 
ATOM     57  H   UNL A   1      40.938  29.533  31.905  1.00  0.00     0.167 HD
ATOM     58  C   UNL A   1      42.236  29.886  34.403  1.00  0.00     0.074 A 
ATOM     59  C   UNL A   1      42.529  30.347  35.743  1.00  0.00     0.031 C 
ATOM     60  C   UNL A   1      42.958  28.944  33.749  1.00  0.00     0.037 A 
BRANCH  47  61
ATOM     61  C   UNL A   1      40.773  27.492  28.169  1.00  0.00     0.057 A 
ATOM     62  C   UNL A   1      40.077  26.281  28.052  1.00  0.00     0.134 A 
ATOM     63  C   UNL A   1      41.546  27.902  27.075  1.00  0.00     0.134 A 
ATOM     64  F   UNL A   1      39.335  25.822  29.072  1.00  0.00    -0.206 F 
ATOM     65  C   UNL A   1      40.159  25.501  26.898  1.00  0.00     0.040 A 
ATOM     66  C   UNL A   1      41.612  27.145  25.905  1.00  0.00     0.040 A 
ATOM     67  F   UNL A   1      42.237  29.051  27.122  1.00  0.00    -0.206 F 
ATOM     68  C   UNL A   1      40.920  25.939  25.816  1.00  0.00     0.006 A 
ENDBRANCH  47  61
BRANCH  48  69
ATOM     69  C   UNL A   1      39.474  33.191  36.284  1.00  0.00     0.057 A 
ATOM     70  C   UNL A   1      38.668  32.729  37.331  1.00  0.00     0.134 A 
ATOM     71  C   UNL A   1      40.039  34.464  36.423  1.00  0.00     0.134 A 
ATOM     72  F   UNL A   1      38.080  31.525  37.250  1.00  0.00    -0.206 F 
ATOM     73  C   UNL A   1      38.400  33.515  38.454  1.00  0.00     0.040 A 
ATOM     74  C   UNL A   1      39.804  35.250  37.555  1.00  0.00     0.040 A 
ATOM     75  F   UNL A   1      40.827  34.966  35.462  1.00  0.00    -0.206 F 
ATOM     76  C   UNL A   1      38.971  34.780  38.569  1.00  0.00     0.006 A 
ENDBRANCH  48  69
BRANCH  60  77
ATOM     77  C   UNL A   1      44.168  28.394  34.444  1.00  0.00     0.057 A 
ATOM     78  C   UNL A   1      45.419  29.014  34.355  1.00  0.00     0.134 A 
ATOM     79  C   UNL A   1      44.059  27.265  35.266  1.00  0.00     0.134 A 
ATOM     80  F   UNL A   1      45.590  30.094  33.576  1.00  0.00    -0.206 F 
ATOM     81  C   UNL A   1      46.527  28.518  35.043  1.00  0.00     0.040 A 
ATOM     82  C   UNL A   1      45.151  26.777  35.982  1.00  0.00     0.040 A 
ATOM     83  F   UNL A   1      42.883  26.634  35.405  1.00  0.00    -0.206 F 
ATOM     84  C   UNL A   1      46.391  27.401  35.867  1.00  0.00     0.006 A 
ENDBRANCH  60  77
ENDBRANCH  34  35
ENDBRANCH  26  29
ENDBRANCH  24  25
ENDBRANCH  23  24
ENDBRANCH  22  23
ENDBRANCH  21  22
ENDBRANCH   3  21
TORSDOF 19
ENDMDL
