MODEL 1
REMARK VINA RESULT:     -11.7      0.000      0.000
REMARK SMILES Cc1ccc(S(=O)(=O)n2cc(C(=O)C(=O)N[C@H](Cc3c[nH]c4ccccc34)C(=O)NCC(=O)NCCCCNC(=O)c3ccc(-c4c5nc(c(-c6c(F)cccc6F)c6ccc([nH]6)c(-c6c(F)cccc6F)c6nc(c(-c7c(F)cccc7F)c7ccc4[nH]7)C=C6)C=C5)cc3)c3ccccc32)cc1
REMARK SMILES IDX 32 1 33 2 34 3 31 5 30 6 28 7 29 8 17 10 16 11 14 12 15 13
REMARK SMILES IDX 12 15 13 16 11 17 9 18 10 19 101 20 96 21 100 22 97 23 99 24
REMARK SMILES IDX 98 25 6 26 7 27 8 28 5 29 1 30 2 31 3 32 103 33 4 34 102 35
REMARK SMILES IDX 18 36 19 37 20 38 27 39 21 40 22 41 26 42 23 44 25 45 24 46
REMARK SMILES IDX 35 47 36 48 37 49 38 50 39 51 40 52 41 54 42 55 43 56 95 57
REMARK SMILES IDX 44 58 94 59 45 60 46 61 47 62 88 63 48 64 93 65 87 66 89 67
REMARK SMILES IDX 49 68 92 69 86 70 85 71 50 73 76 74 59 75 75 76 60 77 63 78
REMARK SMILES IDX 74 79 90 80 61 81 62 82 73 84 91 85 64 86 51 87 52 88 57 89
REMARK SMILES IDX 53 90 54 91 56 92 58 93 55 94 77 95 78 96 83 97 79 98 80 99
REMARK SMILES IDX 82 100 84 101 81 102 65 103 66 104 71 105 67 106 68 107
REMARK SMILES IDX 70 108 72 109 69 110
REMARK H PARENT 34 4 30 9 16 14 21 43 39 53 89 72 63 83
REMARK Flexibility Score: inf
ROOT
ATOM      1  C   UNL A   1      44.020  23.072  29.475  1.00  0.00     0.239 C 
ATOM      2  O   UNL A   1      44.214  22.795  30.665  1.00  0.00    -0.273 OA
ATOM      3  N   UNL A   1      45.122  23.147  28.675  1.00  0.00    -0.355 N 
ATOM      4  H   UNL A   1      45.981  23.131  29.156  1.00  0.00     0.163 HD
ENDROOT
BRANCH   1   5
ATOM      5  C   UNL A   1      42.579  23.162  28.941  1.00  0.00     0.216 C 
BRANCH   5   6
ATOM      6  N   UNL A   1      41.938  21.915  28.596  1.00  0.00    -0.345 N 
ATOM      7  C   UNL A   1      40.902  21.571  27.805  1.00  0.00     0.243 C 
ATOM      8  O   UNL A   1      40.777  20.344  27.672  1.00  0.00    -0.273 OA
ATOM      9  H   UNL A   1      42.352  21.140  29.041  1.00  0.00     0.164 HD
BRANCH   7  10
ATOM     10  C   UNL A   1      39.869  22.523  27.119  1.00  0.00     0.176 C 
BRANCH  10  11
ATOM     11  N   UNL A   1      39.198  22.138  25.833  1.00  0.00    -0.337 N 
ATOM     12  C   UNL A   1      37.918  22.273  25.312  1.00  0.00     0.293 C 
ATOM     13  O   UNL A   1      37.643  21.747  24.239  1.00  0.00    -0.265 OA
ATOM     14  H   UNL A   1      39.810  21.682  25.211  1.00  0.00     0.164 HD
BRANCH  12  15
ATOM     15  C   UNL A   1      36.862  23.102  26.046  1.00  0.00     0.252 C 
ATOM     16  O   UNL A   1      37.294  24.112  26.604  1.00  0.00    -0.283 OA
BRANCH  15  17
ATOM     17  C   UNL A   1      35.423  22.795  26.138  1.00  0.00     0.054 A 
ATOM     18  N   UNL A   1      33.331  21.955  26.296  1.00  0.00    -0.240 N 
ATOM     19  C   UNL A   1      34.697  21.616  26.323  1.00  0.00     0.117 A 
ATOM     20  C   UNL A   1      33.256  23.323  26.556  1.00  0.00     0.065 A 
ATOM     21  C   UNL A   1      34.430  23.819  26.005  1.00  0.00     0.012 A 
ATOM     22  C   UNL A   1      32.196  24.162  26.929  1.00  0.00     0.028 A 
ATOM     23  C   UNL A   1      34.434  25.138  25.520  1.00  0.00     0.011 A 
ATOM     24  C   UNL A   1      32.262  25.494  26.495  1.00  0.00     0.002 A 
ATOM     25  C   UNL A   1      33.329  25.954  25.731  1.00  0.00     0.001 A 
BRANCH  18  26
ATOM     26  S   UNL A   1      32.322  21.423  24.921  1.00  0.00     0.268 S 
ATOM     27  O   UNL A   1      31.009  21.184  25.491  1.00  0.00    -0.201 OA
ATOM     28  O   UNL A   1      33.078  20.352  24.293  1.00  0.00    -0.201 OA
BRANCH  26  29
ATOM     29  C   UNL A   1      32.134  22.662  23.665  1.00  0.00     0.088 A 
ATOM     30  C   UNL A   1      31.768  26.302  21.370  1.00  0.00     0.044 C 
ATOM     31  C   UNL A   1      31.903  25.018  22.141  1.00  0.00    -0.051 A 
ATOM     32  C   UNL A   1      30.892  24.663  23.033  1.00  0.00     0.005 A 
ATOM     33  C   UNL A   1      33.010  24.164  21.991  1.00  0.00     0.005 A 
ATOM     34  C   UNL A   1      31.009  23.499  23.790  1.00  0.00     0.022 A 
ATOM     35  C   UNL A   1      33.138  22.988  22.758  1.00  0.00     0.022 A 
ENDBRANCH  26  29
ENDBRANCH  18  26
ENDBRANCH  15  17
ENDBRANCH  12  15
ENDBRANCH  10  11
BRANCH  10  36
ATOM     36  C   UNL A   1      40.044  24.060  27.339  1.00  0.00     0.072 C 
BRANCH  36  37
ATOM     37  C   UNL A   1      41.013  24.841  26.480  1.00  0.00    -0.020 A 
ATOM     38  C   UNL A   1      41.956  24.284  25.630  1.00  0.00     0.087 A 
ATOM     39  C   UNL A   1      41.114  26.268  26.304  1.00  0.00     0.003 A 
ATOM     40  N   UNL A   1      42.651  25.294  25.023  1.00  0.00    -0.361 N 
ATOM     41  C   UNL A   1      42.186  26.513  25.444  1.00  0.00     0.046 A 
ATOM     42  C   UNL A   1      40.423  27.386  26.818  1.00  0.00     0.010 A 
ATOM     43  H   UNL A   1      43.381  25.163  24.376  1.00  0.00     0.166 HD
ATOM     44  C   UNL A   1      42.646  27.798  25.127  1.00  0.00     0.026 A 
ATOM     45  C   UNL A   1      40.861  28.682  26.504  1.00  0.00     0.001 A 
ATOM     46  C   UNL A   1      41.967  28.882  25.683  1.00  0.00     0.002 A 
ENDBRANCH  36  37
ENDBRANCH  10  36
ENDBRANCH   7  10
ENDBRANCH   5   6
ENDBRANCH   1   5
BRANCH   3  47
ATOM     47  C   UNL A   1      45.235  23.245  27.232  1.00  0.00     0.116 C 
BRANCH  47  48
ATOM     48  C   UNL A   1      45.663  24.633  26.764  1.00  0.00     0.023 C 
BRANCH  48  49
ATOM     49  C   UNL A   1      47.050  24.715  26.116  1.00  0.00     0.023 C 
BRANCH  49  50
ATOM     50  C   UNL A   1      47.157  25.536  24.841  1.00  0.00     0.116 C 
BRANCH  50  51
ATOM     51  N   UNL A   1      47.901  26.779  24.945  1.00  0.00    -0.352 N 
ATOM     52  C   UNL A   1      47.195  27.962  25.177  1.00  0.00     0.251 C 
ATOM     53  H   UNL A   1      48.882  26.788  24.855  1.00  0.00     0.163 HD
ATOM     54  O   UNL A   1      46.474  28.539  24.394  1.00  0.00    -0.269 OA
BRANCH  52  55
ATOM     55  C   UNL A   1      47.353  28.387  26.587  1.00  0.00     0.039 A 
ATOM     56  C   UNL A   1      48.607  28.660  27.132  1.00  0.00     0.014 A 
ATOM     57  C   UNL A   1      46.248  28.097  27.390  1.00  0.00     0.014 A 
ATOM     58  C   UNL A   1      48.792  28.454  28.501  1.00  0.00     0.010 A 
ATOM     59  C   UNL A   1      46.460  27.800  28.711  1.00  0.00     0.010 A 
ATOM     60  C   UNL A   1      47.742  27.928  29.260  1.00  0.00    -0.014 A 
BRANCH  60  61
ATOM     61  C   UNL A   1      47.884  27.309  30.576  1.00  0.00     0.031 A 
ATOM     62  C   UNL A   1      48.835  26.190  30.787  1.00  0.00     0.074 A 
ATOM     63  C   UNL A   1      47.379  27.977  31.637  1.00  0.00     0.049 A 
ATOM     64  N   UNL A   1      48.958  25.523  31.884  1.00  0.00    -0.248 NA
ATOM     65  C   UNL A   1      49.716  25.703  29.731  1.00  0.00     0.031 C 
ATOM     66  C   UNL A   1      47.795  27.869  33.031  1.00  0.00     0.029 A 
ATOM     67  N   UNL A   1      46.208  28.754  31.683  1.00  0.00    -0.354 N 
ATOM     68  C   UNL A   1      50.108  24.769  31.796  1.00  0.00     0.074 A 
ATOM     69  C   UNL A   1      50.477  24.839  30.405  1.00  0.00     0.031 C 
ATOM     70  C   UNL A   1      46.780  28.261  33.815  1.00  0.00     0.029 A 
ATOM     71  C   UNL A   1      45.636  28.476  32.947  1.00  0.00     0.049 A 
ATOM     72  H   UNL A   1      45.863  29.359  30.987  1.00  0.00     0.167 HD
ATOM     73  C   UNL A   1      50.676  24.304  32.950  1.00  0.00     0.037 A 
ATOM     74  C   UNL A   1      44.445  27.820  33.059  1.00  0.00     0.037 A 
ATOM     75  C   UNL A   1      49.760  24.483  34.082  1.00  0.00     0.049 A 
ATOM     76  C   UNL A   1      44.510  26.528  33.840  1.00  0.00     0.074 A 
ATOM     77  C   UNL A   1      49.707  25.382  35.136  1.00  0.00     0.029 A 
ATOM     78  N   UNL A   1      48.533  23.825  34.071  1.00  0.00    -0.354 N 
ATOM     79  N   UNL A   1      45.621  25.908  34.130  1.00  0.00    -0.248 NA
ATOM     80  C   UNL A   1      43.334  25.810  34.328  1.00  0.00     0.031 C 
ATOM     81  C   UNL A   1      48.410  25.313  35.710  1.00  0.00     0.029 A 
ATOM     82  C   UNL A   1      47.684  24.359  35.018  1.00  0.00     0.049 A 
ATOM     83  H   UNL A   1      48.303  23.080  33.469  1.00  0.00     0.167 HD
ATOM     84  C   UNL A   1      45.339  24.737  34.783  1.00  0.00     0.074 A 
ATOM     85  C   UNL A   1      43.894  24.735  34.909  1.00  0.00     0.031 C 
ATOM     86  C   UNL A   1      46.322  23.862  35.147  1.00  0.00     0.037 A 
BRANCH  73  87
ATOM     87  C   UNL A   1      52.148  23.943  33.123  1.00  0.00     0.057 A 
ATOM     88  C   UNL A   1      53.097  24.940  33.441  1.00  0.00     0.134 A 
ATOM     89  C   UNL A   1      52.726  22.679  32.900  1.00  0.00     0.134 A 
ATOM     90  F   UNL A   1      52.729  26.182  33.785  1.00  0.00    -0.206 F 
ATOM     91  C   UNL A   1      54.484  24.724  33.425  1.00  0.00     0.040 A 
ATOM     92  C   UNL A   1      54.111  22.452  32.857  1.00  0.00     0.040 A 
ATOM     93  F   UNL A   1      51.997  21.571  32.761  1.00  0.00    -0.206 F 
ATOM     94  C   UNL A   1      55.000  23.482  33.100  1.00  0.00     0.006 A 
ENDBRANCH  73  87
BRANCH  74  95
ATOM     95  C   UNL A   1      43.508  28.110  31.946  1.00  0.00     0.057 A 
ATOM     96  C   UNL A   1      43.448  27.209  30.869  1.00  0.00     0.134 A 
ATOM     97  C   UNL A   1      42.444  29.005  32.089  1.00  0.00     0.134 A 
ATOM     98  F   UNL A   1      44.436  26.319  30.684  1.00  0.00    -0.206 F 
ATOM     99  C   UNL A   1      42.335  27.133  30.029  1.00  0.00     0.040 A 
ATOM    100  C   UNL A   1      41.327  28.948  31.245  1.00  0.00     0.040 A 
ATOM    101  F   UNL A   1      42.413  29.871  33.112  1.00  0.00    -0.206 F 
ATOM    102  C   UNL A   1      41.257  27.989  30.234  1.00  0.00     0.006 A 
ENDBRANCH  74  95
BRANCH  86 103
ATOM    103  C   UNL A   1      46.109  22.477  35.702  1.00  0.00     0.057 A 
ATOM    104  C   UNL A   1      45.959  21.327  34.915  1.00  0.00     0.134 A 
ATOM    105  C   UNL A   1      46.213  22.248  37.093  1.00  0.00     0.134 A 
ATOM    106  F   UNL A   1      45.945  21.393  33.577  1.00  0.00    -0.206 F 
ATOM    107  C   UNL A   1      45.874  20.043  35.473  1.00  0.00     0.040 A 
ATOM    108  C   UNL A   1      46.180  20.968  37.655  1.00  0.00     0.040 A 
ATOM    109  F   UNL A   1      46.374  23.258  37.961  1.00  0.00    -0.206 F 
ATOM    110  C   UNL A   1      45.998  19.859  36.845  1.00  0.00     0.006 A 
ENDBRANCH  86 103
ENDBRANCH  60  61
ENDBRANCH  52  55
ENDBRANCH  50  51
ENDBRANCH  49  50
ENDBRANCH  48  49
ENDBRANCH  47  48
ENDBRANCH   3  47
TORSDOF 20
ENDMDL
MODEL 2
REMARK VINA RESULT:     -11.4      5.022      9.673
REMARK SMILES Cc1ccc(S(=O)(=O)n2cc(C(=O)C(=O)N[C@H](Cc3c[nH]c4ccccc34)C(=O)NCC(=O)NCCCCNC(=O)c3ccc(-c4c5nc(c(-c6c(F)cccc6F)c6ccc([nH]6)c(-c6c(F)cccc6F)c6nc(c(-c7c(F)cccc7F)c7ccc4[nH]7)C=C6)C=C5)cc3)c3ccccc32)cc1
REMARK SMILES IDX 32 1 33 2 34 3 31 5 30 6 28 7 29 8 17 10 16 11 14 12 15 13
REMARK SMILES IDX 12 15 13 16 11 17 9 18 10 19 101 20 96 21 100 22 97 23 99 24
REMARK SMILES IDX 98 25 6 26 7 27 8 28 5 29 1 30 2 31 3 32 103 33 4 34 102 35
REMARK SMILES IDX 18 36 19 37 20 38 27 39 21 40 22 41 26 42 23 44 25 45 24 46
REMARK SMILES IDX 35 47 36 48 37 49 38 50 39 51 40 52 41 54 42 55 43 56 95 57
REMARK SMILES IDX 44 58 94 59 45 60 46 61 47 62 88 63 48 64 93 65 87 66 89 67
REMARK SMILES IDX 49 68 92 69 86 70 85 71 50 73 76 74 59 75 75 76 60 77 63 78
REMARK SMILES IDX 74 79 90 80 61 81 62 82 73 84 91 85 64 86 51 87 52 88 57 89
REMARK SMILES IDX 53 90 54 91 56 92 58 93 55 94 77 95 78 96 83 97 79 98 80 99
REMARK SMILES IDX 82 100 84 101 81 102 65 103 66 104 71 105 67 106 68 107
REMARK SMILES IDX 70 108 72 109 69 110
REMARK H PARENT 34 4 30 9 16 14 21 43 39 53 89 72 63 83
REMARK Flexibility Score: inf
ROOT
ATOM      1  C   UNL A   1      33.082  29.371  27.237  1.00  0.00     0.239 C 
ATOM      2  O   UNL A   1      31.962  29.884  27.352  1.00  0.00    -0.273 OA
ATOM      3  N   UNL A   1      34.154  30.167  27.514  1.00  0.00    -0.355 N 
ATOM      4  H   UNL A   1      33.940  31.121  27.623  1.00  0.00     0.163 HD
ENDROOT
BRANCH   1   5
ATOM      5  C   UNL A   1      33.200  27.863  26.948  1.00  0.00     0.216 C 
BRANCH   5   6
ATOM      6  N   UNL A   1      31.984  27.091  27.032  1.00  0.00    -0.345 N 
ATOM      7  C   UNL A   1      31.268  26.354  26.158  1.00  0.00     0.243 C 
ATOM      8  O   UNL A   1      30.347  25.720  26.695  1.00  0.00    -0.273 OA
ATOM      9  H   UNL A   1      31.586  27.106  27.933  1.00  0.00     0.164 HD
BRANCH   7  10
ATOM     10  C   UNL A   1      31.450  26.270  24.608  1.00  0.00     0.176 C 
BRANCH  10  11
ATOM     11  N   UNL A   1      32.459  27.125  23.900  1.00  0.00    -0.337 N 
ATOM     12  C   UNL A   1      33.373  26.924  22.873  1.00  0.00     0.293 C 
ATOM     13  O   UNL A   1      34.157  27.818  22.577  1.00  0.00    -0.265 OA
ATOM     14  H   UNL A   1      32.480  28.048  24.244  1.00  0.00     0.164 HD
BRANCH  12  15
ATOM     15  C   UNL A   1      33.383  25.611  22.087  1.00  0.00     0.252 C 
ATOM     16  O   UNL A   1      33.156  25.730  20.881  1.00  0.00    -0.283 OA
BRANCH  15  17
ATOM     17  C   UNL A   1      33.630  24.267  22.640  1.00  0.00     0.054 A 
ATOM     18  N   UNL A   1      33.744  22.089  23.231  1.00  0.00    -0.240 N 
ATOM     19  C   UNL A   1      33.170  22.989  22.313  1.00  0.00     0.117 A 
ATOM     20  C   UNL A   1      34.855  22.731  23.776  1.00  0.00     0.065 A 
ATOM     21  C   UNL A   1      34.485  24.070  23.772  1.00  0.00     0.012 A 
ATOM     22  C   UNL A   1      35.958  22.266  24.507  1.00  0.00     0.028 A 
ATOM     23  C   UNL A   1      35.023  24.914  24.759  1.00  0.00     0.011 A 
ATOM     24  C   UNL A   1      36.523  23.155  25.432  1.00  0.00     0.002 A 
ATOM     25  C   UNL A   1      36.009  24.435  25.613  1.00  0.00     0.001 A 
BRANCH  18  26
ATOM     26  S   UNL A   1      32.703  21.288  24.442  1.00  0.00     0.268 S 
ATOM     27  O   UNL A   1      31.349  21.480  23.957  1.00  0.00    -0.201 OA
ATOM     28  O   UNL A   1      33.132  21.829  25.721  1.00  0.00    -0.201 OA
BRANCH  26  29
ATOM     29  C   UNL A   1      32.978  19.539  24.559  1.00  0.00     0.088 A 
ATOM     30  C   UNL A   1      32.698  15.268  25.129  1.00  0.00     0.044 C 
ATOM     31  C   UNL A   1      32.823  16.750  24.912  1.00  0.00    -0.051 A 
ATOM     32  C   UNL A   1      32.756  17.597  26.017  1.00  0.00     0.005 A 
ATOM     33  C   UNL A   1      33.007  17.309  23.635  1.00  0.00     0.005 A 
ATOM     34  C   UNL A   1      32.828  18.977  25.841  1.00  0.00     0.022 A 
ATOM     35  C   UNL A   1      33.075  18.705  23.449  1.00  0.00     0.022 A 
ENDBRANCH  26  29
ENDBRANCH  18  26
ENDBRANCH  15  17
ENDBRANCH  12  15
ENDBRANCH  10  11
BRANCH  10  36
ATOM     36  C   UNL A   1      30.202  25.875  23.753  1.00  0.00     0.072 C 
BRANCH  36  37
ATOM     37  C   UNL A   1      29.070  26.860  23.571  1.00  0.00    -0.020 A 
ATOM     38  C   UNL A   1      27.770  26.678  24.019  1.00  0.00     0.087 A 
ATOM     39  C   UNL A   1      29.106  28.179  22.987  1.00  0.00     0.003 A 
ATOM     40  N   UNL A   1      27.027  27.773  23.671  1.00  0.00    -0.361 N 
ATOM     41  C   UNL A   1      27.805  28.686  23.007  1.00  0.00     0.046 A 
ATOM     42  C   UNL A   1      30.110  28.983  22.408  1.00  0.00     0.010 A 
ATOM     43  H   UNL A   1      26.070  27.888  23.870  1.00  0.00     0.166 HD
ATOM     44  C   UNL A   1      27.443  29.908  22.425  1.00  0.00     0.026 A 
ATOM     45  C   UNL A   1      29.769  30.216  21.829  1.00  0.00     0.001 A 
ATOM     46  C   UNL A   1      28.451  30.662  21.825  1.00  0.00     0.002 A 
ENDBRANCH  36  37
ENDBRANCH  10  36
ENDBRANCH   7  10
ENDBRANCH   5   6
ENDBRANCH   1   5
BRANCH   3  47
ATOM     47  C   UNL A   1      35.558  29.837  27.673  1.00  0.00     0.116 C 
BRANCH  47  48
ATOM     48  C   UNL A   1      36.149  30.372  28.974  1.00  0.00     0.023 C 
BRANCH  48  49
ATOM     49  C   UNL A   1      36.061  29.430  30.179  1.00  0.00     0.023 C 
BRANCH  49  50
ATOM     50  C   UNL A   1      36.898  29.798  31.393  1.00  0.00     0.116 C 
BRANCH  50  51
ATOM     51  N   UNL A   1      37.643  31.041  31.299  1.00  0.00    -0.352 N 
ATOM     52  C   UNL A   1      38.981  31.048  31.704  1.00  0.00     0.251 C 
ATOM     53  H   UNL A   1      37.216  31.859  30.958  1.00  0.00     0.163 HD
ATOM     54  O   UNL A   1      39.393  30.967  32.840  1.00  0.00    -0.269 OA
BRANCH  52  55
ATOM     55  C   UNL A   1      39.875  31.061  30.523  1.00  0.00     0.039 A 
ATOM     56  C   UNL A   1      39.835  30.049  29.565  1.00  0.00     0.014 A 
ATOM     57  C   UNL A   1      40.984  31.897  30.666  1.00  0.00     0.014 A 
ATOM     58  C   UNL A   1      41.006  29.755  28.864  1.00  0.00     0.010 A 
ATOM     59  C   UNL A   1      42.155  31.540  30.051  1.00  0.00     0.010 A 
ATOM     60  C   UNL A   1      42.184  30.438  29.186  1.00  0.00    -0.014 A 
BRANCH  60  61
ATOM     61  C   UNL A   1      43.532  29.998  28.836  1.00  0.00     0.031 A 
ATOM     62  C   UNL A   1      44.508  30.948  28.249  1.00  0.00     0.074 A 
ATOM     63  C   UNL A   1      43.956  28.820  29.347  1.00  0.00     0.049 A 
ATOM     64  N   UNL A   1      45.684  30.629  27.823  1.00  0.00    -0.248 NA
ATOM     65  C   UNL A   1      44.206  32.362  28.058  1.00  0.00     0.031 C 
ATOM     66  C   UNL A   1      45.334  28.402  29.581  1.00  0.00     0.029 A 
ATOM     67  N   UNL A   1      43.198  27.657  29.563  1.00  0.00    -0.354 N 
ATOM     68  C   UNL A   1      46.391  31.793  27.613  1.00  0.00     0.074 A 
ATOM     69  C   UNL A   1      45.394  32.833  27.674  1.00  0.00     0.031 C 
ATOM     70  C   UNL A   1      45.380  27.062  29.599  1.00  0.00     0.029 A 
ATOM     71  C   UNL A   1      44.062  26.590  29.216  1.00  0.00     0.049 A 
ATOM     72  H   UNL A   1      42.270  27.598  29.886  1.00  0.00     0.167 HD
ATOM     73  C   UNL A   1      47.755  31.730  27.562  1.00  0.00     0.037 A 
ATOM     74  C   UNL A   1      43.807  25.792  28.140  1.00  0.00     0.037 A 
ATOM     75  C   UNL A   1      48.202  30.336  27.469  1.00  0.00     0.049 A 
ATOM     76  C   UNL A   1      44.894  25.786  27.090  1.00  0.00     0.074 A 
ATOM     77  C   UNL A   1      48.758  29.448  28.375  1.00  0.00     0.029 A 
ATOM     78  N   UNL A   1      47.830  29.578  26.361  1.00  0.00    -0.354 N 
ATOM     79  N   UNL A   1      45.851  26.670  27.029  1.00  0.00    -0.248 NA
ATOM     80  C   UNL A   1      44.975  24.808  26.007  1.00  0.00     0.031 C 
ATOM     81  C   UNL A   1      48.647  28.139  27.836  1.00  0.00     0.029 A 
ATOM     82  C   UNL A   1      48.043  28.236  26.595  1.00  0.00     0.049 A 
ATOM     83  H   UNL A   1      47.465  29.951  25.526  1.00  0.00     0.167 HD
ATOM     84  C   UNL A   1      46.632  26.429  25.929  1.00  0.00     0.074 A 
ATOM     85  C   UNL A   1      46.060  25.235  25.337  1.00  0.00     0.031 C 
ATOM     86  C   UNL A   1      47.671  27.248  25.592  1.00  0.00     0.037 A 
BRANCH  73  87
ATOM     87  C   UNL A   1      48.702  32.886  27.871  1.00  0.00     0.057 A 
ATOM     88  C   UNL A   1      48.732  33.462  29.161  1.00  0.00     0.134 A 
ATOM     89  C   UNL A   1      49.532  33.550  26.949  1.00  0.00     0.134 A 
ATOM     90  F   UNL A   1      48.086  32.909  30.197  1.00  0.00    -0.206 F 
ATOM     91  C   UNL A   1      49.426  34.643  29.468  1.00  0.00     0.040 A 
ATOM     92  C   UNL A   1      50.214  34.745  27.233  1.00  0.00     0.040 A 
ATOM     93  F   UNL A   1      49.783  33.067  25.732  1.00  0.00    -0.206 F 
ATOM     94  C   UNL A   1      50.148  35.310  28.493  1.00  0.00     0.006 A 
ENDBRANCH  73  87
BRANCH  74  95
ATOM     95  C   UNL A   1      42.358  25.595  27.884  1.00  0.00     0.057 A 
ATOM     96  C   UNL A   1      41.728  26.420  26.937  1.00  0.00     0.134 A 
ATOM     97  C   UNL A   1      41.696  24.419  28.249  1.00  0.00     0.134 A 
ATOM     98  F   UNL A   1      42.318  27.559  26.540  1.00  0.00    -0.206 F 
ATOM     99  C   UNL A   1      40.539  26.047  26.306  1.00  0.00     0.040 A 
ATOM    100  C   UNL A   1      40.496  24.040  27.632  1.00  0.00     0.040 A 
ATOM    101  F   UNL A   1      42.251  23.565  29.120  1.00  0.00    -0.206 F 
ATOM    102  C   UNL A   1      39.933  24.838  26.636  1.00  0.00     0.006 A 
ENDBRANCH  74  95
BRANCH  86 103
ATOM    103  C   UNL A   1      48.472  27.178  24.317  1.00  0.00     0.057 A 
ATOM    104  C   UNL A   1      48.021  27.647  23.076  1.00  0.00     0.134 A 
ATOM    105  C   UNL A   1      49.823  26.765  24.352  1.00  0.00     0.134 A 
ATOM    106  F   UNL A   1      46.792  28.159  22.927  1.00  0.00    -0.206 F 
ATOM    107  C   UNL A   1      48.840  27.663  21.938  1.00  0.00     0.040 A 
ATOM    108  C   UNL A   1      50.663  26.824  23.236  1.00  0.00     0.040 A 
ATOM    109  F   UNL A   1      50.389  26.307  25.479  1.00  0.00    -0.206 F 
ATOM    110  C   UNL A   1      50.169  27.264  22.019  1.00  0.00     0.006 A 
ENDBRANCH  86 103
ENDBRANCH  60  61
ENDBRANCH  52  55
ENDBRANCH  50  51
ENDBRANCH  49  50
ENDBRANCH  48  49
ENDBRANCH  47  48
ENDBRANCH   3  47
TORSDOF 20
ENDMDL
MODEL 3
REMARK VINA RESULT:     -10.9      5.208      9.403
REMARK SMILES Cc1ccc(S(=O)(=O)n2cc(C(=O)C(=O)N[C@H](Cc3c[nH]c4ccccc34)C(=O)NCC(=O)NCCCCNC(=O)c3ccc(-c4c5nc(c(-c6c(F)cccc6F)c6ccc([nH]6)c(-c6c(F)cccc6F)c6nc(c(-c7c(F)cccc7F)c7ccc4[nH]7)C=C6)C=C5)cc3)c3ccccc32)cc1
REMARK SMILES IDX 32 1 33 2 34 3 31 5 30 6 28 7 29 8 17 10 16 11 14 12 15 13
REMARK SMILES IDX 12 15 13 16 11 17 9 18 10 19 101 20 96 21 100 22 97 23 99 24
REMARK SMILES IDX 98 25 6 26 7 27 8 28 5 29 1 30 2 31 3 32 103 33 4 34 102 35
REMARK SMILES IDX 18 36 19 37 20 38 27 39 21 40 22 41 26 42 23 44 25 45 24 46
REMARK SMILES IDX 35 47 36 48 37 49 38 50 39 51 40 52 41 54 42 55 43 56 95 57
REMARK SMILES IDX 44 58 94 59 45 60 46 61 47 62 88 63 48 64 93 65 87 66 89 67
REMARK SMILES IDX 49 68 92 69 86 70 85 71 50 73 76 74 59 75 75 76 60 77 63 78
REMARK SMILES IDX 74 79 90 80 61 81 62 82 73 84 91 85 64 86 51 87 52 88 57 89
REMARK SMILES IDX 53 90 54 91 56 92 58 93 55 94 77 95 78 96 83 97 79 98 80 99
REMARK SMILES IDX 82 100 84 101 81 102 65 103 66 104 71 105 67 106 68 107
REMARK SMILES IDX 70 108 72 109 69 110
REMARK H PARENT 34 4 30 9 16 14 21 43 39 53 89 72 63 83
REMARK Flexibility Score: inf
ROOT
ATOM      1  C   UNL A   1      37.955  28.964  29.556  1.00  0.00     0.239 C 
ATOM      2  O   UNL A   1      37.386  28.674  30.615  1.00  0.00    -0.273 OA
ATOM      3  N   UNL A   1      39.026  28.198  29.205  1.00  0.00    -0.355 N 
ATOM      4  H   UNL A   1      39.344  27.588  29.908  1.00  0.00     0.163 HD
ENDROOT
BRANCH   1   5
ATOM      5  C   UNL A   1      37.348  30.042  28.639  1.00  0.00     0.216 C 
BRANCH   5   6
ATOM      6  N   UNL A   1      36.660  29.575  27.459  1.00  0.00    -0.345 N 
ATOM      7  C   UNL A   1      35.388  29.642  27.017  1.00  0.00     0.243 C 
ATOM      8  O   UNL A   1      35.254  29.234  25.853  1.00  0.00    -0.273 OA
ATOM      9  H   UNL A   1      37.255  29.099  26.835  1.00  0.00     0.164 HD
BRANCH   7  10
ATOM     10  C   UNL A   1      34.126  30.114  27.810  1.00  0.00     0.176 C 
BRANCH  10  11
ATOM     11  N   UNL A   1      32.949  29.204  28.003  1.00  0.00    -0.337 N 
ATOM     12  C   UNL A   1      31.930  28.726  27.189  1.00  0.00     0.293 C 
ATOM     13  O   UNL A   1      31.026  28.058  27.680  1.00  0.00    -0.265 OA
ATOM     14  H   UNL A   1      32.882  28.864  28.925  1.00  0.00     0.164 HD
BRANCH  12  15
ATOM     15  C   UNL A   1      31.945  28.996  25.683  1.00  0.00     0.252 C 
ATOM     16  O   UNL A   1      31.410  30.052  25.342  1.00  0.00    -0.283 OA
BRANCH  15  17
ATOM     17  C   UNL A   1      32.525  28.120  24.648  1.00  0.00     0.054 A 
ATOM     18  N   UNL A   1      33.317  27.060  22.816  1.00  0.00    -0.240 N 
ATOM     19  C   UNL A   1      32.753  28.264  23.278  1.00  0.00     0.117 A 
ATOM     20  C   UNL A   1      33.834  26.409  23.935  1.00  0.00     0.065 A 
ATOM     21  C   UNL A   1      32.976  26.795  24.957  1.00  0.00     0.012 A 
ATOM     22  C   UNL A   1      34.734  25.343  24.083  1.00  0.00     0.028 A 
ATOM     23  C   UNL A   1      32.780  25.914  26.033  1.00  0.00     0.011 A 
ATOM     24  C   UNL A   1      34.564  24.523  25.207  1.00  0.00     0.002 A 
ATOM     25  C   UNL A   1      33.547  24.759  26.127  1.00  0.00     0.001 A 
BRANCH  18  26
ATOM     26  S   UNL A   1      32.363  26.001  21.739  1.00  0.00     0.268 S 
ATOM     27  O   UNL A   1      33.197  25.810  20.567  1.00  0.00    -0.201 OA
ATOM     28  O   UNL A   1      31.060  26.639  21.642  1.00  0.00    -0.201 OA
BRANCH  26  29
ATOM     29  C   UNL A   1      32.047  24.396  22.428  1.00  0.00     0.088 A 
ATOM     30  C   UNL A   1      32.151  20.638  24.552  1.00  0.00     0.044 C 
ATOM     31  C   UNL A   1      32.082  21.943  23.809  1.00  0.00    -0.051 A 
ATOM     32  C   UNL A   1      32.991  22.176  22.778  1.00  0.00     0.005 A 
ATOM     33  C   UNL A   1      31.132  22.933  24.116  1.00  0.00     0.005 A 
ATOM     34  C   UNL A   1      32.976  23.391  22.098  1.00  0.00     0.022 A 
ATOM     35  C   UNL A   1      31.115  24.168  23.436  1.00  0.00     0.022 A 
ENDBRANCH  26  29
ENDBRANCH  18  26
ENDBRANCH  15  17
ENDBRANCH  12  15
ENDBRANCH  10  11
BRANCH  10  36
ATOM     36  C   UNL A   1      33.786  31.640  27.787  1.00  0.00     0.072 C 
BRANCH  36  37
ATOM     37  C   UNL A   1      34.712  32.629  28.456  1.00  0.00    -0.020 A 
ATOM     38  C   UNL A   1      35.152  33.819  27.895  1.00  0.00     0.087 A 
ATOM     39  C   UNL A   1      35.256  32.596  29.791  1.00  0.00     0.003 A 
ATOM     40  N   UNL A   1      35.976  34.448  28.788  1.00  0.00    -0.361 N 
ATOM     41  C   UNL A   1      36.089  33.708  29.936  1.00  0.00     0.046 A 
ATOM     42  C   UNL A   1      35.153  31.712  30.885  1.00  0.00     0.010 A 
ATOM     43  H   UNL A   1      36.424  35.310  28.628  1.00  0.00     0.166 HD
ATOM     44  C   UNL A   1      36.870  33.945  31.075  1.00  0.00     0.026 A 
ATOM     45  C   UNL A   1      35.920  31.937  32.040  1.00  0.00     0.001 A 
ATOM     46  C   UNL A   1      36.777  33.030  32.124  1.00  0.00     0.002 A 
ENDBRANCH  36  37
ENDBRANCH  10  36
ENDBRANCH   7  10
ENDBRANCH   5   6
ENDBRANCH   1   5
BRANCH   3  47
ATOM     47  C   UNL A   1      39.775  28.136  27.962  1.00  0.00     0.116 C 
BRANCH  47  48
ATOM     48  C   UNL A   1      39.952  26.710  27.447  1.00  0.00     0.023 C 
BRANCH  48  49
ATOM     49  C   UNL A   1      40.546  25.713  28.449  1.00  0.00     0.023 C 
BRANCH  49  50
ATOM     50  C   UNL A   1      41.453  24.636  27.878  1.00  0.00     0.116 C 
BRANCH  50  51
ATOM     51  N   UNL A   1      42.826  24.643  28.352  1.00  0.00    -0.352 N 
ATOM     52  C   UNL A   1      43.805  25.241  27.554  1.00  0.00     0.251 C 
ATOM     53  H   UNL A   1      43.062  24.235  29.217  1.00  0.00     0.163 HD
ATOM     54  O   UNL A   1      44.241  24.818  26.506  1.00  0.00    -0.269 OA
BRANCH  52  55
ATOM     55  C   UNL A   1      44.184  26.560  28.109  1.00  0.00     0.039 A 
ATOM     56  C   UNL A   1      44.745  26.686  29.379  1.00  0.00     0.014 A 
ATOM     57  C   UNL A   1      43.578  27.639  27.462  1.00  0.00     0.014 A 
ATOM     58  C   UNL A   1      44.525  27.870  30.085  1.00  0.00     0.010 A 
ATOM     59  C   UNL A   1      43.279  28.757  28.196  1.00  0.00     0.010 A 
ATOM     60  C   UNL A   1      43.707  28.857  29.526  1.00  0.00    -0.014 A 
BRANCH  60  61
ATOM     61  C   UNL A   1      43.080  29.948  30.267  1.00  0.00     0.031 A 
ATOM     62  C   UNL A   1      43.482  31.355  30.025  1.00  0.00     0.074 A 
ATOM     63  C   UNL A   1      41.930  29.676  30.924  1.00  0.00     0.049 A 
ATOM     64  N   UNL A   1      43.054  32.371  30.696  1.00  0.00    -0.248 NA
ATOM     65  C   UNL A   1      44.456  31.726  29.004  1.00  0.00     0.031 C 
ATOM     66  C   UNL A   1      40.878  30.616  31.293  1.00  0.00     0.029 A 
ATOM     67  N   UNL A   1      41.584  28.488  31.589  1.00  0.00    -0.354 N 
ATOM     68  C   UNL A   1      43.422  33.514  30.019  1.00  0.00     0.074 A 
ATOM     69  C   UNL A   1      44.375  33.058  29.039  1.00  0.00     0.031 C 
ATOM     70  C   UNL A   1      40.191  30.110  32.327  1.00  0.00     0.029 A 
ATOM     71  C   UNL A   1      40.889  28.909  32.749  1.00  0.00     0.049 A 
ATOM     72  H   UNL A   1      41.781  27.564  31.309  1.00  0.00     0.167 HD
ATOM     73  C   UNL A   1      42.754  34.676  30.286  1.00  0.00     0.037 A 
ATOM     74  C   UNL A   1      41.404  28.709  33.996  1.00  0.00     0.037 A 
ATOM     75  C   UNL A   1      41.923  34.527  31.486  1.00  0.00     0.049 A 
ATOM     76  C   UNL A   1      41.621  29.973  34.796  1.00  0.00     0.074 A 
ATOM     77  C   UNL A   1      40.563  34.359  31.693  1.00  0.00     0.029 A 
ATOM     78  N   UNL A   1      42.538  34.253  32.705  1.00  0.00    -0.354 N 
ATOM     79  N   UNL A   1      41.622  31.170  34.279  1.00  0.00    -0.248 NA
ATOM     80  C   UNL A   1      41.887  29.991  36.233  1.00  0.00     0.031 C 
ATOM     81  C   UNL A   1      40.372  33.907  33.025  1.00  0.00     0.029 A 
ATOM     82  C   UNL A   1      41.612  33.820  33.632  1.00  0.00     0.049 A 
ATOM     83  H   UNL A   1      43.501  34.355  32.881  1.00  0.00     0.167 HD
ATOM     84  C   UNL A   1      41.912  32.092  35.250  1.00  0.00     0.074 A 
ATOM     85  C   UNL A   1      42.041  31.307  36.463  1.00  0.00     0.031 C 
ATOM     86  C   UNL A   1      42.039  33.421  34.965  1.00  0.00     0.037 A 
BRANCH  73  87
ATOM     87  C   UNL A   1      42.624  35.857  29.328  1.00  0.00     0.057 A 
ATOM     88  C   UNL A   1      41.592  35.887  28.365  1.00  0.00     0.134 A 
ATOM     89  C   UNL A   1      43.516  36.940  29.219  1.00  0.00     0.134 A 
ATOM     90  F   UNL A   1      40.590  34.997  28.374  1.00  0.00    -0.206 F 
ATOM     91  C   UNL A   1      41.522  36.834  27.331  1.00  0.00     0.040 A 
ATOM     92  C   UNL A   1      43.475  37.881  28.176  1.00  0.00     0.040 A 
ATOM     93  F   UNL A   1      44.452  37.194  30.133  1.00  0.00    -0.206 F 
ATOM     94  C   UNL A   1      42.486  37.820  27.213  1.00  0.00     0.006 A 
ENDBRANCH  73  87
BRANCH  74  95
ATOM     95  C   UNL A   1      42.208  27.467  34.108  1.00  0.00     0.057 A 
ATOM     96  C   UNL A   1      43.600  27.553  33.928  1.00  0.00     0.134 A 
ATOM     97  C   UNL A   1      41.715  26.320  34.737  1.00  0.00     0.134 A 
ATOM     98  F   UNL A   1      44.135  28.634  33.338  1.00  0.00    -0.206 F 
ATOM     99  C   UNL A   1      44.472  26.588  34.438  1.00  0.00     0.040 A 
ATOM    100  C   UNL A   1      42.579  25.340  35.241  1.00  0.00     0.040 A 
ATOM    101  F   UNL A   1      40.403  26.183  34.975  1.00  0.00    -0.206 F 
ATOM    102  C   UNL A   1      43.961  25.489  35.121  1.00  0.00     0.006 A 
ENDBRANCH  74  95
BRANCH  86 103
ATOM    103  C   UNL A   1      42.529  34.485  35.914  1.00  0.00     0.057 A 
ATOM    104  C   UNL A   1      41.700  35.213  36.778  1.00  0.00     0.134 A 
ATOM    105  C   UNL A   1      43.916  34.690  36.092  1.00  0.00     0.134 A 
ATOM    106  F   UNL A   1      40.372  35.040  36.782  1.00  0.00    -0.206 F 
ATOM    107  C   UNL A   1      42.211  36.114  37.723  1.00  0.00     0.040 A 
ATOM    108  C   UNL A   1      44.437  35.549  37.064  1.00  0.00     0.040 A 
ATOM    109  F   UNL A   1      44.823  34.047  35.341  1.00  0.00    -0.206 F 
ATOM    110  C   UNL A   1      43.582  36.275  37.878  1.00  0.00     0.006 A 
ENDBRANCH  86 103
ENDBRANCH  60  61
ENDBRANCH  52  55
ENDBRANCH  50  51
ENDBRANCH  49  50
ENDBRANCH  48  49
ENDBRANCH  47  48
ENDBRANCH   3  47
TORSDOF 20
ENDMDL
