MODEL 1
REMARK VINA RESULT:     -11.7      0.000      0.000
REMARK SMILES CC(C)Cc1cc2c(cc1Cl)C=C(C(=O)NCCCCNC(=O)c1ccc(-c3c4nc(c(-c5c(F)cccc5F)c5ccc([nH]5)c(-c5c(F)cccc5F)c5nc(c(-c6c(F)cccc6F)c6ccc3[nH]6)C=C5)C=C4)cc1)[C@@H](C(F)(F)F)O2
REMARK SMILES IDX 18 1 17 2 16 3 14 4 15 5 13 7 5 8 6 9 10 10 7 11 9 12 11 13
REMARK SMILES IDX 8 14 83 15 12 16 78 17 4 18 2 19 1 20 3 21 79 22 80 23 81 24
REMARK SMILES IDX 82 25 19 26 20 27 21 28 22 29 23 31 24 32 25 33 77 34 26 35
REMARK SMILES IDX 76 36 27 37 28 38 29 39 70 40 30 41 75 42 69 43 71 44 31 45
REMARK SMILES IDX 74 46 68 47 67 48 32 50 58 51 41 52 57 53 42 54 45 55 56 56
REMARK SMILES IDX 72 57 43 58 44 59 55 61 73 62 46 63 33 64 34 65 39 66 35 67
REMARK SMILES IDX 36 68 38 69 40 70 37 71 59 72 60 73 65 74 61 75 62 76 64 77
REMARK SMILES IDX 66 78 63 79 47 80 48 81 53 82 49 83 50 84 52 85 54 86 51 87
REMARK H PARENT 16 6 21 30 71 49 45 60
REMARK Flexibility Score: inf
ROOT
ATOM      1  C   UNL A   1      32.346  29.692  25.274  1.00  0.00     0.023 C 
ENDROOT
BRANCH   1   2
ATOM      2  C   UNL A   1      31.662  29.047  24.072  1.00  0.00     0.116 C 
BRANCH   2   3
ATOM      3  N   UNL A   1      30.719  28.017  24.471  1.00  0.00    -0.352 N 
ATOM      4  C   UNL A   1      30.705  26.667  24.553  1.00  0.00     0.251 C 
ATOM      5  O   UNL A   1      29.652  26.179  24.976  1.00  0.00    -0.270 OA
ATOM      6  H   UNL A   1      29.861  28.405  24.759  1.00  0.00     0.163 HD
BRANCH   4   7
ATOM      7  C   UNL A   1      31.832  25.765  24.170  1.00  0.00     0.067 C 
ATOM      8  C   UNL A   1      35.993  22.893  24.274  1.00  0.00    -0.025 A 
ATOM      9  C   UNL A   1      34.839  22.933  23.476  1.00  0.00     0.052 A 
ATOM     10  C   UNL A   1      36.128  23.845  25.299  1.00  0.00     0.045 A 
ATOM     11  C   UNL A   1      33.841  23.873  23.716  1.00  0.00     0.128 A 
ATOM     12  C   UNL A   1      35.111  24.774  25.550  1.00  0.00     0.032 A 
ATOM     13  Cl  UNL A   1      37.535  23.915  26.299  1.00  0.00    -0.084 Cl
ATOM     14  C   UNL A   1      33.954  24.781  24.767  1.00  0.00     0.019 A 
ATOM     15  O   UNL A   1      32.739  23.811  22.913  1.00  0.00    -0.475 OA
ATOM     16  C   UNL A   1      32.835  25.665  25.064  1.00  0.00     0.025 C 
ATOM     17  C   UNL A   1      31.913  25.008  22.874  1.00  0.00     0.314 C 
BRANCH   8  18
ATOM     18  C   UNL A   1      36.998  21.792  24.021  1.00  0.00     0.040 C 
BRANCH  18  19
ATOM     19  C   UNL A   1      36.949  20.646  25.056  1.00  0.00    -0.013 C 
ATOM     20  C   UNL A   1      35.661  19.823  24.970  1.00  0.00     0.008 C 
ATOM     21  C   UNL A   1      38.158  19.727  24.865  1.00  0.00     0.008 C 
ENDBRANCH  18  19
ENDBRANCH   8  18
BRANCH  17  22
ATOM     22  C   UNL A   1      32.359  25.903  21.701  1.00  0.00     0.429 C 
ATOM     23  F   UNL A   1      32.749  25.146  20.647  1.00  0.00    -0.167 F 
ATOM     24  F   UNL A   1      31.359  26.699  21.251  1.00  0.00    -0.167 F 
ATOM     25  F   UNL A   1      33.391  26.715  22.023  1.00  0.00    -0.167 F 
ENDBRANCH  17  22
ENDBRANCH   4   7
ENDBRANCH   2   3
ENDBRANCH   1   2
BRANCH   1  26
ATOM     26  C   UNL A   1      33.597  28.954  25.756  1.00  0.00     0.023 C 
BRANCH  26  27
ATOM     27  C   UNL A   1      33.771  28.879  27.272  1.00  0.00     0.116 C 
BRANCH  27  28
ATOM     28  N   UNL A   1      33.813  30.175  27.936  1.00  0.00    -0.352 N 
ATOM     29  C   UNL A   1      34.884  30.781  28.552  1.00  0.00     0.251 C 
ATOM     30  H   UNL A   1      32.967  30.680  27.947  1.00  0.00     0.163 HD
ATOM     31  O   UNL A   1      34.749  31.853  29.133  1.00  0.00    -0.269 OA
BRANCH  29  32
ATOM     32  C   UNL A   1      36.189  30.091  28.551  1.00  0.00     0.039 A 
ATOM     33  C   UNL A   1      36.618  29.399  29.685  1.00  0.00     0.014 A 
ATOM     34  C   UNL A   1      37.022  30.220  27.437  1.00  0.00     0.014 A 
ATOM     35  C   UNL A   1      37.945  29.001  29.775  1.00  0.00     0.010 A 
ATOM     36  C   UNL A   1      38.334  29.744  27.502  1.00  0.00     0.010 A 
ATOM     37  C   UNL A   1      38.822  29.188  28.694  1.00  0.00    -0.014 A 
BRANCH  37  38
ATOM     38  C   UNL A   1      40.254  28.827  28.854  1.00  0.00     0.031 A 
ATOM     39  C   UNL A   1      41.201  29.746  29.577  1.00  0.00     0.074 A 
ATOM     40  C   UNL A   1      40.681  27.629  28.412  1.00  0.00     0.049 A 
ATOM     41  N   UNL A   1      42.472  29.574  29.849  1.00  0.00    -0.248 NA
ATOM     42  C   UNL A   1      40.657  31.027  30.054  1.00  0.00     0.031 C 
ATOM     43  C   UNL A   1      39.855  26.646  27.708  1.00  0.00     0.029 A 
ATOM     44  N   UNL A   1      41.905  27.022  28.517  1.00  0.00    -0.354 N 
ATOM     45  C   UNL A   1      42.881  30.728  30.506  1.00  0.00     0.074 A 
ATOM     46  C   UNL A   1      41.732  31.606  30.570  1.00  0.00     0.031 C 
ATOM     47  C   UNL A   1      40.579  25.537  27.496  1.00  0.00     0.029 A 
ATOM     48  C   UNL A   1      41.931  25.750  27.999  1.00  0.00     0.049 A 
ATOM     49  H   UNL A   1      42.690  27.454  28.926  1.00  0.00     0.167 HD
ATOM     50  C   UNL A   1      44.099  31.026  31.018  1.00  0.00     0.037 A 
ATOM     51  C   UNL A   1      42.935  24.858  27.932  1.00  0.00     0.037 A 
ATOM     52  C   UNL A   1      45.236  30.144  30.978  1.00  0.00     0.049 A 
ATOM     53  C   UNL A   1      44.281  25.224  28.485  1.00  0.00     0.074 A 
ATOM     54  C   UNL A   1      46.507  30.347  31.488  1.00  0.00     0.029 A 
ATOM     55  N   UNL A   1      45.235  28.885  30.398  1.00  0.00    -0.354 N 
ATOM     56  N   UNL A   1      44.650  26.318  29.105  1.00  0.00    -0.248 NA
ATOM     57  C   UNL A   1      45.352  24.233  28.319  1.00  0.00     0.031 C 
ATOM     58  C   UNL A   1      47.285  29.223  31.187  1.00  0.00     0.029 A 
ATOM     59  C   UNL A   1      46.489  28.305  30.522  1.00  0.00     0.049 A 
ATOM     60  H   UNL A   1      44.460  28.464  29.961  1.00  0.00     0.167 HD
ATOM     61  C   UNL A   1      45.991  26.144  29.412  1.00  0.00     0.074 A 
ATOM     62  C   UNL A   1      46.365  24.830  28.930  1.00  0.00     0.031 C 
ATOM     63  C   UNL A   1      46.841  26.998  30.033  1.00  0.00     0.037 A 
BRANCH  50  64
ATOM     64  C   UNL A   1      44.269  32.374  31.658  1.00  0.00     0.057 A 
ATOM     65  C   UNL A   1      44.683  33.475  30.899  1.00  0.00     0.134 A 
ATOM     66  C   UNL A   1      44.049  32.577  33.026  1.00  0.00     0.134 A 
ATOM     67  F   UNL A   1      44.916  33.348  29.584  1.00  0.00    -0.206 F 
ATOM     68  C   UNL A   1      44.873  34.731  31.478  1.00  0.00     0.040 A 
ATOM     69  C   UNL A   1      44.214  33.833  33.612  1.00  0.00     0.040 A 
ATOM     70  F   UNL A   1      43.635  31.567  33.805  1.00  0.00    -0.206 F 
ATOM     71  C   UNL A   1      44.634  34.914  32.838  1.00  0.00     0.006 A 
ENDBRANCH  50  64
BRANCH  51  72
ATOM     72  C   UNL A   1      42.701  23.531  27.315  1.00  0.00     0.057 A 
ATOM     73  C   UNL A   1      42.905  23.316  25.946  1.00  0.00     0.134 A 
ATOM     74  C   UNL A   1      42.267  22.445  28.082  1.00  0.00     0.134 A 
ATOM     75  F   UNL A   1      43.316  24.321  25.158  1.00  0.00    -0.206 F 
ATOM     76  C   UNL A   1      42.674  22.073  25.360  1.00  0.00     0.040 A 
ATOM     77  C   UNL A   1      42.055  21.188  27.514  1.00  0.00     0.040 A 
ATOM     78  F   UNL A   1      42.073  22.586  29.402  1.00  0.00    -0.206 F 
ATOM     79  C   UNL A   1      42.254  21.002  26.146  1.00  0.00     0.006 A 
ENDBRANCH  51  72
BRANCH  63  80
ATOM     80  C   UNL A   1      48.247  26.521  30.235  1.00  0.00     0.057 A 
ATOM     81  C   UNL A   1      48.605  25.824  31.396  1.00  0.00     0.134 A 
ATOM     82  C   UNL A   1      49.247  26.758  29.284  1.00  0.00     0.134 A 
ATOM     83  F   UNL A   1      47.694  25.571  32.347  1.00  0.00    -0.206 F 
ATOM     84  C   UNL A   1      49.909  25.375  31.601  1.00  0.00     0.040 A 
ATOM     85  C   UNL A   1      50.549  26.294  29.468  1.00  0.00     0.040 A 
ATOM     86  F   UNL A   1      48.960  27.404  28.144  1.00  0.00    -0.206 F 
ATOM     87  C   UNL A   1      50.885  25.604  30.631  1.00  0.00     0.006 A 
ENDBRANCH  63  80
ENDBRANCH  37  38
ENDBRANCH  29  32
ENDBRANCH  27  28
ENDBRANCH  26  27
ENDBRANCH   1  26
TORSDOF 14
ENDMDL
MODEL 2
REMARK VINA RESULT:     -11.5      4.265      8.762
REMARK SMILES CC(C)Cc1cc2c(cc1Cl)C=C(C(=O)NCCCCNC(=O)c1ccc(-c3c4nc(c(-c5c(F)cccc5F)c5ccc([nH]5)c(-c5c(F)cccc5F)c5nc(c(-c6c(F)cccc6F)c6ccc3[nH]6)C=C5)C=C4)cc1)[C@@H](C(F)(F)F)O2
REMARK SMILES IDX 18 1 17 2 16 3 14 4 15 5 13 7 5 8 6 9 10 10 7 11 9 12 11 13
REMARK SMILES IDX 8 14 83 15 12 16 78 17 4 18 2 19 1 20 3 21 79 22 80 23 81 24
REMARK SMILES IDX 82 25 19 26 20 27 21 28 22 29 23 31 24 32 25 33 77 34 26 35
REMARK SMILES IDX 76 36 27 37 28 38 29 39 70 40 30 41 75 42 69 43 71 44 31 45
REMARK SMILES IDX 74 46 68 47 67 48 32 50 58 51 41 52 57 53 42 54 45 55 56 56
REMARK SMILES IDX 72 57 43 58 44 59 55 61 73 62 46 63 33 64 34 65 39 66 35 67
REMARK SMILES IDX 36 68 38 69 40 70 37 71 59 72 60 73 65 74 61 75 62 76 64 77
REMARK SMILES IDX 66 78 63 79 47 80 48 81 53 82 49 83 50 84 52 85 54 86 51 87
REMARK H PARENT 16 6 21 30 71 49 45 60
REMARK Flexibility Score: inf
ROOT
ATOM      1  C   UNL A   1      36.853  21.915  25.126  1.00  0.00     0.023 C 
ENDROOT
BRANCH   1   2
ATOM      2  C   UNL A   1      35.619  21.438  25.887  1.00  0.00     0.116 C 
BRANCH   2   3
ATOM      3  N   UNL A   1      34.497  21.184  25.000  1.00  0.00    -0.352 N 
ATOM      4  C   UNL A   1      33.592  21.919  24.314  1.00  0.00     0.251 C 
ATOM      5  O   UNL A   1      32.787  21.264  23.643  1.00  0.00    -0.270 OA
ATOM      6  H   UNL A   1      34.359  20.219  24.860  1.00  0.00     0.163 HD
BRANCH   4   7
ATOM      7  C   UNL A   1      33.501  23.409  24.325  1.00  0.00     0.067 C 
ATOM      8  C   UNL A   1      32.883  28.219  25.763  1.00  0.00    -0.025 A 
ATOM      9  C   UNL A   1      33.590  27.577  24.732  1.00  0.00     0.052 A 
ATOM     10  C   UNL A   1      32.124  27.428  26.641  1.00  0.00     0.045 A 
ATOM     11  C   UNL A   1      33.560  26.191  24.607  1.00  0.00     0.128 A 
ATOM     12  C   UNL A   1      32.116  26.033  26.524  1.00  0.00     0.032 A 
ATOM     13  Cl  UNL A   1      31.176  28.126  27.906  1.00  0.00    -0.084 Cl
ATOM     14  C   UNL A   1      32.849  25.407  25.513  1.00  0.00     0.019 A 
ATOM     15  O   UNL A   1      34.307  25.654  23.598  1.00  0.00    -0.475 OA
ATOM     16  C   UNL A   1      32.944  23.956  25.423  1.00  0.00     0.025 C 
ATOM     17  C   UNL A   1      33.962  24.298  23.204  1.00  0.00     0.314 C 
BRANCH   8  18
ATOM     18  C   UNL A   1      33.028  29.717  25.901  1.00  0.00     0.040 C 
BRANCH  18  19
ATOM     19  C   UNL A   1      34.281  30.158  26.688  1.00  0.00    -0.013 C 
ATOM     20  C   UNL A   1      34.021  31.366  27.592  1.00  0.00     0.008 C 
ATOM     21  C   UNL A   1      34.800  28.990  27.529  1.00  0.00     0.008 C 
ENDBRANCH  18  19
ENDBRANCH   8  18
BRANCH  17  22
ATOM     22  C   UNL A   1      32.951  24.341  22.041  1.00  0.00     0.429 C 
ATOM     23  F   UNL A   1      33.139  23.288  21.208  1.00  0.00    -0.167 F 
ATOM     24  F   UNL A   1      31.668  24.263  22.470  1.00  0.00    -0.167 F 
ATOM     25  F   UNL A   1      33.049  25.468  21.301  1.00  0.00    -0.167 F 
ENDBRANCH  17  22
ENDBRANCH   4   7
ENDBRANCH   2   3
ENDBRANCH   1   2
BRANCH   1  26
ATOM     26  C   UNL A   1      37.035  23.434  25.112  1.00  0.00     0.023 C 
BRANCH  26  27
ATOM     27  C   UNL A   1      37.905  24.001  26.231  1.00  0.00     0.116 C 
BRANCH  27  28
ATOM     28  N   UNL A   1      39.334  23.777  26.052  1.00  0.00    -0.352 N 
ATOM     29  C   UNL A   1      40.380  24.516  26.557  1.00  0.00     0.251 C 
ATOM     30  H   UNL A   1      39.582  23.001  25.499  1.00  0.00     0.163 HD
ATOM     31  O   UNL A   1      41.539  24.244  26.262  1.00  0.00    -0.269 OA
BRANCH  29  32
ATOM     32  C   UNL A   1      40.081  25.679  27.415  1.00  0.00     0.039 A 
ATOM     33  C   UNL A   1      40.655  26.921  27.139  1.00  0.00     0.014 A 
ATOM     34  C   UNL A   1      39.294  25.495  28.554  1.00  0.00     0.014 A 
ATOM     35  C   UNL A   1      40.597  27.924  28.098  1.00  0.00     0.010 A 
ATOM     36  C   UNL A   1      39.170  26.535  29.478  1.00  0.00     0.010 A 
ATOM     37  C   UNL A   1      39.872  27.735  29.286  1.00  0.00    -0.014 A 
BRANCH  37  38
ATOM     38  C   UNL A   1      39.899  28.794  30.326  1.00  0.00     0.031 A 
ATOM     39  C   UNL A   1      38.906  29.925  30.297  1.00  0.00     0.074 A 
ATOM     40  C   UNL A   1      40.775  28.691  31.344  1.00  0.00     0.049 A 
ATOM     41  N   UNL A   1      38.754  30.912  31.146  1.00  0.00    -0.248 NA
ATOM     42  C   UNL A   1      37.963  29.958  29.169  1.00  0.00     0.031 C 
ATOM     43  C   UNL A   1      41.778  27.635  31.489  1.00  0.00     0.029 A 
ATOM     44  N   UNL A   1      40.941  29.465  32.462  1.00  0.00    -0.354 N 
ATOM     45  C   UNL A   1      37.718  31.690  30.644  1.00  0.00     0.074 A 
ATOM     46  C   UNL A   1      37.294  31.078  29.403  1.00  0.00     0.031 C 
ATOM     47  C   UNL A   1      42.415  27.793  32.659  1.00  0.00     0.029 A 
ATOM     48  C   UNL A   1      41.905  28.991  33.318  1.00  0.00     0.049 A 
ATOM     49  H   UNL A   1      40.419  30.282  32.637  1.00  0.00     0.167 HD
ATOM     50  C   UNL A   1      37.163  32.808  31.173  1.00  0.00     0.037 A 
ATOM     51  C   UNL A   1      42.333  29.470  34.499  1.00  0.00     0.037 A 
ATOM     52  C   UNL A   1      37.566  33.403  32.420  1.00  0.00     0.049 A 
ATOM     53  C   UNL A   1      41.718  30.723  35.049  1.00  0.00     0.074 A 
ATOM     54  C   UNL A   1      37.051  34.523  33.050  1.00  0.00     0.029 A 
ATOM     55  N   UNL A   1      38.582  32.921  33.231  1.00  0.00    -0.354 N 
ATOM     56  N   UNL A   1      40.738  31.445  34.563  1.00  0.00    -0.248 NA
ATOM     57  C   UNL A   1      42.278  31.232  36.309  1.00  0.00     0.031 C 
ATOM     58  C   UNL A   1      37.778  34.738  34.227  1.00  0.00     0.029 A 
ATOM     59  C   UNL A   1      38.721  33.730  34.348  1.00  0.00     0.049 A 
ATOM     60  H   UNL A   1      39.125  32.122  33.042  1.00  0.00     0.167 HD
ATOM     61  C   UNL A   1      40.556  32.487  35.460  1.00  0.00     0.074 A 
ATOM     62  C   UNL A   1      41.512  32.290  36.531  1.00  0.00     0.031 C 
ATOM     63  C   UNL A   1      39.680  33.519  35.401  1.00  0.00     0.037 A 
BRANCH  50  64
ATOM     64  C   UNL A   1      36.064  33.468  30.393  1.00  0.00     0.057 A 
ATOM     65  C   UNL A   1      34.731  33.361  30.810  1.00  0.00     0.134 A 
ATOM     66  C   UNL A   1      36.318  34.185  29.217  1.00  0.00     0.134 A 
ATOM     67  F   UNL A   1      34.418  32.683  31.925  1.00  0.00    -0.206 F 
ATOM     68  C   UNL A   1      33.690  33.944  30.086  1.00  0.00     0.040 A 
ATOM     69  C   UNL A   1      35.287  34.791  28.496  1.00  0.00     0.040 A 
ATOM     70  F   UNL A   1      37.574  34.338  28.773  1.00  0.00    -0.206 F 
ATOM     71  C   UNL A   1      33.968  34.666  28.927  1.00  0.00     0.006 A 
ENDBRANCH  50  64
BRANCH  51  72
ATOM     72  C   UNL A   1      43.403  28.759  35.239  1.00  0.00     0.057 A 
ATOM     73  C   UNL A   1      44.756  29.014  34.989  1.00  0.00     0.134 A 
ATOM     74  C   UNL A   1      43.093  27.806  36.215  1.00  0.00     0.134 A 
ATOM     75  F   UNL A   1      45.115  29.914  34.061  1.00  0.00    -0.206 F 
ATOM     76  C   UNL A   1      45.765  28.338  35.674  1.00  0.00     0.040 A 
ATOM     77  C   UNL A   1      44.092  27.138  36.926  1.00  0.00     0.040 A 
ATOM     78  F   UNL A   1      41.813  27.533  36.509  1.00  0.00    -0.206 F 
ATOM     79  C   UNL A   1      45.433  27.401  36.651  1.00  0.00     0.006 A 
ENDBRANCH  51  72
BRANCH  63  80
ATOM     80  C   UNL A   1      39.711  34.496  36.537  1.00  0.00     0.057 A 
ATOM     81  C   UNL A   1      38.953  34.273  37.693  1.00  0.00     0.134 A 
ATOM     82  C   UNL A   1      40.487  35.660  36.482  1.00  0.00     0.134 A 
ATOM     83  F   UNL A   1      38.186  33.178  37.803  1.00  0.00    -0.206 F 
ATOM     84  C   UNL A   1      38.970  35.172  38.758  1.00  0.00     0.040 A 
ATOM     85  C   UNL A   1      40.529  36.557  37.550  1.00  0.00     0.040 A 
ATOM     86  F   UNL A   1      41.248  35.920  35.409  1.00  0.00    -0.206 F 
ATOM     87  C   UNL A   1      39.765  36.316  38.692  1.00  0.00     0.006 A 
ENDBRANCH  63  80
ENDBRANCH  37  38
ENDBRANCH  29  32
ENDBRANCH  27  28
ENDBRANCH  26  27
ENDBRANCH   1  26
TORSDOF 14
ENDMDL
MODEL 3
REMARK VINA RESULT:     -11.5      3.665      5.320
REMARK SMILES CC(C)Cc1cc2c(cc1Cl)C=C(C(=O)NCCCCNC(=O)c1ccc(-c3c4nc(c(-c5c(F)cccc5F)c5ccc([nH]5)c(-c5c(F)cccc5F)c5nc(c(-c6c(F)cccc6F)c6ccc3[nH]6)C=C5)C=C4)cc1)[C@@H](C(F)(F)F)O2
REMARK SMILES IDX 18 1 17 2 16 3 14 4 15 5 13 7 5 8 6 9 10 10 7 11 9 12 11 13
REMARK SMILES IDX 8 14 83 15 12 16 78 17 4 18 2 19 1 20 3 21 79 22 80 23 81 24
REMARK SMILES IDX 82 25 19 26 20 27 21 28 22 29 23 31 24 32 25 33 77 34 26 35
REMARK SMILES IDX 76 36 27 37 28 38 29 39 70 40 30 41 75 42 69 43 71 44 31 45
REMARK SMILES IDX 74 46 68 47 67 48 32 50 58 51 41 52 57 53 42 54 45 55 56 56
REMARK SMILES IDX 72 57 43 58 44 59 55 61 73 62 46 63 33 64 34 65 39 66 35 67
REMARK SMILES IDX 36 68 38 69 40 70 37 71 59 72 60 73 65 74 61 75 62 76 64 77
REMARK SMILES IDX 66 78 63 79 47 80 48 81 53 82 49 83 50 84 52 85 54 86 51 87
REMARK H PARENT 16 6 21 30 71 49 45 60
REMARK Flexibility Score: inf
ROOT
ATOM      1  C   UNL A   1      32.113  30.184  26.905  1.00  0.00     0.023 C 
ENDROOT
BRANCH   1   2
ATOM      2  C   UNL A   1      33.379  29.718  26.193  1.00  0.00     0.116 C 
BRANCH   2   3
ATOM      3  N   UNL A   1      33.193  29.623  24.756  1.00  0.00    -0.352 N 
ATOM      4  C   UNL A   1      32.919  28.650  23.856  1.00  0.00     0.251 C 
ATOM      5  O   UNL A   1      32.830  29.032  22.684  1.00  0.00    -0.270 OA
ATOM      6  H   UNL A   1      33.291  30.500  24.321  1.00  0.00     0.163 HD
BRANCH   4   7
ATOM      7  C   UNL A   1      32.736  27.203  24.175  1.00  0.00     0.067 C 
ATOM      8  C   UNL A   1      33.570  22.344  25.303  1.00  0.00    -0.025 A 
ATOM      9  C   UNL A   1      32.499  23.233  25.489  1.00  0.00     0.052 A 
ATOM     10  C   UNL A   1      34.717  22.813  24.641  1.00  0.00     0.045 A 
ATOM     11  C   UNL A   1      32.587  24.553  25.055  1.00  0.00     0.128 A 
ATOM     12  C   UNL A   1      34.809  24.147  24.226  1.00  0.00     0.032 A 
ATOM     13  Cl  UNL A   1      36.065  21.783  24.313  1.00  0.00    -0.084 Cl
ATOM     14  C   UNL A   1      33.747  25.027  24.446  1.00  0.00     0.019 A 
ATOM     15  O   UNL A   1      31.511  25.353  25.313  1.00  0.00    -0.475 OA
ATOM     16  C   UNL A   1      33.848  26.444  24.120  1.00  0.00     0.025 C 
ATOM     17  C   UNL A   1      31.418  26.568  24.519  1.00  0.00     0.314 C 
BRANCH   8  18
ATOM     18  C   UNL A   1      33.449  20.950  25.876  1.00  0.00     0.040 C 
BRANCH  18  19
ATOM     19  C   UNL A   1      32.469  20.037  25.108  1.00  0.00    -0.013 C 
ATOM     20  C   UNL A   1      32.463  20.306  23.600  1.00  0.00     0.008 C 
ATOM     21  C   UNL A   1      32.822  18.570  25.365  1.00  0.00     0.008 C 
ENDBRANCH  18  19
ENDBRANCH   8  18
BRANCH  17  22
ATOM     22  C   UNL A   1      30.554  26.302  23.270  1.00  0.00     0.429 C 
ATOM     23  F   UNL A   1      29.609  25.367  23.536  1.00  0.00    -0.167 F 
ATOM     24  F   UNL A   1      29.890  27.409  22.858  1.00  0.00    -0.167 F 
ATOM     25  F   UNL A   1      31.276  25.862  22.216  1.00  0.00    -0.167 F 
ENDBRANCH  17  22
ENDBRANCH   4   7
ENDBRANCH   2   3
ENDBRANCH   1   2
BRANCH   1  26
ATOM     26  C   UNL A   1      31.830  31.682  26.768  1.00  0.00     0.023 C 
BRANCH  26  27
ATOM     27  C   UNL A   1      32.876  32.606  27.388  1.00  0.00     0.116 C 
BRANCH  27  28
ATOM     28  N   UNL A   1      32.400  33.955  27.659  1.00  0.00    -0.352 N 
ATOM     29  C   UNL A   1      32.935  34.891  28.515  1.00  0.00     0.251 C 
ATOM     30  H   UNL A   1      31.592  34.233  27.168  1.00  0.00     0.163 HD
ATOM     31  O   UNL A   1      32.380  35.970  28.692  1.00  0.00    -0.269 OA
BRANCH  29  32
ATOM     32  C   UNL A   1      34.161  34.550  29.264  1.00  0.00     0.039 A 
ATOM     33  C   UNL A   1      35.414  34.730  28.678  1.00  0.00     0.014 A 
ATOM     34  C   UNL A   1      34.042  33.957  30.524  1.00  0.00     0.014 A 
ATOM     35  C   UNL A   1      36.530  34.150  29.268  1.00  0.00     0.010 A 
ATOM     36  C   UNL A   1      35.180  33.448  31.153  1.00  0.00     0.010 A 
ATOM     37  C   UNL A   1      36.422  33.485  30.501  1.00  0.00    -0.014 A 
BRANCH  37  38
ATOM     38  C   UNL A   1      37.615  32.805  31.063  1.00  0.00     0.031 A 
ATOM     39  C   UNL A   1      38.183  33.223  32.393  1.00  0.00     0.074 A 
ATOM     40  C   UNL A   1      38.142  31.754  30.405  1.00  0.00     0.049 A 
ATOM     41  N   UNL A   1      39.191  32.713  33.057  1.00  0.00    -0.248 NA
ATOM     42  C   UNL A   1      37.540  34.362  33.066  1.00  0.00     0.031 C 
ATOM     43  C   UNL A   1      37.672  31.247  29.114  1.00  0.00     0.029 A 
ATOM     44  N   UNL A   1      39.163  30.907  30.745  1.00  0.00    -0.354 N 
ATOM     45  C   UNL A   1      39.316  33.480  34.209  1.00  0.00     0.074 A 
ATOM     46  C   UNL A   1      38.297  34.507  34.144  1.00  0.00     0.031 C 
ATOM     47  C   UNL A   1      38.366  30.142  28.799  1.00  0.00     0.029 A 
ATOM     48  C   UNL A   1      39.362  29.897  29.837  1.00  0.00     0.049 A 
ATOM     49  H   UNL A   1      39.703  31.012  31.562  1.00  0.00     0.167 HD
ATOM     50  C   UNL A   1      40.191  33.337  35.233  1.00  0.00     0.037 A 
ATOM     51  C   UNL A   1      40.250  28.888  29.836  1.00  0.00     0.037 A 
ATOM     52  C   UNL A   1      41.188  32.301  35.312  1.00  0.00     0.049 A 
ATOM     53  C   UNL A   1      41.225  28.768  30.971  1.00  0.00     0.074 A 
ATOM     54  C   UNL A   1      42.107  32.061  36.319  1.00  0.00     0.029 A 
ATOM     55  N   UNL A   1      41.390  31.328  34.346  1.00  0.00    -0.354 N 
ATOM     56  N   UNL A   1      41.328  29.500  32.053  1.00  0.00    -0.248 NA
ATOM     57  C   UNL A   1      42.214  27.686  30.877  1.00  0.00     0.031 C 
ATOM     58  C   UNL A   1      42.888  30.960  35.945  1.00  0.00     0.029 A 
ATOM     59  C   UNL A   1      42.430  30.494  34.724  1.00  0.00     0.049 A 
ATOM     60  H   UNL A   1      40.871  31.241  33.513  1.00  0.00     0.167 HD
ATOM     61  C   UNL A   1      42.383  28.963  32.774  1.00  0.00     0.074 A 
ATOM     62  C   UNL A   1      42.874  27.829  32.017  1.00  0.00     0.031 C 
ATOM     63  C   UNL A   1      42.906  29.374  33.955  1.00  0.00     0.037 A 
BRANCH  50  64
ATOM     64  C   UNL A   1      40.117  34.338  36.350  1.00  0.00     0.057 A 
ATOM     65  C   UNL A   1      39.350  34.077  37.492  1.00  0.00     0.134 A 
ATOM     66  C   UNL A   1      40.781  35.570  36.285  1.00  0.00     0.134 A 
ATOM     67  F   UNL A   1      38.685  32.917  37.615  1.00  0.00    -0.206 F 
ATOM     68  C   UNL A   1      39.245  35.004  38.530  1.00  0.00     0.040 A 
ATOM     69  C   UNL A   1      40.701  36.496  37.326  1.00  0.00     0.040 A 
ATOM     70  F   UNL A   1      41.544  35.875  35.226  1.00  0.00    -0.206 F 
ATOM     71  C   UNL A   1      39.927  36.217  38.450  1.00  0.00     0.006 A 
ENDBRANCH  50  64
BRANCH  51  72
ATOM     72  C   UNL A   1      40.258  27.912  28.721  1.00  0.00     0.057 A 
ATOM     73  C   UNL A   1      40.958  28.164  27.535  1.00  0.00     0.134 A 
ATOM     74  C   UNL A   1      39.562  26.702  28.817  1.00  0.00     0.134 A 
ATOM     75  F   UNL A   1      41.640  29.309  27.383  1.00  0.00    -0.206 F 
ATOM     76  C   UNL A   1      40.957  27.253  26.479  1.00  0.00     0.040 A 
ATOM     77  C   UNL A   1      39.571  25.771  27.777  1.00  0.00     0.040 A 
ATOM     78  F   UNL A   1      38.888  26.398  29.936  1.00  0.00    -0.206 F 
ATOM     79  C   UNL A   1      40.266  26.050  26.601  1.00  0.00     0.006 A 
ENDBRANCH  51  72
BRANCH  63  80
ATOM     80  C   UNL A   1      44.053  28.577  34.498  1.00  0.00     0.057 A 
ATOM     81  C   UNL A   1      45.374  28.928  34.197  1.00  0.00     0.134 A 
ATOM     82  C   UNL A   1      43.847  27.456  35.313  1.00  0.00     0.134 A 
ATOM     83  F   UNL A   1      45.636  29.988  33.417  1.00  0.00    -0.206 F 
ATOM     84  C   UNL A   1      46.452  28.196  34.693  1.00  0.00     0.040 A 
ATOM     85  C   UNL A   1      44.918  26.729  35.832  1.00  0.00     0.040 A 
ATOM     86  F   UNL A   1      42.604  27.080  35.650  1.00  0.00    -0.206 F 
ATOM     87  C   UNL A   1      46.226  27.096  35.519  1.00  0.00     0.006 A 
ENDBRANCH  63  80
ENDBRANCH  37  38
ENDBRANCH  29  32
ENDBRANCH  27  28
ENDBRANCH  26  27
ENDBRANCH   1  26
TORSDOF 14
ENDMDL
