MODEL 1
REMARK VINA RESULT:     -11.8      0.000      0.000
REMARK SMILES C[C@H](NC(=O)OCc1ccccc1)C(=O)NCC(=O)N1CCC[C@H]1C(=O)NCCCCNC(=O)c1ccc(-c2c3nc(c(-c4c(F)cccc4F)c4ccc([nH]4)c(-c4c(F)cccc4F)c4nc(c(-c5c(F)cccc5F)c5ccc2[nH]5)C=C4)C=C3)cc1
REMARK SMILES IDX 20 1 21 2 22 3 23 4 24 5 18 6 19 7 17 8 16 9 14 10 15 11
REMARK SMILES IDX 2 13 1 14 3 15 4 16 5 18 6 19 7 20 8 21 9 22 13 23 10 24
REMARK SMILES IDX 12 25 11 26 25 27 26 28 27 29 28 31 29 32 30 33 31 34 32 35
REMARK SMILES IDX 33 36 34 38 35 39 36 40 88 41 37 42 87 43 38 44 39 45 40 46
REMARK SMILES IDX 81 47 41 48 86 49 80 50 82 51 42 52 85 53 79 54 78 55 43 57
REMARK SMILES IDX 69 58 52 59 68 60 53 61 56 62 67 63 83 64 54 65 55 66 66 68
REMARK SMILES IDX 84 69 57 70 44 71 45 72 50 73 46 74 47 75 49 76 51 77 48 78
REMARK SMILES IDX 70 79 71 80 76 81 72 82 73 83 75 84 77 85 74 86 58 87 59 88
REMARK SMILES IDX 64 89 60 90 61 91 63 92 65 93 62 94
REMARK H PARENT 16 12 3 17 27 30 32 37 82 56 56 67
REMARK Flexibility Score: inf
ROOT
ATOM      1  N   UNL A   1      31.100  26.582  23.117  1.00  0.00    -0.329 N 
ATOM      2  C   UNL A   1      31.407  25.971  21.839  1.00  0.00     0.120 C 
ATOM      3  C   UNL A   1      32.917  26.035  21.816  1.00  0.00     0.024 C 
ATOM      4  C   UNL A   1      33.205  27.389  22.448  1.00  0.00     0.037 C 
ATOM      5  C   UNL A   1      31.975  27.760  23.296  1.00  0.00     0.174 C 
ENDROOT
BRANCH   1   6
ATOM      6  C   UNL A   1      30.244  26.210  24.127  1.00  0.00     0.242 C 
ATOM      7  O   UNL A   1      29.061  25.943  23.879  1.00  0.00    -0.273 OA
BRANCH   6   8
ATOM      8  C   UNL A   1      30.632  26.322  25.613  1.00  0.00     0.216 C 
BRANCH   8   9
ATOM      9  N   UNL A   1      30.633  25.180  26.503  1.00  0.00    -0.345 N 
ATOM     10  C   UNL A   1      31.518  24.152  26.632  1.00  0.00     0.242 C 
ATOM     11  O   UNL A   1      31.284  23.317  27.510  1.00  0.00    -0.273 OA
ATOM     12  H   UNL A   1      29.866  25.140  27.119  1.00  0.00     0.164 HD
BRANCH  10  13
ATOM     13  C   UNL A   1      32.815  24.068  25.802  1.00  0.00     0.171 C 
ATOM     14  C   UNL A   1      33.605  25.368  25.928  1.00  0.00     0.042 C 
BRANCH  13  15
ATOM     15  N   UNL A   1      32.604  23.700  24.408  1.00  0.00    -0.310 N 
ATOM     16  C   UNL A   1      33.085  22.569  23.812  1.00  0.00     0.408 C 
ATOM     17  H   UNL A   1      32.072  24.314  23.853  1.00  0.00     0.167 HD
ATOM     18  O   UNL A   1      32.916  22.356  22.624  1.00  0.00    -0.225 OA
BRANCH  16  19
ATOM     19  O   UNL A   1      33.760  21.779  24.679  1.00  0.00    -0.445 OA
BRANCH  19  20
ATOM     20  C   UNL A   1      33.049  20.637  25.169  1.00  0.00     0.270 C 
BRANCH  20  21
ATOM     21  C   UNL A   1      33.352  19.359  24.427  1.00  0.00    -0.011 A 
ATOM     22  C   UNL A   1      32.524  18.872  23.406  1.00  0.00     0.007 A 
ATOM     23  C   UNL A   1      34.472  18.605  24.805  1.00  0.00     0.007 A 
ATOM     24  C   UNL A   1      32.835  17.678  22.752  1.00  0.00     0.000 A 
ATOM     25  C   UNL A   1      34.779  17.409  24.156  1.00  0.00     0.000 A 
ATOM     26  C   UNL A   1      33.963  16.949  23.125  1.00  0.00     0.000 A 
ENDBRANCH  20  21
ENDBRANCH  19  20
ENDBRANCH  16  19
ENDBRANCH  13  15
ENDBRANCH  10  13
ENDBRANCH   8   9
ENDBRANCH   6   8
ENDBRANCH   1   6
BRANCH   5  27
ATOM     27  C   UNL A   1      31.183  29.075  22.988  1.00  0.00     0.242 C 
ATOM     28  O   UNL A   1      30.789  29.350  21.848  1.00  0.00    -0.273 OA
ATOM     29  N   UNL A   1      30.770  29.945  23.954  1.00  0.00    -0.354 N 
ATOM     30  H   UNL A   1      29.970  30.471  23.725  1.00  0.00     0.163 HD
BRANCH  29  31
ATOM     31  C   UNL A   1      31.324  30.215  25.258  1.00  0.00     0.116 C 
BRANCH  31  32
ATOM     32  C   UNL A   1      30.848  31.592  25.750  1.00  0.00     0.023 C 
BRANCH  32  33
ATOM     33  C   UNL A   1      31.459  32.032  27.077  1.00  0.00     0.023 C 
BRANCH  33  34
ATOM     34  C   UNL A   1      32.671  32.932  26.927  1.00  0.00     0.116 C 
BRANCH  34  35
ATOM     35  N   UNL A   1      32.530  34.203  27.626  1.00  0.00    -0.352 N 
ATOM     36  C   UNL A   1      33.270  34.665  28.686  1.00  0.00     0.251 C 
ATOM     37  H   UNL A   1      31.820  34.801  27.298  1.00  0.00     0.163 HD
ATOM     38  O   UNL A   1      32.967  35.700  29.264  1.00  0.00    -0.269 OA
BRANCH  36  39
ATOM     39  C   UNL A   1      34.415  33.854  29.138  1.00  0.00     0.039 A 
ATOM     40  C   UNL A   1      35.706  34.276  28.823  1.00  0.00     0.014 A 
ATOM     41  C   UNL A   1      34.201  32.738  29.950  1.00  0.00     0.014 A 
ATOM     42  C   UNL A   1      36.794  33.607  29.382  1.00  0.00     0.010 A 
ATOM     43  C   UNL A   1      35.281  32.135  30.579  1.00  0.00     0.010 A 
ATOM     44  C   UNL A   1      36.587  32.559  30.295  1.00  0.00    -0.014 A 
BRANCH  44  45
ATOM     45  C   UNL A   1      37.729  31.884  30.958  1.00  0.00     0.031 A 
ATOM     46  C   UNL A   1      38.490  30.814  30.226  1.00  0.00     0.074 A 
ATOM     47  C   UNL A   1      38.043  32.195  32.230  1.00  0.00     0.049 A 
ATOM     48  N   UNL A   1      39.477  30.067  30.649  1.00  0.00    -0.248 NA
ATOM     49  C   UNL A   1      38.068  30.526  28.845  1.00  0.00     0.031 C 
ATOM     50  C   UNL A   1      37.349  33.185  33.058  1.00  0.00     0.029 A 
ATOM     51  N   UNL A   1      39.024  31.705  33.054  1.00  0.00    -0.354 N 
ATOM     52  C   UNL A   1      39.790  29.225  29.591  1.00  0.00     0.074 A 
ATOM     53  C   UNL A   1      38.842  29.498  28.534  1.00  0.00     0.031 C 
ATOM     54  C   UNL A   1      37.948  33.251  34.258  1.00  0.00     0.029 A 
ATOM     55  C   UNL A   1      39.034  32.280  34.302  1.00  0.00     0.049 A 
ATOM     56  H   UNL A   1      39.662  31.008  32.777  1.00  0.00     0.167 HD
ATOM     57  C   UNL A   1      40.797  28.324  29.494  1.00  0.00     0.037 A 
ATOM     58  C   UNL A   1      39.828  32.041  35.364  1.00  0.00     0.037 A 
ATOM     59  C   UNL A   1      41.742  28.061  30.546  1.00  0.00     0.049 A 
ATOM     60  C   UNL A   1      40.911  31.002  35.245  1.00  0.00     0.074 A 
ATOM     61  C   UNL A   1      42.821  27.195  30.538  1.00  0.00     0.029 A 
ATOM     62  N   UNL A   1      41.719  28.661  31.797  1.00  0.00    -0.354 N 
ATOM     63  N   UNL A   1      41.238  30.259  34.215  1.00  0.00    -0.248 NA
ATOM     64  C   UNL A   1      41.739  30.772  36.437  1.00  0.00     0.031 C 
ATOM     65  C   UNL A   1      43.417  27.230  31.802  1.00  0.00     0.029 A 
ATOM     66  C   UNL A   1      42.750  28.166  32.576  1.00  0.00     0.049 A 
ATOM     67  H   UNL A   1      41.066  29.339  32.087  1.00  0.00     0.167 HD
ATOM     68  C   UNL A   1      42.331  29.504  34.622  1.00  0.00     0.074 A 
ATOM     69  C   UNL A   1      42.619  29.889  35.988  1.00  0.00     0.031 C 
ATOM     70  C   UNL A   1      43.033  28.574  33.930  1.00  0.00     0.037 A 
BRANCH  57  71
ATOM     71  C   UNL A   1      40.928  27.568  28.204  1.00  0.00     0.057 A 
ATOM     72  C   UNL A   1      40.251  26.361  27.983  1.00  0.00     0.134 A 
ATOM     73  C   UNL A   1      41.715  28.065  27.158  1.00  0.00     0.134 A 
ATOM     74  F   UNL A   1      39.491  25.822  28.949  1.00  0.00    -0.206 F 
ATOM     75  C   UNL A   1      40.373  25.662  26.782  1.00  0.00     0.040 A 
ATOM     76  C   UNL A   1      41.820  27.391  25.940  1.00  0.00     0.040 A 
ATOM     77  F   UNL A   1      42.387  29.217  27.298  1.00  0.00    -0.206 F 
ATOM     78  C   UNL A   1      41.155  26.181  25.753  1.00  0.00     0.006 A 
ENDBRANCH  57  71
BRANCH  58  79
ATOM     79  C   UNL A   1      39.645  32.802  36.626  1.00  0.00     0.057 A 
ATOM     80  C   UNL A   1      38.663  32.435  37.555  1.00  0.00     0.134 A 
ATOM     81  C   UNL A   1      40.418  33.931  36.922  1.00  0.00     0.134 A 
ATOM     82  F   UNL A   1      37.878  31.373  37.323  1.00  0.00    -0.206 F 
ATOM     83  C   UNL A   1      38.434  33.181  38.713  1.00  0.00     0.040 A 
ATOM     84  C   UNL A   1      40.220  34.668  38.091  1.00  0.00     0.040 A 
ATOM     85  F   UNL A   1      41.382  34.332  36.080  1.00  0.00    -0.206 F 
ATOM     86  C   UNL A   1      39.217  34.300  38.985  1.00  0.00     0.006 A 
ENDBRANCH  58  79
BRANCH  70  87
ATOM     87  C   UNL A   1      44.213  27.947  34.617  1.00  0.00     0.057 A 
ATOM     88  C   UNL A   1      45.484  28.535  34.598  1.00  0.00     0.134 A 
ATOM     89  C   UNL A   1      44.060  26.759  35.343  1.00  0.00     0.134 A 
ATOM     90  F   UNL A   1      45.700  29.666  33.911  1.00  0.00    -0.206 F 
ATOM     91  C   UNL A   1      46.567  27.948  35.254  1.00  0.00     0.040 A 
ATOM     92  C   UNL A   1      45.127  26.181  36.030  1.00  0.00     0.040 A 
ATOM     93  F   UNL A   1      42.867  26.149  35.412  1.00  0.00    -0.206 F 
ATOM     94  C   UNL A   1      46.388  26.772  35.980  1.00  0.00     0.006 A 
ENDBRANCH  70  87
ENDBRANCH  44  45
ENDBRANCH  36  39
ENDBRANCH  34  35
ENDBRANCH  33  34
ENDBRANCH  32  33
ENDBRANCH  31  32
ENDBRANCH  29  31
ENDBRANCH   5  27
TORSDOF 19
ENDMDL
MODEL 2
REMARK VINA RESULT:     -11.5      1.513      2.393
REMARK SMILES C[C@H](NC(=O)OCc1ccccc1)C(=O)NCC(=O)N1CCC[C@H]1C(=O)NCCCCNC(=O)c1ccc(-c2c3nc(c(-c4c(F)cccc4F)c4ccc([nH]4)c(-c4c(F)cccc4F)c4nc(c(-c5c(F)cccc5F)c5ccc2[nH]5)C=C4)C=C3)cc1
REMARK SMILES IDX 20 1 21 2 22 3 23 4 24 5 18 6 19 7 17 8 16 9 14 10 15 11
REMARK SMILES IDX 2 13 1 14 3 15 4 16 5 18 6 19 7 20 8 21 9 22 13 23 10 24
REMARK SMILES IDX 12 25 11 26 25 27 26 28 27 29 28 31 29 32 30 33 31 34 32 35
REMARK SMILES IDX 33 36 34 38 35 39 36 40 88 41 37 42 87 43 38 44 39 45 40 46
REMARK SMILES IDX 81 47 41 48 86 49 80 50 82 51 42 52 85 53 79 54 78 55 43 57
REMARK SMILES IDX 69 58 52 59 68 60 53 61 56 62 67 63 83 64 54 65 55 66 66 68
REMARK SMILES IDX 84 69 57 70 44 71 45 72 50 73 46 74 47 75 49 76 51 77 48 78
REMARK SMILES IDX 70 79 71 80 76 81 72 82 73 83 75 84 77 85 74 86 58 87 59 88
REMARK SMILES IDX 64 89 60 90 61 91 63 92 65 93 62 94
REMARK H PARENT 16 12 3 17 27 30 32 37 82 56 56 67
REMARK Flexibility Score: inf
ROOT
ATOM      1  N   UNL A   1      31.942  24.339  24.993  1.00  0.00    -0.329 N 
ATOM      2  C   UNL A   1      31.042  23.332  24.466  1.00  0.00     0.120 C 
ATOM      3  C   UNL A   1      30.655  23.926  23.132  1.00  0.00     0.024 C 
ATOM      4  C   UNL A   1      30.530  25.410  23.449  1.00  0.00     0.037 C 
ATOM      5  C   UNL A   1      31.373  25.673  24.709  1.00  0.00     0.174 C 
ENDROOT
BRANCH   1   6
ATOM      6  C   UNL A   1      33.175  24.239  25.595  1.00  0.00     0.242 C 
ATOM      7  O   UNL A   1      33.277  23.800  26.748  1.00  0.00    -0.273 OA
BRANCH   6   8
ATOM      8  C   UNL A   1      34.441  24.861  24.977  1.00  0.00     0.216 C 
BRANCH   8   9
ATOM      9  N   UNL A   1      35.124  24.269  23.845  1.00  0.00    -0.345 N 
ATOM     10  C   UNL A   1      36.128  23.349  23.793  1.00  0.00     0.242 C 
ATOM     11  O   UNL A   1      36.506  22.994  22.672  1.00  0.00    -0.273 OA
ATOM     12  H   UNL A   1      34.812  24.585  22.967  1.00  0.00     0.164 HD
BRANCH  10  13
ATOM     13  C   UNL A   1      36.711  22.687  25.058  1.00  0.00     0.171 C 
ATOM     14  C   UNL A   1      37.710  23.626  25.729  1.00  0.00     0.042 C 
BRANCH  13  15
ATOM     15  N   UNL A   1      37.286  21.369  24.824  1.00  0.00    -0.310 N 
ATOM     16  C   UNL A   1      36.642  20.182  25.032  1.00  0.00     0.408 C 
ATOM     17  H   UNL A   1      38.211  21.330  24.491  1.00  0.00     0.167 HD
ATOM     18  O   UNL A   1      37.207  19.115  24.870  1.00  0.00    -0.225 OA
BRANCH  16  19
ATOM     19  O   UNL A   1      35.365  20.357  25.446  1.00  0.00    -0.445 OA
BRANCH  19  20
ATOM     20  C   UNL A   1      34.347  19.970  24.516  1.00  0.00     0.270 C 
BRANCH  20  21
ATOM     21  C   UNL A   1      33.905  18.535  24.652  1.00  0.00    -0.011 A 
ATOM     22  C   UNL A   1      34.402  17.516  23.827  1.00  0.00     0.007 A 
ATOM     23  C   UNL A   1      32.923  18.215  25.601  1.00  0.00     0.007 A 
ATOM     24  C   UNL A   1      33.956  16.202  23.978  1.00  0.00     0.000 A 
ATOM     25  C   UNL A   1      32.473  16.902  25.747  1.00  0.00     0.000 A 
ATOM     26  C   UNL A   1      32.995  15.895  24.939  1.00  0.00     0.000 A 
ENDBRANCH  20  21
ENDBRANCH  19  20
ENDBRANCH  16  19
ENDBRANCH  13  15
ENDBRANCH  10  13
ENDBRANCH   8   9
ENDBRANCH   6   8
ENDBRANCH   1   6
BRANCH   5  27
ATOM     27  C   UNL A   1      30.694  26.257  25.994  1.00  0.00     0.242 C 
ATOM     28  O   UNL A   1      29.796  25.651  26.592  1.00  0.00    -0.273 OA
ATOM     29  N   UNL A   1      31.113  27.399  26.610  1.00  0.00    -0.354 N 
ATOM     30  H   UNL A   1      30.922  27.445  27.575  1.00  0.00     0.163 HD
BRANCH  29  31
ATOM     31  C   UNL A   1      31.792  28.550  26.068  1.00  0.00     0.116 C 
BRANCH  31  32
ATOM     32  C   UNL A   1      32.118  29.541  27.198  1.00  0.00     0.023 C 
BRANCH  32  33
ATOM     33  C   UNL A   1      31.865  31.003  26.845  1.00  0.00     0.023 C 
BRANCH  33  34
ATOM     34  C   UNL A   1      33.022  31.926  27.180  1.00  0.00     0.116 C 
BRANCH  34  35
ATOM     35  N   UNL A   1      32.610  33.309  27.384  1.00  0.00    -0.352 N 
ATOM     36  C   UNL A   1      33.100  34.204  28.301  1.00  0.00     0.251 C 
ATOM     37  H   UNL A   1      31.895  33.640  26.794  1.00  0.00     0.163 HD
ATOM     38  O   UNL A   1      32.580  35.301  28.454  1.00  0.00    -0.269 OA
BRANCH  36  39
ATOM     39  C   UNL A   1      34.247  33.790  29.130  1.00  0.00     0.039 A 
ATOM     40  C   UNL A   1      34.026  32.929  30.204  1.00  0.00     0.014 A 
ATOM     41  C   UNL A   1      35.540  34.182  28.778  1.00  0.00     0.014 A 
ATOM     42  C   UNL A   1      35.120  32.405  30.891  1.00  0.00     0.010 A 
ATOM     43  C   UNL A   1      36.627  33.586  29.401  1.00  0.00     0.010 A 
ATOM     44  C   UNL A   1      36.428  32.698  30.467  1.00  0.00    -0.014 A 
BRANCH  44  45
ATOM     45  C   UNL A   1      37.604  32.093  31.137  1.00  0.00     0.031 A 
ATOM     46  C   UNL A   1      38.355  30.978  30.463  1.00  0.00     0.074 A 
ATOM     47  C   UNL A   1      37.960  32.508  32.368  1.00  0.00     0.049 A 
ATOM     48  N   UNL A   1      39.368  30.279  30.905  1.00  0.00    -0.248 NA
ATOM     49  C   UNL A   1      37.885  30.575  29.126  1.00  0.00     0.031 C 
ATOM     50  C   UNL A   1      37.282  33.551  33.141  1.00  0.00     0.029 A 
ATOM     51  N   UNL A   1      38.980  32.098  33.189  1.00  0.00    -0.354 N 
ATOM     52  C   UNL A   1      39.655  29.360  29.905  1.00  0.00     0.074 A 
ATOM     53  C   UNL A   1      38.664  29.536  28.868  1.00  0.00     0.031 C 
ATOM     54  C   UNL A   1      37.924  33.720  34.308  1.00  0.00     0.029 A 
ATOM     55  C   UNL A   1      39.027  32.770  34.386  1.00  0.00     0.049 A 
ATOM     56  H   UNL A   1      39.618  31.389  32.943  1.00  0.00     0.167 HD
ATOM     57  C   UNL A   1      40.672  28.468  29.841  1.00  0.00     0.037 A 
ATOM     58  C   UNL A   1      39.864  32.626  35.432  1.00  0.00     0.037 A 
ATOM     59  C   UNL A   1      41.660  28.302  30.873  1.00  0.00     0.049 A 
ATOM     60  C   UNL A   1      40.958  31.595  35.354  1.00  0.00     0.074 A 
ATOM     61  C   UNL A   1      42.752  27.452  30.892  1.00  0.00     0.029 A 
ATOM     62  N   UNL A   1      41.674  28.999  32.072  1.00  0.00    -0.354 N 
ATOM     63  N   UNL A   1      41.258  30.778  34.374  1.00  0.00    -0.248 NA
ATOM     64  C   UNL A   1      41.834  31.472  36.528  1.00  0.00     0.031 C 
ATOM     65  C   UNL A   1      43.394  27.595  32.125  1.00  0.00     0.029 A 
ATOM     66  C   UNL A   1      42.742  28.581  32.848  1.00  0.00     0.049 A 
ATOM     67  H   UNL A   1      41.021  29.689  32.333  1.00  0.00     0.167 HD
ATOM     68  C   UNL A   1      42.378  30.071  34.797  1.00  0.00     0.074 A 
ATOM     69  C   UNL A   1      42.710  30.568  36.115  1.00  0.00     0.031 C 
ATOM     70  C   UNL A   1      43.068  29.098  34.153  1.00  0.00     0.037 A 
BRANCH  57  71
ATOM     71  C   UNL A   1      40.766  27.614  28.610  1.00  0.00     0.057 A 
ATOM     72  C   UNL A   1      40.055  26.412  28.489  1.00  0.00     0.134 A 
ATOM     73  C   UNL A   1      41.553  28.009  27.521  1.00  0.00     0.134 A 
ATOM     74  F   UNL A   1      39.293  25.968  29.500  1.00  0.00    -0.206 F 
ATOM     75  C   UNL A   1      40.144  25.622  27.342  1.00  0.00     0.040 A 
ATOM     76  C   UNL A   1      41.625  27.242  26.357  1.00  0.00     0.040 A 
ATOM     77  F   UNL A   1      42.258  29.150  27.567  1.00  0.00    -0.206 F 
ATOM     78  C   UNL A   1      40.926  26.041  26.268  1.00  0.00     0.006 A 
ENDBRANCH  57  71
BRANCH  58  79
ATOM     79  C   UNL A   1      39.716  33.483  36.637  1.00  0.00     0.057 A 
ATOM     80  C   UNL A   1      38.881  33.103  37.695  1.00  0.00     0.134 A 
ATOM     81  C   UNL A   1      40.373  34.713  36.748  1.00  0.00     0.134 A 
ATOM     82  F   UNL A   1      38.210  31.943  37.642  1.00  0.00    -0.206 F 
ATOM     83  C   UNL A   1      38.679  33.929  38.802  1.00  0.00     0.040 A 
ATOM     84  C   UNL A   1      40.205  35.535  37.864  1.00  0.00     0.040 A 
ATOM     85  F   UNL A   1      41.195  35.133  35.775  1.00  0.00    -0.206 F 
ATOM     86  C   UNL A   1      39.345  35.149  38.890  1.00  0.00     0.006 A 
ENDBRANCH  58  79
BRANCH  70  87
ATOM     87  C   UNL A   1      44.283  28.544  34.842  1.00  0.00     0.057 A 
ATOM     88  C   UNL A   1      45.553  29.112  34.683  1.00  0.00     0.134 A 
ATOM     89  C   UNL A   1      44.168  27.449  35.709  1.00  0.00     0.134 A 
ATOM     90  F   UNL A   1      45.734  30.154  33.859  1.00  0.00    -0.206 F 
ATOM     91  C   UNL A   1      46.669  28.594  35.341  1.00  0.00     0.040 A 
ATOM     92  C   UNL A   1      45.270  26.944  36.397  1.00  0.00     0.040 A 
ATOM     93  F   UNL A   1      42.978  26.864  35.915  1.00  0.00    -0.206 F 
ATOM     94  C   UNL A   1      46.528  27.512  36.208  1.00  0.00     0.006 A 
ENDBRANCH  70  87
ENDBRANCH  44  45
ENDBRANCH  36  39
ENDBRANCH  34  35
ENDBRANCH  33  34
ENDBRANCH  32  33
ENDBRANCH  31  32
ENDBRANCH  29  31
ENDBRANCH   5  27
TORSDOF 19
ENDMDL
MODEL 3
REMARK VINA RESULT:     -11.5      2.017      6.229
REMARK SMILES C[C@H](NC(=O)OCc1ccccc1)C(=O)NCC(=O)N1CCC[C@H]1C(=O)NCCCCNC(=O)c1ccc(-c2c3nc(c(-c4c(F)cccc4F)c4ccc([nH]4)c(-c4c(F)cccc4F)c4nc(c(-c5c(F)cccc5F)c5ccc2[nH]5)C=C4)C=C3)cc1
REMARK SMILES IDX 20 1 21 2 22 3 23 4 24 5 18 6 19 7 17 8 16 9 14 10 15 11
REMARK SMILES IDX 2 13 1 14 3 15 4 16 5 18 6 19 7 20 8 21 9 22 13 23 10 24
REMARK SMILES IDX 12 25 11 26 25 27 26 28 27 29 28 31 29 32 30 33 31 34 32 35
REMARK SMILES IDX 33 36 34 38 35 39 36 40 88 41 37 42 87 43 38 44 39 45 40 46
REMARK SMILES IDX 81 47 41 48 86 49 80 50 82 51 42 52 85 53 79 54 78 55 43 57
REMARK SMILES IDX 69 58 52 59 68 60 53 61 56 62 67 63 83 64 54 65 55 66 66 68
REMARK SMILES IDX 84 69 57 70 44 71 45 72 50 73 46 74 47 75 49 76 51 77 48 78
REMARK SMILES IDX 70 79 71 80 76 81 72 82 73 83 75 84 77 85 74 86 58 87 59 88
REMARK SMILES IDX 64 89 60 90 61 91 63 92 65 93 62 94
REMARK H PARENT 16 12 3 17 27 30 32 37 82 56 56 67
REMARK Flexibility Score: inf
ROOT
ATOM      1  N   UNL A   1      31.363  26.002  25.854  1.00  0.00    -0.329 N 
ATOM      2  C   UNL A   1      30.077  26.214  25.220  1.00  0.00     0.120 C 
ATOM      3  C   UNL A   1      30.451  27.068  24.032  1.00  0.00     0.024 C 
ATOM      4  C   UNL A   1      31.525  27.984  24.602  1.00  0.00     0.037 C 
ATOM      5  C   UNL A   1      32.112  27.275  25.836  1.00  0.00     0.174 C 
ENDROOT
BRANCH   1   6
ATOM      6  C   UNL A   1      31.960  24.868  26.355  1.00  0.00     0.242 C 
ATOM      7  O   UNL A   1      31.403  24.201  27.236  1.00  0.00    -0.273 OA
BRANCH   6   8
ATOM      8  C   UNL A   1      33.418  24.496  26.024  1.00  0.00     0.216 C 
BRANCH   8   9
ATOM      9  N   UNL A   1      34.055  23.307  26.551  1.00  0.00    -0.345 N 
ATOM     10  C   UNL A   1      34.847  22.378  25.945  1.00  0.00     0.242 C 
ATOM     11  O   UNL A   1      35.286  21.468  26.654  1.00  0.00    -0.273 OA
ATOM     12  H   UNL A   1      33.888  23.143  27.507  1.00  0.00     0.164 HD
BRANCH  10  13
ATOM     13  C   UNL A   1      35.275  22.492  24.468  1.00  0.00     0.171 C 
ATOM     14  C   UNL A   1      36.372  23.543  24.318  1.00  0.00     0.042 C 
BRANCH  13  15
ATOM     15  N   UNL A   1      34.170  22.733  23.548  1.00  0.00    -0.310 N 
ATOM     16  C   UNL A   1      33.069  21.936  23.416  1.00  0.00     0.408 C 
ATOM     17  H   UNL A   1      34.222  23.534  22.978  1.00  0.00     0.167 HD
ATOM     18  O   UNL A   1      32.211  22.170  22.583  1.00  0.00    -0.225 OA
BRANCH  16  19
ATOM     19  O   UNL A   1      33.083  20.894  24.280  1.00  0.00    -0.445 OA
BRANCH  19  20
ATOM     20  C   UNL A   1      32.204  19.808  23.966  1.00  0.00     0.270 C 
BRANCH  20  21
ATOM     21  C   UNL A   1      32.796  18.445  24.228  1.00  0.00    -0.011 A 
ATOM     22  C   UNL A   1      33.510  17.738  23.250  1.00  0.00     0.007 A 
ATOM     23  C   UNL A   1      32.580  17.841  25.475  1.00  0.00     0.007 A 
ATOM     24  C   UNL A   1      34.030  16.473  23.531  1.00  0.00     0.000 A 
ATOM     25  C   UNL A   1      33.095  16.574  25.752  1.00  0.00     0.000 A 
ATOM     26  C   UNL A   1      33.826  15.894  24.782  1.00  0.00     0.000 A 
ENDBRANCH  20  21
ENDBRANCH  19  20
ENDBRANCH  16  19
ENDBRANCH  13  15
ENDBRANCH  10  13
ENDBRANCH   8   9
ENDBRANCH   6   8
ENDBRANCH   1   6
BRANCH   5  27
ATOM     27  C   UNL A   1      32.042  27.966  27.240  1.00  0.00     0.242 C 
ATOM     28  O   UNL A   1      31.076  27.811  27.997  1.00  0.00    -0.273 OA
ATOM     29  N   UNL A   1      33.072  28.681  27.775  1.00  0.00    -0.354 N 
ATOM     30  H   UNL A   1      33.094  28.704  28.759  1.00  0.00     0.163 HD
BRANCH  29  31
ATOM     31  C   UNL A   1      34.134  29.409  27.124  1.00  0.00     0.116 C 
BRANCH  31  32
ATOM     32  C   UNL A   1      34.329  30.769  27.813  1.00  0.00     0.023 C 
BRANCH  32  33
ATOM     33  C   UNL A   1      33.113  31.689  27.746  1.00  0.00     0.023 C 
BRANCH  33  34
ATOM     34  C   UNL A   1      33.418  33.072  27.203  1.00  0.00     0.116 C 
BRANCH  34  35
ATOM     35  N   UNL A   1      32.835  34.142  28.002  1.00  0.00    -0.352 N 
ATOM     36  C   UNL A   1      33.304  34.657  29.185  1.00  0.00     0.251 C 
ATOM     37  H   UNL A   1      32.008  34.543  27.652  1.00  0.00     0.163 HD
ATOM     38  O   UNL A   1      32.651  35.472  29.823  1.00  0.00    -0.269 OA
BRANCH  36  39
ATOM     39  C   UNL A   1      34.599  34.166  29.690  1.00  0.00     0.039 A 
ATOM     40  C   UNL A   1      34.616  33.345  30.817  1.00  0.00     0.014 A 
ATOM     41  C   UNL A   1      35.773  34.444  28.987  1.00  0.00     0.014 A 
ATOM     42  C   UNL A   1      35.814  32.746  31.203  1.00  0.00     0.010 A 
ATOM     43  C   UNL A   1      36.942  33.774  29.317  1.00  0.00     0.010 A 
ATOM     44  C   UNL A   1      36.975  32.924  30.432  1.00  0.00    -0.014 A 
BRANCH  44  45
ATOM     45  C   UNL A   1      38.241  32.238  30.783  1.00  0.00     0.031 A 
ATOM     46  C   UNL A   1      39.172  32.856  31.788  1.00  0.00     0.074 A 
ATOM     47  C   UNL A   1      38.575  31.091  30.160  1.00  0.00     0.049 A 
ATOM     48  N   UNL A   1      40.349  32.446  32.185  1.00  0.00    -0.248 NA
ATOM     49  C   UNL A   1      38.736  34.120  32.406  1.00  0.00     0.031 C 
ATOM     50  C   UNL A   1      37.773  30.417  29.135  1.00  0.00     0.029 A 
ATOM     51  N   UNL A   1      39.682  30.291  30.293  1.00  0.00    -0.354 N 
ATOM     52  C   UNL A   1      40.790  33.398  33.096  1.00  0.00     0.074 A 
ATOM     53  C   UNL A   1      39.792  34.443  33.136  1.00  0.00     0.031 C 
ATOM     54  C   UNL A   1      38.400  29.291  28.758  1.00  0.00     0.029 A 
ATOM     55  C   UNL A   1      39.664  29.185  29.477  1.00  0.00     0.049 A 
ATOM     56  H   UNL A   1      40.419  30.490  30.915  1.00  0.00     0.167 HD
ATOM     57  C   UNL A   1      41.911  33.387  33.855  1.00  0.00     0.037 A 
ATOM     58  C   UNL A   1      40.573  28.204  29.323  1.00  0.00     0.037 A 
ATOM     59  C   UNL A   1      42.897  32.340  33.817  1.00  0.00     0.049 A 
ATOM     60  C   UNL A   1      41.833  28.240  30.146  1.00  0.00     0.074 A 
ATOM     61  C   UNL A   1      44.051  32.215  34.570  1.00  0.00     0.029 A 
ATOM     62  N   UNL A   1      42.846  31.238  32.976  1.00  0.00    -0.354 N 
ATOM     63  N   UNL A   1      42.206  29.111  31.052  1.00  0.00    -0.248 NA
ATOM     64  C   UNL A   1      42.796  27.151  29.928  1.00  0.00     0.031 C 
ATOM     65  C   UNL A   1      44.726  31.067  34.147  1.00  0.00     0.029 A 
ATOM     66  C   UNL A   1      43.960  30.441  33.175  1.00  0.00     0.049 A 
ATOM     67  H   UNL A   1      42.124  31.050  32.333  1.00  0.00     0.167 HD
ATOM     68  C   UNL A   1      43.426  28.657  31.538  1.00  0.00     0.074 A 
ATOM     69  C   UNL A   1      43.721  27.425  30.836  1.00  0.00     0.031 C 
ATOM     70  C   UNL A   1      44.230  29.208  32.479  1.00  0.00     0.037 A 
BRANCH  57  71
ATOM     71  C   UNL A   1      42.121  34.539  34.795  1.00  0.00     0.057 A 
ATOM     72  C   UNL A   1      41.570  34.552  36.084  1.00  0.00     0.134 A 
ATOM     73  C   UNL A   1      42.907  35.636  34.420  1.00  0.00     0.134 A 
ATOM     74  F   UNL A   1      40.796  33.539  36.501  1.00  0.00    -0.206 F 
ATOM     75  C   UNL A   1      41.770  35.623  36.954  1.00  0.00     0.040 A 
ATOM     76  C   UNL A   1      43.140  36.699  35.294  1.00  0.00     0.040 A 
ATOM     77  F   UNL A   1      43.469  35.688  33.203  1.00  0.00    -0.206 F 
ATOM     78  C   UNL A   1      42.563  36.699  36.562  1.00  0.00     0.006 A 
ENDBRANCH  57  71
BRANCH  58  79
ATOM     79  C   UNL A   1      40.328  27.095  28.365  1.00  0.00     0.057 A 
ATOM     80  C   UNL A   1      40.891  27.111  27.082  1.00  0.00     0.134 A 
ATOM     81  C   UNL A   1      39.500  26.013  28.688  1.00  0.00     0.134 A 
ATOM     82  F   UNL A   1      41.679  28.128  26.704  1.00  0.00    -0.206 F 
ATOM     83  C   UNL A   1      40.614  26.112  26.147  1.00  0.00     0.040 A 
ATOM     84  C   UNL A   1      39.240  24.991  27.775  1.00  0.00     0.040 A 
ATOM     85  F   UNL A   1      38.937  25.932  29.903  1.00  0.00    -0.206 F 
ATOM     86  C   UNL A   1      39.788  25.045  26.495  1.00  0.00     0.006 A 
ENDBRANCH  58  79
BRANCH  70  87
ATOM     87  C   UNL A   1      45.480  28.458  32.844  1.00  0.00     0.057 A 
ATOM     88  C   UNL A   1      46.713  28.726  32.236  1.00  0.00     0.134 A 
ATOM     89  C   UNL A   1      45.453  27.483  33.849  1.00  0.00     0.134 A 
ATOM     90  F   UNL A   1      46.805  29.639  31.258  1.00  0.00    -0.206 F 
ATOM     91  C   UNL A   1      47.868  28.031  32.596  1.00  0.00     0.040 A 
ATOM     92  C   UNL A   1      46.607  26.805  34.240  1.00  0.00     0.040 A 
ATOM     93  F   UNL A   1      44.307  27.185  34.480  1.00  0.00    -0.206 F 
ATOM     94  C   UNL A   1      47.819  27.073  33.607  1.00  0.00     0.006 A 
ENDBRANCH  70  87
ENDBRANCH  44  45
ENDBRANCH  36  39
ENDBRANCH  34  35
ENDBRANCH  33  34
ENDBRANCH  32  33
ENDBRANCH  31  32
ENDBRANCH  29  31
ENDBRANCH   5  27
TORSDOF 19
ENDMDL
