MODEL 1
REMARK VINA RESULT:     -12.7      0.000      0.000
REMARK SMILES CC1=C([C@H](NC(=O)[C@@H]2[C@H](C)c3cc(F)ccc3N2C)C(=O)NCCCCNC(=O)c2ccc(-c3c4nc(c(-c5c(F)cccc5F)c5ccc([nH]5)c(-c5c(F)cccc5F)c5nc(c(-c6c(F)cccc6F)c6ccc3[nH]6)C=C5)C=C4)cc2)[C@@H](C)N=N1
REMARK SMILES IDX 24 1 23 2 22 3 20 4 21 5 4 7 3 8 1 9 2 10 87 11 84 12 86 13
REMARK SMILES IDX 85 14 5 15 6 16 7 18 8 19 9 20 18 21 11 22 10 23 17 24 19 25
REMARK SMILES IDX 12 26 16 27 13 28 15 29 14 30 25 31 26 32 27 33 28 34 29 36
REMARK SMILES IDX 30 37 31 38 83 39 32 40 82 41 33 42 34 43 35 44 76 45 36 46
REMARK SMILES IDX 81 47 75 48 77 49 37 50 80 51 74 52 73 53 38 55 64 56 47 57
REMARK SMILES IDX 63 58 48 59 51 60 62 61 78 62 49 63 50 64 61 66 79 67 52 68
REMARK SMILES IDX 39 69 40 70 45 71 41 72 42 73 44 74 46 75 43 76 65 77 66 78
REMARK SMILES IDX 71 79 67 80 68 81 70 82 72 83 69 84 53 85 54 86 59 87 55 88
REMARK SMILES IDX 56 89 58 90 60 91 57 92
REMARK H PARENT 22 6 5 17 27 35 77 54 51 65
REMARK Flexibility Score: inf
ROOT
ATOM      1  C   UNL A   1      34.702  29.282  26.940  1.00  0.00     0.023 C 
ENDROOT
BRANCH   1   2
ATOM      2  C   UNL A   1      34.010  28.018  26.439  1.00  0.00     0.116 C 
BRANCH   2   3
ATOM      3  N   UNL A   1      32.620  27.875  26.807  1.00  0.00    -0.354 N 
ATOM      4  C   UNL A   1      31.664  27.028  26.340  1.00  0.00     0.247 C 
ATOM      5  O   UNL A   1      30.711  26.816  27.104  1.00  0.00    -0.272 OA
ATOM      6  H   UNL A   1      32.315  28.492  27.512  1.00  0.00     0.163 HD
BRANCH   4   7
ATOM      7  C   UNL A   1      31.674  26.341  24.940  1.00  0.00     0.202 C 
BRANCH   7   8
ATOM      8  C   UNL A   1      31.338  27.318  23.846  1.00  0.00     0.011 C 
ATOM      9  C   UNL A   1      28.805  26.999  23.613  1.00  0.00     0.069 C 
ATOM     10  C   UNL A   1      30.138  27.604  23.319  1.00  0.00     0.064 C 
ATOM     11  N   UNL A   1      30.189  28.633  22.414  1.00  0.00    -0.160 NA
ATOM     12  C   UNL A   1      32.263  28.335  23.241  1.00  0.00     0.156 C 
ATOM     13  N   UNL A   1      31.359  29.091  22.335  1.00  0.00    -0.181 NA
ATOM     14  C   UNL A   1      33.434  27.831  22.407  1.00  0.00     0.040 C 
ENDBRANCH   7   8
BRANCH   7  15
ATOM     15  N   UNL A   1      30.975  25.069  24.704  1.00  0.00    -0.339 N 
ATOM     16  C   UNL A   1      31.410  23.944  24.047  1.00  0.00     0.244 C 
ATOM     17  H   UNL A   1      30.062  25.016  25.071  1.00  0.00     0.164 HD
ATOM     18  O   UNL A   1      30.583  23.360  23.330  1.00  0.00    -0.273 OA
BRANCH  16  19
ATOM     19  C   UNL A   1      32.787  23.376  24.379  1.00  0.00     0.178 C 
ATOM     20  C   UNL A   1      34.008  23.921  23.617  1.00  0.00     0.050 C 
ATOM     21  N   UNL A   1      32.913  21.891  24.368  1.00  0.00    -0.362 N 
ATOM     22  C   UNL A   1      34.991  22.845  23.985  1.00  0.00    -0.016 A 
ATOM     23  C   UNL A   1      33.800  24.157  22.135  1.00  0.00     0.015 C 
ATOM     24  C   UNL A   1      34.301  21.699  24.418  1.00  0.00     0.041 A 
ATOM     25  C   UNL A   1      32.005  21.027  25.094  1.00  0.00     0.144 C 
ATOM     26  C   UNL A   1      36.363  22.971  24.117  1.00  0.00     0.045 A 
ATOM     27  C   UNL A   1      35.004  20.625  24.940  1.00  0.00     0.029 A 
ATOM     28  C   UNL A   1      37.050  21.913  24.697  1.00  0.00     0.123 A 
ATOM     29  C   UNL A   1      36.390  20.745  25.098  1.00  0.00     0.041 A 
ATOM     30  F   UNL A   1      38.364  22.035  24.926  1.00  0.00    -0.207 F 
ENDBRANCH  16  19
ENDBRANCH   7  15
ENDBRANCH   4   7
ENDBRANCH   2   3
ENDBRANCH   1   2
BRANCH   1  31
ATOM     31  C   UNL A   1      33.754  30.369  27.480  1.00  0.00     0.023 C 
BRANCH  31  32
ATOM     32  C   UNL A   1      34.417  31.733  27.693  1.00  0.00     0.116 C 
BRANCH  32  33
ATOM     33  N   UNL A   1      34.385  32.124  29.090  1.00  0.00    -0.352 N 
ATOM     34  C   UNL A   1      35.161  31.885  30.175  1.00  0.00     0.251 C 
ATOM     35  H   UNL A   1      33.616  32.702  29.299  1.00  0.00     0.163 HD
ATOM     36  O   UNL A   1      34.680  32.261  31.266  1.00  0.00    -0.269 OA
BRANCH  34  37
ATOM     37  C   UNL A   1      36.502  31.253  30.189  1.00  0.00     0.039 A 
ATOM     38  C   UNL A   1      37.732  31.917  30.197  1.00  0.00     0.014 A 
ATOM     39  C   UNL A   1      36.497  29.846  30.159  1.00  0.00     0.014 A 
ATOM     40  C   UNL A   1      38.922  31.184  30.134  1.00  0.00     0.010 A 
ATOM     41  C   UNL A   1      37.676  29.115  30.110  1.00  0.00     0.010 A 
ATOM     42  C   UNL A   1      38.894  29.785  30.061  1.00  0.00    -0.014 A 
BRANCH  42  43
ATOM     43  C   UNL A   1      40.156  29.041  30.045  1.00  0.00     0.031 A 
ATOM     44  C   UNL A   1      40.807  28.858  31.376  1.00  0.00     0.074 A 
ATOM     45  C   UNL A   1      40.634  28.395  28.960  1.00  0.00     0.049 A 
ATOM     46  N   UNL A   1      41.980  29.248  31.759  1.00  0.00    -0.248 NA
ATOM     47  C   UNL A   1      40.012  28.226  32.439  1.00  0.00     0.031 C 
ATOM     48  C   UNL A   1      39.973  28.201  27.666  1.00  0.00     0.029 A 
ATOM     49  N   UNL A   1      41.793  27.683  28.820  1.00  0.00    -0.354 N 
ATOM     50  C   UNL A   1      42.147  28.756  33.056  1.00  0.00     0.074 A 
ATOM     51  C   UNL A   1      40.860  28.261  33.468  1.00  0.00     0.031 C 
ATOM     52  C   UNL A   1      40.639  27.264  26.956  1.00  0.00     0.029 A 
ATOM     53  C   UNL A   1      41.845  26.897  27.677  1.00  0.00     0.049 A 
ATOM     54  H   UNL A   1      42.527  27.724  29.475  1.00  0.00     0.167 HD
ATOM     55  C   UNL A   1      43.384  28.596  33.605  1.00  0.00     0.037 A 
ATOM     56  C   UNL A   1      42.791  25.982  27.349  1.00  0.00     0.037 A 
ATOM     57  C   UNL A   1      44.368  29.388  32.910  1.00  0.00     0.049 A 
ATOM     58  C   UNL A   1      43.997  26.254  28.159  1.00  0.00     0.074 A 
ATOM     59  C   UNL A   1      44.574  30.732  32.678  1.00  0.00     0.029 A 
ATOM     60  N   UNL A   1      45.212  28.730  32.052  1.00  0.00    -0.354 N 
ATOM     61  N   UNL A   1      44.770  27.289  27.997  1.00  0.00    -0.248 NA
ATOM     62  C   UNL A   1      44.144  25.560  29.429  1.00  0.00     0.031 C 
ATOM     63  C   UNL A   1      45.176  30.799  31.385  1.00  0.00     0.029 A 
ATOM     64  C   UNL A   1      45.332  29.492  30.923  1.00  0.00     0.049 A 
ATOM     65  H   UNL A   1      45.653  27.866  32.219  1.00  0.00     0.167 HD
ATOM     66  C   UNL A   1      45.168  27.634  29.279  1.00  0.00     0.074 A 
ATOM     67  C   UNL A   1      44.864  26.465  30.096  1.00  0.00     0.031 C 
ATOM     68  C   UNL A   1      45.442  28.934  29.596  1.00  0.00     0.037 A 
BRANCH  55  69
ATOM     69  C   UNL A   1      43.791  27.426  34.484  1.00  0.00     0.057 A 
ATOM     70  C   UNL A   1      43.919  27.486  35.887  1.00  0.00     0.134 A 
ATOM     71  C   UNL A   1      43.714  26.120  33.956  1.00  0.00     0.134 A 
ATOM     72  F   UNL A   1      43.997  28.639  36.558  1.00  0.00    -0.206 F 
ATOM     73  C   UNL A   1      43.878  26.349  36.701  1.00  0.00     0.040 A 
ATOM     74  C   UNL A   1      43.621  24.981  34.765  1.00  0.00     0.040 A 
ATOM     75  F   UNL A   1      43.618  25.915  32.633  1.00  0.00    -0.206 F 
ATOM     76  C   UNL A   1      43.682  25.096  36.147  1.00  0.00     0.006 A 
ENDBRANCH  55  69
BRANCH  56  77
ATOM     77  C   UNL A   1      42.652  24.754  26.539  1.00  0.00     0.057 A 
ATOM     78  C   UNL A   1      41.946  23.643  27.033  1.00  0.00     0.134 A 
ATOM     79  C   UNL A   1      43.415  24.536  25.384  1.00  0.00     0.134 A 
ATOM     80  F   UNL A   1      41.252  23.722  28.178  1.00  0.00    -0.206 F 
ATOM     81  C   UNL A   1      41.997  22.388  26.418  1.00  0.00     0.040 A 
ATOM     82  C   UNL A   1      43.480  23.282  24.761  1.00  0.00     0.040 A 
ATOM     83  F   UNL A   1      44.160  25.522  24.865  1.00  0.00    -0.206 F 
ATOM     84  C   UNL A   1      42.777  22.201  25.284  1.00  0.00     0.006 A 
ENDBRANCH  56  77
BRANCH  68  85
ATOM     85  C   UNL A   1      45.614  29.900  28.460  1.00  0.00     0.057 A 
ATOM     86  C   UNL A   1      46.907  30.199  28.021  1.00  0.00     0.134 A 
ATOM     87  C   UNL A   1      44.561  30.618  27.875  1.00  0.00     0.134 A 
ATOM     88  F   UNL A   1      47.968  29.595  28.579  1.00  0.00    -0.206 F 
ATOM     89  C   UNL A   1      47.145  31.153  27.029  1.00  0.00     0.040 A 
ATOM     90  C   UNL A   1      44.782  31.549  26.856  1.00  0.00     0.040 A 
ATOM     91  F   UNL A   1      43.300  30.474  28.303  1.00  0.00    -0.206 F 
ATOM     92  C   UNL A   1      46.079  31.820  26.432  1.00  0.00     0.006 A 
ENDBRANCH  68  85
ENDBRANCH  42  43
ENDBRANCH  34  37
ENDBRANCH  32  33
ENDBRANCH  31  32
ENDBRANCH   1  31
TORSDOF 14
ENDMDL
MODEL 2
REMARK VINA RESULT:     -12.7      1.886      5.863
REMARK SMILES CC1=C([C@H](NC(=O)[C@@H]2[C@H](C)c3cc(F)ccc3N2C)C(=O)NCCCCNC(=O)c2ccc(-c3c4nc(c(-c5c(F)cccc5F)c5ccc([nH]5)c(-c5c(F)cccc5F)c5nc(c(-c6c(F)cccc6F)c6ccc3[nH]6)C=C5)C=C4)cc2)[C@@H](C)N=N1
REMARK SMILES IDX 24 1 23 2 22 3 20 4 21 5 4 7 3 8 1 9 2 10 87 11 84 12 86 13
REMARK SMILES IDX 85 14 5 15 6 16 7 18 8 19 9 20 18 21 11 22 10 23 17 24 19 25
REMARK SMILES IDX 12 26 16 27 13 28 15 29 14 30 25 31 26 32 27 33 28 34 29 36
REMARK SMILES IDX 30 37 31 38 83 39 32 40 82 41 33 42 34 43 35 44 76 45 36 46
REMARK SMILES IDX 81 47 75 48 77 49 37 50 80 51 74 52 73 53 38 55 64 56 47 57
REMARK SMILES IDX 63 58 48 59 51 60 62 61 78 62 49 63 50 64 61 66 79 67 52 68
REMARK SMILES IDX 39 69 40 70 45 71 41 72 42 73 44 74 46 75 43 76 65 77 66 78
REMARK SMILES IDX 71 79 67 80 68 81 70 82 72 83 69 84 53 85 54 86 59 87 55 88
REMARK SMILES IDX 56 89 58 90 60 91 57 92
REMARK H PARENT 22 6 5 17 27 35 77 54 51 65
REMARK Flexibility Score: inf
ROOT
ATOM      1  C   UNL A   1      32.360  29.175  27.262  1.00  0.00     0.023 C 
ENDROOT
BRANCH   1   2
ATOM      2  C   UNL A   1      32.293  27.656  27.136  1.00  0.00     0.116 C 
BRANCH   2   3
ATOM      3  N   UNL A   1      30.965  27.091  27.049  1.00  0.00    -0.354 N 
ATOM      4  C   UNL A   1      30.501  26.029  26.338  1.00  0.00     0.247 C 
ATOM      5  O   UNL A   1      29.464  25.504  26.768  1.00  0.00    -0.272 OA
ATOM      6  H   UNL A   1      30.286  27.551  27.594  1.00  0.00     0.163 HD
BRANCH   4   7
ATOM      7  C   UNL A   1      31.155  25.454  25.044  1.00  0.00     0.202 C 
BRANCH   7   8
ATOM      8  C   UNL A   1      31.157  26.469  23.933  1.00  0.00     0.011 C 
ATOM      9  C   UNL A   1      33.602  27.239  23.926  1.00  0.00     0.069 C 
ATOM     10  C   UNL A   1      32.186  27.187  23.457  1.00  0.00     0.064 C 
ATOM     11  N   UNL A   1      31.846  27.934  22.359  1.00  0.00    -0.160 NA
ATOM     12  C   UNL A   1      30.032  26.752  22.979  1.00  0.00     0.156 C 
ATOM     13  N   UNL A   1      30.648  27.723  22.036  1.00  0.00    -0.181 NA
ATOM     14  C   UNL A   1      28.764  27.389  23.534  1.00  0.00     0.040 C 
ENDBRANCH   7   8
BRANCH   7  15
ATOM     15  N   UNL A   1      30.779  24.135  24.514  1.00  0.00    -0.339 N 
ATOM     16  C   UNL A   1      31.532  23.237  23.796  1.00  0.00     0.244 C 
ATOM     17  H   UNL A   1      29.854  23.854  24.701  1.00  0.00     0.164 HD
ATOM     18  O   UNL A   1      30.960  22.643  22.870  1.00  0.00    -0.273 OA
BRANCH  16  19
ATOM     19  C   UNL A   1      32.934  22.883  24.288  1.00  0.00     0.178 C 
ATOM     20  C   UNL A   1      34.128  23.682  23.735  1.00  0.00     0.050 C 
ATOM     21  N   UNL A   1      33.318  21.445  24.214  1.00  0.00    -0.362 N 
ATOM     22  C   UNL A   1      35.228  22.759  24.177  1.00  0.00    -0.016 A 
ATOM     23  C   UNL A   1      34.074  23.994  22.253  1.00  0.00     0.015 C 
ATOM     24  C   UNL A   1      34.700  21.484  24.447  1.00  0.00     0.041 A 
ATOM     25  C   UNL A   1      32.491  20.388  24.757  1.00  0.00     0.144 C 
ATOM     26  C   UNL A   1      36.529  23.103  24.508  1.00  0.00     0.045 A 
ATOM     27  C   UNL A   1      35.508  20.505  25.003  1.00  0.00     0.029 A 
ATOM     28  C   UNL A   1      37.310  22.132  25.120  1.00  0.00     0.123 A 
ATOM     29  C   UNL A   1      36.819  20.843  25.361  1.00  0.00     0.041 A 
ATOM     30  F   UNL A   1      38.542  22.453  25.537  1.00  0.00    -0.207 F 
ENDBRANCH  16  19
ENDBRANCH   7  15
ENDBRANCH   4   7
ENDBRANCH   2   3
ENDBRANCH   1   2
BRANCH   1  31
ATOM     31  C   UNL A   1      33.622  29.820  26.656  1.00  0.00     0.023 C 
BRANCH  31  32
ATOM     32  C   UNL A   1      34.938  29.275  27.216  1.00  0.00     0.116 C 
BRANCH  32  33
ATOM     33  N   UNL A   1      35.126  29.664  28.601  1.00  0.00    -0.352 N 
ATOM     34  C   UNL A   1      36.150  29.608  29.487  1.00  0.00     0.251 C 
ATOM     35  H   UNL A   1      34.314  30.063  28.990  1.00  0.00     0.163 HD
ATOM     36  O   UNL A   1      35.847  29.882  30.668  1.00  0.00    -0.269 OA
BRANCH  34  37
ATOM     37  C   UNL A   1      37.565  29.282  29.191  1.00  0.00     0.039 A 
ATOM     38  C   UNL A   1      38.285  29.663  28.055  1.00  0.00     0.014 A 
ATOM     39  C   UNL A   1      38.206  28.483  30.157  1.00  0.00     0.014 A 
ATOM     40  C   UNL A   1      39.599  29.216  27.878  1.00  0.00     0.010 A 
ATOM     41  C   UNL A   1      39.513  28.050  29.992  1.00  0.00     0.010 A 
ATOM     42  C   UNL A   1      40.204  28.386  28.832  1.00  0.00    -0.014 A 
BRANCH  42  43
ATOM     43  C   UNL A   1      41.597  27.972  28.645  1.00  0.00     0.031 A 
ATOM     44  C   UNL A   1      41.788  26.673  27.936  1.00  0.00     0.074 A 
ATOM     45  C   UNL A   1      42.658  28.763  28.912  1.00  0.00     0.049 A 
ATOM     46  N   UNL A   1      42.377  25.602  28.362  1.00  0.00    -0.248 NA
ATOM     47  C   UNL A   1      41.170  26.526  26.609  1.00  0.00     0.031 C 
ATOM     48  C   UNL A   1      42.650  30.174  29.308  1.00  0.00     0.029 A 
ATOM     49  N   UNL A   1      43.992  28.488  28.789  1.00  0.00    -0.354 N 
ATOM     50  C   UNL A   1      42.366  24.702  27.292  1.00  0.00     0.074 A 
ATOM     51  C   UNL A   1      41.494  25.270  26.299  1.00  0.00     0.031 C 
ATOM     52  C   UNL A   1      43.897  30.682  29.194  1.00  0.00     0.029 A 
ATOM     53  C   UNL A   1      44.814  29.606  28.857  1.00  0.00     0.049 A 
ATOM     54  H   UNL A   1      44.340  27.576  28.663  1.00  0.00     0.167 HD
ATOM     55  C   UNL A   1      43.248  23.667  27.222  1.00  0.00     0.037 A 
ATOM     56  C   UNL A   1      46.148  29.663  28.624  1.00  0.00     0.037 A 
ATOM     57  C   UNL A   1      43.813  23.374  28.515  1.00  0.00     0.049 A 
ATOM     58  C   UNL A   1      46.693  28.293  28.725  1.00  0.00     0.074 A 
ATOM     59  C   UNL A   1      43.326  22.960  29.738  1.00  0.00     0.029 A 
ATOM     60  N   UNL A   1      45.096  23.797  28.752  1.00  0.00    -0.354 N 
ATOM     61  N   UNL A   1      46.794  27.625  29.838  1.00  0.00    -0.248 NA
ATOM     62  C   UNL A   1      46.782  27.496  27.511  1.00  0.00     0.031 C 
ATOM     63  C   UNL A   1      44.166  23.586  30.706  1.00  0.00     0.029 A 
ATOM     64  C   UNL A   1      45.135  24.316  30.016  1.00  0.00     0.049 A 
ATOM     65  H   UNL A   1      45.853  23.736  28.125  1.00  0.00     0.167 HD
ATOM     66  C   UNL A   1      46.518  26.313  29.486  1.00  0.00     0.074 A 
ATOM     67  C   UNL A   1      46.652  26.275  28.034  1.00  0.00     0.031 C 
ATOM     68  C   UNL A   1      45.936  25.460  30.380  1.00  0.00     0.037 A 
BRANCH  55  69
ATOM     69  C   UNL A   1      43.920  23.194  25.943  1.00  0.00     0.057 A 
ATOM     70  C   UNL A   1      44.817  23.967  25.178  1.00  0.00     0.134 A 
ATOM     71  C   UNL A   1      43.942  21.812  25.658  1.00  0.00     0.134 A 
ATOM     72  F   UNL A   1      44.937  25.290  25.321  1.00  0.00    -0.206 F 
ATOM     73  C   UNL A   1      45.725  23.402  24.276  1.00  0.00     0.040 A 
ATOM     74  C   UNL A   1      44.881  21.233  24.795  1.00  0.00     0.040 A 
ATOM     75  F   UNL A   1      43.119  20.963  26.293  1.00  0.00    -0.206 F 
ATOM     76  C   UNL A   1      45.792  22.028  24.115  1.00  0.00     0.006 A 
ENDBRANCH  55  69
BRANCH  56  77
ATOM     77  C   UNL A   1      46.952  30.789  28.106  1.00  0.00     0.057 A 
ATOM     78  C   UNL A   1      47.931  31.403  28.906  1.00  0.00     0.134 A 
ATOM     79  C   UNL A   1      46.612  31.460  26.923  1.00  0.00     0.134 A 
ATOM     80  F   UNL A   1      48.268  30.888  30.097  1.00  0.00    -0.206 F 
ATOM     81  C   UNL A   1      48.535  32.614  28.555  1.00  0.00     0.040 A 
ATOM     82  C   UNL A   1      47.206  32.677  26.561  1.00  0.00     0.040 A 
ATOM     83  F   UNL A   1      45.655  30.977  26.117  1.00  0.00    -0.206 F 
ATOM     84  C   UNL A   1      48.164  33.263  27.384  1.00  0.00     0.006 A 
ENDBRANCH  56  77
BRANCH  68  85
ATOM     85  C   UNL A   1      45.909  25.883  31.820  1.00  0.00     0.057 A 
ATOM     86  C   UNL A   1      44.791  26.573  32.298  1.00  0.00     0.134 A 
ATOM     87  C   UNL A   1      46.989  25.730  32.703  1.00  0.00     0.134 A 
ATOM     88  F   UNL A   1      43.746  26.809  31.491  1.00  0.00    -0.206 F 
ATOM     89  C   UNL A   1      44.736  27.072  33.602  1.00  0.00     0.040 A 
ATOM     90  C   UNL A   1      46.932  26.193  34.020  1.00  0.00     0.040 A 
ATOM     91  F   UNL A   1      48.139  25.175  32.303  1.00  0.00    -0.206 F 
ATOM     92  C   UNL A   1      45.804  26.869  34.472  1.00  0.00     0.006 A 
ENDBRANCH  68  85
ENDBRANCH  42  43
ENDBRANCH  34  37
ENDBRANCH  32  33
ENDBRANCH  31  32
ENDBRANCH   1  31
TORSDOF 14
ENDMDL
MODEL 3
REMARK VINA RESULT:     -12.5      3.001      8.145
REMARK SMILES CC1=C([C@H](NC(=O)[C@@H]2[C@H](C)c3cc(F)ccc3N2C)C(=O)NCCCCNC(=O)c2ccc(-c3c4nc(c(-c5c(F)cccc5F)c5ccc([nH]5)c(-c5c(F)cccc5F)c5nc(c(-c6c(F)cccc6F)c6ccc3[nH]6)C=C5)C=C4)cc2)[C@@H](C)N=N1
REMARK SMILES IDX 24 1 23 2 22 3 20 4 21 5 4 7 3 8 1 9 2 10 87 11 84 12 86 13
REMARK SMILES IDX 85 14 5 15 6 16 7 18 8 19 9 20 18 21 11 22 10 23 17 24 19 25
REMARK SMILES IDX 12 26 16 27 13 28 15 29 14 30 25 31 26 32 27 33 28 34 29 36
REMARK SMILES IDX 30 37 31 38 83 39 32 40 82 41 33 42 34 43 35 44 76 45 36 46
REMARK SMILES IDX 81 47 75 48 77 49 37 50 80 51 74 52 73 53 38 55 64 56 47 57
REMARK SMILES IDX 63 58 48 59 51 60 62 61 78 62 49 63 50 64 61 66 79 67 52 68
REMARK SMILES IDX 39 69 40 70 45 71 41 72 42 73 44 74 46 75 43 76 65 77 66 78
REMARK SMILES IDX 71 79 67 80 68 81 70 82 72 83 69 84 53 85 54 86 59 87 55 88
REMARK SMILES IDX 56 89 58 90 60 91 57 92
REMARK H PARENT 22 6 5 17 27 35 77 54 51 65
REMARK Flexibility Score: inf
ROOT
ATOM      1  C   UNL A   1      37.984  23.521  26.257  1.00  0.00     0.023 C 
ENDROOT
BRANCH   1   2
ATOM      2  C   UNL A   1      36.588  23.719  25.678  1.00  0.00     0.116 C 
BRANCH   2   3
ATOM      3  N   UNL A   1      36.368  23.161  24.363  1.00  0.00    -0.354 N 
ATOM      4  C   UNL A   1      35.243  23.111  23.600  1.00  0.00     0.247 C 
ATOM      5  O   UNL A   1      35.425  22.981  22.380  1.00  0.00    -0.272 OA
ATOM      6  H   UNL A   1      37.163  22.749  23.952  1.00  0.00     0.163 HD
BRANCH   4   7
ATOM      7  C   UNL A   1      33.782  23.185  24.140  1.00  0.00     0.202 C 
BRANCH   7   8
ATOM      8  C   UNL A   1      33.399  21.920  24.860  1.00  0.00     0.011 C 
ATOM      9  C   UNL A   1      32.155  20.627  23.028  1.00  0.00     0.069 C 
ATOM     10  C   UNL A   1      32.745  20.851  24.381  1.00  0.00     0.064 C 
ATOM     11  N   UNL A   1      32.668  19.828  25.291  1.00  0.00    -0.160 NA
ATOM     12  C   UNL A   1      33.845  21.502  26.232  1.00  0.00     0.156 C 
ATOM     13  N   UNL A   1      33.278  20.132  26.349  1.00  0.00    -0.181 NA
ATOM     14  C   UNL A   1      33.349  22.309  27.424  1.00  0.00     0.040 C 
ENDBRANCH   7   8
BRANCH   7  15
ATOM     15  N   UNL A   1      32.670  23.630  23.288  1.00  0.00    -0.339 N 
ATOM     16  C   UNL A   1      31.623  24.468  23.589  1.00  0.00     0.244 C 
ATOM     17  H   UNL A   1      32.676  23.277  22.368  1.00  0.00     0.164 HD
ATOM     18  O   UNL A   1      30.512  24.160  23.130  1.00  0.00    -0.273 OA
BRANCH  16  19
ATOM     19  C   UNL A   1      31.910  25.796  24.283  1.00  0.00     0.178 C 
ATOM     20  C   UNL A   1      31.875  25.842  25.821  1.00  0.00     0.050 C 
ATOM     21  N   UNL A   1      31.130  26.974  23.809  1.00  0.00    -0.362 N 
ATOM     22  C   UNL A   1      31.824  27.334  25.991  1.00  0.00    -0.016 A 
ATOM     23  C   UNL A   1      30.755  25.057  26.472  1.00  0.00     0.015 C 
ATOM     24  C   UNL A   1      31.394  27.935  24.795  1.00  0.00     0.041 A 
ATOM     25  C   UNL A   1      31.037  27.336  22.409  1.00  0.00     0.144 C 
ATOM     26  C   UNL A   1      32.323  28.075  27.049  1.00  0.00     0.045 A 
ATOM     27  C   UNL A   1      31.403  29.316  24.673  1.00  0.00     0.029 A 
ATOM     28  C   UNL A   1      32.383  29.454  26.892  1.00  0.00     0.123 A 
ATOM     29  C   UNL A   1      31.923  30.078  25.726  1.00  0.00     0.041 A 
ATOM     30  F   UNL A   1      32.944  30.197  27.856  1.00  0.00    -0.207 F 
ENDBRANCH  16  19
ENDBRANCH   7  15
ENDBRANCH   4   7
ENDBRANCH   2   3
ENDBRANCH   1   2
BRANCH   1  31
ATOM     31  C   UNL A   1      38.705  22.242  25.789  1.00  0.00     0.023 C 
BRANCH  31  32
ATOM     32  C   UNL A   1      39.874  21.816  26.681  1.00  0.00     0.116 C 
BRANCH  32  33
ATOM     33  N   UNL A   1      41.151  22.114  26.061  1.00  0.00    -0.352 N 
ATOM     34  C   UNL A   1      41.890  23.233  25.869  1.00  0.00     0.251 C 
ATOM     35  H   UNL A   1      41.583  21.310  25.690  1.00  0.00     0.163 HD
ATOM     36  O   UNL A   1      42.871  23.097  25.106  1.00  0.00    -0.269 OA
BRANCH  34  37
ATOM     37  C   UNL A   1      41.665  24.564  26.480  1.00  0.00     0.039 A 
ATOM     38  C   UNL A   1      40.960  25.629  25.912  1.00  0.00     0.014 A 
ATOM     39  C   UNL A   1      42.260  24.748  27.742  1.00  0.00     0.014 A 
ATOM     40  C   UNL A   1      40.893  26.857  26.579  1.00  0.00     0.010 A 
ATOM     41  C   UNL A   1      42.185  25.960  28.413  1.00  0.00     0.010 A 
ATOM     42  C   UNL A   1      41.530  27.032  27.816  1.00  0.00    -0.014 A 
BRANCH  42  43
ATOM     43  C   UNL A   1      41.403  28.314  28.515  1.00  0.00     0.031 A 
ATOM     44  C   UNL A   1      42.495  29.296  28.251  1.00  0.00     0.074 A 
ATOM     45  C   UNL A   1      40.305  28.687  29.207  1.00  0.00     0.049 A 
ATOM     46  N   UNL A   1      43.311  29.840  29.095  1.00  0.00    -0.248 NA
ATOM     47  C   UNL A   1      42.759  29.656  26.849  1.00  0.00     0.031 C 
ATOM     48  C   UNL A   1      39.022  27.985  29.303  1.00  0.00     0.029 A 
ATOM     49  N   UNL A   1      40.075  29.841  29.903  1.00  0.00    -0.354 N 
ATOM     50  C   UNL A   1      44.077  30.750  28.362  1.00  0.00     0.074 A 
ATOM     51  C   UNL A   1      43.791  30.492  26.976  1.00  0.00     0.031 C 
ATOM     52  C   UNL A   1      38.095  28.812  29.836  1.00  0.00     0.029 A 
ATOM     53  C   UNL A   1      38.745  30.045  30.247  1.00  0.00     0.049 A 
ATOM     54  H   UNL A   1      40.791  30.474  30.140  1.00  0.00     0.167 HD
ATOM     55  C   UNL A   1      44.721  31.790  28.964  1.00  0.00     0.037 A 
ATOM     56  C   UNL A   1      38.198  31.154  30.802  1.00  0.00     0.037 A 
ATOM     57  C   UNL A   1      44.881  31.554  30.377  1.00  0.00     0.049 A 
ATOM     58  C   UNL A   1      39.285  31.952  31.405  1.00  0.00     0.074 A 
ATOM     59  C   UNL A   1      45.527  30.618  31.158  1.00  0.00     0.029 A 
ATOM     60  N   UNL A   1      44.045  32.231  31.227  1.00  0.00    -0.354 N 
ATOM     61  N   UNL A   1      39.949  31.601  32.469  1.00  0.00    -0.248 NA
ATOM     62  C   UNL A   1      39.910  32.987  30.595  1.00  0.00     0.031 C 
ATOM     63  C   UNL A   1      44.711  30.474  32.319  1.00  0.00     0.029 A 
ATOM     64  C   UNL A   1      43.636  31.355  32.193  1.00  0.00     0.049 A 
ATOM     65  H   UNL A   1      43.787  33.179  31.155  1.00  0.00     0.167 HD
ATOM     66  C   UNL A   1      41.245  32.033  32.233  1.00  0.00     0.074 A 
ATOM     67  C   UNL A   1      41.130  32.989  31.137  1.00  0.00     0.031 C 
ATOM     68  C   UNL A   1      42.310  31.362  32.762  1.00  0.00     0.037 A 
BRANCH  55  69
ATOM     69  C   UNL A   1      44.831  33.188  28.380  1.00  0.00     0.057 A 
ATOM     70  C   UNL A   1      45.983  33.703  27.752  1.00  0.00     0.134 A 
ATOM     71  C   UNL A   1      43.648  33.914  28.128  1.00  0.00     0.134 A 
ATOM     72  F   UNL A   1      47.187  33.138  27.872  1.00  0.00    -0.206 F 
ATOM     73  C   UNL A   1      45.944  34.791  26.872  1.00  0.00     0.040 A 
ATOM     74  C   UNL A   1      43.591  34.971  27.211  1.00  0.00     0.040 A 
ATOM     75  F   UNL A   1      42.483  33.551  28.686  1.00  0.00    -0.206 F 
ATOM     76  C   UNL A   1      44.740  35.400  26.562  1.00  0.00     0.006 A 
ENDBRANCH  55  69
BRANCH  56  77
ATOM     77  C   UNL A   1      36.825  31.681  30.660  1.00  0.00     0.057 A 
ATOM     78  C   UNL A   1      36.410  32.295  29.465  1.00  0.00     0.134 A 
ATOM     79  C   UNL A   1      35.971  31.835  31.761  1.00  0.00     0.134 A 
ATOM     80  F   UNL A   1      37.192  32.280  28.376  1.00  0.00    -0.206 F 
ATOM     81  C   UNL A   1      35.220  33.022  29.369  1.00  0.00     0.040 A 
ATOM     82  C   UNL A   1      34.778  32.566  31.680  1.00  0.00     0.040 A 
ATOM     83  F   UNL A   1      36.303  31.325  32.956  1.00  0.00    -0.206 F 
ATOM     84  C   UNL A   1      34.404  33.170  30.484  1.00  0.00     0.006 A 
ENDBRANCH  56  77
BRANCH  68  85
ATOM     85  C   UNL A   1      42.026  30.365  33.848  1.00  0.00     0.057 A 
ATOM     86  C   UNL A   1      42.181  30.759  35.180  1.00  0.00     0.134 A 
ATOM     87  C   UNL A   1      41.720  29.016  33.614  1.00  0.00     0.134 A 
ATOM     88  F   UNL A   1      42.534  32.020  35.477  1.00  0.00    -0.206 F 
ATOM     89  C   UNL A   1      42.019  29.860  36.237  1.00  0.00     0.040 A 
ATOM     90  C   UNL A   1      41.519  28.115  34.663  1.00  0.00     0.040 A 
ATOM     91  F   UNL A   1      41.653  28.525  32.370  1.00  0.00    -0.206 F 
ATOM     92  C   UNL A   1      41.672  28.537  35.980  1.00  0.00     0.006 A 
ENDBRANCH  68  85
ENDBRANCH  42  43
ENDBRANCH  34  37
ENDBRANCH  32  33
ENDBRANCH  31  32
ENDBRANCH   1  31
TORSDOF 14
ENDMDL
