MODEL 1
REMARK VINA RESULT:     -11.0      0.000      0.000
REMARK SMILES O=C(NCCCCNC(=O)[C@@H]1CN(c2ncnc3c2CCC3)CCO1)c1ccc(-c2c3nc(c(-c4c(F)cccc4F)c4ccc([nH]4)c(-c4c(F)cccc4F)c4nc(c(-c5c(F)cccc5F)c5ccc2[nH]5)C=C4)C=C3)cc1
REMARK SMILES IDX 5 1 4 2 3 3 1 4 2 5 26 7 27 8 79 9 28 10 78 11 29 12 30 13
REMARK SMILES IDX 31 14 72 15 32 16 77 17 71 18 73 19 33 20 76 21 70 22 69 23
REMARK SMILES IDX 34 25 60 26 43 27 59 28 44 29 47 30 58 31 74 32 45 33 46 34
REMARK SMILES IDX 57 36 75 37 48 38 35 39 36 40 41 41 37 42 38 43 40 44 42 45
REMARK SMILES IDX 39 46 61 47 62 48 67 49 63 50 64 51 66 52 68 53 65 54 49 55
REMARK SMILES IDX 50 56 55 57 51 58 52 59 54 60 56 61 53 62 6 63 7 64 8 65
REMARK SMILES IDX 9 66 10 68 11 69 12 70 25 71 13 72 24 73 23 74 14 75 15 76
REMARK SMILES IDX 19 77 16 78 18 79 20 80 17 81 22 82 21 83
REMARK H PARENT 3 6 73 24 47 35 8 67
REMARK Flexibility Score: inf
ROOT
ATOM      1  C   UNL A   1      34.847  34.467  28.476  1.00  0.00     0.023 C 
ENDROOT
BRANCH   1   2
ATOM      2  C   UNL A   1      34.498  33.150  29.160  1.00  0.00     0.116 C 
BRANCH   2   3
ATOM      3  N   UNL A   1      34.029  32.127  28.238  1.00  0.00    -0.352 N 
ATOM      4  O   UNL A   1      34.168  30.242  26.997  1.00  0.00    -0.269 OA
ATOM      5  C   UNL A   1      34.652  30.958  27.868  1.00  0.00     0.251 C 
ATOM      6  H   UNL A   1      33.151  32.293  27.825  1.00  0.00     0.163 HD
BRANCH   5   7
ATOM      7  C   UNL A   1      35.938  30.591  28.498  1.00  0.00     0.039 A 
ATOM      8  C   UNL A   1      37.132  31.173  28.067  1.00  0.00     0.014 A 
ATOM      9  C   UNL A   1      35.949  29.618  29.502  1.00  0.00     0.014 A 
ATOM     10  C   UNL A   1      38.346  30.676  28.530  1.00  0.00     0.010 A 
ATOM     11  C   UNL A   1      37.168  29.167  30.014  1.00  0.00     0.010 A 
ATOM     12  C   UNL A   1      38.377  29.661  29.501  1.00  0.00    -0.014 A 
BRANCH  12  13
ATOM     13  C   UNL A   1      39.683  29.130  29.964  1.00  0.00     0.031 A 
ATOM     14  C   UNL A   1      40.342  29.680  31.199  1.00  0.00     0.074 A 
ATOM     15  C   UNL A   1      40.249  28.105  29.297  1.00  0.00     0.049 A 
ATOM     16  N   UNL A   1      41.487  29.346  31.742  1.00  0.00    -0.248 NA
ATOM     17  C   UNL A   1      39.625  30.742  31.924  1.00  0.00     0.031 C 
ATOM     18  C   UNL A   1      39.692  27.469  28.102  1.00  0.00     0.029 A 
ATOM     19  N   UNL A   1      41.403  27.405  29.541  1.00  0.00    -0.354 N 
ATOM     20  C   UNL A   1      41.631  30.157  32.861  1.00  0.00     0.074 A 
ATOM     21  C   UNL A   1      40.469  31.019  32.909  1.00  0.00     0.031 C 
ATOM     22  C   UNL A   1      40.480  26.443  27.744  1.00  0.00     0.029 A 
ATOM     23  C   UNL A   1      41.626  26.388  28.646  1.00  0.00     0.049 A 
ATOM     24  H   UNL A   1      42.011  27.612  30.286  1.00  0.00     0.167 HD
ATOM     25  C   UNL A   1      42.634  30.171  33.771  1.00  0.00     0.037 A 
ATOM     26  C   UNL A   1      42.648  25.518  28.551  1.00  0.00     0.037 A 
ATOM     27  C   UNL A   1      43.782  29.302  33.730  1.00  0.00     0.049 A 
ATOM     28  C   UNL A   1      43.776  25.601  29.537  1.00  0.00     0.074 A 
ATOM     29  C   UNL A   1      44.853  29.248  34.607  1.00  0.00     0.029 A 
ATOM     30  N   UNL A   1      44.003  28.329  32.768  1.00  0.00    -0.354 N 
ATOM     31  N   UNL A   1      43.909  26.391  30.574  1.00  0.00    -0.248 NA
ATOM     32  C   UNL A   1      44.903  24.682  29.330  1.00  0.00     0.031 C 
ATOM     33  C   UNL A   1      45.737  28.262  34.157  1.00  0.00     0.029 A 
ATOM     34  C   UNL A   1      45.200  27.680  33.021  1.00  0.00     0.049 A 
ATOM     35  H   UNL A   1      43.400  28.131  32.016  1.00  0.00     0.167 HD
ATOM     36  C   UNL A   1      45.130  26.062  31.146  1.00  0.00     0.074 A 
ATOM     37  C   UNL A   1      45.686  24.982  30.356  1.00  0.00     0.031 C 
ATOM     38  C   UNL A   1      45.741  26.612  32.222  1.00  0.00     0.037 A 
BRANCH  25  39
ATOM     39  C   UNL A   1      42.547  31.156  34.898  1.00  0.00     0.057 A 
ATOM     40  C   UNL A   1      42.934  32.491  34.735  1.00  0.00     0.134 A 
ATOM     41  C   UNL A   1      41.986  30.788  36.128  1.00  0.00     0.134 A 
ATOM     42  F   UNL A   1      43.488  32.902  33.585  1.00  0.00    -0.206 F 
ATOM     43  C   UNL A   1      42.767  33.428  35.757  1.00  0.00     0.040 A 
ATOM     44  C   UNL A   1      41.797  31.721  37.151  1.00  0.00     0.040 A 
ATOM     45  F   UNL A   1      41.588  29.526  36.346  1.00  0.00    -0.206 F 
ATOM     46  C   UNL A   1      42.187  33.045  36.965  1.00  0.00     0.006 A 
ENDBRANCH  25  39
BRANCH  26  47
ATOM     47  C   UNL A   1      42.659  24.502  27.470  1.00  0.00     0.057 A 
ATOM     48  C   UNL A   1      43.164  24.805  26.201  1.00  0.00     0.134 A 
ATOM     49  C   UNL A   1      42.162  23.210  27.677  1.00  0.00     0.134 A 
ATOM     50  F   UNL A   1      43.635  26.033  25.937  1.00  0.00    -0.206 F 
ATOM     51  C   UNL A   1      43.163  23.863  25.171  1.00  0.00     0.040 A 
ATOM     52  C   UNL A   1      42.178  22.251  26.664  1.00  0.00     0.040 A 
ATOM     53  F   UNL A   1      41.667  22.858  28.873  1.00  0.00    -0.206 F 
ATOM     54  C   UNL A   1      42.673  22.579  25.405  1.00  0.00     0.006 A 
ENDBRANCH  26  47
BRANCH  38  55
ATOM     55  C   UNL A   1      47.077  26.052  32.606  1.00  0.00     0.057 A 
ATOM     56  C   UNL A   1      48.262  26.532  32.035  1.00  0.00     0.134 A 
ATOM     57  C   UNL A   1      47.182  25.048  33.575  1.00  0.00     0.134 A 
ATOM     58  F   UNL A   1      48.224  27.484  31.090  1.00  0.00    -0.206 F 
ATOM     59  C   UNL A   1      49.506  26.019  32.402  1.00  0.00     0.040 A 
ATOM     60  C   UNL A   1      48.421  24.542  33.966  1.00  0.00     0.040 A 
ATOM     61  F   UNL A   1      46.083  24.552  34.164  1.00  0.00    -0.206 F 
ATOM     62  C   UNL A   1      49.587  25.024  33.375  1.00  0.00     0.006 A 
ENDBRANCH  38  55
ENDBRANCH  12  13
ENDBRANCH   5   7
ENDBRANCH   2   3
ENDBRANCH   1   2
BRANCH   1  63
ATOM     63  C   UNL A   1      33.892  35.630  28.752  1.00  0.00     0.023 C 
BRANCH  63  64
ATOM     64  C   UNL A   1      32.870  35.387  29.861  1.00  0.00     0.116 C 
BRANCH  64  65
ATOM     65  N   UNL A   1      32.714  36.540  30.728  1.00  0.00    -0.354 N 
ATOM     66  C   UNL A   1      33.176  36.749  31.998  1.00  0.00     0.250 C 
ATOM     67  H   UNL A   1      32.199  37.286  30.343  1.00  0.00     0.163 HD
ATOM     68  O   UNL A   1      32.930  37.840  32.517  1.00  0.00    -0.272 OA
BRANCH  66  69
ATOM     69  C   UNL A   1      33.938  35.637  32.728  1.00  0.00     0.226 C 
ATOM     70  C   UNL A   1      35.306  35.493  32.040  1.00  0.00     0.160 C 
ATOM     71  O   UNL A   1      33.211  34.394  32.688  1.00  0.00    -0.365 OA
ATOM     72  N   UNL A   1      36.041  34.357  32.606  1.00  0.00    -0.351 N 
ATOM     73  C   UNL A   1      33.940  33.373  33.387  1.00  0.00     0.183 C 
ATOM     74  C   UNL A   1      35.305  33.103  32.732  1.00  0.00     0.146 C 
BRANCH  72  75
ATOM     75  C   UNL A   1      37.386  34.479  32.822  1.00  0.00     0.135 A 
ATOM     76  N   UNL A   1      37.776  34.779  34.078  1.00  0.00    -0.219 NA
ATOM     77  C   UNL A   1      38.332  34.304  31.839  1.00  0.00     0.016 A 
ATOM     78  C   UNL A   1      39.101  34.841  34.326  1.00  0.00     0.224 A 
ATOM     79  C   UNL A   1      39.659  34.414  32.203  1.00  0.00     0.049 A 
ATOM     80  C   UNL A   1      38.189  34.033  30.382  1.00  0.00     0.042 C 
ATOM     81  N   UNL A   1      40.091  34.666  33.441  1.00  0.00    -0.241 NA
ATOM     82  C   UNL A   1      40.578  34.186  31.040  1.00  0.00     0.057 C 
ATOM     83  C   UNL A   1      39.616  34.236  29.848  1.00  0.00     0.011 C 
ENDBRANCH  72  75
ENDBRANCH  66  69
ENDBRANCH  64  65
ENDBRANCH  63  64
ENDBRANCH   1  63
TORSDOF 12
ENDMDL
MODEL 2
REMARK VINA RESULT:     -10.8      5.351     10.747
REMARK SMILES O=C(NCCCCNC(=O)[C@@H]1CN(c2ncnc3c2CCC3)CCO1)c1ccc(-c2c3nc(c(-c4c(F)cccc4F)c4ccc([nH]4)c(-c4c(F)cccc4F)c4nc(c(-c5c(F)cccc5F)c5ccc2[nH]5)C=C4)C=C3)cc1
REMARK SMILES IDX 5 1 4 2 3 3 1 4 2 5 26 7 27 8 79 9 28 10 78 11 29 12 30 13
REMARK SMILES IDX 31 14 72 15 32 16 77 17 71 18 73 19 33 20 76 21 70 22 69 23
REMARK SMILES IDX 34 25 60 26 43 27 59 28 44 29 47 30 58 31 74 32 45 33 46 34
REMARK SMILES IDX 57 36 75 37 48 38 35 39 36 40 41 41 37 42 38 43 40 44 42 45
REMARK SMILES IDX 39 46 61 47 62 48 67 49 63 50 64 51 66 52 68 53 65 54 49 55
REMARK SMILES IDX 50 56 55 57 51 58 52 59 54 60 56 61 53 62 6 63 7 64 8 65
REMARK SMILES IDX 9 66 10 68 11 69 12 70 25 71 13 72 24 73 23 74 14 75 15 76
REMARK SMILES IDX 19 77 16 78 18 79 20 80 17 81 22 82 21 83
REMARK H PARENT 3 6 73 24 47 35 8 67
REMARK Flexibility Score: inf
ROOT
ATOM      1  C   UNL A   1      37.784  19.895  25.003  1.00  0.00     0.023 C 
ENDROOT
BRANCH   1   2
ATOM      2  C   UNL A   1      39.063  20.255  25.750  1.00  0.00     0.116 C 
BRANCH   2   3
ATOM      3  N   UNL A   1      40.036  19.174  25.781  1.00  0.00    -0.352 N 
ATOM      4  O   UNL A   1      42.091  18.247  25.956  1.00  0.00    -0.269 OA
ATOM      5  C   UNL A   1      41.380  19.240  26.069  1.00  0.00     0.251 C 
ATOM      6  H   UNL A   1      39.688  18.278  25.570  1.00  0.00     0.163 HD
BRANCH   5   7
ATOM      7  C   UNL A   1      41.972  20.534  26.474  1.00  0.00     0.039 A 
ATOM      8  C   UNL A   1      42.098  20.865  27.825  1.00  0.00     0.014 A 
ATOM      9  C   UNL A   1      42.360  21.442  25.484  1.00  0.00     0.014 A 
ATOM     10  C   UNL A   1      42.469  22.156  28.184  1.00  0.00     0.010 A 
ATOM     11  C   UNL A   1      42.798  22.717  25.850  1.00  0.00     0.010 A 
ATOM     12  C   UNL A   1      42.814  23.099  27.201  1.00  0.00    -0.014 A 
BRANCH  12  13
ATOM     13  C   UNL A   1      43.186  24.477  27.606  1.00  0.00     0.031 A 
ATOM     14  C   UNL A   1      44.619  24.933  27.556  1.00  0.00     0.074 A 
ATOM     15  C   UNL A   1      42.216  25.340  27.965  1.00  0.00     0.049 A 
ATOM     16  N   UNL A   1      45.127  26.095  27.884  1.00  0.00    -0.248 NA
ATOM     17  C   UNL A   1      45.614  23.960  27.073  1.00  0.00     0.031 C 
ATOM     18  C   UNL A   1      40.788  25.024  28.025  1.00  0.00     0.029 A 
ATOM     19  N   UNL A   1      42.280  26.662  28.325  1.00  0.00    -0.354 N 
ATOM     20  C   UNL A   1      46.494  25.992  27.656  1.00  0.00     0.074 A 
ATOM     21  C   UNL A   1      46.743  24.647  27.185  1.00  0.00     0.031 C 
ATOM     22  C   UNL A   1      40.107  26.133  28.355  1.00  0.00     0.029 A 
ATOM     23  C   UNL A   1      41.053  27.219  28.587  1.00  0.00     0.049 A 
ATOM     24  H   UNL A   1      43.125  27.163  28.388  1.00  0.00     0.167 HD
ATOM     25  C   UNL A   1      47.449  26.939  27.814  1.00  0.00     0.037 A 
ATOM     26  C   UNL A   1      40.726  28.461  28.986  1.00  0.00     0.037 A 
ATOM     27  C   UNL A   1      47.197  28.282  28.268  1.00  0.00     0.049 A 
ATOM     28  C   UNL A   1      41.814  29.469  29.213  1.00  0.00     0.074 A 
ATOM     29  C   UNL A   1      48.105  29.310  28.464  1.00  0.00     0.029 A 
ATOM     30  N   UNL A   1      45.947  28.787  28.587  1.00  0.00    -0.354 N 
ATOM     31  N   UNL A   1      43.105  29.348  29.018  1.00  0.00    -0.248 NA
ATOM     32  C   UNL A   1      41.403  30.781  29.731  1.00  0.00     0.031 C 
ATOM     33  C   UNL A   1      47.407  30.428  28.931  1.00  0.00     0.029 A 
ATOM     34  C   UNL A   1      46.061  30.107  28.993  1.00  0.00     0.049 A 
ATOM     35  H   UNL A   1      45.104  28.283  28.535  1.00  0.00     0.167 HD
ATOM     36  C   UNL A   1      43.659  30.567  29.384  1.00  0.00     0.074 A 
ATOM     37  C   UNL A   1      42.561  31.423  29.787  1.00  0.00     0.031 C 
ATOM     38  C   UNL A   1      44.960  30.941  29.396  1.00  0.00     0.037 A 
BRANCH  25  39
ATOM     39  C   UNL A   1      48.867  26.567  27.494  1.00  0.00     0.057 A 
ATOM     40  C   UNL A   1      49.700  25.973  28.449  1.00  0.00     0.134 A 
ATOM     41  C   UNL A   1      49.372  26.720  26.197  1.00  0.00     0.134 A 
ATOM     42  F   UNL A   1      49.278  25.809  29.712  1.00  0.00    -0.206 F 
ATOM     43  C   UNL A   1      50.989  25.544  28.125  1.00  0.00     0.040 A 
ATOM     44  C   UNL A   1      50.652  26.278  25.856  1.00  0.00     0.040 A 
ATOM     45  F   UNL A   1      48.621  27.276  25.234  1.00  0.00    -0.206 F 
ATOM     46  C   UNL A   1      51.463  25.687  26.822  1.00  0.00     0.006 A 
ENDBRANCH  25  39
BRANCH  26  47
ATOM     47  C   UNL A   1      39.304  28.818  29.213  1.00  0.00     0.057 A 
ATOM     48  C   UNL A   1      38.696  28.603  30.454  1.00  0.00     0.134 A 
ATOM     49  C   UNL A   1      38.520  29.375  28.196  1.00  0.00     0.134 A 
ATOM     50  F   UNL A   1      39.392  28.053  31.461  1.00  0.00    -0.206 F 
ATOM     51  C   UNL A   1      37.354  28.916  30.674  1.00  0.00     0.040 A 
ATOM     52  C   UNL A   1      37.184  29.717  28.409  1.00  0.00     0.040 A 
ATOM     53  F   UNL A   1      39.046  29.608  26.984  1.00  0.00    -0.206 F 
ATOM     54  C   UNL A   1      36.596  29.481  29.649  1.00  0.00     0.006 A 
ENDBRANCH  26  47
BRANCH  38  55
ATOM     55  C   UNL A   1      45.264  32.335  29.855  1.00  0.00     0.057 A 
ATOM     56  C   UNL A   1      45.258  33.415  28.965  1.00  0.00     0.134 A 
ATOM     57  C   UNL A   1      45.534  32.603  31.202  1.00  0.00     0.134 A 
ATOM     58  F   UNL A   1      45.020  33.219  27.659  1.00  0.00    -0.206 F 
ATOM     59  C   UNL A   1      45.529  34.714  29.395  1.00  0.00     0.040 A 
ATOM     60  C   UNL A   1      45.785  33.900  31.648  1.00  0.00     0.040 A 
ATOM     61  F   UNL A   1      45.547  31.611  32.105  1.00  0.00    -0.206 F 
ATOM     62  C   UNL A   1      45.788  34.959  30.743  1.00  0.00     0.006 A 
ENDBRANCH  38  55
ENDBRANCH  12  13
ENDBRANCH   5   7
ENDBRANCH   2   3
ENDBRANCH   1   2
BRANCH   1  63
ATOM     63  C   UNL A   1      36.825  21.056  24.733  1.00  0.00     0.023 C 
BRANCH  63  64
ATOM     64  C   UNL A   1      35.377  20.819  25.155  1.00  0.00     0.116 C 
BRANCH  64  65
ATOM     65  N   UNL A   1      35.119  21.264  26.512  1.00  0.00    -0.354 N 
ATOM     66  C   UNL A   1      34.068  21.983  27.013  1.00  0.00     0.250 C 
ATOM     67  H   UNL A   1      35.803  21.009  27.172  1.00  0.00     0.163 HD
ATOM     68  O   UNL A   1      34.067  22.214  28.224  1.00  0.00    -0.272 OA
BRANCH  66  69
ATOM     69  C   UNL A   1      32.971  22.492  26.071  1.00  0.00     0.226 C 
ATOM     70  C   UNL A   1      33.451  23.835  25.495  1.00  0.00     0.160 C 
ATOM     71  O   UNL A   1      31.719  22.649  26.765  1.00  0.00    -0.365 OA
ATOM     72  N   UNL A   1      32.393  24.443  24.681  1.00  0.00    -0.351 N 
ATOM     73  C   UNL A   1      30.707  23.115  25.859  1.00  0.00     0.183 C 
ATOM     74  C   UNL A   1      31.062  24.494  25.276  1.00  0.00     0.146 C 
BRANCH  72  75
ATOM     75  C   UNL A   1      32.732  25.068  23.513  1.00  0.00     0.135 A 
ATOM     76  N   UNL A   1      32.637  24.338  22.382  1.00  0.00    -0.219 NA
ATOM     77  C   UNL A   1      33.148  26.377  23.443  1.00  0.00     0.016 A 
ATOM     78  C   UNL A   1      32.906  24.954  21.212  1.00  0.00     0.224 A 
ATOM     79  C   UNL A   1      33.419  26.896  22.194  1.00  0.00     0.049 A 
ATOM     80  C   UNL A   1      33.400  27.380  24.515  1.00  0.00     0.042 C 
ATOM     81  N   UNL A   1      33.296  26.225  21.047  1.00  0.00    -0.241 NA
ATOM     82  C   UNL A   1      33.845  28.332  22.265  1.00  0.00     0.057 C 
ATOM     83  C   UNL A   1      34.104  28.522  23.764  1.00  0.00     0.011 C 
ENDBRANCH  72  75
ENDBRANCH  66  69
ENDBRANCH  64  65
ENDBRANCH  63  64
ENDBRANCH   1  63
TORSDOF 12
ENDMDL
MODEL 3
REMARK VINA RESULT:     -10.8      4.055      7.353
REMARK SMILES O=C(NCCCCNC(=O)[C@@H]1CN(c2ncnc3c2CCC3)CCO1)c1ccc(-c2c3nc(c(-c4c(F)cccc4F)c4ccc([nH]4)c(-c4c(F)cccc4F)c4nc(c(-c5c(F)cccc5F)c5ccc2[nH]5)C=C4)C=C3)cc1
REMARK SMILES IDX 5 1 4 2 3 3 1 4 2 5 26 7 27 8 79 9 28 10 78 11 29 12 30 13
REMARK SMILES IDX 31 14 72 15 32 16 77 17 71 18 73 19 33 20 76 21 70 22 69 23
REMARK SMILES IDX 34 25 60 26 43 27 59 28 44 29 47 30 58 31 74 32 45 33 46 34
REMARK SMILES IDX 57 36 75 37 48 38 35 39 36 40 41 41 37 42 38 43 40 44 42 45
REMARK SMILES IDX 39 46 61 47 62 48 67 49 63 50 64 51 66 52 68 53 65 54 49 55
REMARK SMILES IDX 50 56 55 57 51 58 52 59 54 60 56 61 53 62 6 63 7 64 8 65
REMARK SMILES IDX 9 66 10 68 11 69 12 70 25 71 13 72 24 73 23 74 14 75 15 76
REMARK SMILES IDX 19 77 16 78 18 79 20 80 17 81 22 82 21 83
REMARK H PARENT 3 6 73 24 47 35 8 67
REMARK Flexibility Score: inf
ROOT
ATOM      1  C   UNL A   1      31.601  31.680  26.701  1.00  0.00     0.023 C 
ENDROOT
BRANCH   1   2
ATOM      2  C   UNL A   1      32.813  32.496  27.135  1.00  0.00     0.116 C 
BRANCH   2   3
ATOM      3  N   UNL A   1      32.480  33.851  27.546  1.00  0.00    -0.352 N 
ATOM      4  O   UNL A   1      32.619  35.723  28.806  1.00  0.00    -0.269 OA
ATOM      5  C   UNL A   1      33.083  34.628  28.508  1.00  0.00     0.251 C 
ATOM      6  H   UNL A   1      31.724  34.268  27.073  1.00  0.00     0.163 HD
BRANCH   5   7
ATOM      7  C   UNL A   1      34.276  34.111  29.213  1.00  0.00     0.039 A 
ATOM      8  C   UNL A   1      35.560  34.446  28.776  1.00  0.00     0.014 A 
ATOM      9  C   UNL A   1      34.101  33.244  30.296  1.00  0.00     0.014 A 
ATOM     10  C   UNL A   1      36.662  33.797  29.323  1.00  0.00     0.010 A 
ATOM     11  C   UNL A   1      35.216  32.645  30.888  1.00  0.00     0.010 A 
ATOM     12  C   UNL A   1      36.502  32.883  30.377  1.00  0.00    -0.014 A 
BRANCH  12  13
ATOM     13  C   UNL A   1      37.689  32.186  30.930  1.00  0.00     0.031 A 
ATOM     14  C   UNL A   1      38.209  32.524  32.302  1.00  0.00     0.074 A 
ATOM     15  C   UNL A   1      38.266  31.203  30.214  1.00  0.00     0.049 A 
ATOM     16  N   UNL A   1      39.240  32.027  32.938  1.00  0.00    -0.248 NA
ATOM     17  C   UNL A   1      37.476  33.551  33.062  1.00  0.00     0.031 C 
ATOM     18  C   UNL A   1      37.836  30.767  28.884  1.00  0.00     0.029 A 
ATOM     19  N   UNL A   1      39.323  30.380  30.509  1.00  0.00    -0.354 N 
ATOM     20  C   UNL A   1      39.285  32.681  34.163  1.00  0.00     0.074 A 
ATOM     21  C   UNL A   1      38.193  33.631  34.174  1.00  0.00     0.031 C 
ATOM     22  C   UNL A   1      38.591  29.726  28.499  1.00  0.00     0.029 A 
ATOM     23  C   UNL A   1      39.594  29.462  29.525  1.00  0.00     0.049 A 
ATOM     24  H   UNL A   1      39.835  30.440  31.347  1.00  0.00     0.167 HD
ATOM     25  C   UNL A   1      40.151  32.497  35.188  1.00  0.00     0.037 A 
ATOM     26  C   UNL A   1      40.554  28.522  29.449  1.00  0.00     0.037 A 
ATOM     27  C   UNL A   1      41.228  31.541  35.181  1.00  0.00     0.049 A 
ATOM     28  C   UNL A   1      41.538  28.386  30.574  1.00  0.00     0.074 A 
ATOM     29  C   UNL A   1      42.161  31.287  36.174  1.00  0.00     0.029 A 
ATOM     30  N   UNL A   1      41.511  30.675  34.137  1.00  0.00    -0.354 N 
ATOM     31  N   UNL A   1      41.582  29.030  31.714  1.00  0.00    -0.248 NA
ATOM     32  C   UNL A   1      42.614  27.403  30.394  1.00  0.00     0.031 C 
ATOM     33  C   UNL A   1      43.027  30.288  35.716  1.00  0.00     0.029 A 
ATOM     34  C   UNL A   1      42.612  29.896  34.454  1.00  0.00     0.049 A 
ATOM     35  H   UNL A   1      41.005  30.622  33.294  1.00  0.00     0.167 HD
ATOM     36  C   UNL A   1      42.686  28.529  32.390  1.00  0.00     0.074 A 
ATOM     37  C   UNL A   1      43.267  27.506  31.543  1.00  0.00     0.031 C 
ATOM     38  C   UNL A   1      43.180  28.889  33.598  1.00  0.00     0.037 A 
BRANCH  25  39
ATOM     39  C   UNL A   1      39.979  33.343  36.414  1.00  0.00     0.057 A 
ATOM     40  C   UNL A   1      40.638  34.570  36.554  1.00  0.00     0.134 A 
ATOM     41  C   UNL A   1      39.079  32.970  37.421  1.00  0.00     0.134 A 
ATOM     42  F   UNL A   1      41.520  34.977  35.630  1.00  0.00    -0.206 F 
ATOM     43  C   UNL A   1      40.407  35.399  37.654  1.00  0.00     0.040 A 
ATOM     44  C   UNL A   1      38.827  33.799  38.516  1.00  0.00     0.040 A 
ATOM     45  F   UNL A   1      38.412  31.809  37.343  1.00  0.00    -0.206 F 
ATOM     46  C   UNL A   1      39.491  35.019  38.633  1.00  0.00     0.006 A 
ENDBRANCH  25  39
BRANCH  26  47
ATOM     47  C   UNL A   1      40.642  27.647  28.255  1.00  0.00     0.057 A 
ATOM     48  C   UNL A   1      39.998  26.406  28.221  1.00  0.00     0.134 A 
ATOM     49  C   UNL A   1      41.377  28.026  27.124  1.00  0.00     0.134 A 
ATOM     50  F   UNL A   1      39.297  25.980  29.282  1.00  0.00    -0.206 F 
ATOM     51  C   UNL A   1      40.090  25.565  27.110  1.00  0.00     0.040 A 
ATOM     52  C   UNL A   1      41.456  27.207  25.998  1.00  0.00     0.040 A 
ATOM     53  F   UNL A   1      42.015  29.205  27.095  1.00  0.00    -0.206 F 
ATOM     54  C   UNL A   1      40.817  25.970  25.991  1.00  0.00     0.006 A 
ENDBRANCH  26  47
BRANCH  38  55
ATOM     55  C   UNL A   1      44.406  28.171  34.074  1.00  0.00     0.057 A 
ATOM     56  C   UNL A   1      45.689  28.679  33.836  1.00  0.00     0.134 A 
ATOM     57  C   UNL A   1      44.302  26.979  34.800  1.00  0.00     0.134 A 
ATOM     58  F   UNL A   1      45.852  29.810  33.133  1.00  0.00    -0.206 F 
ATOM     59  C   UNL A   1      46.829  28.016  34.290  1.00  0.00     0.040 A 
ATOM     60  C   UNL A   1      45.434  26.319  35.277  1.00  0.00     0.040 A 
ATOM     61  F   UNL A   1      43.101  26.445  35.066  1.00  0.00    -0.206 F 
ATOM     62  C   UNL A   1      46.702  26.834  35.018  1.00  0.00     0.006 A 
ENDBRANCH  38  55
ENDBRANCH  12  13
ENDBRANCH   5   7
ENDBRANCH   2   3
ENDBRANCH   1   2
BRANCH   1  63
ATOM     63  C   UNL A   1      31.860  30.195  26.443  1.00  0.00     0.023 C 
BRANCH  63  64
ATOM     64  C   UNL A   1      31.664  29.739  24.998  1.00  0.00     0.116 C 
BRANCH  64  65
ATOM     65  N   UNL A   1      32.912  29.705  24.258  1.00  0.00    -0.354 N 
ATOM     66  C   UNL A   1      33.417  28.733  23.438  1.00  0.00     0.250 C 
ATOM     67  H   UNL A   1      33.480  30.502  24.360  1.00  0.00     0.163 HD
ATOM     68  O   UNL A   1      34.502  28.958  22.896  1.00  0.00    -0.272 OA
BRANCH  66  69
ATOM     69  C   UNL A   1      32.652  27.418  23.249  1.00  0.00     0.226 C 
ATOM     70  C   UNL A   1      33.077  26.475  24.388  1.00  0.00     0.160 C 
ATOM     71  O   UNL A   1      32.934  26.830  21.965  1.00  0.00    -0.365 OA
ATOM     72  N   UNL A   1      32.479  25.150  24.198  1.00  0.00    -0.351 N 
ATOM     73  C   UNL A   1      32.198  25.607  21.809  1.00  0.00     0.183 C 
ATOM     74  C   UNL A   1      32.603  24.565  22.867  1.00  0.00     0.146 C 
BRANCH  72  75
ATOM     75  C   UNL A   1      32.002  24.475  25.287  1.00  0.00     0.135 A 
ATOM     76  N   UNL A   1      30.682  24.585  25.542  1.00  0.00    -0.219 NA
ATOM     77  C   UNL A   1      32.790  23.703  26.109  1.00  0.00     0.016 A 
ATOM     78  C   UNL A   1      30.180  23.876  26.575  1.00  0.00     0.224 A 
ATOM     79  C   UNL A   1      32.173  23.041  27.151  1.00  0.00     0.049 A 
ATOM     80  C   UNL A   1      34.259  23.457  26.104  1.00  0.00     0.042 C 
ATOM     81  N   UNL A   1      30.864  23.086  27.412  1.00  0.00    -0.241 NA
ATOM     82  C   UNL A   1      33.145  22.228  27.951  1.00  0.00     0.057 C 
ATOM     83  C   UNL A   1      34.497  22.742  27.443  1.00  0.00     0.011 C 
ENDBRANCH  72  75
ENDBRANCH  66  69
ENDBRANCH  64  65
ENDBRANCH  63  64
ENDBRANCH   1  63
TORSDOF 12
ENDMDL
