MODEL 1
REMARK VINA RESULT:     -10.6      0.000      0.000
REMARK SMILES CC(C)[C@H](CO)Nc1ccc(C(=O)NCCCCNC(=O)c2ccc(-c3c4nc(c(-c5c(F)cccc5F)c5ccc([nH]5)c(-c5c(F)cccc5F)c5nc(c(-c6c(F)cccc6F)c6ccc3[nH]6)C=C5)C=C4)cc2)cc1
REMARK SMILES IDX 15 1 14 2 12 3 13 4 11 6 8 7 9 8 77 9 10 10 76 11 7 12 4 14
REMARK SMILES IDX 2 15 1 16 3 17 5 18 6 19 16 21 17 22 18 23 19 24 20 25 21 27
REMARK SMILES IDX 22 28 23 29 75 30 24 31 74 32 25 33 26 34 27 35 68 36 28 37
REMARK SMILES IDX 73 38 67 39 69 40 29 41 72 42 66 43 65 44 30 46 56 47 39 48
REMARK SMILES IDX 55 49 40 50 43 51 54 52 70 53 41 54 42 55 53 57 71 58 44 59
REMARK SMILES IDX 31 60 32 61 37 62 33 63 34 64 36 65 38 66 35 67 57 68 58 69
REMARK SMILES IDX 63 70 59 71 60 72 62 73 64 74 61 75 45 76 46 77 51 78 47 79
REMARK SMILES IDX 48 80 50 81 52 82 49 83
REMARK H PARENT 14 5 7 13 6 20 19 26 69 45 43 56
REMARK Flexibility Score: inf
ROOT
ATOM      1  C   UNL A   1      33.203  29.156  23.354  1.00  0.00     0.116 C 
ENDROOT
BRANCH   1   2
ATOM      2  N   UNL A   1      31.945  29.332  22.656  1.00  0.00    -0.352 N 
ATOM      3  C   UNL A   1      30.867  28.497  22.490  1.00  0.00     0.251 C 
ATOM      4  O   UNL A   1      29.894  28.932  21.874  1.00  0.00    -0.269 OA
ATOM      5  H   UNL A   1      31.844  30.209  22.220  1.00  0.00     0.163 HD
BRANCH   3   6
ATOM      6  C   UNL A   1      30.806  27.125  23.068  1.00  0.00     0.039 A 
ATOM      7  C   UNL A   1      30.675  24.597  24.351  1.00  0.00     0.034 A 
ATOM      8  C   UNL A   1      29.955  25.690  24.841  1.00  0.00     0.026 A 
ATOM      9  C   UNL A   1      31.418  24.779  23.184  1.00  0.00     0.026 A 
ATOM     10  C   UNL A   1      30.026  26.942  24.217  1.00  0.00     0.016 A 
ATOM     11  C   UNL A   1      31.450  26.013  22.528  1.00  0.00     0.016 A 
BRANCH   7  12
ATOM     12  N   UNL A   1      30.676  23.401  25.052  1.00  0.00    -0.380 N 
ATOM     13  H   UNL A   1      29.828  23.050  25.409  1.00  0.00     0.160 HD
BRANCH  12  14
ATOM     14  C   UNL A   1      31.918  22.645  25.275  1.00  0.00     0.107 C 
BRANCH  14  15
ATOM     15  C   UNL A   1      31.925  21.245  24.582  1.00  0.00     0.007 C 
ATOM     16  C   UNL A   1      32.303  21.263  23.096  1.00  0.00     0.009 C 
ATOM     17  C   UNL A   1      32.759  20.165  25.282  1.00  0.00     0.009 C 
ENDBRANCH  14  15
BRANCH  14  18
ATOM     18  C   UNL A   1      32.189  22.622  26.804  1.00  0.00     0.181 C 
BRANCH  18  19
ATOM     19  O   UNL A   1      31.406  23.595  27.504  1.00  0.00    -0.394 OA
ATOM     20  H   UNL A   1      30.523  23.648  27.105  1.00  0.00     0.210 HD
ENDBRANCH  18  19
ENDBRANCH  14  18
ENDBRANCH  12  14
ENDBRANCH   7  12
ENDBRANCH   3   6
ENDBRANCH   1   2
BRANCH   1  21
ATOM     21  C   UNL A   1      33.016  29.328  24.863  1.00  0.00     0.023 C 
BRANCH  21  22
ATOM     22  C   UNL A   1      33.768  28.301  25.711  1.00  0.00     0.023 C 
BRANCH  22  23
ATOM     23  C   UNL A   1      33.653  28.518  27.214  1.00  0.00     0.116 C 
BRANCH  23  24
ATOM     24  N   UNL A   1      33.571  29.921  27.589  1.00  0.00    -0.352 N 
ATOM     25  C   UNL A   1      34.559  30.703  28.144  1.00  0.00     0.251 C 
ATOM     26  H   UNL A   1      32.706  30.364  27.427  1.00  0.00     0.163 HD
ATOM     27  O   UNL A   1      34.332  31.849  28.501  1.00  0.00    -0.269 OA
BRANCH  25  28
ATOM     28  C   UNL A   1      35.894  30.106  28.341  1.00  0.00     0.039 A 
ATOM     29  C   UNL A   1      36.829  30.183  27.306  1.00  0.00     0.014 A 
ATOM     30  C   UNL A   1      36.234  29.539  29.572  1.00  0.00     0.014 A 
ATOM     31  C   UNL A   1      38.137  29.750  27.530  1.00  0.00     0.010 A 
ATOM     32  C   UNL A   1      37.551  29.170  29.813  1.00  0.00     0.010 A 
ATOM     33  C   UNL A   1      38.513  29.273  28.795  1.00  0.00    -0.014 A 
BRANCH  33  34
ATOM     34  C   UNL A   1      39.901  28.847  29.090  1.00  0.00     0.031 A 
ATOM     35  C   UNL A   1      40.842  29.815  29.746  1.00  0.00     0.074 A 
ATOM     36  C   UNL A   1      40.339  27.641  28.684  1.00  0.00     0.049 A 
ATOM     37  N   UNL A   1      42.131  29.717  29.938  1.00  0.00    -0.248 NA
ATOM     38  C   UNL A   1      40.254  31.078  30.220  1.00  0.00     0.031 C 
ATOM     39  C   UNL A   1      39.527  26.620  28.019  1.00  0.00     0.029 A 
ATOM     40  N   UNL A   1      41.588  27.077  28.756  1.00  0.00    -0.354 N 
ATOM     41  C   UNL A   1      42.513  30.915  30.527  1.00  0.00     0.074 A 
ATOM     42  C   UNL A   1      41.328  31.740  30.621  1.00  0.00     0.031 C 
ATOM     43  C   UNL A   1      40.294  25.549  27.759  1.00  0.00     0.029 A 
ATOM     44  C   UNL A   1      41.660  25.824  28.198  1.00  0.00     0.049 A 
ATOM     45  H   UNL A   1      42.359  27.528  29.168  1.00  0.00     0.167 HD
ATOM     46  C   UNL A   1      43.739  31.288  30.964  1.00  0.00     0.037 A 
ATOM     47  C   UNL A   1      42.712  25.000  28.044  1.00  0.00     0.037 A 
ATOM     48  C   UNL A   1      44.907  30.452  30.898  1.00  0.00     0.049 A 
ATOM     49  C   UNL A   1      44.067  25.441  28.525  1.00  0.00     0.074 A 
ATOM     50  C   UNL A   1      46.187  30.719  31.350  1.00  0.00     0.029 A 
ATOM     51  N   UNL A   1      44.932  29.180  30.346  1.00  0.00    -0.354 N 
ATOM     52  N   UNL A   1      44.412  26.564  29.105  1.00  0.00    -0.248 NA
ATOM     53  C   UNL A   1      45.181  24.501  28.324  1.00  0.00     0.031 C 
ATOM     54  C   UNL A   1      46.993  29.617  31.048  1.00  0.00     0.029 A 
ATOM     55  C   UNL A   1      46.207  28.650  30.440  1.00  0.00     0.049 A 
ATOM     56  H   UNL A   1      44.158  28.721  29.947  1.00  0.00     0.167 HD
ATOM     57  C   UNL A   1      45.770  26.452  29.376  1.00  0.00     0.074 A 
ATOM     58  C   UNL A   1      46.188  25.153  28.889  1.00  0.00     0.031 C 
ATOM     59  C   UNL A   1      46.595  27.343  29.977  1.00  0.00     0.037 A 
BRANCH  46  60
ATOM     60  C   UNL A   1      43.867  32.661  31.551  1.00  0.00     0.057 A 
ATOM     61  C   UNL A   1      43.666  32.901  32.918  1.00  0.00     0.134 A 
ATOM     62  C   UNL A   1      44.191  33.758  30.744  1.00  0.00     0.134 A 
ATOM     63  F   UNL A   1      43.337  31.895  33.742  1.00  0.00    -0.206 F 
ATOM     64  C   UNL A   1      43.751  34.186  33.454  1.00  0.00     0.040 A 
ATOM     65  C   UNL A   1      44.306  35.045  31.273  1.00  0.00     0.040 A 
ATOM     66  F   UNL A   1      44.399  33.598  29.428  1.00  0.00    -0.206 F 
ATOM     67  C   UNL A   1      44.076  35.263  32.630  1.00  0.00     0.006 A 
ENDBRANCH  46  60
BRANCH  47  68
ATOM     68  C   UNL A   1      42.523  23.659  27.438  1.00  0.00     0.057 A 
ATOM     69  C   UNL A   1      42.244  22.547  28.240  1.00  0.00     0.134 A 
ATOM     70  C   UNL A   1      42.613  23.455  26.057  1.00  0.00     0.134 A 
ATOM     71  F   UNL A   1      42.163  22.679  29.571  1.00  0.00    -0.206 F 
ATOM     72  C   UNL A   1      42.072  21.275  27.691  1.00  0.00     0.040 A 
ATOM     73  C   UNL A   1      42.425  22.192  25.492  1.00  0.00     0.040 A 
ATOM     74  F   UNL A   1      42.873  24.483  25.235  1.00  0.00    -0.206 F 
ATOM     75  C   UNL A   1      42.158  21.096  26.312  1.00  0.00     0.006 A 
ENDBRANCH  47  68
BRANCH  59  76
ATOM     76  C   UNL A   1      48.016  26.926  30.202  1.00  0.00     0.057 A 
ATOM     77  C   UNL A   1      49.039  27.280  29.316  1.00  0.00     0.134 A 
ATOM     78  C   UNL A   1      48.369  26.222  31.360  1.00  0.00     0.134 A 
ATOM     79  F   UNL A   1      48.761  27.943  28.185  1.00  0.00    -0.206 F 
ATOM     80  C   UNL A   1      50.369  26.941  29.572  1.00  0.00     0.040 A 
ATOM     81  C   UNL A   1      49.697  25.895  31.636  1.00  0.00     0.040 A 
ATOM     82  F   UNL A   1      47.433  25.860  32.250  1.00  0.00    -0.206 F 
ATOM     83  C   UNL A   1      50.701  26.255  30.739  1.00  0.00     0.006 A 
ENDBRANCH  59  76
ENDBRANCH  33  34
ENDBRANCH  25  28
ENDBRANCH  23  24
ENDBRANCH  22  23
ENDBRANCH  21  22
ENDBRANCH   1  21
TORSDOF 16
ENDMDL
MODEL 2
REMARK VINA RESULT:     -10.5      3.135      7.473
REMARK SMILES CC(C)[C@H](CO)Nc1ccc(C(=O)NCCCCNC(=O)c2ccc(-c3c4nc(c(-c5c(F)cccc5F)c5ccc([nH]5)c(-c5c(F)cccc5F)c5nc(c(-c6c(F)cccc6F)c6ccc3[nH]6)C=C5)C=C4)cc2)cc1
REMARK SMILES IDX 15 1 14 2 12 3 13 4 11 6 8 7 9 8 77 9 10 10 76 11 7 12 4 14
REMARK SMILES IDX 2 15 1 16 3 17 5 18 6 19 16 21 17 22 18 23 19 24 20 25 21 27
REMARK SMILES IDX 22 28 23 29 75 30 24 31 74 32 25 33 26 34 27 35 68 36 28 37
REMARK SMILES IDX 73 38 67 39 69 40 29 41 72 42 66 43 65 44 30 46 56 47 39 48
REMARK SMILES IDX 55 49 40 50 43 51 54 52 70 53 41 54 42 55 53 57 71 58 44 59
REMARK SMILES IDX 31 60 32 61 37 62 33 63 34 64 36 65 38 66 35 67 57 68 58 69
REMARK SMILES IDX 63 70 59 71 60 72 62 73 64 74 61 75 45 76 46 77 51 78 47 79
REMARK SMILES IDX 48 80 50 81 52 82 49 83
REMARK H PARENT 14 5 7 13 6 20 19 26 69 45 43 56
REMARK Flexibility Score: inf
ROOT
ATOM      1  C   UNL A   1      35.820  21.564  25.652  1.00  0.00     0.116 C 
ENDROOT
BRANCH   1   2
ATOM      2  N   UNL A   1      35.120  20.334  25.341  1.00  0.00    -0.352 N 
ATOM      3  C   UNL A   1      33.829  20.093  24.939  1.00  0.00     0.251 C 
ATOM      4  O   UNL A   1      33.511  18.928  24.699  1.00  0.00    -0.269 OA
ATOM      5  H   UNL A   1      35.669  19.522  25.438  1.00  0.00     0.163 HD
BRANCH   3   6
ATOM      6  C   UNL A   1      32.829  21.177  24.726  1.00  0.00     0.039 A 
ATOM      7  C   UNL A   1      31.058  23.332  24.204  1.00  0.00     0.034 A 
ATOM      8  C   UNL A   1      31.937  22.869  23.220  1.00  0.00     0.026 A 
ATOM      9  C   UNL A   1      31.048  22.668  25.430  1.00  0.00     0.026 A 
ATOM     10  C   UNL A   1      32.820  21.812  23.479  1.00  0.00     0.016 A 
ATOM     11  C   UNL A   1      31.890  21.579  25.674  1.00  0.00     0.016 A 
BRANCH   7  12
ATOM     12  N   UNL A   1      30.277  24.451  23.959  1.00  0.00    -0.380 N 
ATOM     13  H   UNL A   1      29.315  24.338  23.784  1.00  0.00     0.160 HD
BRANCH  12  14
ATOM     14  C   UNL A   1      30.856  25.804  23.954  1.00  0.00     0.107 C 
BRANCH  14  15
ATOM     15  C   UNL A   1      31.865  26.049  25.120  1.00  0.00     0.007 C 
ATOM     16  C   UNL A   1      33.282  26.435  24.677  1.00  0.00     0.009 C 
ATOM     17  C   UNL A   1      31.405  27.044  26.194  1.00  0.00     0.009 C 
ENDBRANCH  14  15
BRANCH  14  18
ATOM     18  C   UNL A   1      29.683  26.819  23.876  1.00  0.00     0.181 C 
BRANCH  18  19
ATOM     19  O   UNL A   1      28.425  26.213  24.193  1.00  0.00    -0.394 OA
ATOM     20  H   UNL A   1      28.266  25.465  23.596  1.00  0.00     0.210 HD
ENDBRANCH  18  19
ENDBRANCH  14  18
ENDBRANCH  12  14
ENDBRANCH   7  12
ENDBRANCH   3   6
ENDBRANCH   1   2
BRANCH   1  21
ATOM     21  C   UNL A   1      37.150  21.637  24.898  1.00  0.00     0.023 C 
BRANCH  21  22
ATOM     22  C   UNL A   1      37.999  20.369  24.996  1.00  0.00     0.023 C 
BRANCH  22  23
ATOM     23  C   UNL A   1      39.173  20.468  25.961  1.00  0.00     0.116 C 
BRANCH  23  24
ATOM     24  N   UNL A   1      40.042  19.301  25.933  1.00  0.00    -0.352 N 
ATOM     25  C   UNL A   1      41.406  19.263  26.112  1.00  0.00     0.251 C 
ATOM     26  H   UNL A   1      39.601  18.436  25.767  1.00  0.00     0.163 HD
ATOM     27  O   UNL A   1      42.034  18.225  25.971  1.00  0.00    -0.269 OA
BRANCH  25  28
ATOM     28  C   UNL A   1      42.103  20.524  26.434  1.00  0.00     0.039 A 
ATOM     29  C   UNL A   1      42.550  21.337  25.389  1.00  0.00     0.014 A 
ATOM     30  C   UNL A   1      42.248  20.925  27.764  1.00  0.00     0.014 A 
ATOM     31  C   UNL A   1      43.082  22.594  25.678  1.00  0.00     0.010 A 
ATOM     32  C   UNL A   1      42.717  22.201  28.045  1.00  0.00     0.010 A 
ATOM     33  C   UNL A   1      43.137  23.046  27.005  1.00  0.00    -0.014 A 
BRANCH  33  34
ATOM     34  C   UNL A   1      43.651  24.392  27.353  1.00  0.00     0.031 A 
ATOM     35  C   UNL A   1      42.689  25.450  27.809  1.00  0.00     0.074 A 
ATOM     36  C   UNL A   1      44.951  24.688  27.168  1.00  0.00     0.049 A 
ATOM     37  N   UNL A   1      42.890  26.728  27.996  1.00  0.00    -0.248 NA
ATOM     38  C   UNL A   1      41.305  25.013  28.052  1.00  0.00     0.031 C 
ATOM     39  C   UNL A   1      45.980  23.752  26.711  1.00  0.00     0.029 A 
ATOM     40  N   UNL A   1      45.624  25.873  27.323  1.00  0.00    -0.354 N 
ATOM     41  C   UNL A   1      41.654  27.252  28.351  1.00  0.00     0.074 A 
ATOM     42  C   UNL A   1      40.702  26.163  28.311  1.00  0.00     0.031 C 
ATOM     43  C   UNL A   1      47.158  24.394  26.640  1.00  0.00     0.029 A 
ATOM     44  C   UNL A   1      46.957  25.795  27.002  1.00  0.00     0.049 A 
ATOM     45  H   UNL A   1      45.193  26.701  27.635  1.00  0.00     0.167 HD
ATOM     46  C   UNL A   1      41.344  28.524  28.695  1.00  0.00     0.037 A 
ATOM     47  C   UNL A   1      47.905  26.751  26.986  1.00  0.00     0.037 A 
ATOM     48  C   UNL A   1      42.300  29.595  28.766  1.00  0.00     0.049 A 
ATOM     49  C   UNL A   1      47.535  28.159  27.358  1.00  0.00     0.074 A 
ATOM     50  C   UNL A   1      42.096  30.911  29.143  1.00  0.00     0.029 A 
ATOM     51  N   UNL A   1      43.645  29.469  28.455  1.00  0.00    -0.354 N 
ATOM     52  N   UNL A   1      46.370  28.639  27.719  1.00  0.00    -0.248 NA
ATOM     53  C   UNL A   1      48.611  29.162  27.316  1.00  0.00     0.031 C 
ATOM     54  C   UNL A   1      43.316  31.588  29.036  1.00  0.00     0.029 A 
ATOM     55  C   UNL A   1      44.285  30.685  28.626  1.00  0.00     0.049 A 
ATOM     56  H   UNL A   1      44.082  28.639  28.157  1.00  0.00     0.167 HD
ATOM     57  C   UNL A   1      46.577  29.986  27.986  1.00  0.00     0.074 A 
ATOM     58  C   UNL A   1      47.980  30.250  27.739  1.00  0.00     0.031 C 
ATOM     59  C   UNL A   1      45.688  30.919  28.403  1.00  0.00     0.037 A 
BRANCH  46  60
ATOM     60  C   UNL A   1      39.909  28.814  29.021  1.00  0.00     0.057 A 
ATOM     61  C   UNL A   1      39.402  28.660  30.318  1.00  0.00     0.134 A 
ATOM     62  C   UNL A   1      39.024  29.249  28.027  1.00  0.00     0.134 A 
ATOM     63  F   UNL A   1      40.195  28.230  31.311  1.00  0.00    -0.206 F 
ATOM     64  C   UNL A   1      38.058  28.897  30.609  1.00  0.00     0.040 A 
ATOM     65  C   UNL A   1      37.683  29.515  28.311  1.00  0.00     0.040 A 
ATOM     66  F   UNL A   1      39.445  29.419  26.765  1.00  0.00    -0.206 F 
ATOM     67  C   UNL A   1      37.195  29.330  29.603  1.00  0.00     0.006 A 
ENDBRANCH  46  60
BRANCH  47  68
ATOM     68  C   UNL A   1      49.304  26.403  26.636  1.00  0.00     0.057 A 
ATOM     69  C   UNL A   1      49.772  26.558  25.327  1.00  0.00     0.134 A 
ATOM     70  C   UNL A   1      50.202  25.912  27.590  1.00  0.00     0.134 A 
ATOM     71  F   UNL A   1      48.951  27.008  24.366  1.00  0.00    -0.206 F 
ATOM     72  C   UNL A   1      51.081  26.228  24.974  1.00  0.00     0.040 A 
ATOM     73  C   UNL A   1      51.521  25.596  27.256  1.00  0.00     0.040 A 
ATOM     74  F   UNL A   1      49.815  25.746  28.863  1.00  0.00    -0.206 F 
ATOM     75  C   UNL A   1      51.962  25.749  25.942  1.00  0.00     0.006 A 
ENDBRANCH  47  68
BRANCH  59  76
ATOM     76  C   UNL A   1      46.210  32.296  28.680  1.00  0.00     0.057 A 
ATOM     77  C   UNL A   1      46.271  33.277  27.685  1.00  0.00     0.134 A 
ATOM     78  C   UNL A   1      46.587  32.659  29.979  1.00  0.00     0.134 A 
ATOM     79  F   UNL A   1      45.935  32.985  26.419  1.00  0.00    -0.206 F 
ATOM     80  C   UNL A   1      46.698  34.575  27.971  1.00  0.00     0.040 A 
ATOM     81  C   UNL A   1      46.995  33.958  30.281  1.00  0.00     0.040 A 
ATOM     82  F   UNL A   1      46.543  31.763  30.977  1.00  0.00    -0.206 F 
ATOM     83  C   UNL A   1      47.052  34.920  29.274  1.00  0.00     0.006 A 
ENDBRANCH  59  76
ENDBRANCH  33  34
ENDBRANCH  25  28
ENDBRANCH  23  24
ENDBRANCH  22  23
ENDBRANCH  21  22
ENDBRANCH   1  21
TORSDOF 16
ENDMDL
MODEL 3
REMARK VINA RESULT:     -10.4      3.731      7.867
REMARK SMILES CC(C)[C@H](CO)Nc1ccc(C(=O)NCCCCNC(=O)c2ccc(-c3c4nc(c(-c5c(F)cccc5F)c5ccc([nH]5)c(-c5c(F)cccc5F)c5nc(c(-c6c(F)cccc6F)c6ccc3[nH]6)C=C5)C=C4)cc2)cc1
REMARK SMILES IDX 15 1 14 2 12 3 13 4 11 6 8 7 9 8 77 9 10 10 76 11 7 12 4 14
REMARK SMILES IDX 2 15 1 16 3 17 5 18 6 19 16 21 17 22 18 23 19 24 20 25 21 27
REMARK SMILES IDX 22 28 23 29 75 30 24 31 74 32 25 33 26 34 27 35 68 36 28 37
REMARK SMILES IDX 73 38 67 39 69 40 29 41 72 42 66 43 65 44 30 46 56 47 39 48
REMARK SMILES IDX 55 49 40 50 43 51 54 52 70 53 41 54 42 55 53 57 71 58 44 59
REMARK SMILES IDX 31 60 32 61 37 62 33 63 34 64 36 65 38 66 35 67 57 68 58 69
REMARK SMILES IDX 63 70 59 71 60 72 62 73 64 74 61 75 45 76 46 77 51 78 47 79
REMARK SMILES IDX 48 80 50 81 52 82 49 83
REMARK H PARENT 14 5 7 13 6 20 19 26 69 45 43 56
REMARK Flexibility Score: inf
ROOT
ATOM      1  C   UNL A   1      32.380  29.647  25.308  1.00  0.00     0.116 C 
ENDROOT
BRANCH   1   2
ATOM      2  N   UNL A   1      31.240  29.956  24.467  1.00  0.00    -0.352 N 
ATOM      3  C   UNL A   1      30.437  29.160  23.688  1.00  0.00     0.251 C 
ATOM      4  O   UNL A   1      29.495  29.695  23.103  1.00  0.00    -0.269 OA
ATOM      5  H   UNL A   1      30.998  30.911  24.451  1.00  0.00     0.163 HD
BRANCH   3   6
ATOM      6  C   UNL A   1      30.623  27.686  23.570  1.00  0.00     0.039 A 
ATOM      7  C   UNL A   1      30.994  24.873  23.546  1.00  0.00     0.034 A 
ATOM      8  C   UNL A   1      30.303  25.498  24.589  1.00  0.00     0.026 A 
ATOM      9  C   UNL A   1      31.448  25.672  22.497  1.00  0.00     0.026 A 
ATOM     10  C   UNL A   1      30.128  26.888  24.609  1.00  0.00     0.016 A 
ATOM     11  C   UNL A   1      31.229  27.053  22.487  1.00  0.00     0.016 A 
BRANCH   7  12
ATOM     12  N   UNL A   1      31.251  23.512  23.608  1.00  0.00    -0.380 N 
ATOM     13  H   UNL A   1      30.754  22.900  23.018  1.00  0.00     0.160 HD
BRANCH  12  14
ATOM     14  C   UNL A   1      32.250  22.963  24.537  1.00  0.00     0.107 C 
BRANCH  14  15
ATOM     15  C   UNL A   1      33.657  23.628  24.398  1.00  0.00     0.007 C 
ATOM     16  C   UNL A   1      34.093  24.474  25.600  1.00  0.00     0.009 C 
ATOM     17  C   UNL A   1      34.804  22.677  24.034  1.00  0.00     0.009 C 
ENDBRANCH  14  15
BRANCH  14  18
ATOM     18  C   UNL A   1      32.236  21.417  24.386  1.00  0.00     0.181 C 
BRANCH  18  19
ATOM     19  O   UNL A   1      31.670  20.770  25.531  1.00  0.00    -0.394 OA
ATOM     20  H   UNL A   1      30.787  21.131  25.704  1.00  0.00     0.210 HD
ENDBRANCH  18  19
ENDBRANCH  14  18
ENDBRANCH  12  14
ENDBRANCH   7  12
ENDBRANCH   3   6
ENDBRANCH   1   2
BRANCH   1  21
ATOM     21  C   UNL A   1      32.155  30.153  26.735  1.00  0.00     0.023 C 
BRANCH  21  22
ATOM     22  C   UNL A   1      31.772  31.631  26.825  1.00  0.00     0.023 C 
BRANCH  22  23
ATOM     23  C   UNL A   1      32.881  32.541  27.333  1.00  0.00     0.116 C 
BRANCH  23  24
ATOM     24  N   UNL A   1      32.437  33.902  27.595  1.00  0.00    -0.352 N 
ATOM     25  C   UNL A   1      32.969  34.804  28.487  1.00  0.00     0.251 C 
ATOM     26  H   UNL A   1      31.663  34.214  27.071  1.00  0.00     0.163 HD
ATOM     27  O   UNL A   1      32.442  35.889  28.679  1.00  0.00    -0.269 OA
BRANCH  25  28
ATOM     28  C   UNL A   1      34.173  34.411  29.244  1.00  0.00     0.039 A 
ATOM     29  C   UNL A   1      34.019  33.808  30.495  1.00  0.00     0.014 A 
ATOM     30  C   UNL A   1      35.441  34.577  28.681  1.00  0.00     0.014 A 
ATOM     31  C   UNL A   1      35.141  33.304  31.155  1.00  0.00     0.010 A 
ATOM     32  C   UNL A   1      36.546  34.017  29.310  1.00  0.00     0.010 A 
ATOM     33  C   UNL A   1      36.405  33.376  30.551  1.00  0.00    -0.014 A 
BRANCH  33  34
ATOM     34  C   UNL A   1      37.614  32.812  31.195  1.00  0.00     0.031 A 
ATOM     35  C   UNL A   1      38.298  31.633  30.568  1.00  0.00     0.074 A 
ATOM     36  C   UNL A   1      38.034  33.291  32.381  1.00  0.00     0.049 A 
ATOM     37  N   UNL A   1      39.255  30.879  31.043  1.00  0.00    -0.248 NA
ATOM     38  C   UNL A   1      37.814  31.227  29.238  1.00  0.00     0.031 C 
ATOM     39  C   UNL A   1      37.441  34.419  33.100  1.00  0.00     0.029 A 
ATOM     40  N   UNL A   1      39.051  32.871  33.200  1.00  0.00    -0.354 N 
ATOM     41  C   UNL A   1      39.467  29.896  30.085  1.00  0.00     0.074 A 
ATOM     42  C   UNL A   1      38.511  30.122  29.023  1.00  0.00     0.031 C 
ATOM     43  C   UNL A   1      38.116  34.613  34.246  1.00  0.00     0.029 A 
ATOM     44  C   UNL A   1      39.157  33.596  34.362  1.00  0.00     0.049 A 
ATOM     45  H   UNL A   1      39.648  32.121  32.977  1.00  0.00     0.167 HD
ATOM     46  C   UNL A   1      40.387  28.903  30.085  1.00  0.00     0.037 A 
ATOM     47  C   UNL A   1      39.991  33.445  35.408  1.00  0.00     0.037 A 
ATOM     48  C   UNL A   1      41.357  28.702  31.127  1.00  0.00     0.049 A 
ATOM     49  C   UNL A   1      40.996  32.326  35.392  1.00  0.00     0.074 A 
ATOM     50  C   UNL A   1      42.359  27.751  31.203  1.00  0.00     0.029 A 
ATOM     51  N   UNL A   1      41.446  29.473  32.276  1.00  0.00    -0.354 N 
ATOM     52  N   UNL A   1      41.207  31.419  34.469  1.00  0.00    -0.248 NA
ATOM     53  C   UNL A   1      41.875  32.207  36.564  1.00  0.00     0.031 C 
ATOM     54  C   UNL A   1      43.039  27.932  32.412  1.00  0.00     0.029 A 
ATOM     55  C   UNL A   1      42.483  29.017  33.071  1.00  0.00     0.049 A 
ATOM     56  H   UNL A   1      40.860  30.233  32.494  1.00  0.00     0.167 HD
ATOM     57  C   UNL A   1      42.266  30.647  34.928  1.00  0.00     0.074 A 
ATOM     58  C   UNL A   1      42.650  31.188  36.216  1.00  0.00     0.031 C 
ATOM     59  C   UNL A   1      42.868  29.589  34.335  1.00  0.00     0.037 A 
BRANCH  46  60
ATOM     60  C   UNL A   1      40.379  27.965  28.915  1.00  0.00     0.057 A 
ATOM     61  C   UNL A   1      39.615  26.790  28.917  1.00  0.00     0.134 A 
ATOM     62  C   UNL A   1      41.145  28.236  27.775  1.00  0.00     0.134 A 
ATOM     63  F   UNL A   1      38.873  26.464  29.986  1.00  0.00    -0.206 F 
ATOM     64  C   UNL A   1      39.639  25.902  27.841  1.00  0.00     0.040 A 
ATOM     65  C   UNL A   1      41.156  27.370  26.681  1.00  0.00     0.040 A 
ATOM     66  F   UNL A   1      41.897  29.345  27.707  1.00  0.00    -0.206 F 
ATOM     67  C   UNL A   1      40.409  26.194  26.716  1.00  0.00     0.006 A 
ENDBRANCH  46  60
BRANCH  47  68
ATOM     68  C   UNL A   1      39.936  34.397  36.544  1.00  0.00     0.057 A 
ATOM     69  C   UNL A   1      39.173  34.106  37.681  1.00  0.00     0.134 A 
ATOM     70  C   UNL A   1      40.637  35.607  36.528  1.00  0.00     0.134 A 
ATOM     71  F   UNL A   1      38.466  32.969  37.746  1.00  0.00    -0.206 F 
ATOM     72  C   UNL A   1      39.099  34.991  38.757  1.00  0.00     0.040 A 
ATOM     73  C   UNL A   1      40.588  36.494  37.606  1.00  0.00     0.040 A 
ATOM     74  F   UNL A   1      41.390  35.939  35.469  1.00  0.00    -0.206 F 
ATOM     75  C   UNL A   1      39.813  36.188  38.723  1.00  0.00     0.006 A 
ENDBRANCH  47  68
BRANCH  59  76
ATOM     76  C   UNL A   1      44.045  28.982  35.036  1.00  0.00     0.057 A 
ATOM     77  C   UNL A   1      45.353  29.419  34.798  1.00  0.00     0.134 A 
ATOM     78  C   UNL A   1      43.854  27.996  36.012  1.00  0.00     0.134 A 
ATOM     79  F   UNL A   1      45.600  30.351  33.866  1.00  0.00    -0.206 F 
ATOM     80  C   UNL A   1      46.434  28.890  35.505  1.00  0.00     0.040 A 
ATOM     81  C   UNL A   1      44.924  27.475  36.739  1.00  0.00     0.040 A 
ATOM     82  F   UNL A   1      42.622  27.541  36.289  1.00  0.00    -0.206 F 
ATOM     83  C   UNL A   1      46.219  27.922  36.485  1.00  0.00     0.006 A 
ENDBRANCH  59  76
ENDBRANCH  33  34
ENDBRANCH  25  28
ENDBRANCH  23  24
ENDBRANCH  22  23
ENDBRANCH  21  22
ENDBRANCH   1  21
TORSDOF 16
ENDMDL
