MODEL 1
REMARK VINA RESULT:     -12.5      0.000      0.000
REMARK SMILES CC(C)(C)c1cc2c(cc1Cl)C=C(C(=O)NCCCCNC(=O)c1ccc(-c3c4nc(c(-c5c(F)cccc5F)c5ccc([nH]5)c(-c5c(F)cccc5F)c5nc(c(-c6c(F)cccc6F)c6ccc3[nH]6)C=C5)C=C4)cc1)[C@H](C(F)(F)F)O2
REMARK SMILES IDX 19 1 18 2 17 3 16 4 14 5 15 6 13 8 5 9 6 10 10 11 7 12 9 13
REMARK SMILES IDX 11 14 8 15 83 16 12 17 78 18 2 19 1 20 3 21 4 22 79 23 80 24
REMARK SMILES IDX 81 25 82 26 20 27 21 28 22 29 23 31 24 32 25 33 77 34 26 35
REMARK SMILES IDX 76 36 27 37 28 38 29 39 70 40 30 41 75 42 69 43 71 44 31 45
REMARK SMILES IDX 74 46 68 47 67 48 32 50 58 51 41 52 57 53 42 54 45 55 56 56
REMARK SMILES IDX 72 57 43 58 44 59 55 61 73 62 46 63 33 64 34 65 39 66 35 67
REMARK SMILES IDX 36 68 38 69 40 70 37 71 59 72 60 73 65 74 61 75 62 76 64 77
REMARK SMILES IDX 66 78 63 79 47 80 48 81 53 82 49 83 50 84 52 85 54 86 51 87
REMARK H PARENT 16 7 21 30 71 49 45 60
REMARK Flexibility Score: inf
ROOT
ATOM      1  C   UNL A   1      37.367  23.249  25.126  1.00  0.00     0.023 C 
ENDROOT
BRANCH   1   2
ATOM      2  C   UNL A   1      37.373  21.723  25.005  1.00  0.00     0.023 C 
BRANCH   2   3
ATOM      3  C   UNL A   1      35.991  21.090  24.850  1.00  0.00     0.116 C 
BRANCH   3   4
ATOM      4  N   UNL A   1      35.290  21.014  26.118  1.00  0.00    -0.352 N 
ATOM      5  C   UNL A   1      34.194  21.587  26.666  1.00  0.00     0.251 C 
ATOM      6  O   UNL A   1      33.886  21.159  27.784  1.00  0.00    -0.270 OA
ATOM      7  H   UNL A   1      35.724  20.385  26.738  1.00  0.00     0.163 HD
BRANCH   5   8
ATOM      8  C   UNL A   1      33.371  22.662  26.038  1.00  0.00     0.067 C 
ATOM      9  C   UNL A   1      31.692  27.141  24.306  1.00  0.00    -0.020 A 
ATOM     10  C   UNL A   1      31.162  25.835  24.425  1.00  0.00     0.053 A 
ATOM     11  C   UNL A   1      32.987  27.335  24.846  1.00  0.00     0.045 A 
ATOM     12  C   UNL A   1      31.876  24.795  25.023  1.00  0.00     0.128 A 
ATOM     13  C   UNL A   1      33.684  26.288  25.480  1.00  0.00     0.032 A 
ATOM     14  Cl  UNL A   1      33.855  28.830  24.786  1.00  0.00    -0.084 Cl
ATOM     15  C   UNL A   1      33.131  25.015  25.569  1.00  0.00     0.019 A 
ATOM     16  O   UNL A   1      31.269  23.569  25.063  1.00  0.00    -0.475 OA
ATOM     17  C   UNL A   1      33.824  23.916  26.228  1.00  0.00     0.025 C 
ATOM     18  C   UNL A   1      32.182  22.434  25.141  1.00  0.00     0.314 C 
BRANCH   9  19
ATOM     19  C   UNL A   1      30.859  28.240  23.596  1.00  0.00    -0.012 C 
ATOM     20  C   UNL A   1      29.427  27.735  23.319  1.00  0.00     0.016 C 
ATOM     21  C   UNL A   1      31.533  28.703  22.287  1.00  0.00     0.016 C 
ATOM     22  C   UNL A   1      30.688  29.533  24.444  1.00  0.00     0.016 C 
ENDBRANCH   9  19
BRANCH  18  23
ATOM     23  C   UNL A   1      32.557  21.953  23.728  1.00  0.00     0.429 C 
ATOM     24  F   UNL A   1      33.647  22.587  23.234  1.00  0.00    -0.167 F 
ATOM     25  F   UNL A   1      32.853  20.628  23.751  1.00  0.00    -0.167 F 
ATOM     26  F   UNL A   1      31.564  22.124  22.829  1.00  0.00    -0.167 F 
ENDBRANCH  18  23
ENDBRANCH   5   8
ENDBRANCH   3   4
ENDBRANCH   2   3
ENDBRANCH   1   2
BRANCH   1  27
ATOM     27  C   UNL A   1      38.207  23.809  26.267  1.00  0.00     0.116 C 
BRANCH  27  28
ATOM     28  N   UNL A   1      39.641  23.622  26.100  1.00  0.00    -0.352 N 
ATOM     29  C   UNL A   1      40.654  24.411  26.596  1.00  0.00     0.251 C 
ATOM     30  H   UNL A   1      39.920  22.840  25.570  1.00  0.00     0.163 HD
ATOM     31  O   UNL A   1      41.828  24.178  26.329  1.00  0.00    -0.269 OA
BRANCH  29  32
ATOM     32  C   UNL A   1      40.288  25.588  27.406  1.00  0.00     0.039 A 
ATOM     33  C   UNL A   1      40.930  26.809  27.191  1.00  0.00     0.014 A 
ATOM     34  C   UNL A   1      39.395  25.427  28.468  1.00  0.00     0.014 A 
ATOM     35  C   UNL A   1      40.821  27.809  28.147  1.00  0.00     0.010 A 
ATOM     36  C   UNL A   1      39.227  26.466  29.384  1.00  0.00     0.010 A 
ATOM     37  C   UNL A   1      39.988  27.639  29.265  1.00  0.00    -0.014 A 
BRANCH  37  38
ATOM     38  C   UNL A   1      39.971  28.682  30.320  1.00  0.00     0.031 A 
ATOM     39  C   UNL A   1      38.958  29.795  30.282  1.00  0.00     0.074 A 
ATOM     40  C   UNL A   1      40.820  28.577  31.359  1.00  0.00     0.049 A 
ATOM     41  N   UNL A   1      38.782  30.779  31.127  1.00  0.00    -0.248 NA
ATOM     42  C   UNL A   1      38.023  29.808  29.145  1.00  0.00     0.031 C 
ATOM     43  C   UNL A   1      41.829  27.530  31.521  1.00  0.00     0.029 A 
ATOM     44  N   UNL A   1      40.945  29.341  32.490  1.00  0.00    -0.354 N 
ATOM     45  C   UNL A   1      37.742  31.543  30.611  1.00  0.00     0.074 A 
ATOM     46  C   UNL A   1      37.333  30.918  29.372  1.00  0.00     0.031 C 
ATOM     47  C   UNL A   1      42.427  27.679  32.713  1.00  0.00     0.029 A 
ATOM     48  C   UNL A   1      41.885  28.864  33.369  1.00  0.00     0.049 A 
ATOM     49  H   UNL A   1      40.412  30.152  32.657  1.00  0.00     0.167 HD
ATOM     50  C   UNL A   1      37.175  32.660  31.127  1.00  0.00     0.037 A 
ATOM     51  C   UNL A   1      42.274  29.333  34.568  1.00  0.00     0.037 A 
ATOM     52  C   UNL A   1      37.555  33.262  32.378  1.00  0.00     0.049 A 
ATOM     53  C   UNL A   1      41.647  30.585  35.104  1.00  0.00     0.074 A 
ATOM     54  C   UNL A   1      37.022  34.380  32.998  1.00  0.00     0.029 A 
ATOM     55  N   UNL A   1      38.562  32.789  33.205  1.00  0.00    -0.354 N 
ATOM     56  N   UNL A   1      40.679  31.307  34.594  1.00  0.00    -0.248 NA
ATOM     57  C   UNL A   1      42.182  31.099  36.371  1.00  0.00     0.031 C 
ATOM     58  C   UNL A   1      37.726  34.598  34.188  1.00  0.00     0.029 A 
ATOM     59  C   UNL A   1      38.678  33.601  34.321  1.00  0.00     0.049 A 
ATOM     60  H   UNL A   1      39.113  31.994  33.025  1.00  0.00     0.167 HD
ATOM     61  C   UNL A   1      40.491  32.362  35.474  1.00  0.00     0.074 A 
ATOM     62  C   UNL A   1      41.428  32.171  36.563  1.00  0.00     0.031 C 
ATOM     63  C   UNL A   1      39.628  33.403  35.383  1.00  0.00     0.037 A 
BRANCH  50  64
ATOM     64  C   UNL A   1      36.092  33.316  30.323  1.00  0.00     0.057 A 
ATOM     65  C   UNL A   1      34.748  33.174  30.690  1.00  0.00     0.134 A 
ATOM     66  C   UNL A   1      36.374  34.066  29.175  1.00  0.00     0.134 A 
ATOM     67  F   UNL A   1      34.410  32.468  31.779  1.00  0.00    -0.206 F 
ATOM     68  C   UNL A   1      33.722  33.757  29.944  1.00  0.00     0.040 A 
ATOM     69  C   UNL A   1      35.358  34.669  28.430  1.00  0.00     0.040 A 
ATOM     70  F   UNL A   1      37.643  34.252  28.779  1.00  0.00    -0.206 F 
ATOM     71  C   UNL A   1      34.026  34.511  28.813  1.00  0.00     0.006 A 
ENDBRANCH  50  64
BRANCH  51  72
ATOM     72  C   UNL A   1      43.317  28.614  35.334  1.00  0.00     0.057 A 
ATOM     73  C   UNL A   1      44.678  28.854  35.116  1.00  0.00     0.134 A 
ATOM     74  C   UNL A   1      42.972  27.654  36.290  1.00  0.00     0.134 A 
ATOM     75  F   UNL A   1      45.068  29.761  34.207  1.00  0.00    -0.206 F 
ATOM     76  C   UNL A   1      45.663  28.152  35.809  1.00  0.00     0.040 A 
ATOM     77  C   UNL A   1      43.946  26.958  37.007  1.00  0.00     0.040 A 
ATOM     78  F   UNL A   1      41.683  27.395  36.554  1.00  0.00    -0.206 F 
ATOM     79  C   UNL A   1      45.297  27.202  36.761  1.00  0.00     0.006 A 
ENDBRANCH  51  72
BRANCH  63  80
ATOM     80  C   UNL A   1      39.672  34.407  36.493  1.00  0.00     0.057 A 
ATOM     81  C   UNL A   1      40.454  35.562  36.387  1.00  0.00     0.134 A 
ATOM     82  C   UNL A   1      38.937  34.223  37.670  1.00  0.00     0.134 A 
ATOM     83  F   UNL A   1      41.182  35.793  35.284  1.00  0.00    -0.206 F 
ATOM     84  C   UNL A   1      40.501  36.504  37.415  1.00  0.00     0.040 A 
ATOM     85  C   UNL A   1      38.962  35.166  38.698  1.00  0.00     0.040 A 
ATOM     86  F   UNL A   1      38.155  33.143  37.821  1.00  0.00    -0.206 F 
ATOM     87  C   UNL A   1      39.748  36.310  38.572  1.00  0.00     0.006 A 
ENDBRANCH  63  80
ENDBRANCH  37  38
ENDBRANCH  29  32
ENDBRANCH  27  28
ENDBRANCH   1  27
TORSDOF 13
ENDMDL
MODEL 2
REMARK VINA RESULT:     -12.4      1.128      1.915
REMARK SMILES CC(C)(C)c1cc2c(cc1Cl)C=C(C(=O)NCCCCNC(=O)c1ccc(-c3c4nc(c(-c5c(F)cccc5F)c5ccc([nH]5)c(-c5c(F)cccc5F)c5nc(c(-c6c(F)cccc6F)c6ccc3[nH]6)C=C5)C=C4)cc1)[C@H](C(F)(F)F)O2
REMARK SMILES IDX 19 1 18 2 17 3 16 4 14 5 15 6 13 8 5 9 6 10 10 11 7 12 9 13
REMARK SMILES IDX 11 14 8 15 83 16 12 17 78 18 2 19 1 20 3 21 4 22 79 23 80 24
REMARK SMILES IDX 81 25 82 26 20 27 21 28 22 29 23 31 24 32 25 33 77 34 26 35
REMARK SMILES IDX 76 36 27 37 28 38 29 39 70 40 30 41 75 42 69 43 71 44 31 45
REMARK SMILES IDX 74 46 68 47 67 48 32 50 58 51 41 52 57 53 42 54 45 55 56 56
REMARK SMILES IDX 72 57 43 58 44 59 55 61 73 62 46 63 33 64 34 65 39 66 35 67
REMARK SMILES IDX 36 68 38 69 40 70 37 71 59 72 60 73 65 74 61 75 62 76 64 77
REMARK SMILES IDX 66 78 63 79 47 80 48 81 53 82 49 83 50 84 52 85 54 86 51 87
REMARK H PARENT 16 7 21 30 71 49 45 60
REMARK Flexibility Score: inf
ROOT
ATOM      1  C   UNL A   1      37.405  23.444  25.206  1.00  0.00     0.023 C 
ENDROOT
BRANCH   1   2
ATOM      2  C   UNL A   1      37.248  22.029  24.644  1.00  0.00     0.023 C 
BRANCH   2   3
ATOM      3  C   UNL A   1      36.285  21.136  25.425  1.00  0.00     0.116 C 
BRANCH   3   4
ATOM      4  N   UNL A   1      35.070  20.872  24.676  1.00  0.00    -0.352 N 
ATOM      5  C   UNL A   1      33.923  21.537  24.408  1.00  0.00     0.251 C 
ATOM      6  O   UNL A   1      33.158  20.961  23.626  1.00  0.00    -0.270 OA
ATOM      7  H   UNL A   1      35.085  19.982  24.257  1.00  0.00     0.163 HD
BRANCH   5   8
ATOM      8  C   UNL A   1      33.535  22.862  24.974  1.00  0.00     0.067 C 
ATOM      9  C   UNL A   1      32.808  27.849  25.671  1.00  0.00    -0.020 A 
ATOM     10  C   UNL A   1      32.631  26.679  26.446  1.00  0.00     0.053 A 
ATOM     11  C   UNL A   1      33.393  27.662  24.395  1.00  0.00     0.045 A 
ATOM     12  C   UNL A   1      32.994  25.415  25.977  1.00  0.00     0.128 A 
ATOM     13  C   UNL A   1      33.790  26.387  23.946  1.00  0.00     0.032 A 
ATOM     14  Cl  UNL A   1      33.673  28.934  23.255  1.00  0.00    -0.084 Cl
ATOM     15  C   UNL A   1      33.591  25.260  24.736  1.00  0.00     0.019 A 
ATOM     16  O   UNL A   1      32.757  24.353  26.808  1.00  0.00    -0.475 OA
ATOM     17  C   UNL A   1      34.002  23.932  24.302  1.00  0.00     0.025 C 
ATOM     18  C   UNL A   1      32.595  23.070  26.134  1.00  0.00     0.314 C 
BRANCH   9  19
ATOM     19  C   UNL A   1      32.346  29.216  26.238  1.00  0.00    -0.012 C 
ATOM     20  C   UNL A   1      31.561  29.015  27.553  1.00  0.00     0.016 C 
ATOM     21  C   UNL A   1      31.494  29.995  25.213  1.00  0.00     0.016 C 
ATOM     22  C   UNL A   1      33.523  30.168  26.596  1.00  0.00     0.016 C 
ENDBRANCH   9  19
BRANCH  18  23
ATOM     23  C   UNL A   1      31.116  22.836  25.780  1.00  0.00     0.429 C 
ATOM     24  F   UNL A   1      30.788  21.523  25.756  1.00  0.00    -0.167 F 
ATOM     25  F   UNL A   1      30.317  23.421  26.709  1.00  0.00    -0.167 F 
ATOM     26  F   UNL A   1      30.770  23.348  24.578  1.00  0.00    -0.167 F 
ENDBRANCH  18  23
ENDBRANCH   5   8
ENDBRANCH   3   4
ENDBRANCH   2   3
ENDBRANCH   1   2
BRANCH   1  27
ATOM     27  C   UNL A   1      38.314  23.557  26.423  1.00  0.00     0.116 C 
BRANCH  27  28
ATOM     28  N   UNL A   1      39.735  23.484  26.115  1.00  0.00    -0.352 N 
ATOM     29  C   UNL A   1      40.721  24.371  26.485  1.00  0.00     0.251 C 
ATOM     30  H   UNL A   1      40.026  22.711  25.580  1.00  0.00     0.163 HD
ATOM     31  O   UNL A   1      41.878  24.228  26.105  1.00  0.00    -0.269 OA
BRANCH  29  32
ATOM     32  C   UNL A   1      40.337  25.542  27.297  1.00  0.00     0.039 A 
ATOM     33  C   UNL A   1      40.921  26.784  27.050  1.00  0.00     0.014 A 
ATOM     34  C   UNL A   1      39.489  25.355  28.391  1.00  0.00     0.014 A 
ATOM     35  C   UNL A   1      40.807  27.789  28.000  1.00  0.00     0.010 A 
ATOM     36  C   UNL A   1      39.311  26.395  29.304  1.00  0.00     0.010 A 
ATOM     37  C   UNL A   1      40.020  27.597  29.149  1.00  0.00    -0.014 A 
BRANCH  37  38
ATOM     38  C   UNL A   1      39.999  28.648  30.195  1.00  0.00     0.031 A 
ATOM     39  C   UNL A   1      38.973  29.748  30.156  1.00  0.00     0.074 A 
ATOM     40  C   UNL A   1      40.857  28.563  31.229  1.00  0.00     0.049 A 
ATOM     41  N   UNL A   1      38.791  30.738  30.994  1.00  0.00    -0.248 NA
ATOM     42  C   UNL A   1      38.029  29.740  29.027  1.00  0.00     0.031 C 
ATOM     43  C   UNL A   1      41.881  27.529  31.391  1.00  0.00     0.029 A 
ATOM     44  N   UNL A   1      40.982  29.337  32.352  1.00  0.00    -0.354 N 
ATOM     45  C   UNL A   1      37.738  31.484  30.481  1.00  0.00     0.074 A 
ATOM     46  C   UNL A   1      37.327  30.844  29.250  1.00  0.00     0.031 C 
ATOM     47  C   UNL A   1      42.486  27.695  32.576  1.00  0.00     0.029 A 
ATOM     48  C   UNL A   1      41.935  28.879  33.227  1.00  0.00     0.049 A 
ATOM     49  H   UNL A   1      40.441  30.143  32.516  1.00  0.00     0.167 HD
ATOM     50  C   UNL A   1      37.161  32.598  30.991  1.00  0.00     0.037 A 
ATOM     51  C   UNL A   1      42.328  29.363  34.419  1.00  0.00     0.037 A 
ATOM     52  C   UNL A   1      37.544  33.216  32.235  1.00  0.00     0.049 A 
ATOM     53  C   UNL A   1      41.690  30.612  34.949  1.00  0.00     0.074 A 
ATOM     54  C   UNL A   1      37.002  34.332  32.849  1.00  0.00     0.029 A 
ATOM     55  N   UNL A   1      38.563  32.762  33.057  1.00  0.00    -0.354 N 
ATOM     56  N   UNL A   1      40.709  31.317  34.442  1.00  0.00    -0.248 NA
ATOM     57  C   UNL A   1      42.229  31.143  36.208  1.00  0.00     0.031 C 
ATOM     58  C   UNL A   1      37.713  34.569  34.032  1.00  0.00     0.029 A 
ATOM     59  C   UNL A   1      38.678  33.585  34.165  1.00  0.00     0.049 A 
ATOM     60  H   UNL A   1      39.123  31.972  32.880  1.00  0.00     0.167 HD
ATOM     61  C   UNL A   1      40.516  32.378  35.314  1.00  0.00     0.074 A 
ATOM     62  C   UNL A   1      41.463  32.208  36.397  1.00  0.00     0.031 C 
ATOM     63  C   UNL A   1      39.639  33.407  35.221  1.00  0.00     0.037 A 
BRANCH  50  64
ATOM     64  C   UNL A   1      36.064  33.234  30.191  1.00  0.00     0.057 A 
ATOM     65  C   UNL A   1      36.364  34.028  29.077  1.00  0.00     0.134 A 
ATOM     66  C   UNL A   1      34.715  33.083  30.534  1.00  0.00     0.134 A 
ATOM     67  F   UNL A   1      37.637  34.214  28.697  1.00  0.00    -0.206 F 
ATOM     68  C   UNL A   1      35.361  34.649  28.331  1.00  0.00     0.040 A 
ATOM     69  C   UNL A   1      33.700  33.684  29.785  1.00  0.00     0.040 A 
ATOM     70  F   UNL A   1      34.361  32.322  31.581  1.00  0.00    -0.206 F 
ATOM     71  C   UNL A   1      34.024  34.474  28.682  1.00  0.00     0.006 A 
ENDBRANCH  50  64
BRANCH  51  72
ATOM     72  C   UNL A   1      43.386  28.663  35.183  1.00  0.00     0.057 A 
ATOM     73  C   UNL A   1      44.742  28.893  34.928  1.00  0.00     0.134 A 
ATOM     74  C   UNL A   1      43.060  27.733  36.174  1.00  0.00     0.134 A 
ATOM     75  F   UNL A   1      45.115  29.771  33.984  1.00  0.00    -0.206 F 
ATOM     76  C   UNL A   1      45.741  28.208  35.619  1.00  0.00     0.040 A 
ATOM     77  C   UNL A   1      44.048  27.055  36.889  1.00  0.00     0.040 A 
ATOM     78  F   UNL A   1      41.776  27.486  36.473  1.00  0.00    -0.206 F 
ATOM     79  C   UNL A   1      45.394  27.287  36.607  1.00  0.00     0.006 A 
ENDBRANCH  51  72
BRANCH  63  80
ATOM     80  C   UNL A   1      39.680  34.422  36.322  1.00  0.00     0.057 A 
ATOM     81  C   UNL A   1      38.973  34.219  37.512  1.00  0.00     0.134 A 
ATOM     82  C   UNL A   1      40.421  35.603  36.196  1.00  0.00     0.134 A 
ATOM     83  F   UNL A   1      38.243  33.108  37.691  1.00  0.00    -0.206 F 
ATOM     84  C   UNL A   1      39.006  35.158  38.544  1.00  0.00     0.040 A 
ATOM     85  C   UNL A   1      40.475  36.540  37.228  1.00  0.00     0.040 A 
ATOM     86  F   UNL A   1      41.133  35.843  35.084  1.00  0.00    -0.206 F 
ATOM     87  C   UNL A   1      39.763  36.319  38.405  1.00  0.00     0.006 A 
ENDBRANCH  63  80
ENDBRANCH  37  38
ENDBRANCH  29  32
ENDBRANCH  27  28
ENDBRANCH   1  27
TORSDOF 13
ENDMDL
MODEL 3
REMARK VINA RESULT:     -12.4      3.928      7.799
REMARK SMILES CC(C)(C)c1cc2c(cc1Cl)C=C(C(=O)NCCCCNC(=O)c1ccc(-c3c4nc(c(-c5c(F)cccc5F)c5ccc([nH]5)c(-c5c(F)cccc5F)c5nc(c(-c6c(F)cccc6F)c6ccc3[nH]6)C=C5)C=C4)cc1)[C@H](C(F)(F)F)O2
REMARK SMILES IDX 19 1 18 2 17 3 16 4 14 5 15 6 13 8 5 9 6 10 10 11 7 12 9 13
REMARK SMILES IDX 11 14 8 15 83 16 12 17 78 18 2 19 1 20 3 21 4 22 79 23 80 24
REMARK SMILES IDX 81 25 82 26 20 27 21 28 22 29 23 31 24 32 25 33 77 34 26 35
REMARK SMILES IDX 76 36 27 37 28 38 29 39 70 40 30 41 75 42 69 43 71 44 31 45
REMARK SMILES IDX 74 46 68 47 67 48 32 50 58 51 41 52 57 53 42 54 45 55 56 56
REMARK SMILES IDX 72 57 43 58 44 59 55 61 73 62 46 63 33 64 34 65 39 66 35 67
REMARK SMILES IDX 36 68 38 69 40 70 37 71 59 72 60 73 65 74 61 75 62 76 64 77
REMARK SMILES IDX 66 78 63 79 47 80 48 81 53 82 49 83 50 84 52 85 54 86 51 87
REMARK H PARENT 16 7 21 30 71 49 45 60
REMARK Flexibility Score: inf
ROOT
ATOM      1  C   UNL A   1      37.480  21.182  24.840  1.00  0.00     0.023 C 
ENDROOT
BRANCH   1   2
ATOM      2  C   UNL A   1      36.991  22.580  24.454  1.00  0.00     0.023 C 
BRANCH   2   3
ATOM      3  C   UNL A   1      36.616  23.474  25.636  1.00  0.00     0.116 C 
BRANCH   3   4
ATOM      4  N   UNL A   1      35.619  22.850  26.485  1.00  0.00    -0.352 N 
ATOM      5  C   UNL A   1      34.274  22.912  26.622  1.00  0.00     0.251 C 
ATOM      6  O   UNL A   1      33.797  22.119  27.441  1.00  0.00    -0.270 OA
ATOM      7  H   UNL A   1      36.024  22.223  27.125  1.00  0.00     0.163 HD
BRANCH   5   8
ATOM      8  C   UNL A   1      33.368  23.840  25.883  1.00  0.00     0.067 C 
ATOM      9  C   UNL A   1      30.995  27.992  24.148  1.00  0.00    -0.020 A 
ATOM     10  C   UNL A   1      30.838  26.595  23.996  1.00  0.00     0.053 A 
ATOM     11  C   UNL A   1      32.007  28.406  25.049  1.00  0.00     0.045 A 
ATOM     12  C   UNL A   1      31.641  25.678  24.677  1.00  0.00     0.128 A 
ATOM     13  C   UNL A   1      32.787  27.473  25.759  1.00  0.00     0.032 A 
ATOM     14  Cl  UNL A   1      32.410  30.058  25.370  1.00  0.00    -0.084 Cl
ATOM     15  C   UNL A   1      32.606  26.106  25.575  1.00  0.00     0.019 A 
ATOM     16  O   UNL A   1      31.410  24.351  24.435  1.00  0.00    -0.475 OA
ATOM     17  C   UNL A   1      33.391  25.119  26.304  1.00  0.00     0.025 C 
ATOM     18  C   UNL A   1      32.554  23.476  24.669  1.00  0.00     0.314 C 
BRANCH   9  19
ATOM     19  C   UNL A   1      30.094  28.954  23.331  1.00  0.00    -0.012 C 
ATOM     20  C   UNL A   1      28.722  28.301  23.055  1.00  0.00     0.016 C 
ATOM     21  C   UNL A   1      30.769  29.374  22.008  1.00  0.00     0.016 C 
ATOM     22  C   UNL A   1      29.781  30.287  24.069  1.00  0.00     0.016 C 
ENDBRANCH   9  19
BRANCH  18  23
ATOM     23  C   UNL A   1      33.389  23.335  23.384  1.00  0.00     0.429 C 
ATOM     24  F   UNL A   1      34.007  22.135  23.294  1.00  0.00    -0.167 F 
ATOM     25  F   UNL A   1      32.586  23.443  22.293  1.00  0.00    -0.167 F 
ATOM     26  F   UNL A   1      34.348  24.279  23.268  1.00  0.00    -0.167 F 
ENDBRANCH  18  23
ENDBRANCH   5   8
ENDBRANCH   3   4
ENDBRANCH   2   3
ENDBRANCH   1   2
BRANCH   1  27
ATOM     27  C   UNL A   1      38.702  21.154  25.749  1.00  0.00     0.116 C 
BRANCH  27  28
ATOM     28  N   UNL A   1      39.529  19.964  25.601  1.00  0.00    -0.352 N 
ATOM     29  C   UNL A   1      40.849  19.809  25.958  1.00  0.00     0.251 C 
ATOM     30  H   UNL A   1      39.092  19.179  25.197  1.00  0.00     0.163 HD
ATOM     31  O   UNL A   1      41.452  18.768  25.720  1.00  0.00    -0.269 OA
BRANCH  29  32
ATOM     32  C   UNL A   1      41.543  20.954  26.577  1.00  0.00     0.039 A 
ATOM     33  C   UNL A   1      41.497  21.134  27.959  1.00  0.00     0.014 A 
ATOM     34  C   UNL A   1      42.127  21.916  25.750  1.00  0.00     0.014 A 
ATOM     35  C   UNL A   1      41.866  22.359  28.497  1.00  0.00     0.010 A 
ATOM     36  C   UNL A   1      42.571  23.117  26.304  1.00  0.00     0.010 A 
ATOM     37  C   UNL A   1      42.384  23.372  27.672  1.00  0.00    -0.014 A 
BRANCH  37  38
ATOM     38  C   UNL A   1      42.673  24.704  28.256  1.00  0.00     0.031 A 
ATOM     39  C   UNL A   1      44.087  25.113  28.571  1.00  0.00     0.074 A 
ATOM     40  C   UNL A   1      41.664  25.578  28.429  1.00  0.00     0.049 A 
ATOM     41  N   UNL A   1      44.529  26.242  29.065  1.00  0.00    -0.248 NA
ATOM     42  C   UNL A   1      45.143  24.126  28.298  1.00  0.00     0.031 C 
ATOM     43  C   UNL A   1      40.255  25.307  28.138  1.00  0.00     0.029 A 
ATOM     44  N   UNL A   1      41.673  26.880  28.856  1.00  0.00    -0.354 N 
ATOM     45  C   UNL A   1      45.904  26.091  29.192  1.00  0.00     0.074 A 
ATOM     46  C   UNL A   1      46.226  24.756  28.735  1.00  0.00     0.031 C 
ATOM     47  C   UNL A   1      39.545  26.427  28.334  1.00  0.00     0.029 A 
ATOM     48  C   UNL A   1      40.436  27.474  28.821  1.00  0.00     0.049 A 
ATOM     49  H   UNL A   1      42.487  27.344  29.159  1.00  0.00     0.167 HD
ATOM     50  C   UNL A   1      46.817  26.986  29.640  1.00  0.00     0.037 A 
ATOM     51  C   UNL A   1      40.061  28.723  29.151  1.00  0.00     0.037 A 
ATOM     52  C   UNL A   1      46.504  28.327  30.059  1.00  0.00     0.049 A 
ATOM     53  C   UNL A   1      41.088  29.685  29.668  1.00  0.00     0.074 A 
ATOM     54  C   UNL A   1      47.363  29.317  30.505  1.00  0.00     0.029 A 
ATOM     55  N   UNL A   1      45.228  28.868  30.076  1.00  0.00    -0.354 N 
ATOM     56  N   UNL A   1      42.380  29.520  29.801  1.00  0.00    -0.248 NA
ATOM     57  C   UNL A   1      40.597  31.000  30.101  1.00  0.00     0.031 C 
ATOM     58  C   UNL A   1      46.602  30.450  30.817  1.00  0.00     0.029 A 
ATOM     59  C   UNL A   1      45.274  30.173  30.540  1.00  0.00     0.049 A 
ATOM     60  H   UNL A   1      44.410  28.395  29.799  1.00  0.00     0.167 HD
ATOM     61  C   UNL A   1      42.860  30.705  30.337  1.00  0.00     0.074 A 
ATOM     62  C   UNL A   1      41.722  31.591  30.480  1.00  0.00     0.031 C 
ATOM     63  C   UNL A   1      44.127  31.029  30.691  1.00  0.00     0.037 A 
BRANCH  50  64
ATOM     64  C   UNL A   1      48.244  26.532  29.720  1.00  0.00     0.057 A 
ATOM     65  C   UNL A   1      48.716  25.866  30.858  1.00  0.00     0.134 A 
ATOM     66  C   UNL A   1      49.156  26.773  28.686  1.00  0.00     0.134 A 
ATOM     67  F   UNL A   1      47.893  25.605  31.885  1.00  0.00    -0.206 F 
ATOM     68  C   UNL A   1      50.046  25.454  30.964  1.00  0.00     0.040 A 
ATOM     69  C   UNL A   1      50.486  26.351  28.772  1.00  0.00     0.040 A 
ATOM     70  F   UNL A   1      48.763  27.392  27.563  1.00  0.00    -0.206 F 
ATOM     71  C   UNL A   1      50.934  25.693  29.918  1.00  0.00     0.006 A 
ENDBRANCH  50  64
BRANCH  51  72
ATOM     72  C   UNL A   1      38.643  29.125  29.006  1.00  0.00     0.057 A 
ATOM     73  C   UNL A   1      38.139  29.595  27.788  1.00  0.00     0.134 A 
ATOM     74  C   UNL A   1      37.765  29.066  30.092  1.00  0.00     0.134 A 
ATOM     75  F   UNL A   1      38.936  29.678  26.712  1.00  0.00    -0.206 F 
ATOM     76  C   UNL A   1      36.814  30.009  27.658  1.00  0.00     0.040 A 
ATOM     77  C   UNL A   1      36.432  29.457  29.972  1.00  0.00     0.040 A 
ATOM     78  F   UNL A   1      38.189  28.608  31.279  1.00  0.00    -0.206 F 
ATOM     79  C   UNL A   1      35.954  29.938  28.753  1.00  0.00     0.006 A 
ENDBRANCH  51  72
BRANCH  63  80
ATOM     80  C   UNL A   1      44.333  32.395  31.268  1.00  0.00     0.057 A 
ATOM     81  C   UNL A   1      44.595  33.493  30.441  1.00  0.00     0.134 A 
ATOM     82  C   UNL A   1      44.273  32.618  32.649  1.00  0.00     0.134 A 
ATOM     83  F   UNL A   1      44.666  33.341  29.110  1.00  0.00    -0.206 F 
ATOM     84  C   UNL A   1      44.787  34.770  30.969  1.00  0.00     0.040 A 
ATOM     85  C   UNL A   1      44.446  33.893  33.188  1.00  0.00     0.040 A 
ATOM     86  F   UNL A   1      44.008  31.606  33.489  1.00  0.00    -0.206 F 
ATOM     87  C   UNL A   1      44.706  34.973  32.346  1.00  0.00     0.006 A 
ENDBRANCH  63  80
ENDBRANCH  37  38
ENDBRANCH  29  32
ENDBRANCH  27  28
ENDBRANCH   1  27
TORSDOF 13
ENDMDL
