MODEL 1
REMARK VINA RESULT:     -12.5      0.000      0.000
REMARK SMILES C[C@@]1(CN2C(=O)c3ccc(C(=O)NCCCCNC(=O)c4ccc(-c5c6nc(c(-c7c(F)cccc7F)c7ccc([nH]7)c(-c7c(F)cccc7F)c7nc(c(-c8c(F)cccc8F)c8ccc5[nH]8)C=C7)C=C6)cc4)cc3C2=O)CCCO1
REMARK SMILES IDX 15 1 14 2 13 3 11 4 12 5 10 7 4 8 5 9 77 10 6 11 7 12 76 13
REMARK SMILES IDX 78 14 8 15 75 16 9 17 3 18 2 19 1 20 79 21 82 22 80 23 81 24
REMARK SMILES IDX 16 25 17 26 18 27 19 28 20 30 21 31 22 32 74 33 23 34 73 35
REMARK SMILES IDX 24 36 25 37 26 38 67 39 27 40 72 41 66 42 68 43 28 44 71 45
REMARK SMILES IDX 65 46 64 47 29 49 55 50 38 51 54 52 39 53 42 54 53 55 69 56
REMARK SMILES IDX 40 57 41 58 52 60 70 61 43 62 30 63 31 64 36 65 32 66 33 67
REMARK SMILES IDX 35 68 37 69 34 70 56 71 57 72 62 73 58 74 59 75 61 76 63 77
REMARK SMILES IDX 60 78 44 79 45 80 50 81 46 82 47 83 49 84 51 85 48 86
REMARK H PARENT 13 6 18 29 68 48 42 59
REMARK Flexibility Score: inf
ROOT
ATOM      1  C   UNL A   1      36.733  19.297  25.001  1.00  0.00     0.023 C 
ENDROOT
BRANCH   1   2
ATOM      2  C   UNL A   1      35.505  20.214  25.001  1.00  0.00     0.116 C 
BRANCH   2   3
ATOM      3  N   UNL A   1      34.289  19.439  25.135  1.00  0.00    -0.352 N 
ATOM      4  C   UNL A   1      32.969  19.739  24.922  1.00  0.00     0.251 C 
ATOM      5  O   UNL A   1      32.153  18.834  25.100  1.00  0.00    -0.269 OA
ATOM      6  H   UNL A   1      34.441  18.515  25.439  1.00  0.00     0.163 HD
BRANCH   4   7
ATOM      7  C   UNL A   1      32.471  21.076  24.472  1.00  0.00     0.040 A 
ATOM      8  N   UNL A   1      30.956  25.396  24.998  1.00  0.00    -0.271 N 
ATOM      9  C   UNL A   1      31.153  24.990  23.712  1.00  0.00     0.261 C 
ATOM     10  C   UNL A   1      31.334  24.433  25.899  1.00  0.00     0.261 C 
ATOM     11  O   UNL A   1      31.023  25.609  22.670  1.00  0.00    -0.269 OA
ATOM     12  C   UNL A   1      31.594  23.608  23.778  1.00  0.00     0.053 A 
ATOM     13  C   UNL A   1      31.723  23.262  25.108  1.00  0.00     0.054 A 
ATOM     14  O   UNL A   1      31.403  24.490  27.109  1.00  0.00    -0.269 OA
ATOM     15  C   UNL A   1      31.883  22.735  22.757  1.00  0.00     0.015 A 
ATOM     16  C   UNL A   1      32.161  22.006  25.487  1.00  0.00     0.028 A 
ATOM     17  C   UNL A   1      32.348  21.470  23.119  1.00  0.00     0.015 A 
BRANCH   8  18
ATOM     18  C   UNL A   1      30.435  26.704  25.350  1.00  0.00     0.164 C 
BRANCH  18  19
ATOM     19  C   UNL A   1      31.540  27.714  25.776  1.00  0.00     0.084 C 
ATOM     20  C   UNL A   1      31.594  27.952  27.286  1.00  0.00     0.044 C 
ATOM     21  C   UNL A   1      31.374  29.042  25.033  1.00  0.00     0.039 C 
ATOM     22  O   UNL A   1      32.825  27.204  25.360  1.00  0.00    -0.373 OA
ATOM     23  C   UNL A   1      32.109  28.796  23.740  1.00  0.00     0.031 C 
ATOM     24  C   UNL A   1      33.245  27.892  24.173  1.00  0.00     0.161 C 
ENDBRANCH  18  19
ENDBRANCH   8  18
ENDBRANCH   4   7
ENDBRANCH   2   3
ENDBRANCH   1   2
BRANCH   1  25
ATOM     25  C   UNL A   1      38.038  20.002  24.626  1.00  0.00     0.023 C 
BRANCH  25  26
ATOM     26  C   UNL A   1      39.043  20.125  25.766  1.00  0.00     0.116 C 
BRANCH  26  27
ATOM     27  N   UNL A   1      40.058  19.083  25.751  1.00  0.00    -0.352 N 
ATOM     28  C   UNL A   1      41.407  19.204  25.969  1.00  0.00     0.251 C 
ATOM     29  H   UNL A   1      39.733  18.173  25.560  1.00  0.00     0.163 HD
ATOM     30  O   UNL A   1      42.152  18.245  25.795  1.00  0.00    -0.269 OA
BRANCH  28  31
ATOM     31  C   UNL A   1      41.956  20.512  26.375  1.00  0.00     0.039 A 
ATOM     32  C   UNL A   1      42.285  21.437  25.384  1.00  0.00     0.014 A 
ATOM     33  C   UNL A   1      42.113  20.834  27.726  1.00  0.00     0.014 A 
ATOM     34  C   UNL A   1      42.720  22.708  25.752  1.00  0.00     0.010 A 
ATOM     35  C   UNL A   1      42.460  22.130  28.091  1.00  0.00     0.010 A 
ATOM     36  C   UNL A   1      42.778  23.077  27.108  1.00  0.00    -0.014 A 
BRANCH  36  37
ATOM     37  C   UNL A   1      43.172  24.454  27.497  1.00  0.00     0.031 A 
ATOM     38  C   UNL A   1      44.611  24.886  27.424  1.00  0.00     0.074 A 
ATOM     39  C   UNL A   1      42.229  25.309  27.938  1.00  0.00     0.049 A 
ATOM     40  N   UNL A   1      45.133  26.058  27.683  1.00  0.00    -0.248 NA
ATOM     41  C   UNL A   1      45.596  23.865  27.033  1.00  0.00     0.031 C 
ATOM     42  C   UNL A   1      40.811  24.987  28.115  1.00  0.00     0.029 A 
ATOM     43  N   UNL A   1      42.319  26.626  28.308  1.00  0.00    -0.354 N 
ATOM     44  C   UNL A   1      46.501  25.913  27.489  1.00  0.00     0.074 A 
ATOM     45  C   UNL A   1      46.737  24.525  27.160  1.00  0.00     0.031 C 
ATOM     46  C   UNL A   1      40.156  26.089  28.513  1.00  0.00     0.029 A 
ATOM     47  C   UNL A   1      41.112  27.183  28.655  1.00  0.00     0.049 A 
ATOM     48  H   UNL A   1      43.167  27.126  28.323  1.00  0.00     0.167 HD
ATOM     49  C   UNL A   1      47.470  26.858  27.548  1.00  0.00     0.037 A 
ATOM     50  C   UNL A   1      40.808  28.437  29.037  1.00  0.00     0.037 A 
ATOM     51  C   UNL A   1      47.230  28.240  27.869  1.00  0.00     0.049 A 
ATOM     52  C   UNL A   1      41.902  29.466  29.098  1.00  0.00     0.074 A 
ATOM     53  C   UNL A   1      48.133  29.287  27.910  1.00  0.00     0.029 A 
ATOM     54  N   UNL A   1      45.993  28.767  28.215  1.00  0.00    -0.354 N 
ATOM     55  N   UNL A   1      43.179  29.334  28.831  1.00  0.00    -0.248 NA
ATOM     56  C   UNL A   1      41.508  30.823  29.499  1.00  0.00     0.031 C 
ATOM     57  C   UNL A   1      47.456  30.434  28.335  1.00  0.00     0.029 A 
ATOM     58  C   UNL A   1      46.116  30.120  28.493  1.00  0.00     0.049 A 
ATOM     59  H   UNL A   1      45.153  28.257  28.256  1.00  0.00     0.167 HD
ATOM     60  C   UNL A   1      43.736  30.597  29.000  1.00  0.00     0.074 A 
ATOM     61  C   UNL A   1      42.650  31.482  29.369  1.00  0.00     0.031 C 
ATOM     62  C   UNL A   1      45.027  30.988  28.862  1.00  0.00     0.037 A 
BRANCH  49  63
ATOM     63  C   UNL A   1      48.879  26.422  27.258  1.00  0.00     0.057 A 
ATOM     64  C   UNL A   1      49.748  25.994  28.271  1.00  0.00     0.134 A 
ATOM     65  C   UNL A   1      49.366  26.403  25.945  1.00  0.00     0.134 A 
ATOM     66  F   UNL A   1      49.352  26.000  29.554  1.00  0.00    -0.206 F 
ATOM     67  C   UNL A   1      51.057  25.596  27.994  1.00  0.00     0.040 A 
ATOM     68  C   UNL A   1      50.663  25.975  25.651  1.00  0.00     0.040 A 
ATOM     69  F   UNL A   1      48.589  26.794  24.923  1.00  0.00    -0.206 F 
ATOM     70  C   UNL A   1      51.515  25.577  26.679  1.00  0.00     0.006 A 
ENDBRANCH  49  63
BRANCH  50  71
ATOM     71  C   UNL A   1      39.403  28.800  29.358  1.00  0.00     0.057 A 
ATOM     72  C   UNL A   1      38.893  28.654  30.654  1.00  0.00     0.134 A 
ATOM     73  C   UNL A   1      38.532  29.287  28.375  1.00  0.00     0.134 A 
ATOM     74  F   UNL A   1      39.672  28.178  31.636  1.00  0.00    -0.206 F 
ATOM     75  C   UNL A   1      37.563  28.951  30.955  1.00  0.00     0.040 A 
ATOM     76  C   UNL A   1      37.209  29.617  28.669  1.00  0.00     0.040 A 
ATOM     77  F   UNL A   1      38.961  29.461  27.117  1.00  0.00    -0.206 F 
ATOM     78  C   UNL A   1      36.717  29.438  29.961  1.00  0.00     0.006 A 
ENDBRANCH  50  71
BRANCH  62  79
ATOM     79  C   UNL A   1      45.322  32.448  29.069  1.00  0.00     0.057 A 
ATOM     80  C   UNL A   1      45.707  32.963  30.315  1.00  0.00     0.134 A 
ATOM     81  C   UNL A   1      45.216  33.352  28.004  1.00  0.00     0.134 A 
ATOM     82  F   UNL A   1      45.816  32.155  31.381  1.00  0.00    -0.206 F 
ATOM     83  C   UNL A   1      45.929  34.328  30.503  1.00  0.00     0.040 A 
ATOM     84  C   UNL A   1      45.473  34.713  28.172  1.00  0.00     0.040 A 
ATOM     85  F   UNL A   1      44.867  32.927  26.781  1.00  0.00    -0.206 F 
ATOM     86  C   UNL A   1      45.816  35.207  29.428  1.00  0.00     0.006 A 
ENDBRANCH  62  79
ENDBRANCH  36  37
ENDBRANCH  28  31
ENDBRANCH  26  27
ENDBRANCH  25  26
ENDBRANCH   1  25
TORSDOF 13
ENDMDL
MODEL 2
REMARK VINA RESULT:     -12.5      0.899      1.273
REMARK SMILES C[C@@]1(CN2C(=O)c3ccc(C(=O)NCCCCNC(=O)c4ccc(-c5c6nc(c(-c7c(F)cccc7F)c7ccc([nH]7)c(-c7c(F)cccc7F)c7nc(c(-c8c(F)cccc8F)c8ccc5[nH]8)C=C7)C=C6)cc4)cc3C2=O)CCCO1
REMARK SMILES IDX 15 1 14 2 13 3 11 4 12 5 10 7 4 8 5 9 77 10 6 11 7 12 76 13
REMARK SMILES IDX 78 14 8 15 75 16 9 17 3 18 2 19 1 20 79 21 82 22 80 23 81 24
REMARK SMILES IDX 16 25 17 26 18 27 19 28 20 30 21 31 22 32 74 33 23 34 73 35
REMARK SMILES IDX 24 36 25 37 26 38 67 39 27 40 72 41 66 42 68 43 28 44 71 45
REMARK SMILES IDX 65 46 64 47 29 49 55 50 38 51 54 52 39 53 42 54 53 55 69 56
REMARK SMILES IDX 40 57 41 58 52 60 70 61 43 62 30 63 31 64 36 65 32 66 33 67
REMARK SMILES IDX 35 68 37 69 34 70 56 71 57 72 62 73 58 74 59 75 61 76 63 77
REMARK SMILES IDX 60 78 44 79 45 80 50 81 46 82 47 83 49 84 51 85 48 86
REMARK H PARENT 13 6 18 29 68 48 42 59
REMARK Flexibility Score: inf
ROOT
ATOM      1  C   UNL A   1      37.161  21.164  24.636  1.00  0.00     0.023 C 
ENDROOT
BRANCH   1   2
ATOM      2  C   UNL A   1      35.902  21.094  25.504  1.00  0.00     0.116 C 
BRANCH   2   3
ATOM      3  N   UNL A   1      34.996  20.078  25.010  1.00  0.00    -0.352 N 
ATOM      4  C   UNL A   1      33.698  20.124  24.572  1.00  0.00     0.251 C 
ATOM      5  O   UNL A   1      33.202  19.068  24.179  1.00  0.00    -0.269 OA
ATOM      6  H   UNL A   1      35.390  19.176  24.986  1.00  0.00     0.163 HD
BRANCH   4   7
ATOM      7  C   UNL A   1      32.869  21.368  24.524  1.00  0.00     0.040 A 
ATOM      8  N   UNL A   1      31.539  25.478  22.920  1.00  0.00    -0.271 N 
ATOM      9  C   UNL A   1      30.770  24.954  23.917  1.00  0.00     0.261 C 
ATOM     10  C   UNL A   1      32.532  24.614  22.536  1.00  0.00     0.261 C 
ATOM     11  O   UNL A   1      29.756  25.392  24.431  1.00  0.00    -0.269 OA
ATOM     12  C   UNL A   1      31.381  23.690  24.287  1.00  0.00     0.053 A 
ATOM     13  C   UNL A   1      32.448  23.464  23.442  1.00  0.00     0.054 A 
ATOM     14  O   UNL A   1      33.320  24.699  21.617  1.00  0.00    -0.269 OA
ATOM     15  C   UNL A   1      31.014  22.799  25.267  1.00  0.00     0.015 A 
ATOM     16  C   UNL A   1      33.209  22.313  23.533  1.00  0.00     0.028 A 
ATOM     17  C   UNL A   1      31.757  21.621  25.360  1.00  0.00     0.015 A 
BRANCH   8  18
ATOM     18  C   UNL A   1      31.299  26.783  22.331  1.00  0.00     0.164 C 
BRANCH  18  19
ATOM     19  C   UNL A   1      31.736  27.962  23.248  1.00  0.00     0.084 C 
ATOM     20  C   UNL A   1      30.560  28.681  23.913  1.00  0.00     0.044 C 
ATOM     21  C   UNL A   1      32.600  28.959  22.471  1.00  0.00     0.039 C 
ATOM     22  O   UNL A   1      32.593  27.451  24.292  1.00  0.00    -0.373 OA
ATOM     23  C   UNL A   1      33.981  28.367  22.589  1.00  0.00     0.031 C 
ATOM     24  C   UNL A   1      33.958  27.748  23.971  1.00  0.00     0.161 C 
ENDBRANCH  18  19
ENDBRANCH   8  18
ENDBRANCH   4   7
ENDBRANCH   2   3
ENDBRANCH   1   2
BRANCH   1  25
ATOM     25  C   UNL A   1      38.099  19.965  24.798  1.00  0.00     0.023 C 
BRANCH  25  26
ATOM     26  C   UNL A   1      39.151  20.126  25.889  1.00  0.00     0.116 C 
BRANCH  26  27
ATOM     27  N   UNL A   1      40.177  19.096  25.853  1.00  0.00    -0.352 N 
ATOM     28  C   UNL A   1      41.526  19.229  26.066  1.00  0.00     0.251 C 
ATOM     29  H   UNL A   1      39.862  18.186  25.650  1.00  0.00     0.163 HD
ATOM     30  O   UNL A   1      42.281  18.281  25.873  1.00  0.00    -0.269 OA
BRANCH  28  31
ATOM     31  C   UNL A   1      42.063  20.537  26.489  1.00  0.00     0.039 A 
ATOM     32  C   UNL A   1      42.439  21.455  25.508  1.00  0.00     0.014 A 
ATOM     33  C   UNL A   1      42.162  20.867  27.843  1.00  0.00     0.014 A 
ATOM     34  C   UNL A   1      42.863  22.726  25.888  1.00  0.00     0.010 A 
ATOM     35  C   UNL A   1      42.498  22.163  28.216  1.00  0.00     0.010 A 
ATOM     36  C   UNL A   1      42.863  23.103  27.243  1.00  0.00    -0.014 A 
BRANCH  36  37
ATOM     37  C   UNL A   1      43.246  24.480  27.641  1.00  0.00     0.031 A 
ATOM     38  C   UNL A   1      44.685  24.915  27.604  1.00  0.00     0.074 A 
ATOM     39  C   UNL A   1      42.291  25.334  28.059  1.00  0.00     0.049 A 
ATOM     40  N   UNL A   1      45.200  26.087  27.876  1.00  0.00    -0.248 NA
ATOM     41  C   UNL A   1      45.681  23.894  27.238  1.00  0.00     0.031 C 
ATOM     42  C   UNL A   1      40.870  25.010  28.202  1.00  0.00     0.029 A 
ATOM     43  N   UNL A   1      42.370  26.652  28.431  1.00  0.00    -0.354 N 
ATOM     44  C   UNL A   1      46.572  25.944  27.716  1.00  0.00     0.074 A 
ATOM     45  C   UNL A   1      46.817  24.556  27.392  1.00  0.00     0.031 C 
ATOM     46  C   UNL A   1      40.204  26.111  28.583  1.00  0.00     0.029 A 
ATOM     47  C   UNL A   1      41.154  27.207  28.748  1.00  0.00     0.049 A 
ATOM     48  H   UNL A   1      43.217  27.152  28.467  1.00  0.00     0.167 HD
ATOM     49  C   UNL A   1      47.538  26.889  27.799  1.00  0.00     0.037 A 
ATOM     50  C   UNL A   1      40.839  28.461  29.123  1.00  0.00     0.037 A 
ATOM     51  C   UNL A   1      47.288  28.271  28.114  1.00  0.00     0.049 A 
ATOM     52  C   UNL A   1      41.930  29.491  29.211  1.00  0.00     0.074 A 
ATOM     53  C   UNL A   1      48.189  29.319  28.176  1.00  0.00     0.029 A 
ATOM     54  N   UNL A   1      46.043  28.797  28.428  1.00  0.00    -0.354 N 
ATOM     55  N   UNL A   1      43.214  29.361  28.976  1.00  0.00    -0.248 NA
ATOM     56  C   UNL A   1      41.525  30.847  29.602  1.00  0.00     0.031 C 
ATOM     57  C   UNL A   1      47.500  30.466  28.585  1.00  0.00     0.029 A 
ATOM     58  C   UNL A   1      46.157  30.150  28.709  1.00  0.00     0.049 A 
ATOM     59  H   UNL A   1      45.203  28.285  28.449  1.00  0.00     0.167 HD
ATOM     60  C   UNL A   1      43.765  30.624  29.158  1.00  0.00     0.074 A 
ATOM     61  C   UNL A   1      42.669  31.508  29.500  1.00  0.00     0.031 C 
ATOM     62  C   UNL A   1      45.058  31.017  29.051  1.00  0.00     0.037 A 
BRANCH  49  63
ATOM     63  C   UNL A   1      48.954  26.456  27.543  1.00  0.00     0.057 A 
ATOM     64  C   UNL A   1      49.799  26.028  28.577  1.00  0.00     0.134 A 
ATOM     65  C   UNL A   1      49.474  26.439  26.242  1.00  0.00     0.134 A 
ATOM     66  F   UNL A   1      49.371  26.031  29.850  1.00  0.00    -0.206 F 
ATOM     67  C   UNL A   1      51.115  25.631  28.332  1.00  0.00     0.040 A 
ATOM     68  C   UNL A   1      50.778  26.012  25.980  1.00  0.00     0.040 A 
ATOM     69  F   UNL A   1      48.723  26.830  25.202  1.00  0.00    -0.206 F 
ATOM     70  C   UNL A   1      51.605  25.614  27.029  1.00  0.00     0.006 A 
ENDBRANCH  49  63
BRANCH  50  71
ATOM     71  C   UNL A   1      39.427  28.822  29.409  1.00  0.00     0.057 A 
ATOM     72  C   UNL A   1      38.886  28.677  30.693  1.00  0.00     0.134 A 
ATOM     73  C   UNL A   1      38.579  29.305  28.404  1.00  0.00     0.134 A 
ATOM     74  F   UNL A   1      39.642  28.205  31.694  1.00  0.00    -0.206 F 
ATOM     75  C   UNL A   1      37.549  28.972  30.961  1.00  0.00     0.040 A 
ATOM     76  C   UNL A   1      37.248  29.633  28.666  1.00  0.00     0.040 A 
ATOM     77  F   UNL A   1      39.038  29.477  27.157  1.00  0.00    -0.206 F 
ATOM     78  C   UNL A   1      36.726  29.456  29.946  1.00  0.00     0.006 A 
ENDBRANCH  50  71
BRANCH  62  79
ATOM     79  C   UNL A   1      45.346  32.477  29.266  1.00  0.00     0.057 A 
ATOM     80  C   UNL A   1      45.685  32.995  30.524  1.00  0.00     0.134 A 
ATOM     81  C   UNL A   1      45.281  33.379  28.196  1.00  0.00     0.134 A 
ATOM     82  F   UNL A   1      45.755  32.190  31.595  1.00  0.00    -0.206 F 
ATOM     83  C   UNL A   1      45.901  34.360  30.717  1.00  0.00     0.040 A 
ATOM     84  C   UNL A   1      45.532  34.740  28.369  1.00  0.00     0.040 A 
ATOM     85  F   UNL A   1      44.976  32.951  26.961  1.00  0.00    -0.206 F 
ATOM     86  C   UNL A   1      45.829  35.236  29.636  1.00  0.00     0.006 A 
ENDBRANCH  62  79
ENDBRANCH  36  37
ENDBRANCH  28  31
ENDBRANCH  26  27
ENDBRANCH  25  26
ENDBRANCH   1  25
TORSDOF 13
ENDMDL
MODEL 3
REMARK VINA RESULT:     -12.5      1.296      1.997
REMARK SMILES C[C@@]1(CN2C(=O)c3ccc(C(=O)NCCCCNC(=O)c4ccc(-c5c6nc(c(-c7c(F)cccc7F)c7ccc([nH]7)c(-c7c(F)cccc7F)c7nc(c(-c8c(F)cccc8F)c8ccc5[nH]8)C=C7)C=C6)cc4)cc3C2=O)CCCO1
REMARK SMILES IDX 15 1 14 2 13 3 11 4 12 5 10 7 4 8 5 9 77 10 6 11 7 12 76 13
REMARK SMILES IDX 78 14 8 15 75 16 9 17 3 18 2 19 1 20 79 21 82 22 80 23 81 24
REMARK SMILES IDX 16 25 17 26 18 27 19 28 20 30 21 31 22 32 74 33 23 34 73 35
REMARK SMILES IDX 24 36 25 37 26 38 67 39 27 40 72 41 66 42 68 43 28 44 71 45
REMARK SMILES IDX 65 46 64 47 29 49 55 50 38 51 54 52 39 53 42 54 53 55 69 56
REMARK SMILES IDX 40 57 41 58 52 60 70 61 43 62 30 63 31 64 36 65 32 66 33 67
REMARK SMILES IDX 35 68 37 69 34 70 56 71 57 72 62 73 58 74 59 75 61 76 63 77
REMARK SMILES IDX 60 78 44 79 45 80 50 81 46 82 47 83 49 84 51 85 48 86
REMARK H PARENT 13 6 18 29 68 48 42 59
REMARK Flexibility Score: inf
ROOT
ATOM      1  C   UNL A   1      36.647  21.054  24.852  1.00  0.00     0.023 C 
ENDROOT
BRANCH   1   2
ATOM      2  C   UNL A   1      35.184  20.599  24.872  1.00  0.00     0.116 C 
BRANCH   2   3
ATOM      3  N   UNL A   1      34.610  20.779  26.189  1.00  0.00    -0.352 N 
ATOM      4  C   UNL A   1      34.063  21.864  26.824  1.00  0.00     0.251 C 
ATOM      5  O   UNL A   1      33.625  21.685  27.960  1.00  0.00    -0.269 OA
ATOM      6  H   UNL A   1      34.614  19.961  26.736  1.00  0.00     0.163 HD
BRANCH   4   7
ATOM      7  C   UNL A   1      33.951  23.226  26.217  1.00  0.00     0.040 A 
ATOM      8  N   UNL A   1      31.800  27.085  24.907  1.00  0.00    -0.271 N 
ATOM      9  C   UNL A   1      33.152  27.072  24.732  1.00  0.00     0.261 C 
ATOM     10  C   UNL A   1      31.356  25.944  25.526  1.00  0.00     0.261 C 
ATOM     11  O   UNL A   1      33.892  27.944  24.312  1.00  0.00    -0.269 OA
ATOM     12  C   UNL A   1      33.613  25.768  25.176  1.00  0.00     0.053 A 
ATOM     13  C   UNL A   1      32.529  25.077  25.676  1.00  0.00     0.054 A 
ATOM     14  O   UNL A   1      30.248  25.666  25.934  1.00  0.00    -0.269 OA
ATOM     15  C   UNL A   1      34.883  25.243  25.165  1.00  0.00     0.015 A 
ATOM     16  C   UNL A   1      32.666  23.807  26.205  1.00  0.00     0.028 A 
ATOM     17  C   UNL A   1      35.045  23.971  25.716  1.00  0.00     0.015 A 
BRANCH   8  18
ATOM     18  C   UNL A   1      30.955  28.194  24.505  1.00  0.00     0.164 C 
BRANCH  18  19
ATOM     19  C   UNL A   1      30.359  28.029  23.076  1.00  0.00     0.084 C 
ATOM     20  C   UNL A   1      31.122  27.021  22.215  1.00  0.00     0.044 C 
ATOM     21  C   UNL A   1      30.275  29.382  22.365  1.00  0.00     0.039 C 
ATOM     22  O   UNL A   1      28.993  27.574  23.189  1.00  0.00    -0.373 OA
ATOM     23  C   UNL A   1      28.954  29.929  22.844  1.00  0.00     0.031 C 
ATOM     24  C   UNL A   1      28.107  28.680  22.973  1.00  0.00     0.161 C 
ENDBRANCH  18  19
ENDBRANCH   8  18
ENDBRANCH   4   7
ENDBRANCH   2   3
ENDBRANCH   1   2
BRANCH   1  25
ATOM     25  C   UNL A   1      37.657  19.915  25.006  1.00  0.00     0.023 C 
BRANCH  25  26
ATOM     26  C   UNL A   1      38.904  20.276  25.804  1.00  0.00     0.116 C 
BRANCH  26  27
ATOM     27  N   UNL A   1      39.915  19.232  25.793  1.00  0.00    -0.352 N 
ATOM     28  C   UNL A   1      41.258  19.342  26.050  1.00  0.00     0.251 C 
ATOM     29  H   UNL A   1      39.594  18.327  25.572  1.00  0.00     0.163 HD
ATOM     30  O   UNL A   1      42.005  18.384  25.874  1.00  0.00    -0.269 OA
BRANCH  28  31
ATOM     31  C   UNL A   1      41.801  20.638  26.501  1.00  0.00     0.039 A 
ATOM     32  C   UNL A   1      42.188  21.572  25.539  1.00  0.00     0.014 A 
ATOM     33  C   UNL A   1      41.894  20.941  27.861  1.00  0.00     0.014 A 
ATOM     34  C   UNL A   1      42.618  22.833  25.946  1.00  0.00     0.010 A 
ATOM     35  C   UNL A   1      42.236  22.228  28.261  1.00  0.00     0.010 A 
ATOM     36  C   UNL A   1      42.613  23.184  27.308  1.00  0.00    -0.014 A 
BRANCH  36  37
ATOM     37  C   UNL A   1      43.001  24.551  27.735  1.00  0.00     0.031 A 
ATOM     38  C   UNL A   1      44.447  24.966  27.746  1.00  0.00     0.074 A 
ATOM     39  C   UNL A   1      42.046  25.413  28.134  1.00  0.00     0.049 A 
ATOM     40  N   UNL A   1      44.969  26.128  28.047  1.00  0.00    -0.248 NA
ATOM     41  C   UNL A   1      45.439  23.937  27.397  1.00  0.00     0.031 C 
ATOM     42  C   UNL A   1      40.617  25.107  28.231  1.00  0.00     0.029 A 
ATOM     43  N   UNL A   1      42.132  26.725  28.525  1.00  0.00    -0.354 N 
ATOM     44  C   UNL A   1      46.343  25.968  27.926  1.00  0.00     0.074 A 
ATOM     45  C   UNL A   1      46.580  24.581  27.593  1.00  0.00     0.031 C 
ATOM     46  C   UNL A   1      39.955  26.212  28.606  1.00  0.00     0.029 A 
ATOM     47  C   UNL A   1      40.914  27.293  28.813  1.00  0.00     0.049 A 
ATOM     48  H   UNL A   1      42.983  27.213  28.592  1.00  0.00     0.167 HD
ATOM     49  C   UNL A   1      47.319  26.899  28.050  1.00  0.00     0.037 A 
ATOM     50  C   UNL A   1      40.605  28.546  29.194  1.00  0.00     0.037 A 
ATOM     51  C   UNL A   1      47.078  28.281  28.374  1.00  0.00     0.049 A 
ATOM     52  C   UNL A   1      41.707  29.560  29.327  1.00  0.00     0.074 A 
ATOM     53  C   UNL A   1      47.991  29.315  28.477  1.00  0.00     0.029 A 
ATOM     54  N   UNL A   1      45.831  28.819  28.658  1.00  0.00    -0.354 N 
ATOM     55  N   UNL A   1      42.995  29.415  29.128  1.00  0.00    -0.248 NA
ATOM     56  C   UNL A   1      41.308  30.917  29.723  1.00  0.00     0.031 C 
ATOM     57  C   UNL A   1      47.305  30.466  28.879  1.00  0.00     0.029 A 
ATOM     58  C   UNL A   1      45.955  30.167  28.959  1.00  0.00     0.049 A 
ATOM     59  H   UNL A   1      44.984  28.319  28.647  1.00  0.00     0.167 HD
ATOM     60  C   UNL A   1      43.557  30.668  29.343  1.00  0.00     0.074 A 
ATOM     61  C   UNL A   1      42.463  31.563  29.663  1.00  0.00     0.031 C 
ATOM     62  C   UNL A   1      44.858  31.045  29.279  1.00  0.00     0.037 A 
BRANCH  49  63
ATOM     63  C   UNL A   1      48.736  26.449  27.830  1.00  0.00     0.057 A 
ATOM     64  C   UNL A   1      49.543  25.997  28.884  1.00  0.00     0.134 A 
ATOM     65  C   UNL A   1      49.295  26.442  26.546  1.00  0.00     0.134 A 
ATOM     66  F   UNL A   1      49.077  25.990  30.143  1.00  0.00    -0.206 F 
ATOM     67  C   UNL A   1      50.861  25.585  28.674  1.00  0.00     0.040 A 
ATOM     68  C   UNL A   1      50.600  26.000  26.318  1.00  0.00     0.040 A 
ATOM     69  F   UNL A   1      48.580  26.857  25.489  1.00  0.00    -0.206 F 
ATOM     70  C   UNL A   1      51.390  25.578  27.385  1.00  0.00     0.006 A 
ENDBRANCH  49  63
BRANCH  50  71
ATOM     71  C   UNL A   1      39.189  28.923  29.442  1.00  0.00     0.057 A 
ATOM     72  C   UNL A   1      38.601  28.746  30.700  1.00  0.00     0.134 A 
ATOM     73  C   UNL A   1      38.386  29.454  28.425  1.00  0.00     0.134 A 
ATOM     74  F   UNL A   1      39.313  28.227  31.712  1.00  0.00    -0.206 F 
ATOM     75  C   UNL A   1      37.260  29.056  30.932  1.00  0.00     0.040 A 
ATOM     76  C   UNL A   1      37.053  29.798  28.651  1.00  0.00     0.040 A 
ATOM     77  F   UNL A   1      38.892  29.659  27.201  1.00  0.00    -0.206 F 
ATOM     78  C   UNL A   1      36.482  29.588  29.905  1.00  0.00     0.006 A 
ENDBRANCH  50  71
BRANCH  62  79
ATOM     79  C   UNL A   1      45.159  32.499  29.521  1.00  0.00     0.057 A 
ATOM     80  C   UNL A   1      45.103  33.454  28.496  1.00  0.00     0.134 A 
ATOM     81  C   UNL A   1      45.511  32.948  30.800  1.00  0.00     0.134 A 
ATOM     82  F   UNL A   1      44.783  33.090  27.245  1.00  0.00    -0.206 F 
ATOM     83  C   UNL A   1      45.433  34.790  28.725  1.00  0.00     0.040 A 
ATOM     84  C   UNL A   1      45.806  34.288  31.050  1.00  0.00     0.040 A 
ATOM     85  F   UNL A   1      45.570  32.092  31.832  1.00  0.00    -0.206 F 
ATOM     86  C   UNL A   1      45.782  35.211  30.007  1.00  0.00     0.006 A 
ENDBRANCH  62  79
ENDBRANCH  36  37
ENDBRANCH  28  31
ENDBRANCH  26  27
ENDBRANCH  25  26
ENDBRANCH   1  25
TORSDOF 13
ENDMDL
