MODEL 1
REMARK VINA RESULT:     -10.2      0.000      0.000
REMARK SMILES Cc1nnc(SCCC(=O)NCCCCNC(=O)c2ccc(-c3c4nc(c(-c5c(F)cccc5F)c5ccc([nH]5)c(-c5c(F)cccc5F)c5nc(c(-c6c(F)cccc6F)c6ccc3[nH]6)C=C5)C=C4)cc2)s1
REMARK SMILES IDX 13 1 12 2 11 3 9 4 10 5 8 7 7 8 6 9 5 10 1 11 2 12 3 13
REMARK SMILES IDX 73 14 4 15 14 16 15 17 16 18 17 19 18 21 19 22 20 23 72 24
REMARK SMILES IDX 21 25 71 26 22 27 23 28 24 29 65 30 25 31 70 32 64 33 66 34
REMARK SMILES IDX 26 35 69 36 63 37 62 38 27 40 53 41 36 42 52 43 37 44 40 45
REMARK SMILES IDX 51 46 67 47 38 48 39 49 50 51 68 52 41 53 28 54 29 55 34 56
REMARK SMILES IDX 30 57 31 58 33 59 35 60 32 61 54 62 55 63 60 64 56 65 57 66
REMARK SMILES IDX 59 67 61 68 58 69 42 70 43 71 48 72 44 73 45 74 47 75 49 76
REMARK SMILES IDX 46 77
REMARK H PARENT 11 6 16 20 66 39 40 50
REMARK Flexibility Score: inf
ROOT
ATOM      1  C   UNL A   1      36.326  19.920  24.927  1.00  0.00     0.023 C 
ENDROOT
BRANCH   1   2
ATOM      2  C   UNL A   1      36.243  21.346  25.472  1.00  0.00     0.116 C 
BRANCH   2   3
ATOM      3  N   UNL A   1      35.372  21.484  26.624  1.00  0.00    -0.356 N 
ATOM      4  C   UNL A   1      34.094  21.946  26.708  1.00  0.00     0.220 C 
ATOM      5  O   UNL A   1      33.468  21.762  27.752  1.00  0.00    -0.275 OA
ATOM      6  H   UNL A   1      35.767  21.198  27.478  1.00  0.00     0.163 HD
BRANCH   4   7
ATOM      7  C   UNL A   1      33.452  22.628  25.523  1.00  0.00     0.111 C 
BRANCH   7   8
ATOM      8  C   UNL A   1      32.198  21.897  25.045  1.00  0.00     0.087 C 
BRANCH   8   9
ATOM      9  S   UNL A   1      32.487  20.772  23.635  1.00  0.00    -0.093 SA
BRANCH   9  10
ATOM     10  C   UNL A   1      32.682  19.224  24.420  1.00  0.00     0.174 A 
ATOM     11  C   UNL A   1      32.867  15.451  25.065  1.00  0.00     0.081 C 
ATOM     12  C   UNL A   1      32.847  16.935  25.026  1.00  0.00     0.115 A 
ATOM     13  N   UNL A   1      32.505  17.694  26.044  1.00  0.00    -0.143 NA
ATOM     14  S   UNL A   1      33.184  17.810  23.584  1.00  0.00    -0.091 S 
ATOM     15  N   UNL A   1      32.427  19.026  25.693  1.00  0.00    -0.132 NA
ENDBRANCH   9  10
ENDBRANCH   8   9
ENDBRANCH   7   8
ENDBRANCH   4   7
ENDBRANCH   2   3
ENDBRANCH   1   2
BRANCH   1  16
ATOM     16  C   UNL A   1      37.750  19.378  24.786  1.00  0.00     0.023 C 
BRANCH  16  17
ATOM     17  C   UNL A   1      38.770  19.962  25.753  1.00  0.00     0.116 C 
BRANCH  17  18
ATOM     18  N   UNL A   1      39.999  19.188  25.784  1.00  0.00    -0.352 N 
ATOM     19  C   UNL A   1      41.292  19.565  26.055  1.00  0.00     0.251 C 
ATOM     20  H   UNL A   1      39.886  18.232  25.574  1.00  0.00     0.163 HD
ATOM     21  O   UNL A   1      42.203  18.777  25.810  1.00  0.00    -0.269 OA
BRANCH  19  22
ATOM     22  C   UNL A   1      41.620  20.897  26.627  1.00  0.00     0.039 A 
ATOM     23  C   UNL A   1      41.966  21.933  25.751  1.00  0.00     0.014 A 
ATOM     24  C   UNL A   1      41.674  21.122  28.003  1.00  0.00     0.014 A 
ATOM     25  C   UNL A   1      42.330  23.189  26.251  1.00  0.00     0.010 A 
ATOM     26  C   UNL A   1      41.944  22.398  28.499  1.00  0.00     0.010 A 
ATOM     27  C   UNL A   1      42.304  23.439  27.631  1.00  0.00    -0.014 A 
BRANCH  27  28
ATOM     28  C   UNL A   1      42.713  24.755  28.192  1.00  0.00     0.031 A 
ATOM     29  C   UNL A   1      41.675  25.819  28.448  1.00  0.00     0.074 A 
ATOM     30  C   UNL A   1      44.012  25.023  28.422  1.00  0.00     0.049 A 
ATOM     31  N   UNL A   1      41.835  27.060  28.834  1.00  0.00    -0.248 NA
ATOM     32  C   UNL A   1      40.273  25.447  28.200  1.00  0.00     0.031 C 
ATOM     33  C   UNL A   1      45.124  24.100  28.188  1.00  0.00     0.029 A 
ATOM     34  N   UNL A   1      44.618  26.159  28.900  1.00  0.00    -0.354 N 
ATOM     35  C   UNL A   1      40.564  27.622  28.838  1.00  0.00     0.074 A 
ATOM     36  C   UNL A   1      39.650  26.603  28.373  1.00  0.00     0.031 C 
ATOM     37  C   UNL A   1      46.273  24.697  28.548  1.00  0.00     0.029 A 
ATOM     38  C   UNL A   1      45.984  26.053  29.002  1.00  0.00     0.049 A 
ATOM     39  H   UNL A   1      44.121  26.973  29.147  1.00  0.00     0.167 HD
ATOM     40  C   UNL A   1      40.186  28.867  29.216  1.00  0.00     0.037 A 
ATOM     41  C   UNL A   1      46.901  26.950  29.414  1.00  0.00     0.037 A 
ATOM     42  C   UNL A   1      41.083  29.864  29.736  1.00  0.00     0.049 A 
ATOM     43  C   UNL A   1      46.456  28.315  29.857  1.00  0.00     0.074 A 
ATOM     44  C   UNL A   1      40.784  31.125  30.221  1.00  0.00     0.029 A 
ATOM     45  N   UNL A   1      42.456  29.706  29.848  1.00  0.00    -0.354 N 
ATOM     46  N   UNL A   1      45.245  28.815  29.902  1.00  0.00    -0.248 NA
ATOM     47  C   UNL A   1      47.505  29.240  30.309  1.00  0.00     0.031 C 
ATOM     48  C   UNL A   1      41.982  31.743  30.600  1.00  0.00     0.029 A 
ATOM     49  C   UNL A   1      43.020  30.852  30.381  1.00  0.00     0.049 A 
ATOM     50  H   UNL A   1      42.955  28.899  29.587  1.00  0.00     0.167 HD
ATOM     51  C   UNL A   1      45.383  30.101  30.407  1.00  0.00     0.074 A 
ATOM     52  C   UNL A   1      46.795  30.301  30.665  1.00  0.00     0.031 C 
ATOM     53  C   UNL A   1      44.427  31.033  30.637  1.00  0.00     0.037 A 
BRANCH  40  54
ATOM     54  C   UNL A   1      38.731  29.216  29.083  1.00  0.00     0.057 A 
ATOM     55  C   UNL A   1      37.856  29.174  30.176  1.00  0.00     0.134 A 
ATOM     56  C   UNL A   1      38.204  29.614  27.849  1.00  0.00     0.134 A 
ATOM     57  F   UNL A   1      38.295  28.788  31.384  1.00  0.00    -0.206 F 
ATOM     58  C   UNL A   1      36.501  29.482  30.039  1.00  0.00     0.040 A 
ATOM     59  C   UNL A   1      36.857  29.951  27.705  1.00  0.00     0.040 A 
ATOM     60  F   UNL A   1      38.988  29.683  26.762  1.00  0.00    -0.206 F 
ATOM     61  C   UNL A   1      35.999  29.877  28.801  1.00  0.00     0.006 A 
ENDBRANCH  40  54
BRANCH  41  62
ATOM     62  C   UNL A   1      48.334  26.569  29.459  1.00  0.00     0.057 A 
ATOM     63  C   UNL A   1      49.190  26.871  28.393  1.00  0.00     0.134 A 
ATOM     64  C   UNL A   1      48.884  25.907  30.562  1.00  0.00     0.134 A 
ATOM     65  F   UNL A   1      48.715  27.489  27.301  1.00  0.00    -0.206 F 
ATOM     66  C   UNL A   1      50.539  26.519  28.417  1.00  0.00     0.040 A 
ATOM     67  C   UNL A   1      50.237  25.566  30.609  1.00  0.00     0.040 A 
ATOM     68  F   UNL A   1      48.117  25.597  31.618  1.00  0.00    -0.206 F 
ATOM     69  C   UNL A   1      51.068  25.869  29.531  1.00  0.00     0.006 A 
ENDBRANCH  41  62
BRANCH  53  70
ATOM     70  C   UNL A   1      44.870  32.340  31.221  1.00  0.00     0.057 A 
ATOM     71  C   UNL A   1      44.958  32.537  32.603  1.00  0.00     0.134 A 
ATOM     72  C   UNL A   1      45.252  33.400  30.388  1.00  0.00     0.134 A 
ATOM     73  F   UNL A   1      44.595  31.566  33.453  1.00  0.00    -0.206 F 
ATOM     74  C   UNL A   1      45.394  33.751  33.139  1.00  0.00     0.040 A 
ATOM     75  C   UNL A   1      45.709  34.609  30.911  1.00  0.00     0.040 A 
ATOM     76  F   UNL A   1      45.197  33.271  29.054  1.00  0.00    -0.206 F 
ATOM     77  C   UNL A   1      45.776  34.789  32.292  1.00  0.00     0.006 A 
ENDBRANCH  53  70
ENDBRANCH  27  28
ENDBRANCH  19  22
ENDBRANCH  17  18
ENDBRANCH  16  17
ENDBRANCH   1  16
TORSDOF 14
ENDMDL
MODEL 2
REMARK VINA RESULT:     -10.1      5.398      8.156
REMARK SMILES Cc1nnc(SCCC(=O)NCCCCNC(=O)c2ccc(-c3c4nc(c(-c5c(F)cccc5F)c5ccc([nH]5)c(-c5c(F)cccc5F)c5nc(c(-c6c(F)cccc6F)c6ccc3[nH]6)C=C5)C=C4)cc2)s1
REMARK SMILES IDX 13 1 12 2 11 3 9 4 10 5 8 7 7 8 6 9 5 10 1 11 2 12 3 13
REMARK SMILES IDX 73 14 4 15 14 16 15 17 16 18 17 19 18 21 19 22 20 23 72 24
REMARK SMILES IDX 21 25 71 26 22 27 23 28 24 29 65 30 25 31 70 32 64 33 66 34
REMARK SMILES IDX 26 35 69 36 63 37 62 38 27 40 53 41 36 42 52 43 37 44 40 45
REMARK SMILES IDX 51 46 67 47 38 48 39 49 50 51 68 52 41 53 28 54 29 55 34 56
REMARK SMILES IDX 30 57 31 58 33 59 35 60 32 61 54 62 55 63 60 64 56 65 57 66
REMARK SMILES IDX 59 67 61 68 58 69 42 70 43 71 48 72 44 73 45 74 47 75 49 76
REMARK SMILES IDX 46 77
REMARK H PARENT 11 6 16 20 66 39 40 50
REMARK Flexibility Score: inf
ROOT
ATOM      1  C   UNL A   1      42.076  21.433  27.093  1.00  0.00     0.023 C 
ENDROOT
BRANCH   1   2
ATOM      2  C   UNL A   1      41.420  20.285  26.327  1.00  0.00     0.116 C 
BRANCH   2   3
ATOM      3  N   UNL A   1      41.922  18.974  26.691  1.00  0.00    -0.356 N 
ATOM      4  C   UNL A   1      43.032  18.309  26.265  1.00  0.00     0.220 C 
ATOM      5  O   UNL A   1      43.387  17.302  26.877  1.00  0.00    -0.275 OA
ATOM      6  H   UNL A   1      41.375  18.488  27.349  1.00  0.00     0.163 HD
BRANCH   4   7
ATOM      7  C   UNL A   1      43.829  18.832  25.094  1.00  0.00     0.111 C 
BRANCH   7   8
ATOM      8  C   UNL A   1      45.332  18.838  25.374  1.00  0.00     0.087 C 
BRANCH   8   9
ATOM      9  S   UNL A   1      46.273  20.020  24.348  1.00  0.00    -0.093 SA
BRANCH   9  10
ATOM     10  C   UNL A   1      45.713  21.565  24.942  1.00  0.00     0.174 A 
ATOM     11  C   UNL A   1      44.491  25.193  25.102  1.00  0.00     0.081 C 
ATOM     12  C   UNL A   1      44.944  23.788  25.257  1.00  0.00     0.115 A 
ATOM     13  N   UNL A   1      45.598  23.336  26.305  1.00  0.00    -0.143 NA
ATOM     14  S   UNL A   1      44.732  22.623  24.010  1.00  0.00    -0.091 S 
ATOM     15  N   UNL A   1      46.028  22.038  26.125  1.00  0.00    -0.132 NA
ENDBRANCH   9  10
ENDBRANCH   8   9
ENDBRANCH   7   8
ENDBRANCH   4   7
ENDBRANCH   2   3
ENDBRANCH   1   2
BRANCH   1  16
ATOM     16  C   UNL A   1      41.126  22.210  28.006  1.00  0.00     0.023 C 
BRANCH  16  17
ATOM     17  C   UNL A   1      40.102  23.082  27.294  1.00  0.00     0.116 C 
BRANCH  17  18
ATOM     18  N   UNL A   1      40.700  23.865  26.226  1.00  0.00    -0.352 N 
ATOM     19  C   UNL A   1      40.871  25.221  26.093  1.00  0.00     0.251 C 
ATOM     20  H   UNL A   1      41.039  23.332  25.469  1.00  0.00     0.163 HD
ATOM     21  O   UNL A   1      41.211  25.671  25.001  1.00  0.00    -0.269 OA
BRANCH  19  22
ATOM     22  C   UNL A   1      40.649  26.157  27.225  1.00  0.00     0.039 A 
ATOM     23  C   UNL A   1      41.371  27.357  27.252  1.00  0.00     0.014 A 
ATOM     24  C   UNL A   1      39.813  25.842  28.298  1.00  0.00     0.014 A 
ATOM     25  C   UNL A   1      41.229  28.243  28.326  1.00  0.00     0.010 A 
ATOM     26  C   UNL A   1      39.599  26.767  29.321  1.00  0.00     0.010 A 
ATOM     27  C   UNL A   1      40.326  27.965  29.363  1.00  0.00    -0.014 A 
BRANCH  27  28
ATOM     28  C   UNL A   1      40.175  28.875  30.530  1.00  0.00     0.031 A 
ATOM     29  C   UNL A   1      39.114  29.947  30.516  1.00  0.00     0.074 A 
ATOM     30  C   UNL A   1      41.017  28.785  31.577  1.00  0.00     0.049 A 
ATOM     31  N   UNL A   1      38.886  30.901  31.383  1.00  0.00    -0.248 NA
ATOM     32  C   UNL A   1      38.213  29.970  29.353  1.00  0.00     0.031 C 
ATOM     33  C   UNL A   1      42.109  27.819  31.707  1.00  0.00     0.029 A 
ATOM     34  N   UNL A   1      41.087  29.524  32.732  1.00  0.00    -0.354 N 
ATOM     35  C   UNL A   1      37.846  31.655  30.852  1.00  0.00     0.074 A 
ATOM     36  C   UNL A   1      37.518  31.076  29.568  1.00  0.00     0.031 C 
ATOM     37  C   UNL A   1      42.723  28.007  32.887  1.00  0.00     0.029 A 
ATOM     38  C   UNL A   1      42.093  29.128  33.579  1.00  0.00     0.049 A 
ATOM     39  H   UNL A   1      40.474  30.268  32.934  1.00  0.00     0.167 HD
ATOM     40  C   UNL A   1      37.205  32.720  31.392  1.00  0.00     0.037 A 
ATOM     41  C   UNL A   1      42.468  29.615  34.778  1.00  0.00     0.037 A 
ATOM     42  C   UNL A   1      37.488  33.261  32.694  1.00  0.00     0.049 A 
ATOM     43  C   UNL A   1      41.724  30.777  35.371  1.00  0.00     0.074 A 
ATOM     44  C   UNL A   1      36.840  34.285  33.362  1.00  0.00     0.029 A 
ATOM     45  N   UNL A   1      38.498  32.813  33.531  1.00  0.00    -0.354 N 
ATOM     46  N   UNL A   1      40.711  31.447  34.879  1.00  0.00    -0.248 NA
ATOM     47  C   UNL A   1      42.174  31.250  36.689  1.00  0.00     0.031 C 
ATOM     48  C   UNL A   1      37.479  34.477  34.593  1.00  0.00     0.029 A 
ATOM     49  C   UNL A   1      38.501  33.549  34.703  1.00  0.00     0.049 A 
ATOM     50  H   UNL A   1      39.121  32.080  33.322  1.00  0.00     0.167 HD
ATOM     51  C   UNL A   1      40.387  32.403  35.833  1.00  0.00     0.074 A 
ATOM     52  C   UNL A   1      41.304  32.218  36.939  1.00  0.00     0.031 C 
ATOM     53  C   UNL A   1      39.417  33.348  35.797  1.00  0.00     0.037 A 
BRANCH  40  54
ATOM     54  C   UNL A   1      36.127  33.365  30.569  1.00  0.00     0.057 A 
ATOM     55  C   UNL A   1      36.423  34.207  29.489  1.00  0.00     0.134 A 
ATOM     56  C   UNL A   1      34.776  33.128  30.852  1.00  0.00     0.134 A 
ATOM     57  F   UNL A   1      37.697  34.484  29.173  1.00  0.00    -0.206 F 
ATOM     58  C   UNL A   1      35.414  34.817  28.741  1.00  0.00     0.040 A 
ATOM     59  C   UNL A   1      33.759  33.711  30.095  1.00  0.00     0.040 A 
ATOM     60  F   UNL A   1      34.423  32.327  31.868  1.00  0.00    -0.206 F 
ATOM     61  C   UNL A   1      34.077  34.565  29.040  1.00  0.00     0.006 A 
ENDBRANCH  40  54
BRANCH  41  62
ATOM     62  C   UNL A   1      43.588  28.977  35.514  1.00  0.00     0.057 A 
ATOM     63  C   UNL A   1      43.352  27.923  36.404  1.00  0.00     0.134 A 
ATOM     64  C   UNL A   1      44.912  29.395  35.343  1.00  0.00     0.134 A 
ATOM     65  F   UNL A   1      42.100  27.492  36.623  1.00  0.00    -0.206 F 
ATOM     66  C   UNL A   1      44.391  27.313  37.106  1.00  0.00     0.040 A 
ATOM     67  C   UNL A   1      45.964  28.780  36.023  1.00  0.00     0.040 A 
ATOM     68  F   UNL A   1      45.203  30.395  34.498  1.00  0.00    -0.206 F 
ATOM     69  C   UNL A   1      45.704  27.738  36.911  1.00  0.00     0.006 A 
ENDBRANCH  41  62
BRANCH  53  70
ATOM     70  C   UNL A   1      39.280  34.236  36.997  1.00  0.00     0.057 A 
ATOM     71  C   UNL A   1      38.631  33.807  38.160  1.00  0.00     0.134 A 
ATOM     72  C   UNL A   1      39.840  35.520  37.002  1.00  0.00     0.134 A 
ATOM     73  F   UNL A   1      38.063  32.593  38.213  1.00  0.00    -0.206 F 
ATOM     74  C   UNL A   1      38.527  34.631  39.282  1.00  0.00     0.040 A 
ATOM     75  C   UNL A   1      39.762  36.345  38.124  1.00  0.00     0.040 A 
ATOM     76  F   UNL A   1      40.482  35.987  35.920  1.00  0.00    -0.206 F 
ATOM     77  C   UNL A   1      39.099  35.902  39.268  1.00  0.00     0.006 A 
ENDBRANCH  53  70
ENDBRANCH  27  28
ENDBRANCH  19  22
ENDBRANCH  17  18
ENDBRANCH  16  17
ENDBRANCH   1  16
TORSDOF 14
ENDMDL
MODEL 3
REMARK VINA RESULT:      -9.8      5.885     10.432
REMARK SMILES Cc1nnc(SCCC(=O)NCCCCNC(=O)c2ccc(-c3c4nc(c(-c5c(F)cccc5F)c5ccc([nH]5)c(-c5c(F)cccc5F)c5nc(c(-c6c(F)cccc6F)c6ccc3[nH]6)C=C5)C=C4)cc2)s1
REMARK SMILES IDX 13 1 12 2 11 3 9 4 10 5 8 7 7 8 6 9 5 10 1 11 2 12 3 13
REMARK SMILES IDX 73 14 4 15 14 16 15 17 16 18 17 19 18 21 19 22 20 23 72 24
REMARK SMILES IDX 21 25 71 26 22 27 23 28 24 29 65 30 25 31 70 32 64 33 66 34
REMARK SMILES IDX 26 35 69 36 63 37 62 38 27 40 53 41 36 42 52 43 37 44 40 45
REMARK SMILES IDX 51 46 67 47 38 48 39 49 50 51 68 52 41 53 28 54 29 55 34 56
REMARK SMILES IDX 30 57 31 58 33 59 35 60 32 61 54 62 55 63 60 64 56 65 57 66
REMARK SMILES IDX 59 67 61 68 58 69 42 70 43 71 48 72 44 73 45 74 47 75 49 76
REMARK SMILES IDX 46 77
REMARK H PARENT 11 6 16 20 66 39 40 50
REMARK Flexibility Score: inf
ROOT
ATOM      1  C   UNL A   1      31.280  31.091  25.765  1.00  0.00     0.023 C 
ENDROOT
BRANCH   1   2
ATOM      2  C   UNL A   1      32.366  30.023  25.893  1.00  0.00     0.116 C 
BRANCH   2   3
ATOM      3  N   UNL A   1      33.092  29.774  24.662  1.00  0.00    -0.356 N 
ATOM      4  C   UNL A   1      33.266  28.617  23.965  1.00  0.00     0.220 C 
ATOM      5  O   UNL A   1      33.729  28.680  22.826  1.00  0.00    -0.275 OA
ATOM      6  H   UNL A   1      33.526  30.564  24.269  1.00  0.00     0.163 HD
BRANCH   4   7
ATOM      7  C   UNL A   1      32.856  27.295  24.568  1.00  0.00     0.111 C 
BRANCH   7   8
ATOM      8  C   UNL A   1      31.341  27.091  24.537  1.00  0.00     0.087 C 
BRANCH   8   9
ATOM      9  S   UNL A   1      30.644  26.956  22.854  1.00  0.00    -0.093 SA
BRANCH   9  10
ATOM     10  C   UNL A   1      29.419  28.201  22.850  1.00  0.00     0.174 A 
ATOM     11  C   UNL A   1      27.652  31.590  23.130  1.00  0.00     0.081 C 
ATOM     12  C   UNL A   1      28.141  30.197  22.967  1.00  0.00     0.115 A 
ATOM     13  N   UNL A   1      27.415  29.128  23.210  1.00  0.00    -0.143 NA
ATOM     14  S   UNL A   1      29.768  29.852  22.529  1.00  0.00    -0.091 S 
ATOM     15  N   UNL A   1      28.157  27.968  23.123  1.00  0.00    -0.132 NA
ENDBRANCH   9  10
ENDBRANCH   8   9
ENDBRANCH   7   8
ENDBRANCH   4   7
ENDBRANCH   2   3
ENDBRANCH   1   2
BRANCH   1  16
ATOM     16  C   UNL A   1      31.295  32.146  26.873  1.00  0.00     0.023 C 
BRANCH  16  17
ATOM     17  C   UNL A   1      32.626  32.851  27.086  1.00  0.00     0.116 C 
BRANCH  17  18
ATOM     18  N   UNL A   1      32.455  34.190  27.624  1.00  0.00    -0.352 N 
ATOM     19  C   UNL A   1      33.035  34.802  28.708  1.00  0.00     0.251 C 
ATOM     20  H   UNL A   1      31.816  34.752  27.129  1.00  0.00     0.163 HD
ATOM     21  O   UNL A   1      32.575  35.873  29.100  1.00  0.00    -0.269 OA
BRANCH  19  22
ATOM     22  C   UNL A   1      34.193  34.206  29.423  1.00  0.00     0.039 A 
ATOM     23  C   UNL A   1      35.482  34.461  28.938  1.00  0.00     0.014 A 
ATOM     24  C   UNL A   1      34.033  33.339  30.506  1.00  0.00     0.014 A 
ATOM     25  C   UNL A   1      36.597  33.879  29.552  1.00  0.00     0.010 A 
ATOM     26  C   UNL A   1      35.148  32.835  31.176  1.00  0.00     0.010 A 
ATOM     27  C   UNL A   1      36.441  33.074  30.691  1.00  0.00    -0.014 A 
BRANCH  27  28
ATOM     28  C   UNL A   1      37.605  32.420  31.347  1.00  0.00     0.031 A 
ATOM     29  C   UNL A   1      38.314  31.279  30.660  1.00  0.00     0.074 A 
ATOM     30  C   UNL A   1      37.996  32.802  32.578  1.00  0.00     0.049 A 
ATOM     31  N   UNL A   1      39.278  30.513  31.104  1.00  0.00    -0.248 NA
ATOM     32  C   UNL A   1      37.851  30.934  29.307  1.00  0.00     0.031 C 
ATOM     33  C   UNL A   1      37.379  33.866  33.372  1.00  0.00     0.029 A 
ATOM     34  N   UNL A   1      39.006  32.332  33.380  1.00  0.00    -0.354 N 
ATOM     35  C   UNL A   1      39.508  29.575  30.104  1.00  0.00     0.074 A 
ATOM     36  C   UNL A   1      38.553  29.841  29.050  1.00  0.00     0.031 C 
ATOM     37  C   UNL A   1      38.041  33.985  34.535  1.00  0.00     0.029 A 
ATOM     38  C   UNL A   1      39.102  32.984  34.585  1.00  0.00     0.049 A 
ATOM     39  H   UNL A   1      39.605  31.596  33.117  1.00  0.00     0.167 HD
ATOM     40  C   UNL A   1      40.442  28.596  30.054  1.00  0.00     0.037 A 
ATOM     41  C   UNL A   1      39.948  32.795  35.616  1.00  0.00     0.037 A 
ATOM     42  C   UNL A   1      41.431  28.367  31.073  1.00  0.00     0.049 A 
ATOM     43  C   UNL A   1      40.996  31.722  35.526  1.00  0.00     0.074 A 
ATOM     44  C   UNL A   1      42.471  27.453  31.077  1.00  0.00     0.029 A 
ATOM     45  N   UNL A   1      41.510  29.069  32.266  1.00  0.00    -0.354 N 
ATOM     46  N   UNL A   1      41.233  30.877  34.553  1.00  0.00    -0.248 NA
ATOM     47  C   UNL A   1      41.898  31.579  36.679  1.00  0.00     0.031 C 
ATOM     48  C   UNL A   1      43.161  27.582  32.288  1.00  0.00     0.029 A 
ATOM     49  C   UNL A   1      42.571  28.599  33.021  1.00  0.00     0.049 A 
ATOM     50  H   UNL A   1      40.901  29.793  32.536  1.00  0.00     0.167 HD
ATOM     51  C   UNL A   1      42.321  30.118  34.963  1.00  0.00     0.074 A 
ATOM     52  C   UNL A   1      42.707  30.611  36.270  1.00  0.00     0.031 C 
ATOM     53  C   UNL A   1      42.945  29.105  34.317  1.00  0.00     0.037 A 
BRANCH  40  54
ATOM     54  C   UNL A   1      40.437  27.699  28.849  1.00  0.00     0.057 A 
ATOM     55  C   UNL A   1      41.210  27.979  27.714  1.00  0.00     0.134 A 
ATOM     56  C   UNL A   1      39.663  26.533  28.831  1.00  0.00     0.134 A 
ATOM     57  F   UNL A   1      41.965  29.087  27.662  1.00  0.00    -0.206 F 
ATOM     58  C   UNL A   1      41.185  27.150  26.592  1.00  0.00     0.040 A 
ATOM     59  C   UNL A   1      39.651  25.682  27.725  1.00  0.00     0.040 A 
ATOM     60  F   UNL A   1      38.905  26.201  29.887  1.00  0.00    -0.206 F 
ATOM     61  C   UNL A   1      40.408  25.994  26.597  1.00  0.00     0.006 A 
ENDBRANCH  40  54
BRANCH  41  62
ATOM     62  C   UNL A   1      39.860  33.669  36.811  1.00  0.00     0.057 A 
ATOM     63  C   UNL A   1      39.010  33.345  37.875  1.00  0.00     0.134 A 
ATOM     64  C   UNL A   1      40.621  34.838  36.925  1.00  0.00     0.134 A 
ATOM     65  F   UNL A   1      38.242  32.246  37.814  1.00  0.00    -0.206 F 
ATOM     66  C   UNL A   1      38.912  34.156  39.005  1.00  0.00     0.040 A 
ATOM     67  C   UNL A   1      40.548  35.649  38.058  1.00  0.00     0.040 A 
ATOM     68  F   UNL A   1      41.459  35.199  35.941  1.00  0.00    -0.206 F 
ATOM     69  C   UNL A   1      39.688  35.310  39.102  1.00  0.00     0.006 A 
ENDBRANCH  41  62
BRANCH  53  70
ATOM     70  C   UNL A   1      44.126  28.481  34.998  1.00  0.00     0.057 A 
ATOM     71  C   UNL A   1      45.421  28.984  34.834  1.00  0.00     0.134 A 
ATOM     72  C   UNL A   1      43.956  27.389  35.859  1.00  0.00     0.134 A 
ATOM     73  F   UNL A   1      45.649  30.019  34.013  1.00  0.00    -0.206 F 
ATOM     74  C   UNL A   1      46.513  28.411  35.490  1.00  0.00     0.040 A 
ATOM     75  C   UNL A   1      45.036  26.822  36.537  1.00  0.00     0.040 A 
ATOM     76  F   UNL A   1      42.738  26.865  36.064  1.00  0.00    -0.206 F 
ATOM     77  C   UNL A   1      46.320  27.330  36.349  1.00  0.00     0.006 A 
ENDBRANCH  53  70
ENDBRANCH  27  28
ENDBRANCH  19  22
ENDBRANCH  17  18
ENDBRANCH  16  17
ENDBRANCH   1  16
TORSDOF 14
ENDMDL
