MODEL 1
REMARK VINA RESULT:     -11.4      0.000      0.000
REMARK SMILES O=C(Cc1csc(NC(=O)CS[C@@H]2CCS(=O)(=O)C2)n1)NCCCCNC(=O)c1ccc(-c2c3nc(c(-c4c(F)cccc4F)c4ccc([nH]4)c(-c4c(F)cccc4F)c4nc(c(-c5c(F)cccc5F)c5ccc2[nH]5)C=C4)C=C3)cc1
REMARK SMILES IDX 22 1 21 2 1 3 2 4 3 6 4 7 5 8 20 9 6 10 7 11 8 12 9 13 10 15
REMARK SMILES IDX 11 16 12 17 13 18 14 19 19 20 15 21 16 22 17 23 18 24 23 25
REMARK SMILES IDX 24 26 25 27 26 28 27 29 28 31 29 32 30 33 82 34 31 35 81 36
REMARK SMILES IDX 32 37 33 38 34 39 75 40 35 41 80 42 74 43 76 44 36 45 79 46
REMARK SMILES IDX 73 47 72 48 37 50 63 51 46 52 62 53 47 54 50 55 61 56 77 57
REMARK SMILES IDX 48 58 49 59 60 61 78 62 51 63 38 64 39 65 44 66 40 67 41 68
REMARK SMILES IDX 43 69 45 70 42 71 64 72 65 73 70 74 66 75 67 76 69 77 71 78
REMARK SMILES IDX 68 79 52 80 53 81 58 82 54 83 55 84 57 85 59 86 56 87
REMARK H PARENT 21 5 8 14 26 30 76 49 50 60
REMARK Flexibility Score: inf
ROOT
ATOM      1  C   UNL A   1      29.988  31.902  24.652  1.00  0.00     0.116 C 
ENDROOT
BRANCH   1   2
ATOM      2  N   UNL A   1      29.457  30.861  23.803  1.00  0.00    -0.356 N 
ATOM      3  O   UNL A   1      27.297  31.652  23.708  1.00  0.00    -0.275 OA
ATOM      4  C   UNL A   1      28.144  30.828  23.379  1.00  0.00     0.226 C 
ATOM      5  H   UNL A   1      30.061  30.141  23.511  1.00  0.00     0.163 HD
BRANCH   4   6
ATOM      6  C   UNL A   1      27.827  29.658  22.465  1.00  0.00     0.157 C 
BRANCH   6   7
ATOM      7  C   UNL A   1      28.775  28.544  22.749  1.00  0.00     0.063 A 
ATOM      8  C   UNL A   1      28.555  27.475  23.593  1.00  0.00     0.093 A 
ATOM      9  N   UNL A   1      29.975  28.498  22.048  1.00  0.00    -0.224 NA
ATOM     10  S   UNL A   1      29.826  26.349  23.420  1.00  0.00    -0.105 S 
ATOM     11  C   UNL A   1      30.655  27.432  22.407  1.00  0.00     0.189 A 
BRANCH  11  12
ATOM     12  N   UNL A   1      31.897  27.202  21.889  1.00  0.00    -0.301 N 
ATOM     13  C   UNL A   1      33.065  26.771  22.423  1.00  0.00     0.236 C 
ATOM     14  H   UNL A   1      31.957  27.390  20.924  1.00  0.00     0.172 HD
ATOM     15  O   UNL A   1      33.994  26.567  21.629  1.00  0.00    -0.274 OA
BRANCH  13  16
ATOM     16  C   UNL A   1      33.301  26.540  23.899  1.00  0.00     0.170 C 
BRANCH  16  17
ATOM     17  S   UNL A   1      33.782  24.833  24.313  1.00  0.00    -0.148 SA
BRANCH  17  18
ATOM     18  C   UNL A   1      33.525  24.654  26.121  1.00  0.00     0.063 C 
ATOM     19  C   UNL A   1      33.737  23.298  26.797  1.00  0.00     0.031 C 
ATOM     20  C   UNL A   1      32.057  25.002  26.403  1.00  0.00     0.151 C 
ATOM     21  C   UNL A   1      32.574  22.385  26.431  1.00  0.00     0.138 C 
ATOM     22  S   UNL A   1      31.169  23.462  26.215  1.00  0.00     0.151 S 
ATOM     23  O   UNL A   1      30.708  23.340  24.846  1.00  0.00    -0.229 OA
ATOM     24  O   UNL A   1      30.277  23.301  27.342  1.00  0.00    -0.229 OA
ENDBRANCH  17  18
ENDBRANCH  16  17
ENDBRANCH  13  16
ENDBRANCH  11  12
ENDBRANCH   6   7
ENDBRANCH   4   6
ENDBRANCH   1   2
BRANCH   1  25
ATOM     25  C   UNL A   1      31.015  31.357  25.640  1.00  0.00     0.023 C 
BRANCH  25  26
ATOM     26  C   UNL A   1      31.245  32.232  26.876  1.00  0.00     0.023 C 
BRANCH  26  27
ATOM     27  C   UNL A   1      32.618  32.893  26.966  1.00  0.00     0.116 C 
BRANCH  27  28
ATOM     28  N   UNL A   1      32.581  34.183  27.635  1.00  0.00    -0.352 N 
ATOM     29  C   UNL A   1      33.339  34.653  28.681  1.00  0.00     0.251 C 
ATOM     30  H   UNL A   1      31.911  34.816  27.287  1.00  0.00     0.163 HD
ATOM     31  O   UNL A   1      33.055  35.722  29.211  1.00  0.00    -0.269 OA
BRANCH  29  32
ATOM     32  C   UNL A   1      34.482  33.862  29.190  1.00  0.00     0.039 A 
ATOM     33  C   UNL A   1      35.776  34.227  28.806  1.00  0.00     0.014 A 
ATOM     34  C   UNL A   1      34.289  32.764  30.032  1.00  0.00     0.014 A 
ATOM     35  C   UNL A   1      36.875  33.537  29.325  1.00  0.00     0.010 A 
ATOM     36  C   UNL A   1      35.387  32.129  30.609  1.00  0.00     0.010 A 
ATOM     37  C   UNL A   1      36.693  32.510  30.264  1.00  0.00    -0.014 A 
BRANCH  37  38
ATOM     38  C   UNL A   1      37.855  31.835  30.903  1.00  0.00     0.031 A 
ATOM     39  C   UNL A   1      38.603  30.751  30.176  1.00  0.00     0.074 A 
ATOM     40  C   UNL A   1      38.201  32.157  32.165  1.00  0.00     0.049 A 
ATOM     41  N   UNL A   1      39.593  30.006  30.596  1.00  0.00    -0.248 NA
ATOM     42  C   UNL A   1      38.161  30.446  28.806  1.00  0.00     0.031 C 
ATOM     43  C   UNL A   1      37.533  33.159  32.997  1.00  0.00     0.029 A 
ATOM     44  N   UNL A   1      39.196  31.667  32.975  1.00  0.00    -0.354 N 
ATOM     45  C   UNL A   1      39.889  29.143  29.547  1.00  0.00     0.074 A 
ATOM     46  C   UNL A   1      38.934  29.415  28.496  1.00  0.00     0.031 C 
ATOM     47  C   UNL A   1      38.149  33.225  34.189  1.00  0.00     0.029 A 
ATOM     48  C   UNL A   1      39.225  32.241  34.223  1.00  0.00     0.049 A 
ATOM     49  H   UNL A   1      39.830  30.971  32.688  1.00  0.00     0.167 HD
ATOM     50  C   UNL A   1      40.882  28.226  29.457  1.00  0.00     0.037 A 
ATOM     51  C   UNL A   1      40.019  31.994  35.283  1.00  0.00     0.037 A 
ATOM     52  C   UNL A   1      41.840  27.961  30.500  1.00  0.00     0.049 A 
ATOM     53  C   UNL A   1      41.096  30.949  35.168  1.00  0.00     0.074 A 
ATOM     54  C   UNL A   1      42.908  27.082  30.486  1.00  0.00     0.029 A 
ATOM     55  N   UNL A   1      41.839  28.570  31.747  1.00  0.00    -0.354 N 
ATOM     56  N   UNL A   1      41.403  30.186  34.148  1.00  0.00    -0.248 NA
ATOM     57  C   UNL A   1      41.940  30.735  36.353  1.00  0.00     0.031 C 
ATOM     58  C   UNL A   1      43.522  27.118  31.743  1.00  0.00     0.029 A 
ATOM     59  C   UNL A   1      42.873  28.065  32.519  1.00  0.00     0.049 A 
ATOM     60  H   UNL A   1      41.200  29.257  32.040  1.00  0.00     0.167 HD
ATOM     61  C   UNL A   1      42.494  29.427  34.554  1.00  0.00     0.074 A 
ATOM     62  C   UNL A   1      42.803  29.832  35.909  1.00  0.00     0.031 C 
ATOM     63  C   UNL A   1      43.177  28.479  33.866  1.00  0.00     0.037 A 
BRANCH  50  64
ATOM     64  C   UNL A   1      40.983  27.437  28.182  1.00  0.00     0.057 A 
ATOM     65  C   UNL A   1      40.282  26.237  27.997  1.00  0.00     0.134 A 
ATOM     66  C   UNL A   1      41.760  27.899  27.112  1.00  0.00     0.134 A 
ATOM     67  F   UNL A   1      39.526  25.732  28.983  1.00  0.00    -0.206 F 
ATOM     68  C   UNL A   1      40.374  25.512  26.807  1.00  0.00     0.040 A 
ATOM     69  C   UNL A   1      41.834  27.200  25.906  1.00  0.00     0.040 A 
ATOM     70  F   UNL A   1      42.451  29.045  27.215  1.00  0.00    -0.206 F 
ATOM     71  C   UNL A   1      41.147  25.998  25.754  1.00  0.00     0.006 A 
ENDBRANCH  50  64
BRANCH  51  72
ATOM     72  C   UNL A   1      39.833  32.754  36.546  1.00  0.00     0.057 A 
ATOM     73  C   UNL A   1      40.657  33.840  36.866  1.00  0.00     0.134 A 
ATOM     74  C   UNL A   1      38.841  32.405  37.470  1.00  0.00     0.134 A 
ATOM     75  F   UNL A   1      41.639  34.212  36.032  1.00  0.00    -0.206 F 
ATOM     76  C   UNL A   1      40.516  34.536  38.068  1.00  0.00     0.040 A 
ATOM     77  C   UNL A   1      38.669  33.112  38.662  1.00  0.00     0.040 A 
ATOM     78  F   UNL A   1      38.013  31.379  37.220  1.00  0.00    -0.206 F 
ATOM     79  C   UNL A   1      39.515  34.175  38.968  1.00  0.00     0.006 A 
ENDBRANCH  51  72
BRANCH  63  80
ATOM     80  C   UNL A   1      44.352  27.843  34.550  1.00  0.00     0.057 A 
ATOM     81  C   UNL A   1      44.233  26.657  35.287  1.00  0.00     0.134 A 
ATOM     82  C   UNL A   1      45.631  28.405  34.437  1.00  0.00     0.134 A 
ATOM     83  F   UNL A   1      43.035  26.073  35.446  1.00  0.00    -0.206 F 
ATOM     84  C   UNL A   1      45.337  26.070  35.908  1.00  0.00     0.040 A 
ATOM     85  C   UNL A   1      46.747  27.811  35.027  1.00  0.00     0.040 A 
ATOM     86  F   UNL A   1      45.819  29.535  33.738  1.00  0.00    -0.206 F 
ATOM     87  C   UNL A   1      46.600  26.642  35.772  1.00  0.00     0.006 A 
ENDBRANCH  63  80
ENDBRANCH  37  38
ENDBRANCH  29  32
ENDBRANCH  27  28
ENDBRANCH  26  27
ENDBRANCH  25  26
ENDBRANCH   1  25
TORSDOF 16
ENDMDL
MODEL 2
REMARK VINA RESULT:     -11.3      4.595      9.131
REMARK SMILES O=C(Cc1csc(NC(=O)CS[C@@H]2CCS(=O)(=O)C2)n1)NCCCCNC(=O)c1ccc(-c2c3nc(c(-c4c(F)cccc4F)c4ccc([nH]4)c(-c4c(F)cccc4F)c4nc(c(-c5c(F)cccc5F)c5ccc2[nH]5)C=C4)C=C3)cc1
REMARK SMILES IDX 22 1 21 2 1 3 2 4 3 6 4 7 5 8 20 9 6 10 7 11 8 12 9 13 10 15
REMARK SMILES IDX 11 16 12 17 13 18 14 19 19 20 15 21 16 22 17 23 18 24 23 25
REMARK SMILES IDX 24 26 25 27 26 28 27 29 28 31 29 32 30 33 82 34 31 35 81 36
REMARK SMILES IDX 32 37 33 38 34 39 75 40 35 41 80 42 74 43 76 44 36 45 79 46
REMARK SMILES IDX 73 47 72 48 37 50 63 51 46 52 62 53 47 54 50 55 61 56 77 57
REMARK SMILES IDX 48 58 49 59 60 61 78 62 51 63 38 64 39 65 44 66 40 67 41 68
REMARK SMILES IDX 43 69 45 70 42 71 64 72 65 73 70 74 66 75 67 76 69 77 71 78
REMARK SMILES IDX 68 79 52 80 53 81 58 82 54 83 55 84 57 85 59 86 56 87
REMARK H PARENT 21 5 8 14 26 30 76 49 50 60
REMARK Flexibility Score: inf
ROOT
ATOM      1  C   UNL A   1      35.857  21.135  25.524  1.00  0.00     0.116 C 
ENDROOT
BRANCH   1   2
ATOM      2  N   UNL A   1      34.604  21.030  24.810  1.00  0.00    -0.356 N 
ATOM      3  O   UNL A   1      34.409  18.739  24.925  1.00  0.00    -0.275 OA
ATOM      4  C   UNL A   1      33.965  19.829  24.581  1.00  0.00     0.226 C 
ATOM      5  H   UNL A   1      34.187  21.855  24.474  1.00  0.00     0.163 HD
BRANCH   4   6
ATOM      6  C   UNL A   1      32.646  19.972  23.842  1.00  0.00     0.157 C 
BRANCH   6   7
ATOM      7  C   UNL A   1      32.237  21.405  23.842  1.00  0.00     0.063 A 
ATOM      8  C   UNL A   1      31.490  22.045  24.808  1.00  0.00     0.093 A 
ATOM      9  N   UNL A   1      32.708  22.230  22.827  1.00  0.00    -0.224 NA
ATOM     10  S   UNL A   1      31.471  23.721  24.489  1.00  0.00    -0.105 S 
ATOM     11  C   UNL A   1      32.273  23.455  23.016  1.00  0.00     0.189 A 
BRANCH  11  12
ATOM     12  N   UNL A   1      32.564  24.436  22.111  1.00  0.00    -0.301 N 
ATOM     13  C   UNL A   1      33.189  25.635  22.203  1.00  0.00     0.236 C 
ATOM     14  H   UNL A   1      32.253  24.229  21.200  1.00  0.00     0.172 HD
ATOM     15  O   UNL A   1      33.382  26.241  21.140  1.00  0.00    -0.274 OA
BRANCH  13  16
ATOM     16  C   UNL A   1      33.643  26.269  23.500  1.00  0.00     0.170 C 
BRANCH  16  17
ATOM     17  S   UNL A   1      33.373  28.068  23.576  1.00  0.00    -0.148 SA
BRANCH  17  18
ATOM     18  C   UNL A   1      31.689  28.303  24.267  1.00  0.00     0.063 C 
ATOM     19  C   UNL A   1      31.279  29.656  24.851  1.00  0.00     0.031 C 
ATOM     20  C   UNL A   1      31.540  27.316  25.433  1.00  0.00     0.151 C 
ATOM     21  C   UNL A   1      31.974  29.836  26.194  1.00  0.00     0.138 C 
ATOM     22  S   UNL A   1      32.152  28.193  26.865  1.00  0.00     0.151 S 
ATOM     23  O   UNL A   1      33.566  27.918  27.027  1.00  0.00    -0.229 OA
ATOM     24  O   UNL A   1      31.209  28.024  27.949  1.00  0.00    -0.229 OA
ENDBRANCH  17  18
ENDBRANCH  16  17
ENDBRANCH  13  16
ENDBRANCH  11  12
ENDBRANCH   6   7
ENDBRANCH   4   6
ENDBRANCH   1   2
BRANCH   1  25
ATOM     25  C   UNL A   1      37.054  21.007  24.586  1.00  0.00     0.023 C 
BRANCH  25  26
ATOM     26  C   UNL A   1      38.001  19.848  24.911  1.00  0.00     0.023 C 
BRANCH  26  27
ATOM     27  C   UNL A   1      39.077  20.150  25.950  1.00  0.00     0.116 C 
BRANCH  27  28
ATOM     28  N   UNL A   1      40.210  19.242  25.871  1.00  0.00    -0.352 N 
ATOM     29  C   UNL A   1      41.547  19.487  26.070  1.00  0.00     0.251 C 
ATOM     30  H   UNL A   1      39.985  18.312  25.640  1.00  0.00     0.163 HD
ATOM     31  O   UNL A   1      42.374  18.620  25.806  1.00  0.00    -0.269 OA
BRANCH  29  32
ATOM     32  C   UNL A   1      42.000  20.803  26.573  1.00  0.00     0.039 A 
ATOM     33  C   UNL A   1      42.421  21.767  25.652  1.00  0.00     0.014 A 
ATOM     34  C   UNL A   1      42.023  21.091  27.940  1.00  0.00     0.014 A 
ATOM     35  C   UNL A   1      42.792  23.039  26.096  1.00  0.00     0.010 A 
ATOM     36  C   UNL A   1      42.316  22.382  28.374  1.00  0.00     0.010 A 
ATOM     37  C   UNL A   1      42.702  23.372  27.457  1.00  0.00    -0.014 A 
BRANCH  37  38
ATOM     38  C   UNL A   1      42.994  24.751  27.933  1.00  0.00     0.031 A 
ATOM     39  C   UNL A   1      44.407  25.171  28.234  1.00  0.00     0.074 A 
ATOM     40  C   UNL A   1      41.978  25.609  28.154  1.00  0.00     0.049 A 
ATOM     41  N   UNL A   1      44.846  26.304  28.720  1.00  0.00    -0.248 NA
ATOM     42  C   UNL A   1      45.462  24.178  27.979  1.00  0.00     0.031 C 
ATOM     43  C   UNL A   1      40.560  25.314  27.944  1.00  0.00     0.029 A 
ATOM     44  N   UNL A   1      41.982  26.902  28.614  1.00  0.00    -0.354 N 
ATOM     45  C   UNL A   1      46.224  26.158  28.834  1.00  0.00     0.074 A 
ATOM     46  C   UNL A   1      46.539  24.807  28.425  1.00  0.00     0.031 C 
ATOM     47  C   UNL A   1      39.833  26.400  28.254  1.00  0.00     0.029 A 
ATOM     48  C   UNL A   1      40.727  27.452  28.726  1.00  0.00     0.049 A 
ATOM     49  H   UNL A   1      42.805  27.391  28.842  1.00  0.00     0.167 HD
ATOM     50  C   UNL A   1      47.145  27.074  29.219  1.00  0.00     0.037 A 
ATOM     51  C   UNL A   1      40.336  28.662  29.171  1.00  0.00     0.037 A 
ATOM     52  C   UNL A   1      46.832  28.422  29.618  1.00  0.00     0.049 A 
ATOM     53  C   UNL A   1      41.376  29.651  29.621  1.00  0.00     0.074 A 
ATOM     54  C   UNL A   1      47.700  29.437  29.983  1.00  0.00     0.029 A 
ATOM     55  N   UNL A   1      45.549  28.942  29.709  1.00  0.00    -0.354 N 
ATOM     56  N   UNL A   1      42.680  29.520  29.663  1.00  0.00    -0.248 NA
ATOM     57  C   UNL A   1      40.890  30.960  30.082  1.00  0.00     0.031 C 
ATOM     58  C   UNL A   1      46.940  30.553  30.348  1.00  0.00     0.029 A 
ATOM     59  C   UNL A   1      45.602  30.254  30.152  1.00  0.00     0.049 A 
ATOM     60  H   UNL A   1      44.724  28.452  29.493  1.00  0.00     0.167 HD
ATOM     61  C   UNL A   1      43.171  30.736  30.122  1.00  0.00     0.074 A 
ATOM     62  C   UNL A   1      42.026  31.597  30.331  1.00  0.00     0.031 C 
ATOM     63  C   UNL A   1      44.455  31.106  30.350  1.00  0.00     0.037 A 
BRANCH  50  64
ATOM     64  C   UNL A   1      48.585  26.646  29.229  1.00  0.00     0.057 A 
ATOM     65  C   UNL A   1      49.416  26.818  28.113  1.00  0.00     0.134 A 
ATOM     66  C   UNL A   1      49.161  26.090  30.379  1.00  0.00     0.134 A 
ATOM     67  F   UNL A   1      48.927  27.336  26.976  1.00  0.00    -0.206 F 
ATOM     68  C   UNL A   1      50.755  26.425  28.130  1.00  0.00     0.040 A 
ATOM     69  C   UNL A   1      50.508  25.723  30.418  1.00  0.00     0.040 A 
ATOM     70  F   UNL A   1      48.429  25.905  31.488  1.00  0.00    -0.206 F 
ATOM     71  C   UNL A   1      51.307  25.883  29.289  1.00  0.00     0.006 A 
ENDBRANCH  50  64
BRANCH  51  72
ATOM     72  C   UNL A   1      38.892  29.012  29.206  1.00  0.00     0.057 A 
ATOM     73  C   UNL A   1      38.239  29.507  28.071  1.00  0.00     0.134 A 
ATOM     74  C   UNL A   1      38.136  28.876  30.376  1.00  0.00     0.134 A 
ATOM     75  F   UNL A   1      38.913  29.679  26.925  1.00  0.00    -0.206 F 
ATOM     76  C   UNL A   1      36.893  29.876  28.104  1.00  0.00     0.040 A 
ATOM     77  C   UNL A   1      36.782  29.212  30.416  1.00  0.00     0.040 A 
ATOM     78  F   UNL A   1      38.700  28.400  31.497  1.00  0.00    -0.206 F 
ATOM     79  C   UNL A   1      36.159  29.724  29.280  1.00  0.00     0.006 A 
ENDBRANCH  51  72
BRANCH  63  80
ATOM     80  C   UNL A   1      44.697  32.514  30.812  1.00  0.00     0.057 A 
ATOM     81  C   UNL A   1      44.780  32.849  32.170  1.00  0.00     0.134 A 
ATOM     82  C   UNL A   1      44.886  33.545  29.882  1.00  0.00     0.134 A 
ATOM     83  F   UNL A   1      44.596  31.912  33.114  1.00  0.00    -0.206 F 
ATOM     84  C   UNL A   1      45.016  34.160  32.586  1.00  0.00     0.040 A 
ATOM     85  C   UNL A   1      45.154  34.854  30.285  1.00  0.00     0.040 A 
ATOM     86  F   UNL A   1      44.829  33.294  28.566  1.00  0.00    -0.206 F 
ATOM     87  C   UNL A   1      45.212  35.166  31.642  1.00  0.00     0.006 A 
ENDBRANCH  63  80
ENDBRANCH  37  38
ENDBRANCH  29  32
ENDBRANCH  27  28
ENDBRANCH  26  27
ENDBRANCH  25  26
ENDBRANCH   1  25
TORSDOF 16
ENDMDL
MODEL 3
REMARK VINA RESULT:     -11.3      5.141     10.307
REMARK SMILES O=C(Cc1csc(NC(=O)CS[C@@H]2CCS(=O)(=O)C2)n1)NCCCCNC(=O)c1ccc(-c2c3nc(c(-c4c(F)cccc4F)c4ccc([nH]4)c(-c4c(F)cccc4F)c4nc(c(-c5c(F)cccc5F)c5ccc2[nH]5)C=C4)C=C3)cc1
REMARK SMILES IDX 22 1 21 2 1 3 2 4 3 6 4 7 5 8 20 9 6 10 7 11 8 12 9 13 10 15
REMARK SMILES IDX 11 16 12 17 13 18 14 19 19 20 15 21 16 22 17 23 18 24 23 25
REMARK SMILES IDX 24 26 25 27 26 28 27 29 28 31 29 32 30 33 82 34 31 35 81 36
REMARK SMILES IDX 32 37 33 38 34 39 75 40 35 41 80 42 74 43 76 44 36 45 79 46
REMARK SMILES IDX 73 47 72 48 37 50 63 51 46 52 62 53 47 54 50 55 61 56 77 57
REMARK SMILES IDX 48 58 49 59 60 61 78 62 51 63 38 64 39 65 44 66 40 67 41 68
REMARK SMILES IDX 43 69 45 70 42 71 64 72 65 73 70 74 66 75 67 76 69 77 71 78
REMARK SMILES IDX 68 79 52 80 53 81 58 82 54 83 55 84 57 85 59 86 56 87
REMARK H PARENT 21 5 8 14 26 30 76 49 50 60
REMARK Flexibility Score: inf
ROOT
ATOM      1  C   UNL A   1      35.785  21.085  25.694  1.00  0.00     0.116 C 
ENDROOT
BRANCH   1   2
ATOM      2  N   UNL A   1      34.465  20.974  25.117  1.00  0.00    -0.356 N 
ATOM      3  O   UNL A   1      34.562  18.727  24.626  1.00  0.00    -0.275 OA
ATOM      4  C   UNL A   1      33.946  19.787  24.640  1.00  0.00     0.226 C 
ATOM      5  H   UNL A   1      33.909  21.784  25.062  1.00  0.00     0.163 HD
BRANCH   4   6
ATOM      6  C   UNL A   1      32.528  19.910  24.113  1.00  0.00     0.157 C 
BRANCH   6   7
ATOM      7  C   UNL A   1      32.168  21.352  24.005  1.00  0.00     0.063 A 
ATOM      8  C   UNL A   1      31.485  22.099  24.943  1.00  0.00     0.093 A 
ATOM      9  N   UNL A   1      32.621  22.070  22.905  1.00  0.00    -0.224 NA
ATOM     10  S   UNL A   1      31.508  23.741  24.481  1.00  0.00    -0.105 S 
ATOM     11  C   UNL A   1      32.236  23.322  23.005  1.00  0.00     0.189 A 
BRANCH  11  12
ATOM     12  N   UNL A   1      32.520  24.211  22.008  1.00  0.00    -0.301 N 
ATOM     13  C   UNL A   1      33.057  25.455  21.992  1.00  0.00     0.236 C 
ATOM     14  H   UNL A   1      32.283  23.879  21.112  1.00  0.00     0.172 HD
ATOM     15  O   UNL A   1      33.278  25.948  20.877  1.00  0.00    -0.274 OA
BRANCH  13  16
ATOM     16  C   UNL A   1      33.384  26.265  23.228  1.00  0.00     0.170 C 
BRANCH  16  17
ATOM     17  S   UNL A   1      32.860  28.006  23.129  1.00  0.00    -0.148 SA
BRANCH  17  18
ATOM     18  C   UNL A   1      31.511  28.205  24.357  1.00  0.00     0.063 C 
ATOM     19  C   UNL A   1      30.285  27.291  24.306  1.00  0.00     0.031 C 
ATOM     20  C   UNL A   1      30.946  29.621  24.180  1.00  0.00     0.151 C 
ATOM     21  C   UNL A   1      29.418  27.705  23.125  1.00  0.00     0.138 C 
ATOM     22  S   UNL A   1      29.671  29.461  22.938  1.00  0.00     0.151 S 
ATOM     23  O   UNL A   1      30.244  29.702  21.629  1.00  0.00    -0.229 OA
ATOM     24  O   UNL A   1      28.489  30.157  23.397  1.00  0.00    -0.229 OA
ENDBRANCH  17  18
ENDBRANCH  16  17
ENDBRANCH  13  16
ENDBRANCH  11  12
ENDBRANCH   6   7
ENDBRANCH   4   6
ENDBRANCH   1   2
BRANCH   1  25
ATOM     25  C   UNL A   1      36.873  21.067  24.624  1.00  0.00     0.023 C 
BRANCH  25  26
ATOM     26  C   UNL A   1      37.911  19.953  24.784  1.00  0.00     0.023 C 
BRANCH  26  27
ATOM     27  C   UNL A   1      39.038  20.242  25.772  1.00  0.00     0.116 C 
BRANCH  27  28
ATOM     28  N   UNL A   1      40.031  19.181  25.822  1.00  0.00    -0.352 N 
ATOM     29  C   UNL A   1      41.388  19.258  26.028  1.00  0.00     0.251 C 
ATOM     30  H   UNL A   1      39.679  18.272  25.688  1.00  0.00     0.163 HD
ATOM     31  O   UNL A   1      42.087  18.260  25.882  1.00  0.00    -0.269 OA
BRANCH  29  32
ATOM     32  C   UNL A   1      42.018  20.546  26.397  1.00  0.00     0.039 A 
ATOM     33  C   UNL A   1      42.470  21.389  25.377  1.00  0.00     0.014 A 
ATOM     34  C   UNL A   1      42.173  20.924  27.733  1.00  0.00     0.014 A 
ATOM     35  C   UNL A   1      43.009  22.638  25.695  1.00  0.00     0.010 A 
ATOM     36  C   UNL A   1      42.637  22.200  28.045  1.00  0.00     0.010 A 
ATOM     37  C   UNL A   1      43.058  23.073  27.030  1.00  0.00    -0.014 A 
BRANCH  37  38
ATOM     38  C   UNL A   1      43.532  24.440  27.377  1.00  0.00     0.031 A 
ATOM     39  C   UNL A   1      42.556  25.498  27.816  1.00  0.00     0.074 A 
ATOM     40  C   UNL A   1      44.837  24.748  27.239  1.00  0.00     0.049 A 
ATOM     41  N   UNL A   1      42.773  26.758  28.094  1.00  0.00    -0.248 NA
ATOM     42  C   UNL A   1      41.148  25.091  27.933  1.00  0.00     0.031 C 
ATOM     43  C   UNL A   1      45.880  23.829  26.781  1.00  0.00     0.029 A 
ATOM     44  N   UNL A   1      45.508  25.925  27.460  1.00  0.00    -0.354 N 
ATOM     45  C   UNL A   1      41.531  27.295  28.412  1.00  0.00     0.074 A 
ATOM     46  C   UNL A   1      40.559  26.240  28.233  1.00  0.00     0.031 C 
ATOM     47  C   UNL A   1      47.061  24.469  26.776  1.00  0.00     0.029 A 
ATOM     48  C   UNL A   1      46.853  25.853  27.186  1.00  0.00     0.049 A 
ATOM     49  H   UNL A   1      45.068  26.744  27.785  1.00  0.00     0.167 HD
ATOM     50  C   UNL A   1      41.232  28.545  28.839  1.00  0.00     0.037 A 
ATOM     51  C   UNL A   1      47.811  26.799  27.244  1.00  0.00     0.037 A 
ATOM     52  C   UNL A   1      42.201  29.594  29.026  1.00  0.00     0.049 A 
ATOM     53  C   UNL A   1      47.448  28.188  27.693  1.00  0.00     0.074 A 
ATOM     54  C   UNL A   1      42.001  30.880  29.496  1.00  0.00     0.029 A 
ATOM     55  N   UNL A   1      43.555  29.478  28.745  1.00  0.00    -0.354 N 
ATOM     56  N   UNL A   1      46.279  28.663  28.051  1.00  0.00    -0.248 NA
ATOM     57  C   UNL A   1      48.538  29.172  27.751  1.00  0.00     0.031 C 
ATOM     58  C   UNL A   1      43.222  31.560  29.447  1.00  0.00     0.029 A 
ATOM     59  C   UNL A   1      44.196  30.678  29.006  1.00  0.00     0.049 A 
ATOM     60  H   UNL A   1      43.995  28.664  28.409  1.00  0.00     0.167 HD
ATOM     61  C   UNL A   1      46.500  29.988  28.407  1.00  0.00     0.074 A 
ATOM     62  C   UNL A   1      47.915  30.237  28.235  1.00  0.00     0.031 C 
ATOM     63  C   UNL A   1      45.608  30.915  28.837  1.00  0.00     0.037 A 
BRANCH  50  64
ATOM     64  C   UNL A   1      39.790  28.849  29.134  1.00  0.00     0.057 A 
ATOM     65  C   UNL A   1      38.904  29.274  28.134  1.00  0.00     0.134 A 
ATOM     66  C   UNL A   1      39.270  28.680  30.424  1.00  0.00     0.134 A 
ATOM     67  F   UNL A   1      39.336  29.465  26.879  1.00  0.00    -0.206 F 
ATOM     68  C   UNL A   1      37.563  29.548  28.413  1.00  0.00     0.040 A 
ATOM     69  C   UNL A   1      37.925  28.920  30.708  1.00  0.00     0.040 A 
ATOM     70  F   UNL A   1      40.058  28.267  31.428  1.00  0.00    -0.206 F 
ATOM     71  C   UNL A   1      37.069  29.364  29.703  1.00  0.00     0.006 A 
ENDBRANCH  50  64
BRANCH  51  72
ATOM     72  C   UNL A   1      49.211  26.465  26.875  1.00  0.00     0.057 A 
ATOM     73  C   UNL A   1      49.691  26.685  25.578  1.00  0.00     0.134 A 
ATOM     74  C   UNL A   1      50.098  25.903  27.802  1.00  0.00     0.134 A 
ATOM     75  F   UNL A   1      48.884  27.201  24.639  1.00  0.00    -0.206 F 
ATOM     76  C   UNL A   1      50.992  26.337  25.209  1.00  0.00     0.040 A 
ATOM     77  C   UNL A   1      51.411  25.580  27.456  1.00  0.00     0.040 A 
ATOM     78  F   UNL A   1      49.704  25.674  29.063  1.00  0.00    -0.206 F 
ATOM     79  C   UNL A   1      51.858  25.788  26.153  1.00  0.00     0.006 A 
ENDBRANCH  51  72
BRANCH  63  80
ATOM     80  C   UNL A   1      46.141  32.273  29.192  1.00  0.00     0.057 A 
ATOM     81  C   UNL A   1      46.617  32.575  30.475  1.00  0.00     0.134 A 
ATOM     82  C   UNL A   1      46.213  33.284  28.224  1.00  0.00     0.134 A 
ATOM     83  F   UNL A   1      46.566  31.657  31.453  1.00  0.00    -0.206 F 
ATOM     84  C   UNL A   1      47.121  33.839  30.787  1.00  0.00     0.040 A 
ATOM     85  C   UNL A   1      46.743  34.541  28.516  1.00  0.00     0.040 A 
ATOM     86  F   UNL A   1      45.783  33.061  26.973  1.00  0.00    -0.206 F 
ATOM     87  C   UNL A   1      47.192  34.823  29.805  1.00  0.00     0.006 A 
ENDBRANCH  63  80
ENDBRANCH  37  38
ENDBRANCH  29  32
ENDBRANCH  27  28
ENDBRANCH  26  27
ENDBRANCH  25  26
ENDBRANCH   1  25
TORSDOF 16
ENDMDL
