MODEL 1
REMARK VINA RESULT:      -9.6      0.000      0.000
REMARK SMILES Cc1cccc(Nc2ccccc2C(=O)NCCCCNC(=O)c2ccc(-c3c4nc(c(-c5c(F)cccc5F)c5ccc([nH]5)c(-c5c(F)cccc5F)c5nc(c(-c6c(F)cccc6F)c6ccc3[nH]6)C=C5)C=C4)cc2)c1C
REMARK SMILES IDX 18 1 17 2 16 3 14 4 15 5 13 7 8 8 9 9 10 10 12 11 11 12 7 13
REMARK SMILES IDX 6 15 1 16 2 17 3 18 78 19 4 20 79 21 5 22 19 23 20 24 21 25
REMARK SMILES IDX 22 26 23 28 24 29 25 30 77 31 26 32 76 33 27 34 28 35 29 36
REMARK SMILES IDX 70 37 30 38 75 39 69 40 71 41 31 42 74 43 68 44 67 45 32 47
REMARK SMILES IDX 58 48 41 49 57 50 42 51 45 52 56 53 72 54 43 55 44 56 55 58
REMARK SMILES IDX 73 59 46 60 33 61 34 62 39 63 35 64 36 65 38 66 40 67 37 68
REMARK SMILES IDX 59 69 60 70 65 71 61 72 62 73 64 74 66 75 63 76 47 77 48 78
REMARK SMILES IDX 53 79 49 80 50 81 52 82 54 83 51 84
REMARK H PARENT 16 6 7 14 21 27 71 46 45 57
REMARK Flexibility Score: inf
ROOT
ATOM      1  C   UNL A   1      45.987  21.979  24.308  1.00  0.00     0.023 C 
ENDROOT
BRANCH   1   2
ATOM      2  C   UNL A   1      45.711  23.010  25.394  1.00  0.00     0.116 C 
BRANCH   2   3
ATOM      3  N   UNL A   1      46.817  23.301  26.272  1.00  0.00    -0.352 N 
ATOM      4  C   UNL A   1      47.519  24.472  26.438  1.00  0.00     0.253 C 
ATOM      5  O   UNL A   1      48.314  24.514  27.384  1.00  0.00    -0.269 OA
ATOM      6  H   UNL A   1      47.113  22.550  26.835  1.00  0.00     0.163 HD
BRANCH   4   7
ATOM      7  C   UNL A   1      47.492  25.626  25.481  1.00  0.00     0.063 A 
ATOM      8  C   UNL A   1      46.430  26.508  25.187  1.00  0.00     0.051 A 
ATOM      9  C   UNL A   1      46.632  27.475  24.168  1.00  0.00     0.027 A 
ATOM     10  C   UNL A   1      47.853  27.630  23.514  1.00  0.00     0.002 A 
ATOM     11  C   UNL A   1      48.732  25.818  24.820  1.00  0.00     0.016 A 
ATOM     12  C   UNL A   1      48.916  26.813  23.858  1.00  0.00     0.001 A 
BRANCH   8  13
ATOM     13  N   UNL A   1      45.205  26.639  25.871  1.00  0.00    -0.355 N 
ATOM     14  H   UNL A   1      44.962  25.833  26.382  1.00  0.00     0.167 HD
BRANCH  13  15
ATOM     15  C   UNL A   1      44.248  27.669  25.985  1.00  0.00     0.042 A 
ATOM     16  C   UNL A   1      43.444  30.984  27.728  1.00  0.00     0.044 C 
ATOM     17  C   UNL A   1      43.314  29.719  26.922  1.00  0.00    -0.046 A 
ATOM     18  C   UNL A   1      42.056  29.385  26.398  1.00  0.00     0.004 A 
ATOM     19  C   UNL A   1      44.437  28.886  26.669  1.00  0.00    -0.025 A 
ATOM     20  C   UNL A   1      41.892  28.238  25.635  1.00  0.00     0.002 A 
ATOM     21  C   UNL A   1      45.806  29.362  27.088  1.00  0.00     0.047 C 
ATOM     22  C   UNL A   1      42.977  27.391  25.435  1.00  0.00     0.026 A 
ENDBRANCH  13  15
ENDBRANCH   8  13
ENDBRANCH   4   7
ENDBRANCH   2   3
ENDBRANCH   1   2
BRANCH   1  23
ATOM     23  C   UNL A   1      44.952  20.861  24.140  1.00  0.00     0.023 C 
BRANCH  23  24
ATOM     24  C   UNL A   1      44.670  19.960  25.343  1.00  0.00     0.116 C 
BRANCH  24  25
ATOM     25  N   UNL A   1      43.364  19.317  25.341  1.00  0.00    -0.352 N 
ATOM     26  C   UNL A   1      42.145  19.809  25.753  1.00  0.00     0.251 C 
ATOM     27  H   UNL A   1      43.351  18.396  24.994  1.00  0.00     0.163 HD
ATOM     28  O   UNL A   1      41.137  19.123  25.642  1.00  0.00    -0.269 OA
BRANCH  26  29
ATOM     29  C   UNL A   1      42.055  21.150  26.381  1.00  0.00     0.039 A 
ATOM     30  C   UNL A   1      41.892  21.224  27.767  1.00  0.00     0.014 A 
ATOM     31  C   UNL A   1      42.162  22.322  25.629  1.00  0.00     0.014 A 
ATOM     32  C   UNL A   1      41.941  22.465  28.408  1.00  0.00     0.010 A 
ATOM     33  C   UNL A   1      42.274  23.554  26.275  1.00  0.00     0.010 A 
ATOM     34  C   UNL A   1      42.186  23.637  27.672  1.00  0.00    -0.014 A 
BRANCH  34  35
ATOM     35  C   UNL A   1      42.418  24.932  28.369  1.00  0.00     0.031 A 
ATOM     36  C   UNL A   1      43.746  25.248  29.000  1.00  0.00     0.074 A 
ATOM     37  C   UNL A   1      41.399  25.808  28.481  1.00  0.00     0.049 A 
ATOM     38  N   UNL A   1      44.120  26.334  29.629  1.00  0.00    -0.248 NA
ATOM     39  C   UNL A   1      44.778  24.203  28.943  1.00  0.00     0.031 C 
ATOM     40  C   UNL A   1      40.036  25.588  27.992  1.00  0.00     0.029 A 
ATOM     41  N   UNL A   1      41.346  27.058  29.048  1.00  0.00    -0.354 N 
ATOM     42  C   UNL A   1      45.423  26.100  30.051  1.00  0.00     0.074 A 
ATOM     43  C   UNL A   1      45.760  24.751  29.645  1.00  0.00     0.031 C 
ATOM     44  C   UNL A   1      39.290  26.674  28.258  1.00  0.00     0.029 A 
ATOM     45  C   UNL A   1      40.113  27.657  28.953  1.00  0.00     0.049 A 
ATOM     46  H   UNL A   1      42.121  27.485  29.482  1.00  0.00     0.167 HD
ATOM     47  C   UNL A   1      46.268  26.938  30.698  1.00  0.00     0.037 A 
ATOM     48  C   UNL A   1      39.693  28.866  29.371  1.00  0.00     0.037 A 
ATOM     49  C   UNL A   1      45.945  28.290  31.075  1.00  0.00     0.049 A 
ATOM     50  C   UNL A   1      40.671  29.796  30.035  1.00  0.00     0.074 A 
ATOM     51  C   UNL A   1      46.766  29.243  31.654  1.00  0.00     0.029 A 
ATOM     52  N   UNL A   1      44.702  28.881  30.912  1.00  0.00    -0.354 N 
ATOM     53  N   UNL A   1      41.934  29.599  30.324  1.00  0.00    -0.248 NA
ATOM     54  C   UNL A   1      40.168  31.126  30.412  1.00  0.00     0.031 C 
ATOM     55  C   UNL A   1      46.009  30.397  31.879  1.00  0.00     0.029 A 
ATOM     56  C   UNL A   1      44.729  30.178  31.398  1.00  0.00     0.049 A 
ATOM     57  H   UNL A   1      43.917  28.444  30.512  1.00  0.00     0.167 HD
ATOM     58  C   UNL A   1      42.383  30.784  30.891  1.00  0.00     0.074 A 
ATOM     59  C   UNL A   1      41.264  31.704  30.882  1.00  0.00     0.031 C 
ATOM     60  C   UNL A   1      43.611  31.085  31.380  1.00  0.00     0.037 A 
BRANCH  47  61
ATOM     61  C   UNL A   1      47.638  26.426  31.034  1.00  0.00     0.057 A 
ATOM     62  C   UNL A   1      48.723  26.600  30.164  1.00  0.00     0.134 A 
ATOM     63  C   UNL A   1      47.891  25.817  32.270  1.00  0.00     0.134 A 
ATOM     64  F   UNL A   1      48.545  27.167  28.962  1.00  0.00    -0.206 F 
ATOM     65  C   UNL A   1      50.007  26.171  30.506  1.00  0.00     0.040 A 
ATOM     66  C   UNL A   1      49.175  25.406  32.632  1.00  0.00     0.040 A 
ATOM     67  F   UNL A   1      46.898  25.628  33.153  1.00  0.00    -0.206 F 
ATOM     68  C   UNL A   1      50.237  25.581  31.747  1.00  0.00     0.006 A 
ENDBRANCH  47  61
BRANCH  48  69
ATOM     69  C   UNL A   1      38.286  29.290  29.152  1.00  0.00     0.057 A 
ATOM     70  C   UNL A   1      37.853  29.747  27.902  1.00  0.00     0.134 A 
ATOM     71  C   UNL A   1      37.353  29.282  30.195  1.00  0.00     0.134 A 
ATOM     72  F   UNL A   1      38.706  29.797  26.869  1.00  0.00    -0.206 F 
ATOM     73  C   UNL A   1      36.552  30.215  27.704  1.00  0.00     0.040 A 
ATOM     74  C   UNL A   1      36.041  29.722  30.005  1.00  0.00     0.040 A 
ATOM     75  F   UNL A   1      37.702  28.846  31.414  1.00  0.00    -0.206 F 
ATOM     76  C   UNL A   1      35.642  30.201  28.758  1.00  0.00     0.006 A 
ENDBRANCH  48  69
BRANCH  60  77
ATOM     77  C   UNL A   1      43.811  32.472  31.914  1.00  0.00     0.057 A 
ATOM     78  C   UNL A   1      44.232  33.528  31.095  1.00  0.00     0.134 A 
ATOM     79  C   UNL A   1      43.575  32.758  33.265  1.00  0.00     0.134 A 
ATOM     80  F   UNL A   1      44.489  33.318  29.795  1.00  0.00    -0.206 F 
ATOM     81  C   UNL A   1      44.443  34.809  31.607  1.00  0.00     0.040 A 
ATOM     82  C   UNL A   1      43.755  34.041  33.783  1.00  0.00     0.040 A 
ATOM     83  F   UNL A   1      43.162  31.794  34.103  1.00  0.00    -0.206 F 
ATOM     84  C   UNL A   1      44.201  35.069  32.954  1.00  0.00     0.006 A 
ENDBRANCH  60  77
ENDBRANCH  34  35
ENDBRANCH  26  29
ENDBRANCH  24  25
ENDBRANCH  23  24
ENDBRANCH   1  23
TORSDOF 13
ENDMDL
MODEL 2
REMARK VINA RESULT:      -9.6      5.263     10.990
REMARK SMILES Cc1cccc(Nc2ccccc2C(=O)NCCCCNC(=O)c2ccc(-c3c4nc(c(-c5c(F)cccc5F)c5ccc([nH]5)c(-c5c(F)cccc5F)c5nc(c(-c6c(F)cccc6F)c6ccc3[nH]6)C=C5)C=C4)cc2)c1C
REMARK SMILES IDX 18 1 17 2 16 3 14 4 15 5 13 7 8 8 9 9 10 10 12 11 11 12 7 13
REMARK SMILES IDX 6 15 1 16 2 17 3 18 78 19 4 20 79 21 5 22 19 23 20 24 21 25
REMARK SMILES IDX 22 26 23 28 24 29 25 30 77 31 26 32 76 33 27 34 28 35 29 36
REMARK SMILES IDX 70 37 30 38 75 39 69 40 71 41 31 42 74 43 68 44 67 45 32 47
REMARK SMILES IDX 58 48 41 49 57 50 42 51 45 52 56 53 72 54 43 55 44 56 55 58
REMARK SMILES IDX 73 59 46 60 33 61 34 62 39 63 35 64 36 65 38 66 40 67 37 68
REMARK SMILES IDX 59 69 60 70 65 71 61 72 62 73 64 74 66 75 63 76 47 77 48 78
REMARK SMILES IDX 53 79 49 80 50 81 52 82 54 83 51 84
REMARK H PARENT 16 6 7 14 21 27 71 46 45 57
REMARK Flexibility Score: inf
ROOT
ATOM      1  C   UNL A   1      32.001  29.158  25.963  1.00  0.00     0.023 C 
ENDROOT
BRANCH   1   2
ATOM      2  C   UNL A   1      32.080  28.094  27.050  1.00  0.00     0.116 C 
BRANCH   2   3
ATOM      3  N   UNL A   1      31.123  27.022  26.941  1.00  0.00    -0.352 N 
ATOM      4  C   UNL A   1      31.251  25.789  26.343  1.00  0.00     0.253 C 
ATOM      5  O   UNL A   1      30.339  24.979  26.539  1.00  0.00    -0.269 OA
ATOM      6  H   UNL A   1      30.247  27.197  27.357  1.00  0.00     0.163 HD
BRANCH   4   7
ATOM      7  C   UNL A   1      32.331  25.423  25.369  1.00  0.00     0.063 A 
ATOM      8  C   UNL A   1      32.288  25.418  23.959  1.00  0.00     0.051 A 
ATOM      9  C   UNL A   1      33.428  24.942  23.261  1.00  0.00     0.027 A 
ATOM     10  C   UNL A   1      34.599  24.559  23.913  1.00  0.00     0.002 A 
ATOM     11  C   UNL A   1      33.541  25.052  26.009  1.00  0.00     0.016 A 
ATOM     12  C   UNL A   1      34.665  24.636  25.293  1.00  0.00     0.001 A 
BRANCH   8  13
ATOM     13  N   UNL A   1      31.283  25.950  23.126  1.00  0.00    -0.355 N 
ATOM     14  H   UNL A   1      30.967  25.310  22.449  1.00  0.00     0.167 HD
BRANCH  13  15
ATOM     15  C   UNL A   1      30.631  27.198  23.046  1.00  0.00     0.042 A 
ATOM     16  C   UNL A   1      27.217  28.932  23.150  1.00  0.00     0.044 C 
ATOM     17  C   UNL A   1      28.688  28.670  22.960  1.00  0.00    -0.046 A 
ATOM     18  C   UNL A   1      29.489  29.696  22.435  1.00  0.00     0.004 A 
ATOM     19  C   UNL A   1      29.270  27.426  23.324  1.00  0.00    -0.025 A 
ATOM     20  C   UNL A   1      30.851  29.506  22.259  1.00  0.00     0.002 A 
ATOM     21  C   UNL A   1      28.423  26.412  24.053  1.00  0.00     0.047 C 
ATOM     22  C   UNL A   1      31.412  28.270  22.560  1.00  0.00     0.026 A 
ENDBRANCH  13  15
ENDBRANCH   8  13
ENDBRANCH   4   7
ENDBRANCH   2   3
ENDBRANCH   1   2
BRANCH   1  23
ATOM     23  C   UNL A   1      31.623  30.574  26.411  1.00  0.00     0.023 C 
BRANCH  23  24
ATOM     24  C   UNL A   1      32.728  31.463  26.983  1.00  0.00     0.116 C 
BRANCH  24  25
ATOM     25  N   UNL A   1      32.299  32.789  27.403  1.00  0.00    -0.352 N 
ATOM     26  C   UNL A   1      32.986  33.746  28.118  1.00  0.00     0.251 C 
ATOM     27  H   UNL A   1      31.384  33.038  27.137  1.00  0.00     0.163 HD
ATOM     28  O   UNL A   1      32.465  34.829  28.351  1.00  0.00    -0.269 OA
BRANCH  26  29
ATOM     29  C   UNL A   1      34.336  33.450  28.655  1.00  0.00     0.039 A 
ATOM     30  C   UNL A   1      34.433  32.746  29.859  1.00  0.00     0.014 A 
ATOM     31  C   UNL A   1      35.496  33.826  27.973  1.00  0.00     0.014 A 
ATOM     32  C   UNL A   1      35.685  32.331  30.323  1.00  0.00     0.010 A 
ATOM     33  C   UNL A   1      36.738  33.358  28.403  1.00  0.00     0.010 A 
ATOM     34  C   UNL A   1      36.844  32.588  29.571  1.00  0.00    -0.014 A 
BRANCH  34  35
ATOM     35  C   UNL A   1      38.149  31.993  29.970  1.00  0.00     0.031 A 
ATOM     36  C   UNL A   1      39.082  32.718  30.900  1.00  0.00     0.074 A 
ATOM     37  C   UNL A   1      38.519  30.809  29.441  1.00  0.00     0.049 A 
ATOM     38  N   UNL A   1      40.246  32.335  31.361  1.00  0.00    -0.248 NA
ATOM     39  C   UNL A   1      38.670  34.056  31.349  1.00  0.00     0.031 C 
ATOM     40  C   UNL A   1      37.749  30.042  28.459  1.00  0.00     0.029 A 
ATOM     41  N   UNL A   1      39.641  30.043  29.647  1.00  0.00    -0.354 N 
ATOM     42  C   UNL A   1      40.710  33.385  32.144  1.00  0.00     0.074 A 
ATOM     43  C   UNL A   1      39.721  34.440  32.060  1.00  0.00     0.031 C 
ATOM     44  C   UNL A   1      38.407  28.908  28.168  1.00  0.00     0.029 A 
ATOM     45  C   UNL A   1      39.654  28.875  28.924  1.00  0.00     0.049 A 
ATOM     46  H   UNL A   1      40.368  30.308  30.257  1.00  0.00     0.167 HD
ATOM     47  C   UNL A   1      41.844  33.456  32.881  1.00  0.00     0.037 A 
ATOM     48  C   UNL A   1      40.564  27.883  28.880  1.00  0.00     0.037 A 
ATOM     49  C   UNL A   1      42.812  32.396  32.991  1.00  0.00     0.049 A 
ATOM     50  C   UNL A   1      41.784  27.964  29.754  1.00  0.00     0.074 A 
ATOM     51  C   UNL A   1      43.947  32.343  33.783  1.00  0.00     0.029 A 
ATOM     52  N   UNL A   1      42.764  31.204  32.285  1.00  0.00    -0.354 N 
ATOM     53  N   UNL A   1      42.151  28.917  30.577  1.00  0.00    -0.248 NA
ATOM     54  C   UNL A   1      42.709  26.822  29.709  1.00  0.00     0.031 C 
ATOM     55  C   UNL A   1      44.606  31.137  33.528  1.00  0.00     0.029 A 
ATOM     56  C   UNL A   1      43.858  30.418  32.611  1.00  0.00     0.049 A 
ATOM     57  H   UNL A   1      42.057  30.953  31.648  1.00  0.00     0.167 HD
ATOM     58  C   UNL A   1      43.329  28.479  31.165  1.00  0.00     0.074 A 
ATOM     59  C   UNL A   1      43.605  27.164  30.623  1.00  0.00     0.031 C 
ATOM     60  C   UNL A   1      44.118  29.110  32.069  1.00  0.00     0.037 A 
BRANCH  47  61
ATOM     61  C   UNL A   1      42.102  34.721  33.646  1.00  0.00     0.057 A 
ATOM     62  C   UNL A   1      42.786  35.802  33.073  1.00  0.00     0.134 A 
ATOM     63  C   UNL A   1      41.601  34.888  34.943  1.00  0.00     0.134 A 
ATOM     64  F   UNL A   1      43.299  35.703  31.838  1.00  0.00    -0.206 F 
ATOM     65  C   UNL A   1      42.974  36.998  33.769  1.00  0.00     0.040 A 
ATOM     66  C   UNL A   1      41.762  36.087  35.640  1.00  0.00     0.040 A 
ATOM     67  F   UNL A   1      40.930  33.895  35.548  1.00  0.00    -0.206 F 
ATOM     68  C   UNL A   1      42.452  37.145  35.053  1.00  0.00     0.006 A 
ENDBRANCH  47  61
BRANCH  48  69
ATOM     69  C   UNL A   1      40.350  26.705  28.000  1.00  0.00     0.057 A 
ATOM     70  C   UNL A   1      39.563  25.624  28.415  1.00  0.00     0.134 A 
ATOM     71  C   UNL A   1      40.955  26.617  26.741  1.00  0.00     0.134 A 
ATOM     72  F   UNL A   1      38.973  25.641  29.619  1.00  0.00    -0.206 F 
ATOM     73  C   UNL A   1      39.414  24.481  27.626  1.00  0.00     0.040 A 
ATOM     74  C   UNL A   1      40.792  25.493  25.930  1.00  0.00     0.040 A 
ATOM     75  F   UNL A   1      41.712  27.624  26.281  1.00  0.00    -0.206 F 
ATOM     76  C   UNL A   1      40.028  24.416  26.377  1.00  0.00     0.006 A 
ENDBRANCH  48  69
BRANCH  60  77
ATOM     77  C   UNL A   1      45.332  28.370  32.549  1.00  0.00     0.057 A 
ATOM     78  C   UNL A   1      46.577  28.503  31.919  1.00  0.00     0.134 A 
ATOM     79  C   UNL A   1      45.256  27.517  33.658  1.00  0.00     0.134 A 
ATOM     80  F   UNL A   1      46.713  29.293  30.843  1.00  0.00    -0.206 F 
ATOM     81  C   UNL A   1      47.694  27.788  32.354  1.00  0.00     0.040 A 
ATOM     82  C   UNL A   1      46.373  26.819  34.119  1.00  0.00     0.040 A 
ATOM     83  F   UNL A   1      44.097  27.352  34.312  1.00  0.00    -0.206 F 
ATOM     84  C   UNL A   1      47.594  26.946  33.460  1.00  0.00     0.006 A 
ENDBRANCH  60  77
ENDBRANCH  34  35
ENDBRANCH  26  29
ENDBRANCH  24  25
ENDBRANCH  23  24
ENDBRANCH   1  23
TORSDOF 13
ENDMDL
MODEL 3
REMARK VINA RESULT:      -9.5      5.831     11.157
REMARK SMILES Cc1cccc(Nc2ccccc2C(=O)NCCCCNC(=O)c2ccc(-c3c4nc(c(-c5c(F)cccc5F)c5ccc([nH]5)c(-c5c(F)cccc5F)c5nc(c(-c6c(F)cccc6F)c6ccc3[nH]6)C=C5)C=C4)cc2)c1C
REMARK SMILES IDX 18 1 17 2 16 3 14 4 15 5 13 7 8 8 9 9 10 10 12 11 11 12 7 13
REMARK SMILES IDX 6 15 1 16 2 17 3 18 78 19 4 20 79 21 5 22 19 23 20 24 21 25
REMARK SMILES IDX 22 26 23 28 24 29 25 30 77 31 26 32 76 33 27 34 28 35 29 36
REMARK SMILES IDX 70 37 30 38 75 39 69 40 71 41 31 42 74 43 68 44 67 45 32 47
REMARK SMILES IDX 58 48 41 49 57 50 42 51 45 52 56 53 72 54 43 55 44 56 55 58
REMARK SMILES IDX 73 59 46 60 33 61 34 62 39 63 35 64 36 65 38 66 40 67 37 68
REMARK SMILES IDX 59 69 60 70 65 71 61 72 62 73 64 74 66 75 63 76 47 77 48 78
REMARK SMILES IDX 53 79 49 80 50 81 52 82 54 83 51 84
REMARK H PARENT 16 6 7 14 21 27 71 46 45 57
REMARK Flexibility Score: inf
ROOT
ATOM      1  C   UNL A   1      32.163  27.630  27.052  1.00  0.00     0.023 C 
ENDROOT
BRANCH   1   2
ATOM      2  C   UNL A   1      32.104  26.249  26.412  1.00  0.00     0.116 C 
BRANCH   2   3
ATOM      3  N   UNL A   1      31.030  25.400  26.862  1.00  0.00    -0.352 N 
ATOM      4  C   UNL A   1      30.766  24.084  26.557  1.00  0.00     0.253 C 
ATOM      5  O   UNL A   1      29.878  23.529  27.213  1.00  0.00    -0.269 OA
ATOM      6  H   UNL A   1      30.391  25.824  27.479  1.00  0.00     0.163 HD
BRANCH   4   7
ATOM      7  C   UNL A   1      31.372  23.338  25.406  1.00  0.00     0.063 A 
ATOM      8  C   UNL A   1      31.156  23.515  24.024  1.00  0.00     0.051 A 
ATOM      9  C   UNL A   1      31.791  22.614  23.131  1.00  0.00     0.027 A 
ATOM     10  C   UNL A   1      32.670  21.623  23.566  1.00  0.00     0.002 A 
ATOM     11  C   UNL A   1      32.288  22.340  25.824  1.00  0.00     0.016 A 
ATOM     12  C   UNL A   1      32.938  21.500  24.917  1.00  0.00     0.001 A 
BRANCH   8  13
ATOM     13  N   UNL A   1      30.472  24.571  23.387  1.00  0.00    -0.355 N 
ATOM     14  H   UNL A   1      29.645  24.278  22.940  1.00  0.00     0.167 HD
BRANCH  13  15
ATOM     15  C   UNL A   1      30.711  25.954  23.246  1.00  0.00     0.042 A 
ATOM     16  C   UNL A   1      29.029  29.377  22.891  1.00  0.00     0.044 C 
ATOM     17  C   UNL A   1      30.062  28.281  22.914  1.00  0.00    -0.046 A 
ATOM     18  C   UNL A   1      31.378  28.595  22.541  1.00  0.00     0.004 A 
ATOM     19  C   UNL A   1      29.732  26.963  23.325  1.00  0.00    -0.025 A 
ATOM     20  C   UNL A   1      32.367  27.623  22.564  1.00  0.00     0.002 A 
ATOM     21  C   UNL A   1      28.358  26.700  23.892  1.00  0.00     0.047 C 
ATOM     22  C   UNL A   1      32.033  26.318  22.910  1.00  0.00     0.026 A 
ENDBRANCH  13  15
ENDBRANCH   8  13
ENDBRANCH   4   7
ENDBRANCH   2   3
ENDBRANCH   1   2
BRANCH   1  23
ATOM     23  C   UNL A   1      31.650  28.803  26.210  1.00  0.00     0.023 C 
BRANCH  23  24
ATOM     24  C   UNL A   1      32.642  29.908  25.843  1.00  0.00     0.116 C 
BRANCH  24  25
ATOM     25  N   UNL A   1      32.357  31.211  26.425  1.00  0.00    -0.352 N 
ATOM     26  C   UNL A   1      33.135  31.988  27.256  1.00  0.00     0.251 C 
ATOM     27  H   UNL A   1      31.481  31.593  26.190  1.00  0.00     0.163 HD
ATOM     28  O   UNL A   1      32.735  33.086  27.621  1.00  0.00    -0.269 OA
BRANCH  26  29
ATOM     29  C   UNL A   1      34.434  31.477  27.755  1.00  0.00     0.039 A 
ATOM     30  C   UNL A   1      35.459  32.395  28.002  1.00  0.00     0.014 A 
ATOM     31  C   UNL A   1      34.640  30.119  28.011  1.00  0.00     0.014 A 
ATOM     32  C   UNL A   1      36.647  31.968  28.601  1.00  0.00     0.010 A 
ATOM     33  C   UNL A   1      35.800  29.703  28.666  1.00  0.00     0.010 A 
ATOM     34  C   UNL A   1      36.807  30.626  28.988  1.00  0.00    -0.014 A 
BRANCH  34  35
ATOM     35  C   UNL A   1      37.991  30.206  29.785  1.00  0.00     0.031 A 
ATOM     36  C   UNL A   1      38.180  30.673  31.201  1.00  0.00     0.074 A 
ATOM     37  C   UNL A   1      38.935  29.438  29.203  1.00  0.00     0.049 A 
ATOM     38  N   UNL A   1      39.144  30.387  32.041  1.00  0.00    -0.248 NA
ATOM     39  C   UNL A   1      37.174  31.602  31.738  1.00  0.00     0.031 C 
ATOM     40  C   UNL A   1      38.919  28.988  27.809  1.00  0.00     0.029 A 
ATOM     41  N   UNL A   1      40.096  28.904  29.706  1.00  0.00    -0.354 N 
ATOM     42  C   UNL A   1      38.868  31.107  33.197  1.00  0.00     0.074 A 
ATOM     43  C   UNL A   1      37.670  31.877  32.936  1.00  0.00     0.031 C 
ATOM     44  C   UNL A   1      40.003  28.228  27.577  1.00  0.00     0.029 A 
ATOM     45  C   UNL A   1      40.800  28.154  28.796  1.00  0.00     0.049 A 
ATOM     46  H   UNL A   1      40.396  29.046  30.634  1.00  0.00     0.167 HD
ATOM     47  C   UNL A   1      39.539  31.109  34.374  1.00  0.00     0.037 A 
ATOM     48  C   UNL A   1      41.956  27.474  28.928  1.00  0.00     0.037 A 
ATOM     49  C   UNL A   1      40.712  30.320  34.645  1.00  0.00     0.049 A 
ATOM     50  C   UNL A   1      42.646  27.450  30.264  1.00  0.00     0.074 A 
ATOM     51  C   UNL A   1      41.408  30.190  35.836  1.00  0.00     0.029 A 
ATOM     52  N   UNL A   1      41.366  29.528  33.713  1.00  0.00    -0.354 N 
ATOM     53  N   UNL A   1      42.308  28.046  31.381  1.00  0.00    -0.248 NA
ATOM     54  C   UNL A   1      43.869  26.639  30.362  1.00  0.00     0.031 C 
ATOM     55  C   UNL A   1      42.505  29.352  35.614  1.00  0.00     0.029 A 
ATOM     56  C   UNL A   1      42.467  28.924  34.298  1.00  0.00     0.049 A 
ATOM     57  H   UNL A   1      41.089  29.414  32.776  1.00  0.00     0.167 HD
ATOM     58  C   UNL A   1      43.257  27.663  32.319  1.00  0.00     0.074 A 
ATOM     59  C   UNL A   1      44.172  26.764  31.646  1.00  0.00     0.031 C 
ATOM     60  C   UNL A   1      43.366  28.027  33.620  1.00  0.00     0.037 A 
BRANCH  47  61
ATOM     61  C   UNL A   1      39.015  31.985  35.474  1.00  0.00     0.057 A 
ATOM     62  C   UNL A   1      38.195  31.479  36.491  1.00  0.00     0.134 A 
ATOM     63  C   UNL A   1      39.393  33.332  35.558  1.00  0.00     0.134 A 
ATOM     64  F   UNL A   1      37.790  30.201  36.464  1.00  0.00    -0.206 F 
ATOM     65  C   UNL A   1      37.756  32.286  37.543  1.00  0.00     0.040 A 
ATOM     66  C   UNL A   1      38.980  34.141  36.617  1.00  0.00     0.040 A 
ATOM     67  F   UNL A   1      40.184  33.877  34.621  1.00  0.00    -0.206 F 
ATOM     68  C   UNL A   1      38.157  33.619  37.613  1.00  0.00     0.006 A 
ENDBRANCH  47  61
BRANCH  48  69
ATOM     69  C   UNL A   1      42.527  26.732  27.776  1.00  0.00     0.057 A 
ATOM     70  C   UNL A   1      43.385  27.358  26.863  1.00  0.00     0.134 A 
ATOM     71  C   UNL A   1      42.202  25.391  27.539  1.00  0.00     0.134 A 
ATOM     72  F   UNL A   1      43.718  28.647  27.026  1.00  0.00    -0.206 F 
ATOM     73  C   UNL A   1      43.870  26.690  25.737  1.00  0.00     0.040 A 
ATOM     74  C   UNL A   1      42.702  24.703  26.432  1.00  0.00     0.040 A 
ATOM     75  F   UNL A   1      41.394  24.731  28.381  1.00  0.00    -0.206 F 
ATOM     76  C   UNL A   1      43.531  25.357  25.522  1.00  0.00     0.006 A 
ENDBRANCH  48  69
BRANCH  60  77
ATOM     77  C   UNL A   1      44.496  27.426  34.403  1.00  0.00     0.057 A 
ATOM     78  C   UNL A   1      44.365  26.200  35.070  1.00  0.00     0.134 A 
ATOM     79  C   UNL A   1      45.733  28.078  34.487  1.00  0.00     0.134 A 
ATOM     80  F   UNL A   1      43.202  25.532  35.040  1.00  0.00    -0.206 F 
ATOM     81  C   UNL A   1      45.412  25.663  35.820  1.00  0.00     0.040 A 
ATOM     82  C   UNL A   1      46.796  27.537  35.211  1.00  0.00     0.040 A 
ATOM     83  F   UNL A   1      45.929  29.251  33.865  1.00  0.00    -0.206 F 
ATOM     84  C   UNL A   1      46.633  26.330  35.888  1.00  0.00     0.006 A 
ENDBRANCH  60  77
ENDBRANCH  34  35
ENDBRANCH  26  29
ENDBRANCH  24  25
ENDBRANCH  23  24
ENDBRANCH   1  23
TORSDOF 13
ENDMDL
