MODEL 1
REMARK VINA RESULT:     -11.1      0.000      0.000
REMARK SMILES [NH3+][C@]1(C(=O)NCCCCNC(=O)c2ccc(-c3c4nc(c(-c5c(F)cccc5F)c5ccc([nH]5)c(-c5c(F)cccc5F)c5nc(c(-c6c(F)cccc6F)c6ccc3[nH]6)C=C5)C=C4)cc2)CCC[C@H]1CC[NH+]1CCCCC1
REMARK SMILES IDX 7 1 6 2 5 3 3 4 4 5 2 7 67 8 70 9 68 10 69 11 1 12 71 16
REMARK SMILES IDX 72 17 73 18 74 19 78 20 75 22 77 23 76 24 8 25 9 26 10 27
REMARK SMILES IDX 11 28 12 30 13 31 14 32 66 33 15 34 65 35 16 36 17 37 18 38
REMARK SMILES IDX 59 39 19 40 64 41 58 42 60 43 20 44 63 45 57 46 56 47 21 49
REMARK SMILES IDX 47 50 30 51 46 52 31 53 34 54 45 55 61 56 32 57 33 58 44 60
REMARK SMILES IDX 62 61 35 62 22 63 23 64 28 65 24 66 25 67 27 68 29 69 26 70
REMARK SMILES IDX 48 71 49 72 54 73 50 74 51 75 53 76 55 77 52 78 36 79 37 80
REMARK SMILES IDX 42 81 38 82 39 83 41 84 43 85 40 86
REMARK H PARENT 5 6 1 13 1 14 1 15 73 21 10 29 60 48 34 59
REMARK Flexibility Score: inf
ROOT
ATOM      1  C   UNL A   1      32.276  27.152  26.409  1.00  0.00     0.023 C 
ENDROOT
BRANCH   1   2
ATOM      2  C   UNL A   1      31.441  27.283  25.137  1.00  0.00     0.116 C 
BRANCH   2   3
ATOM      3  N   UNL A   1      30.389  26.284  25.039  1.00  0.00    -0.351 N 
ATOM      4  C   UNL A   1      30.422  25.119  25.755  1.00  0.00     0.281 C 
ATOM      5  O   UNL A   1      29.688  25.081  26.754  1.00  0.00    -0.268 OA
ATOM      6  H   UNL A   1      29.628  26.451  24.438  1.00  0.00     0.163 HD
BRANCH   4   7
ATOM      7  C   UNL A   1      31.071  23.786  25.213  1.00  0.00     0.177 C 
ATOM      8  C   UNL A   1      30.765  23.759  23.685  1.00  0.00     0.079 C 
ATOM      9  C   UNL A   1      32.579  23.402  25.285  1.00  0.00     0.066 C 
ATOM     10  C   UNL A   1      32.000  23.176  23.012  1.00  0.00     0.008 C 
ATOM     11  C   UNL A   1      33.137  23.678  23.890  1.00  0.00     0.011 C 
BRANCH   7  12
ATOM     12  N   UNL A   1      30.336  22.676  25.886  1.00  0.00    -0.345 N 
ATOM     13  H   UNL A   1      29.596  22.336  25.271  1.00  0.00     0.345 HD
ATOM     14  H   UNL A   1      29.926  23.016  26.755  1.00  0.00     0.345 HD
ATOM     15  H   UNL A   1      30.983  21.913  26.090  1.00  0.00     0.345 HD
ENDBRANCH   7  12
BRANCH   9  16
ATOM     16  C   UNL A   1      33.485  23.803  26.449  1.00  0.00     0.072 C 
BRANCH  16  17
ATOM     17  C   UNL A   1      34.046  22.575  27.168  1.00  0.00     0.262 C 
BRANCH  17  18
ATOM     18  N   UNL A   1      35.394  22.216  26.692  1.00  0.00    -0.335 N 
ATOM     19  C   UNL A   1      35.310  21.161  25.667  1.00  0.00     0.262 C 
ATOM     20  C   UNL A   1      36.025  23.441  26.161  1.00  0.00     0.262 C 
ATOM     21  H   UNL A   1      35.961  21.843  27.453  1.00  0.00     0.348 HD
ATOM     22  C   UNL A   1      36.653  20.873  24.993  1.00  0.00     0.062 C 
ATOM     23  C   UNL A   1      37.377  23.194  25.504  1.00  0.00     0.062 C 
ATOM     24  C   UNL A   1      37.252  22.145  24.409  1.00  0.00     0.012 C 
ENDBRANCH  17  18
ENDBRANCH  16  17
ENDBRANCH   9  16
ENDBRANCH   4   7
ENDBRANCH   2   3
ENDBRANCH   1   2
BRANCH   1  25
ATOM     25  C   UNL A   1      32.402  28.438  27.229  1.00  0.00     0.023 C 
BRANCH  25  26
ATOM     26  C   UNL A   1      33.736  29.179  27.157  1.00  0.00     0.116 C 
BRANCH  26  27
ATOM     27  N   UNL A   1      33.788  30.422  27.910  1.00  0.00    -0.352 N 
ATOM     28  C   UNL A   1      34.858  30.941  28.607  1.00  0.00     0.251 C 
ATOM     29  H   UNL A   1      32.961  30.957  27.923  1.00  0.00     0.163 HD
ATOM     30  O   UNL A   1      34.767  32.000  29.220  1.00  0.00    -0.269 OA
BRANCH  28  31
ATOM     31  C   UNL A   1      36.113  30.163  28.655  1.00  0.00     0.039 A 
ATOM     32  C   UNL A   1      36.966  30.196  27.549  1.00  0.00     0.014 A 
ATOM     33  C   UNL A   1      36.496  29.513  29.831  1.00  0.00     0.014 A 
ATOM     34  C   UNL A   1      38.253  29.668  27.659  1.00  0.00     0.010 A 
ATOM     35  C   UNL A   1      37.800  29.040  29.957  1.00  0.00     0.010 A 
ATOM     36  C   UNL A   1      38.700  29.138  28.882  1.00  0.00    -0.014 A 
BRANCH  36  37
ATOM     37  C   UNL A   1      40.119  28.738  29.071  1.00  0.00     0.031 A 
ATOM     38  C   UNL A   1      41.117  29.714  29.624  1.00  0.00     0.074 A 
ATOM     39  C   UNL A   1      40.526  27.519  28.659  1.00  0.00     0.049 A 
ATOM     40  N   UNL A   1      42.406  29.568  29.793  1.00  0.00    -0.248 NA
ATOM     41  C   UNL A   1      40.606  31.038  30.010  1.00  0.00     0.031 C 
ATOM     42  C   UNL A   1      39.670  26.502  28.039  1.00  0.00     0.029 A 
ATOM     43  N   UNL A   1      41.767  26.932  28.682  1.00  0.00    -0.354 N 
ATOM     44  C   UNL A   1      42.863  30.785  30.282  1.00  0.00     0.074 A 
ATOM     45  C   UNL A   1      41.720  31.671  30.348  1.00  0.00     0.031 C 
ATOM     46  C   UNL A   1      40.410  25.419  27.752  1.00  0.00     0.029 A 
ATOM     47  C   UNL A   1      41.793  25.670  28.139  1.00  0.00     0.049 A 
ATOM     48  H   UNL A   1      42.564  27.375  29.053  1.00  0.00     0.167 HD
ATOM     49  C   UNL A   1      44.118  31.126  30.660  1.00  0.00     0.037 A 
ATOM     50  C   UNL A   1      42.819  24.813  27.967  1.00  0.00     0.037 A 
ATOM     51  C   UNL A   1      45.245  30.232  30.638  1.00  0.00     0.049 A 
ATOM     52  C   UNL A   1      44.195  25.208  28.431  1.00  0.00     0.074 A 
ATOM     53  C   UNL A   1      46.532  30.458  31.094  1.00  0.00     0.029 A 
ATOM     54  N   UNL A   1      45.220  28.942  30.131  1.00  0.00    -0.354 N 
ATOM     55  N   UNL A   1      44.589  26.325  28.990  1.00  0.00    -0.248 NA
ATOM     56  C   UNL A   1      45.267  24.218  28.251  1.00  0.00     0.031 C 
ATOM     57  C   UNL A   1      47.297  29.319  30.829  1.00  0.00     0.029 A 
ATOM     58  C   UNL A   1      46.476  28.369  30.244  1.00  0.00     0.049 A 
ATOM     59  H   UNL A   1      44.428  28.500  29.749  1.00  0.00     0.167 HD
ATOM     60  C   UNL A   1      45.942  26.162  29.254  1.00  0.00     0.074 A 
ATOM     61  C   UNL A   1      46.300  24.832  28.808  1.00  0.00     0.031 C 
ATOM     62  C   UNL A   1      46.812  27.038  29.813  1.00  0.00     0.037 A 
BRANCH  49  63
ATOM     63  C   UNL A   1      44.344  32.528  31.141  1.00  0.00     0.057 A 
ATOM     64  C   UNL A   1      44.624  33.575  30.255  1.00  0.00     0.134 A 
ATOM     65  C   UNL A   1      44.216  32.845  32.499  1.00  0.00     0.134 A 
ATOM     66  F   UNL A   1      44.769  33.335  28.943  1.00  0.00    -0.206 F 
ATOM     67  C   UNL A   1      44.785  34.887  30.703  1.00  0.00     0.040 A 
ATOM     68  C   UNL A   1      44.352  34.156  32.957  1.00  0.00     0.040 A 
ATOM     69  F   UNL A   1      43.942  31.889  33.399  1.00  0.00    -0.206 F 
ATOM     70  C   UNL A   1      44.640  35.181  32.058  1.00  0.00     0.006 A 
ENDBRANCH  49  63
BRANCH  50  71
ATOM     71  C   UNL A   1      42.594  23.486  27.337  1.00  0.00     0.057 A 
ATOM     72  C   UNL A   1      42.216  22.377  28.103  1.00  0.00     0.134 A 
ATOM     73  C   UNL A   1      42.795  23.285  25.967  1.00  0.00     0.134 A 
ATOM     74  F   UNL A   1      42.030  22.502  29.425  1.00  0.00    -0.206 F 
ATOM     75  C   UNL A   1      42.075  21.109  27.536  1.00  0.00     0.040 A 
ATOM     76  C   UNL A   1      42.633  22.028  25.382  1.00  0.00     0.040 A 
ATOM     77  F   UNL A   1      43.151  24.307  25.176  1.00  0.00    -0.206 F 
ATOM     78  C   UNL A   1      42.283  20.932  26.170  1.00  0.00     0.006 A 
ENDBRANCH  50  71
BRANCH  62  79
ATOM     79  C   UNL A   1      48.225  26.573  30.011  1.00  0.00     0.057 A 
ATOM     80  C   UNL A   1      49.223  26.820  29.061  1.00  0.00     0.134 A 
ATOM     81  C   UNL A   1      48.596  25.909  31.186  1.00  0.00     0.134 A 
ATOM     82  F   UNL A   1      48.928  27.439  27.908  1.00  0.00    -0.206 F 
ATOM     83  C   UNL A   1      50.540  26.405  29.266  1.00  0.00     0.040 A 
ATOM     84  C   UNL A   1      49.915  25.511  31.413  1.00  0.00     0.040 A 
ATOM     85  F   UNL A   1      47.688  25.649  32.140  1.00  0.00    -0.206 F 
ATOM     86  C   UNL A   1      50.890  25.755  30.448  1.00  0.00     0.006 A 
ENDBRANCH  62  79
ENDBRANCH  36  37
ENDBRANCH  28  31
ENDBRANCH  26  27
ENDBRANCH  25  26
ENDBRANCH   1  25
TORSDOF 15
ENDMDL
MODEL 2
REMARK VINA RESULT:     -11.1      2.914      7.600
REMARK SMILES [NH3+][C@]1(C(=O)NCCCCNC(=O)c2ccc(-c3c4nc(c(-c5c(F)cccc5F)c5ccc([nH]5)c(-c5c(F)cccc5F)c5nc(c(-c6c(F)cccc6F)c6ccc3[nH]6)C=C5)C=C4)cc2)CCC[C@H]1CC[NH+]1CCCCC1
REMARK SMILES IDX 7 1 6 2 5 3 3 4 4 5 2 7 67 8 70 9 68 10 69 11 1 12 71 16
REMARK SMILES IDX 72 17 73 18 74 19 78 20 75 22 77 23 76 24 8 25 9 26 10 27
REMARK SMILES IDX 11 28 12 30 13 31 14 32 66 33 15 34 65 35 16 36 17 37 18 38
REMARK SMILES IDX 59 39 19 40 64 41 58 42 60 43 20 44 63 45 57 46 56 47 21 49
REMARK SMILES IDX 47 50 30 51 46 52 31 53 34 54 45 55 61 56 32 57 33 58 44 60
REMARK SMILES IDX 62 61 35 62 22 63 23 64 28 65 24 66 25 67 27 68 29 69 26 70
REMARK SMILES IDX 48 71 49 72 54 73 50 74 51 75 53 76 55 77 52 78 36 79 37 80
REMARK SMILES IDX 42 81 38 82 39 83 41 84 43 85 40 86
REMARK H PARENT 5 6 1 13 1 14 1 15 73 21 10 29 60 48 34 59
REMARK Flexibility Score: inf
ROOT
ATOM      1  C   UNL A   1      37.101  21.703  24.689  1.00  0.00     0.023 C 
ENDROOT
BRANCH   1   2
ATOM      2  C   UNL A   1      37.438  22.875  25.608  1.00  0.00     0.116 C 
BRANCH   2   3
ATOM      3  N   UNL A   1      36.376  23.185  26.551  1.00  0.00    -0.351 N 
ATOM      4  C   UNL A   1      35.108  22.693  26.408  1.00  0.00     0.281 C 
ATOM      5  O   UNL A   1      34.814  21.740  27.146  1.00  0.00    -0.268 OA
ATOM      6  H   UNL A   1      36.576  23.768  27.318  1.00  0.00     0.163 HD
BRANCH   4   7
ATOM      7  C   UNL A   1      33.968  23.449  25.620  1.00  0.00     0.177 C 
ATOM      8  C   UNL A   1      34.452  24.924  25.492  1.00  0.00     0.079 C 
ATOM      9  C   UNL A   1      33.460  23.110  24.187  1.00  0.00     0.066 C 
ATOM     10  C   UNL A   1      34.014  25.399  24.112  1.00  0.00     0.008 C 
ATOM     11  C   UNL A   1      34.119  24.137  23.268  1.00  0.00     0.011 C 
BRANCH   7  12
ATOM     12  N   UNL A   1      32.764  23.396  26.501  1.00  0.00    -0.345 N 
ATOM     13  H   UNL A   1      32.310  24.309  26.509  1.00  0.00     0.345 HD
ATOM     14  H   UNL A   1      33.046  23.147  27.448  1.00  0.00     0.345 HD
ATOM     15  H   UNL A   1      32.112  22.696  26.145  1.00  0.00     0.345 HD
ENDBRANCH   7  12
BRANCH   9  16
ATOM     16  C   UNL A   1      33.397  21.683  23.642  1.00  0.00     0.072 C 
BRANCH  16  17
ATOM     17  C   UNL A   1      32.332  20.856  24.366  1.00  0.00     0.262 C 
BRANCH  17  18
ATOM     18  N   UNL A   1      32.684  19.426  24.431  1.00  0.00    -0.335 N 
ATOM     19  C   UNL A   1      32.251  18.736  23.204  1.00  0.00     0.262 C 
ATOM     20  C   UNL A   1      34.145  19.330  24.623  1.00  0.00     0.262 C 
ATOM     21  H   UNL A   1      32.208  18.970  25.210  1.00  0.00     0.348 HD
ATOM     22  C   UNL A   1      32.750  17.293  23.121  1.00  0.00     0.062 C 
ATOM     23  C   UNL A   1      34.674  17.903  24.571  1.00  0.00     0.062 C 
ATOM     24  C   UNL A   1      34.264  17.232  23.268  1.00  0.00     0.012 C 
ENDBRANCH  17  18
ENDBRANCH  16  17
ENDBRANCH   9  16
ENDBRANCH   4   7
ENDBRANCH   2   3
ENDBRANCH   1   2
BRANCH   1  25
ATOM     25  C   UNL A   1      37.857  20.407  24.999  1.00  0.00     0.023 C 
BRANCH  25  26
ATOM     26  C   UNL A   1      39.186  20.540  25.739  1.00  0.00     0.116 C 
BRANCH  26  27
ATOM     27  N   UNL A   1      40.003  19.337  25.751  1.00  0.00    -0.352 N 
ATOM     28  C   UNL A   1      41.336  19.227  26.087  1.00  0.00     0.251 C 
ATOM     29  H   UNL A   1      39.552  18.503  25.489  1.00  0.00     0.163 HD
ATOM     30  O   UNL A   1      41.919  18.149  26.039  1.00  0.00    -0.269 OA
BRANCH  28  31
ATOM     31  C   UNL A   1      42.076  20.453  26.451  1.00  0.00     0.039 A 
ATOM     32  C   UNL A   1      42.646  21.221  25.432  1.00  0.00     0.014 A 
ATOM     33  C   UNL A   1      42.092  20.900  27.774  1.00  0.00     0.014 A 
ATOM     34  C   UNL A   1      43.140  22.493  25.727  1.00  0.00     0.010 A 
ATOM     35  C   UNL A   1      42.531  22.192  28.054  1.00  0.00     0.010 A 
ATOM     36  C   UNL A   1      43.034  23.011  27.029  1.00  0.00    -0.014 A 
BRANCH  36  37
ATOM     37  C   UNL A   1      43.387  24.425  27.322  1.00  0.00     0.031 A 
ATOM     38  C   UNL A   1      44.816  24.883  27.251  1.00  0.00     0.074 A 
ATOM     39  C   UNL A   1      42.427  25.275  27.742  1.00  0.00     0.049 A 
ATOM     40  N   UNL A   1      45.321  26.055  27.541  1.00  0.00    -0.248 NA
ATOM     41  C   UNL A   1      45.811  23.885  26.829  1.00  0.00     0.031 C 
ATOM     42  C   UNL A   1      41.012  24.937  27.922  1.00  0.00     0.029 A 
ATOM     43  N   UNL A   1      42.497  26.597  28.110  1.00  0.00    -0.354 N 
ATOM     44  C   UNL A   1      46.692  25.930  27.357  1.00  0.00     0.074 A 
ATOM     45  C   UNL A   1      46.944  24.559  26.969  1.00  0.00     0.031 C 
ATOM     46  C   UNL A   1      40.351  26.023  28.356  1.00  0.00     0.029 A 
ATOM     47  C   UNL A   1      41.293  27.125  28.512  1.00  0.00     0.049 A 
ATOM     48  H   UNL A   1      43.333  27.117  28.089  1.00  0.00     0.167 HD
ATOM     49  C   UNL A   1      47.650  26.878  27.484  1.00  0.00     0.037 A 
ATOM     50  C   UNL A   1      40.985  28.357  28.960  1.00  0.00     0.037 A 
ATOM     51  C   UNL A   1      47.395  28.252  27.826  1.00  0.00     0.049 A 
ATOM     52  C   UNL A   1      42.067  29.399  29.054  1.00  0.00     0.074 A 
ATOM     53  C   UNL A   1      48.290  29.306  27.881  1.00  0.00     0.029 A 
ATOM     54  N   UNL A   1      46.154  28.762  28.173  1.00  0.00    -0.354 N 
ATOM     55  N   UNL A   1      43.342  29.293  28.775  1.00  0.00    -0.248 NA
ATOM     56  C   UNL A   1      41.664  30.736  29.515  1.00  0.00     0.031 C 
ATOM     57  C   UNL A   1      47.599  30.446  28.298  1.00  0.00     0.029 A 
ATOM     58  C   UNL A   1      46.265  30.111  28.465  1.00  0.00     0.049 A 
ATOM     59  H   UNL A   1      45.318  28.243  28.207  1.00  0.00     0.167 HD
ATOM     60  C   UNL A   1      43.887  30.550  28.997  1.00  0.00     0.074 A 
ATOM     61  C   UNL A   1      42.801  31.409  29.420  1.00  0.00     0.031 C 
ATOM     62  C   UNL A   1      45.173  30.957  28.866  1.00  0.00     0.037 A 
BRANCH  49  63
ATOM     63  C   UNL A   1      49.072  26.468  27.242  1.00  0.00     0.057 A 
ATOM     64  C   UNL A   1      49.895  26.016  28.281  1.00  0.00     0.134 A 
ATOM     65  C   UNL A   1      49.602  26.464  25.947  1.00  0.00     0.134 A 
ATOM     66  F   UNL A   1      49.449  26.006  29.547  1.00  0.00    -0.206 F 
ATOM     67  C   UNL A   1      51.203  25.589  28.043  1.00  0.00     0.040 A 
ATOM     68  C   UNL A   1      50.900  26.018  25.692  1.00  0.00     0.040 A 
ATOM     69  F   UNL A   1      48.864  26.878  24.907  1.00  0.00    -0.206 F 
ATOM     70  C   UNL A   1      51.705  25.581  26.743  1.00  0.00     0.006 A 
ENDBRANCH  49  63
BRANCH  50  71
ATOM     71  C   UNL A   1      39.590  28.691  29.347  1.00  0.00     0.057 A 
ATOM     72  C   UNL A   1      39.127  28.466  30.649  1.00  0.00     0.134 A 
ATOM     73  C   UNL A   1      38.676  29.198  28.417  1.00  0.00     0.134 A 
ATOM     74  F   UNL A   1      39.950  27.961  31.580  1.00  0.00    -0.206 F 
ATOM     75  C   UNL A   1      37.799  28.705  31.005  1.00  0.00     0.040 A 
ATOM     76  C   UNL A   1      37.350  29.465  28.765  1.00  0.00     0.040 A 
ATOM     77  F   UNL A   1      39.057  29.442  27.155  1.00  0.00    -0.206 F 
ATOM     78  C   UNL A   1      36.906  29.208  30.061  1.00  0.00     0.006 A 
ENDBRANCH  50  71
BRANCH  62  79
ATOM     79  C   UNL A   1      45.470  32.401  29.143  1.00  0.00     0.057 A 
ATOM     80  C   UNL A   1      45.366  33.380  28.148  1.00  0.00     0.134 A 
ATOM     81  C   UNL A   1      45.823  32.820  30.432  1.00  0.00     0.134 A 
ATOM     82  F   UNL A   1      45.045  33.041  26.890  1.00  0.00    -0.206 F 
ATOM     83  C   UNL A   1      45.620  34.725  28.422  1.00  0.00     0.040 A 
ATOM     84  C   UNL A   1      46.056  34.165  30.723  1.00  0.00     0.040 A 
ATOM     85  F   UNL A   1      45.932  31.932  31.432  1.00  0.00    -0.206 F 
ATOM     86  C   UNL A   1      45.959  35.121  29.715  1.00  0.00     0.006 A 
ENDBRANCH  62  79
ENDBRANCH  36  37
ENDBRANCH  28  31
ENDBRANCH  26  27
ENDBRANCH  25  26
ENDBRANCH   1  25
TORSDOF 15
ENDMDL
MODEL 3
REMARK VINA RESULT:     -11.0      4.050      6.217
REMARK SMILES [NH3+][C@]1(C(=O)NCCCCNC(=O)c2ccc(-c3c4nc(c(-c5c(F)cccc5F)c5ccc([nH]5)c(-c5c(F)cccc5F)c5nc(c(-c6c(F)cccc6F)c6ccc3[nH]6)C=C5)C=C4)cc2)CCC[C@H]1CC[NH+]1CCCCC1
REMARK SMILES IDX 7 1 6 2 5 3 3 4 4 5 2 7 67 8 70 9 68 10 69 11 1 12 71 16
REMARK SMILES IDX 72 17 73 18 74 19 78 20 75 22 77 23 76 24 8 25 9 26 10 27
REMARK SMILES IDX 11 28 12 30 13 31 14 32 66 33 15 34 65 35 16 36 17 37 18 38
REMARK SMILES IDX 59 39 19 40 64 41 58 42 60 43 20 44 63 45 57 46 56 47 21 49
REMARK SMILES IDX 47 50 30 51 46 52 31 53 34 54 45 55 61 56 32 57 33 58 44 60
REMARK SMILES IDX 62 61 35 62 22 63 23 64 28 65 24 66 25 67 27 68 29 69 26 70
REMARK SMILES IDX 48 71 49 72 54 73 50 74 51 75 53 76 55 77 52 78 36 79 37 80
REMARK SMILES IDX 42 81 38 82 39 83 41 84 43 85 40 86
REMARK H PARENT 5 6 1 13 1 14 1 15 73 21 10 29 60 48 34 59
REMARK Flexibility Score: inf
ROOT
ATOM      1  C   UNL A   1      32.163  29.805  26.786  1.00  0.00     0.023 C 
ENDROOT
BRANCH   1   2
ATOM      2  C   UNL A   1      33.639  29.431  26.896  1.00  0.00     0.116 C 
BRANCH   2   3
ATOM      3  N   UNL A   1      34.202  28.953  25.644  1.00  0.00    -0.351 N 
ATOM      4  C   UNL A   1      33.418  28.608  24.578  1.00  0.00     0.281 C 
ATOM      5  O   UNL A   1      33.358  29.444  23.662  1.00  0.00    -0.268 OA
ATOM      6  H   UNL A   1      35.180  28.875  25.561  1.00  0.00     0.163 HD
BRANCH   4   7
ATOM      7  C   UNL A   1      32.881  27.145  24.334  1.00  0.00     0.177 C 
ATOM      8  C   UNL A   1      33.716  26.227  25.275  1.00  0.00     0.079 C 
ATOM      9  C   UNL A   1      31.419  26.654  24.556  1.00  0.00     0.066 C 
ATOM     10  C   UNL A   1      32.757  25.164  25.797  1.00  0.00     0.008 C 
ATOM     11  C   UNL A   1      31.436  25.913  25.891  1.00  0.00     0.011 C 
BRANCH   7  12
ATOM     12  N   UNL A   1      33.205  26.826  22.913  1.00  0.00    -0.345 N 
ATOM     13  H   UNL A   1      32.876  27.582  22.312  1.00  0.00     0.345 HD
ATOM     14  H   UNL A   1      32.746  25.955  22.646  1.00  0.00     0.345 HD
ATOM     15  H   UNL A   1      34.215  26.724  22.808  1.00  0.00     0.345 HD
ENDBRANCH   7  12
BRANCH   9  16
ATOM     16  C   UNL A   1      30.197  27.539  24.309  1.00  0.00     0.072 C 
BRANCH  16  17
ATOM     17  C   UNL A   1      30.053  27.890  22.826  1.00  0.00     0.262 C 
BRANCH  17  18
ATOM     18  N   UNL A   1      29.629  29.287  22.621  1.00  0.00    -0.335 N 
ATOM     19  C   UNL A   1      28.211  29.340  22.228  1.00  0.00     0.262 C 
ATOM     20  C   UNL A   1      29.873  30.021  23.880  1.00  0.00     0.262 C 
ATOM     21  H   UNL A   1      30.162  29.721  21.867  1.00  0.00     0.348 HD
ATOM     22  C   UNL A   1      27.654  30.763  22.183  1.00  0.00     0.062 C 
ATOM     23  C   UNL A   1      29.352  31.452  23.862  1.00  0.00     0.062 C 
ATOM     24  C   UNL A   1      27.872  31.474  23.512  1.00  0.00     0.012 C 
ENDBRANCH  17  18
ENDBRANCH  16  17
ENDBRANCH   9  16
ENDBRANCH   4   7
ENDBRANCH   2   3
ENDBRANCH   1   2
BRANCH   1  25
ATOM     25  C   UNL A   1      31.885  31.309  26.715  1.00  0.00     0.023 C 
BRANCH  25  26
ATOM     26  C   UNL A   1      32.972  32.241  27.248  1.00  0.00     0.116 C 
BRANCH  26  27
ATOM     27  N   UNL A   1      32.528  33.594  27.544  1.00  0.00    -0.352 N 
ATOM     28  C   UNL A   1      33.082  34.487  28.436  1.00  0.00     0.251 C 
ATOM     29  H   UNL A   1      31.738  33.910  27.048  1.00  0.00     0.163 HD
ATOM     30  O   UNL A   1      32.599  35.601  28.606  1.00  0.00    -0.269 OA
BRANCH  28  31
ATOM     31  C   UNL A   1      34.245  34.054  29.237  1.00  0.00     0.039 A 
ATOM     32  C   UNL A   1      34.022  33.311  30.399  1.00  0.00     0.014 A 
ATOM     33  C   UNL A   1      35.544  34.275  28.772  1.00  0.00     0.014 A 
ATOM     34  C   UNL A   1      35.099  32.694  31.037  1.00  0.00     0.010 A 
ATOM     35  C   UNL A   1      36.609  33.611  29.376  1.00  0.00     0.010 A 
ATOM     36  C   UNL A   1      36.393  32.792  30.498  1.00  0.00    -0.014 A 
BRANCH  36  37
ATOM     37  C   UNL A   1      37.519  31.999  31.057  1.00  0.00     0.031 A 
ATOM     38  C   UNL A   1      38.052  32.297  32.430  1.00  0.00     0.074 A 
ATOM     39  C   UNL A   1      38.121  31.068  30.288  1.00  0.00     0.049 A 
ATOM     40  N   UNL A   1      39.069  31.760  33.053  1.00  0.00    -0.248 NA
ATOM     41  C   UNL A   1      37.371  33.357  33.189  1.00  0.00     0.031 C 
ATOM     42  C   UNL A   1      37.747  30.731  28.912  1.00  0.00     0.029 A 
ATOM     43  N   UNL A   1      39.188  30.243  30.548  1.00  0.00    -0.354 N 
ATOM     44  C   UNL A   1      39.164  32.430  34.266  1.00  0.00     0.074 A 
ATOM     45  C   UNL A   1      38.126  33.438  34.275  1.00  0.00     0.031 C 
ATOM     46  C   UNL A   1      38.564  29.768  28.455  1.00  0.00     0.029 A 
ATOM     47  C   UNL A   1      39.535  29.435  29.491  1.00  0.00     0.049 A 
ATOM     48  H   UNL A   1      39.661  30.232  31.412  1.00  0.00     0.167 HD
ATOM     49  C   UNL A   1      40.027  32.212  35.286  1.00  0.00     0.037 A 
ATOM     50  C   UNL A   1      40.528  28.533  29.369  1.00  0.00     0.037 A 
ATOM     51  C   UNL A   1      41.030  31.180  35.295  1.00  0.00     0.049 A 
ATOM     52  C   UNL A   1      41.448  28.287  30.534  1.00  0.00     0.074 A 
ATOM     53  C   UNL A   1      41.884  30.820  36.323  1.00  0.00     0.029 A 
ATOM     54  N   UNL A   1      41.315  30.346  34.226  1.00  0.00    -0.354 N 
ATOM     55  N   UNL A   1      41.457  28.857  31.714  1.00  0.00    -0.248 NA
ATOM     56  C   UNL A   1      42.489  27.265  30.355  1.00  0.00     0.031 C 
ATOM     57  C   UNL A   1      42.713  29.792  35.864  1.00  0.00     0.029 A 
ATOM     58  C   UNL A   1      42.348  29.486  34.564  1.00  0.00     0.049 A 
ATOM     59  H   UNL A   1      40.853  30.361  33.357  1.00  0.00     0.167 HD
ATOM     60  C   UNL A   1      42.480  28.244  32.425  1.00  0.00     0.074 A 
ATOM     61  C   UNL A   1      43.061  27.248  31.550  1.00  0.00     0.031 C 
ATOM     62  C   UNL A   1      42.903  28.487  33.689  1.00  0.00     0.037 A 
BRANCH  49  63
ATOM     63  C   UNL A   1      39.924  33.100  36.489  1.00  0.00     0.057 A 
ATOM     64  C   UNL A   1      40.698  34.260  36.617  1.00  0.00     0.134 A 
ATOM     65  C   UNL A   1      38.994  32.827  37.499  1.00  0.00     0.134 A 
ATOM     66  F   UNL A   1      41.614  34.572  35.688  1.00  0.00    -0.206 F 
ATOM     67  C   UNL A   1      40.562  35.110  37.716  1.00  0.00     0.040 A 
ATOM     68  C   UNL A   1      38.832  33.681  38.591  1.00  0.00     0.040 A 
ATOM     69  F   UNL A   1      38.217  31.736  37.434  1.00  0.00    -0.206 F 
ATOM     70  C   UNL A   1      39.620  34.825  38.703  1.00  0.00     0.006 A 
ENDBRANCH  49  63
BRANCH  50  71
ATOM     71  C   UNL A   1      40.708  27.778  28.102  1.00  0.00     0.057 A 
ATOM     72  C   UNL A   1      40.119  26.521  27.920  1.00  0.00     0.134 A 
ATOM     73  C   UNL A   1      41.505  28.273  27.064  1.00  0.00     0.134 A 
ATOM     74  F   UNL A   1      39.361  25.984  28.887  1.00  0.00    -0.206 F 
ATOM     75  C   UNL A   1      40.342  25.768  26.765  1.00  0.00     0.040 A 
ATOM     76  C   UNL A   1      41.717  27.542  25.893  1.00  0.00     0.040 A 
ATOM     77  F   UNL A   1      42.092  29.474  27.172  1.00  0.00    -0.206 F 
ATOM     78  C   UNL A   1      41.142  26.281  25.746  1.00  0.00     0.006 A 
ENDBRANCH  50  71
BRANCH  62  79
ATOM     79  C   UNL A   1      44.021  27.637  34.216  1.00  0.00     0.057 A 
ATOM     80  C   UNL A   1      45.358  28.043  34.134  1.00  0.00     0.134 A 
ATOM     81  C   UNL A   1      43.749  26.419  34.851  1.00  0.00     0.134 A 
ATOM     82  F   UNL A   1      45.685  29.193  33.526  1.00  0.00    -0.206 F 
ATOM     83  C   UNL A   1      46.389  27.256  34.650  1.00  0.00     0.040 A 
ATOM     84  C   UNL A   1      44.769  25.635  35.392  1.00  0.00     0.040 A 
ATOM     85  F   UNL A   1      42.487  25.977  34.969  1.00  0.00    -0.206 F 
ATOM     86  C   UNL A   1      46.095  26.052  35.288  1.00  0.00     0.006 A 
ENDBRANCH  62  79
ENDBRANCH  36  37
ENDBRANCH  28  31
ENDBRANCH  26  27
ENDBRANCH  25  26
ENDBRANCH   1  25
TORSDOF 15
ENDMDL
