MODEL 1
REMARK VINA RESULT:     -13.3      0.000      0.000
REMARK SMILES O=C(NCCCCNC(=O)[C@H]1Cc2c([nH]c3ccccc23)[C@H](c2c[nH]c3ccccc23)[NH2+]1)c1ccc(-c2c3nc(c(-c4c(F)cccc4F)c4ccc([nH]4)c(-c4c(F)cccc4F)c4nc(c(-c5c(F)cccc5F)c5ccc2[nH]5)C=C4)C=C3)cc1
REMARK SMILES IDX 5 1 4 2 3 3 1 4 2 5 33 7 34 8 86 9 35 10 85 11 36 12 37 13
REMARK SMILES IDX 38 14 79 15 39 16 84 17 78 18 80 19 40 20 83 21 77 22 76 23
REMARK SMILES IDX 41 25 67 26 50 27 66 28 51 29 54 30 65 31 81 32 52 33 53 34
REMARK SMILES IDX 64 36 82 37 55 38 42 39 43 40 48 41 44 42 45 43 47 44 49 45
REMARK SMILES IDX 46 46 68 47 69 48 74 49 70 50 71 51 73 52 75 53 72 54 56 55
REMARK SMILES IDX 57 56 62 57 58 58 59 59 61 60 63 61 60 62 6 63 7 64 8 65
REMARK SMILES IDX 9 66 10 68 11 69 12 70 32 71 13 72 22 73 14 76 21 77 15 78
REMARK SMILES IDX 16 79 20 80 17 82 19 83 18 84 23 85 24 86 31 87 25 88 26 89
REMARK SMILES IDX 30 90 27 92 29 93 28 94
REMARK H PARENT 3 6 80 24 54 35 8 67 32 74 32 75 15 81 25 91
REMARK Flexibility Score: inf
ROOT
ATOM      1  C   UNL A   1      33.494  28.931  26.564  1.00  0.00     0.023 C 
ENDROOT
BRANCH   1   2
ATOM      2  C   UNL A   1      34.825  29.006  27.294  1.00  0.00     0.116 C 
BRANCH   2   3
ATOM      3  N   UNL A   1      34.862  29.991  28.369  1.00  0.00    -0.352 N 
ATOM      4  O   UNL A   1      35.798  31.124  30.091  1.00  0.00    -0.269 OA
ATOM      5  C   UNL A   1      35.929  30.338  29.171  1.00  0.00     0.251 C 
ATOM      6  H   UNL A   1      34.020  30.468  28.545  1.00  0.00     0.163 HD
BRANCH   5   7
ATOM      7  C   UNL A   1      37.232  29.694  28.904  1.00  0.00     0.039 A 
ATOM      8  C   UNL A   1      37.924  29.082  29.948  1.00  0.00     0.014 A 
ATOM      9  C   UNL A   1      37.801  29.795  27.632  1.00  0.00     0.014 A 
ATOM     10  C   UNL A   1      39.254  28.744  29.773  1.00  0.00     0.010 A 
ATOM     11  C   UNL A   1      39.110  29.347  27.429  1.00  0.00     0.010 A 
ATOM     12  C   UNL A   1      39.859  28.859  28.508  1.00  0.00    -0.014 A 
BRANCH  12  13
ATOM     13  C   UNL A   1      41.262  28.399  28.359  1.00  0.00     0.031 A 
ATOM     14  C   UNL A   1      41.589  26.978  27.995  1.00  0.00     0.074 A 
ATOM     15  C   UNL A   1      42.239  29.318  28.474  1.00  0.00     0.049 A 
ATOM     16  N   UNL A   1      42.763  26.444  27.765  1.00  0.00    -0.248 NA
ATOM     17  C   UNL A   1      40.469  26.033  27.880  1.00  0.00     0.031 C 
ATOM     18  C   UNL A   1      42.029  30.725  28.834  1.00  0.00     0.029 A 
ATOM     19  N   UNL A   1      43.588  29.230  28.257  1.00  0.00    -0.354 N 
ATOM     20  C   UNL A   1      42.526  25.101  27.503  1.00  0.00     0.074 A 
ATOM     21  C   UNL A   1      41.098  24.895  27.616  1.00  0.00     0.031 C 
ATOM     22  C   UNL A   1      43.192  31.381  28.733  1.00  0.00     0.029 A 
ATOM     23  C   UNL A   1      44.239  30.433  28.378  1.00  0.00     0.049 A 
ATOM     24  H   UNL A   1      44.045  28.387  28.036  1.00  0.00     0.167 HD
ATOM     25  C   UNL A   1      43.422  24.132  27.194  1.00  0.00     0.037 A 
ATOM     26  C   UNL A   1      45.539  30.740  28.227  1.00  0.00     0.037 A 
ATOM     27  C   UNL A   1      44.840  24.352  27.061  1.00  0.00     0.049 A 
ATOM     28  C   UNL A   1      46.501  29.649  27.870  1.00  0.00     0.074 A 
ATOM     29  C   UNL A   1      45.830  23.436  26.744  1.00  0.00     0.029 A 
ATOM     30  N   UNL A   1      45.469  25.577  27.227  1.00  0.00    -0.354 N 
ATOM     31  N   UNL A   1      46.260  28.383  27.636  1.00  0.00    -0.248 NA
ATOM     32  C   UNL A   1      47.916  30.027  27.772  1.00  0.00     0.031 C 
ATOM     33  C   UNL A   1      47.061  24.102  26.746  1.00  0.00     0.029 A 
ATOM     34  C   UNL A   1      46.834  25.439  27.030  1.00  0.00     0.049 A 
ATOM     35  H   UNL A   1      45.013  26.420  27.452  1.00  0.00     0.167 HD
ATOM     36  C   UNL A   1      47.492  27.808  27.370  1.00  0.00     0.074 A 
ATOM     37  C   UNL A   1      48.474  28.874  27.433  1.00  0.00     0.031 C 
ATOM     38  C   UNL A   1      47.790  26.511  27.112  1.00  0.00     0.037 A 
BRANCH  25  39
ATOM     39  C   UNL A   1      42.905  22.738  26.991  1.00  0.00     0.057 A 
ATOM     40  C   UNL A   1      42.796  22.171  25.716  1.00  0.00     0.134 A 
ATOM     41  C   UNL A   1      42.581  21.931  28.089  1.00  0.00     0.134 A 
ATOM     42  F   UNL A   1      43.081  22.894  24.623  1.00  0.00    -0.206 F 
ATOM     43  C   UNL A   1      42.375  20.850  25.540  1.00  0.00     0.040 A 
ATOM     44  C   UNL A   1      42.176  20.604  27.927  1.00  0.00     0.040 A 
ATOM     45  F   UNL A   1      42.669  22.412  29.338  1.00  0.00    -0.206 F 
ATOM     46  C   UNL A   1      42.073  20.061  26.648  1.00  0.00     0.006 A 
ENDBRANCH  25  39
BRANCH  26  47
ATOM     47  C   UNL A   1      45.993  32.136  28.433  1.00  0.00     0.057 A 
ATOM     48  C   UNL A   1      46.064  33.040  27.369  1.00  0.00     0.134 A 
ATOM     49  C   UNL A   1      46.348  32.602  29.705  1.00  0.00     0.134 A 
ATOM     50  F   UNL A   1      45.750  32.647  26.126  1.00  0.00    -0.206 F 
ATOM     51  C   UNL A   1      46.481  34.359  27.561  1.00  0.00     0.040 A 
ATOM     52  C   UNL A   1      46.740  33.923  29.915  1.00  0.00     0.040 A 
ATOM     53  F   UNL A   1      46.291  31.785  30.766  1.00  0.00    -0.206 F 
ATOM     54  C   UNL A   1      46.814  34.804  28.839  1.00  0.00     0.006 A 
ENDBRANCH  26  47
BRANCH  38  55
ATOM     55  C   UNL A   1      49.235  26.192  26.886  1.00  0.00     0.057 A 
ATOM     56  C   UNL A   1      50.080  25.843  27.948  1.00  0.00     0.134 A 
ATOM     57  C   UNL A   1      49.789  26.237  25.602  1.00  0.00     0.134 A 
ATOM     58  F   UNL A   1      49.611  25.800  29.204  1.00  0.00    -0.206 F 
ATOM     59  C   UNL A   1      51.435  25.578  27.742  1.00  0.00     0.040 A 
ATOM     60  C   UNL A   1      51.136  25.953  25.381  1.00  0.00     0.040 A 
ATOM     61  F   UNL A   1      49.029  26.561  24.544  1.00  0.00    -0.206 F 
ATOM     62  C   UNL A   1      51.964  25.629  26.454  1.00  0.00     0.006 A 
ENDBRANCH  38  55
ENDBRANCH  12  13
ENDBRANCH   5   7
ENDBRANCH   2   3
ENDBRANCH   1   2
BRANCH   1  63
ATOM     63  C   UNL A   1      33.614  28.658  25.072  1.00  0.00     0.023 C 
BRANCH  63  64
ATOM     64  C   UNL A   1      32.881  27.408  24.586  1.00  0.00     0.116 C 
BRANCH  64  65
ATOM     65  N   UNL A   1      32.069  26.863  25.647  1.00  0.00    -0.351 N 
ATOM     66  C   UNL A   1      31.874  25.568  26.030  1.00  0.00     0.278 C 
ATOM     67  H   UNL A   1      31.578  27.531  26.180  1.00  0.00     0.163 HD
ATOM     68  O   UNL A   1      30.993  25.378  26.874  1.00  0.00    -0.268 OA
BRANCH  66  69
ATOM     69  C   UNL A   1      32.733  24.420  25.444  1.00  0.00     0.277 C 
ATOM     70  C   UNL A   1      34.152  24.625  26.039  1.00  0.00     0.114 C 
ATOM     71  N   UNL A   1      32.100  23.110  25.765  1.00  0.00    -0.324 N 
ATOM     72  C   UNL A   1      34.968  23.404  25.858  1.00  0.00    -0.006 A 
ATOM     73  C   UNL A   1      32.899  21.904  25.488  1.00  0.00     0.264 C 
ATOM     74  H   UNL A   1      31.240  23.042  25.223  1.00  0.00     0.347 HD
ATOM     75  H   UNL A   1      31.967  23.117  26.776  1.00  0.00     0.347 HD
ATOM     76  C   UNL A   1      34.369  22.184  25.628  1.00  0.00     0.083 A 
ATOM     77  C   UNL A   1      36.372  23.211  25.919  1.00  0.00     0.003 A 
ATOM     78  N   UNL A   1      35.366  21.244  25.597  1.00  0.00    -0.353 N 
ATOM     79  C   UNL A   1      36.596  21.843  25.751  1.00  0.00     0.046 A 
ATOM     80  C   UNL A   1      37.479  24.059  26.114  1.00  0.00     0.010 A 
ATOM     81  H   UNL A   1      35.222  20.277  25.482  1.00  0.00     0.166 HD
ATOM     82  C   UNL A   1      37.876  21.279  25.763  1.00  0.00     0.026 A 
ATOM     83  C   UNL A   1      38.767  23.512  26.122  1.00  0.00     0.001 A 
ATOM     84  C   UNL A   1      38.960  22.142  25.950  1.00  0.00     0.002 A 
BRANCH  73  85
ATOM     85  C   UNL A   1      32.568  21.174  24.187  1.00  0.00     0.041 A 
ATOM     86  C   UNL A   1      32.046  21.827  23.071  1.00  0.00     0.093 A 
ATOM     87  C   UNL A   1      32.709  19.799  23.769  1.00  0.00     0.009 A 
ATOM     88  N   UNL A   1      31.777  20.919  22.088  1.00  0.00    -0.361 N 
ATOM     89  C   UNL A   1      32.194  19.674  22.475  1.00  0.00     0.046 A 
ATOM     90  C   UNL A   1      33.230  18.625  24.343  1.00  0.00     0.011 A 
ATOM     91  H   UNL A   1      31.348  21.129  21.228  1.00  0.00     0.166 HD
ATOM     92  C   UNL A   1      32.153  18.464  21.766  1.00  0.00     0.026 A 
ATOM     93  C   UNL A   1      33.221  17.406  23.649  1.00  0.00     0.001 A 
ATOM     94  C   UNL A   1      32.681  17.329  22.376  1.00  0.00     0.002 A 
ENDBRANCH  73  85
ENDBRANCH  66  69
ENDBRANCH  64  65
ENDBRANCH  63  64
ENDBRANCH   1  63
TORSDOF 12
ENDMDL
MODEL 2
REMARK VINA RESULT:     -13.2      3.987      7.377
REMARK SMILES O=C(NCCCCNC(=O)[C@H]1Cc2c([nH]c3ccccc23)[C@H](c2c[nH]c3ccccc23)[NH2+]1)c1ccc(-c2c3nc(c(-c4c(F)cccc4F)c4ccc([nH]4)c(-c4c(F)cccc4F)c4nc(c(-c5c(F)cccc5F)c5ccc2[nH]5)C=C4)C=C3)cc1
REMARK SMILES IDX 5 1 4 2 3 3 1 4 2 5 33 7 34 8 86 9 35 10 85 11 36 12 37 13
REMARK SMILES IDX 38 14 79 15 39 16 84 17 78 18 80 19 40 20 83 21 77 22 76 23
REMARK SMILES IDX 41 25 67 26 50 27 66 28 51 29 54 30 65 31 81 32 52 33 53 34
REMARK SMILES IDX 64 36 82 37 55 38 42 39 43 40 48 41 44 42 45 43 47 44 49 45
REMARK SMILES IDX 46 46 68 47 69 48 74 49 70 50 71 51 73 52 75 53 72 54 56 55
REMARK SMILES IDX 57 56 62 57 58 58 59 59 61 60 63 61 60 62 6 63 7 64 8 65
REMARK SMILES IDX 9 66 10 68 11 69 12 70 32 71 13 72 22 73 14 76 21 77 15 78
REMARK SMILES IDX 16 79 20 80 17 82 19 83 18 84 23 85 24 86 31 87 25 88 26 89
REMARK SMILES IDX 30 90 27 92 29 93 28 94
REMARK H PARENT 3 6 80 24 54 35 8 67 32 74 32 75 15 81 25 91
REMARK Flexibility Score: inf
ROOT
ATOM      1  C   UNL A   1      32.708  27.867  25.242  1.00  0.00     0.023 C 
ENDROOT
BRANCH   1   2
ATOM      2  C   UNL A   1      33.329  29.246  25.084  1.00  0.00     0.116 C 
BRANCH   2   3
ATOM      3  N   UNL A   1      32.593  30.313  25.754  1.00  0.00    -0.352 N 
ATOM      4  O   UNL A   1      32.230  31.871  27.355  1.00  0.00    -0.269 OA
ATOM      5  C   UNL A   1      32.982  31.061  26.845  1.00  0.00     0.251 C 
ATOM      6  H   UNL A   1      31.708  30.525  25.380  1.00  0.00     0.163 HD
BRANCH   5   7
ATOM      7  C   UNL A   1      34.330  30.821  27.402  1.00  0.00     0.039 A 
ATOM      8  C   UNL A   1      34.695  29.533  27.787  1.00  0.00     0.014 A 
ATOM      9  C   UNL A   1      35.182  31.904  27.630  1.00  0.00     0.014 A 
ATOM     10  C   UNL A   1      35.822  29.354  28.569  1.00  0.00     0.010 A 
ATOM     11  C   UNL A   1      36.379  31.701  28.323  1.00  0.00     0.010 A 
ATOM     12  C   UNL A   1      36.686  30.432  28.835  1.00  0.00    -0.014 A 
BRANCH  12  13
ATOM     13  C   UNL A   1      37.925  30.163  29.605  1.00  0.00     0.031 A 
ATOM     14  C   UNL A   1      38.102  30.662  31.011  1.00  0.00     0.074 A 
ATOM     15  C   UNL A   1      38.859  29.378  29.035  1.00  0.00     0.049 A 
ATOM     16  N   UNL A   1      39.099  30.452  31.833  1.00  0.00    -0.248 NA
ATOM     17  C   UNL A   1      37.035  31.507  31.569  1.00  0.00     0.031 C 
ATOM     18  C   UNL A   1      38.789  28.848  27.670  1.00  0.00     0.029 A 
ATOM     19  N   UNL A   1      40.018  28.850  29.537  1.00  0.00    -0.354 N 
ATOM     20  C   UNL A   1      38.795  31.155  32.991  1.00  0.00     0.074 A 
ATOM     21  C   UNL A   1      37.526  31.812  32.764  1.00  0.00     0.031 C 
ATOM     22  C   UNL A   1      39.814  28.008  27.473  1.00  0.00     0.029 A 
ATOM     23  C   UNL A   1      40.651  27.998  28.665  1.00  0.00     0.049 A 
ATOM     24  H   UNL A   1      40.363  29.059  30.434  1.00  0.00     0.167 HD
ATOM     25  C   UNL A   1      39.511  31.239  34.138  1.00  0.00     0.037 A 
ATOM     26  C   UNL A   1      41.786  27.292  28.804  1.00  0.00     0.037 A 
ATOM     27  C   UNL A   1      40.763  30.562  34.365  1.00  0.00     0.049 A 
ATOM     28  C   UNL A   1      42.546  27.395  30.091  1.00  0.00     0.074 A 
ATOM     29  C   UNL A   1      41.562  30.578  35.496  1.00  0.00     0.029 A 
ATOM     30  N   UNL A   1      41.392  29.737  33.444  1.00  0.00    -0.354 N 
ATOM     31  N   UNL A   1      42.248  28.073  31.171  1.00  0.00    -0.248 NA
ATOM     32  C   UNL A   1      43.807  26.647  30.171  1.00  0.00     0.031 C 
ATOM     33  C   UNL A   1      42.689  29.786  35.249  1.00  0.00     0.029 A 
ATOM     34  C   UNL A   1      42.575  29.248  33.977  1.00  0.00     0.049 A 
ATOM     35  H   UNL A   1      41.050  29.530  32.545  1.00  0.00     0.167 HD
ATOM     36  C   UNL A   1      43.286  27.843  32.059  1.00  0.00     0.074 A 
ATOM     37  C   UNL A   1      44.202  26.929  31.404  1.00  0.00     0.031 C 
ATOM     38  C   UNL A   1      43.475  28.353  33.300  1.00  0.00     0.037 A 
BRANCH  25  39
ATOM     39  C   UNL A   1      38.972  32.104  35.240  1.00  0.00     0.057 A 
ATOM     40  C   UNL A   1      38.251  31.569  36.313  1.00  0.00     0.134 A 
ATOM     41  C   UNL A   1      39.239  33.479  35.261  1.00  0.00     0.134 A 
ATOM     42  F   UNL A   1      37.953  30.261  36.347  1.00  0.00    -0.206 F 
ATOM     43  C   UNL A   1      37.808  32.372  37.368  1.00  0.00     0.040 A 
ATOM     44  C   UNL A   1      38.818  34.290  36.318  1.00  0.00     0.040 A 
ATOM     45  F   UNL A   1      39.929  34.055  34.265  1.00  0.00    -0.206 F 
ATOM     46  C   UNL A   1      38.100  33.735  37.375  1.00  0.00     0.006 A 
ENDBRANCH  25  39
BRANCH  26  47
ATOM     47  C   UNL A   1      42.268  26.447  27.686  1.00  0.00     0.057 A 
ATOM     48  C   UNL A   1      41.885  25.107  27.571  1.00  0.00     0.134 A 
ATOM     49  C   UNL A   1      43.108  26.968  26.694  1.00  0.00     0.134 A 
ATOM     50  F   UNL A   1      41.093  24.549  28.499  1.00  0.00    -0.206 F 
ATOM     51  C   UNL A   1      42.329  24.311  26.514  1.00  0.00     0.040 A 
ATOM     52  C   UNL A   1      43.537  26.192  25.618  1.00  0.00     0.040 A 
ATOM     53  F   UNL A   1      43.501  28.249  26.744  1.00  0.00    -0.206 F 
ATOM     54  C   UNL A   1      43.151  24.856  25.530  1.00  0.00     0.006 A 
ENDBRANCH  26  47
BRANCH  38  55
ATOM     55  C   UNL A   1      44.722  27.928  34.012  1.00  0.00     0.057 A 
ATOM     56  C   UNL A   1      44.752  26.776  34.808  1.00  0.00     0.134 A 
ATOM     57  C   UNL A   1      45.900  28.677  33.905  1.00  0.00     0.134 A 
ATOM     58  F   UNL A   1      43.649  26.028  34.963  1.00  0.00    -0.206 F 
ATOM     59  C   UNL A   1      45.905  26.399  35.498  1.00  0.00     0.040 A 
ATOM     60  C   UNL A   1      47.064  28.298  34.572  1.00  0.00     0.040 A 
ATOM     61  F   UNL A   1      45.935  29.788  33.154  1.00  0.00    -0.206 F 
ATOM     62  C   UNL A   1      47.066  27.159  35.377  1.00  0.00     0.006 A 
ENDBRANCH  38  55
ENDBRANCH  12  13
ENDBRANCH   5   7
ENDBRANCH   2   3
ENDBRANCH   1   2
BRANCH   1  63
ATOM     63  C   UNL A   1      31.707  27.505  24.154  1.00  0.00     0.023 C 
BRANCH  63  64
ATOM     64  C   UNL A   1      31.272  26.040  24.144  1.00  0.00     0.116 C 
BRANCH  64  65
ATOM     65  N   UNL A   1      30.910  25.618  25.475  1.00  0.00    -0.351 N 
ATOM     66  C   UNL A   1      31.255  24.493  26.167  1.00  0.00     0.278 C 
ATOM     67  H   UNL A   1      30.322  26.240  25.962  1.00  0.00     0.163 HD
ATOM     68  O   UNL A   1      30.665  24.311  27.236  1.00  0.00    -0.268 OA
BRANCH  66  69
ATOM     69  C   UNL A   1      32.340  23.525  25.634  1.00  0.00     0.277 C 
ATOM     70  C   UNL A   1      33.689  24.100  26.145  1.00  0.00     0.114 C 
ATOM     71  N   UNL A   1      32.037  22.138  26.086  1.00  0.00    -0.324 N 
ATOM     72  C   UNL A   1      34.760  23.086  26.024  1.00  0.00    -0.006 A 
ATOM     73  C   UNL A   1      33.086  21.128  25.869  1.00  0.00     0.264 C 
ATOM     74  H   UNL A   1      31.201  21.829  25.591  1.00  0.00     0.347 HD
ATOM     75  H   UNL A   1      31.932  22.203  27.099  1.00  0.00     0.347 HD
ATOM     76  C   UNL A   1      34.453  21.747  25.918  1.00  0.00     0.083 A 
ATOM     77  C   UNL A   1      36.172  23.225  26.035  1.00  0.00     0.003 A 
ATOM     78  N   UNL A   1      35.639  21.061  25.916  1.00  0.00    -0.353 N 
ATOM     79  C   UNL A   1      36.701  21.936  25.965  1.00  0.00     0.046 A 
ATOM     80  C   UNL A   1      37.057  24.317  26.111  1.00  0.00     0.010 A 
ATOM     81  H   UNL A   1      35.721  20.080  25.884  1.00  0.00     0.166 HD
ATOM     82  C   UNL A   1      38.077  21.682  25.963  1.00  0.00     0.026 A 
ATOM     83  C   UNL A   1      38.437  24.082  26.104  1.00  0.00     0.001 A 
ATOM     84  C   UNL A   1      38.936  22.783  26.032  1.00  0.00     0.002 A 
BRANCH  73  85
ATOM     85  C   UNL A   1      32.897  20.230  24.645  1.00  0.00     0.041 A 
ATOM     86  C   UNL A   1      32.161  20.626  23.530  1.00  0.00     0.093 A 
ATOM     87  C   UNL A   1      33.386  18.913  24.309  1.00  0.00     0.009 A 
ATOM     88  N   UNL A   1      32.098  19.601  22.631  1.00  0.00    -0.361 N 
ATOM     89  C   UNL A   1      32.857  18.548  23.067  1.00  0.00     0.046 A 
ATOM     90  C   UNL A   1      34.235  17.972  24.920  1.00  0.00     0.011 A 
ATOM     91  H   UNL A   1      31.583  19.616  21.792  1.00  0.00     0.166 HD
ATOM     92  C   UNL A   1      33.109  17.317  22.443  1.00  0.00     0.026 A 
ATOM     93  C   UNL A   1      34.522  16.743  24.310  1.00  0.00     0.001 A 
ATOM     94  C   UNL A   1      33.957  16.419  23.087  1.00  0.00     0.002 A 
ENDBRANCH  73  85
ENDBRANCH  66  69
ENDBRANCH  64  65
ENDBRANCH  63  64
ENDBRANCH   1  63
TORSDOF 12
ENDMDL
MODEL 3
REMARK VINA RESULT:     -13.0      1.522      2.162
REMARK SMILES O=C(NCCCCNC(=O)[C@H]1Cc2c([nH]c3ccccc23)[C@H](c2c[nH]c3ccccc23)[NH2+]1)c1ccc(-c2c3nc(c(-c4c(F)cccc4F)c4ccc([nH]4)c(-c4c(F)cccc4F)c4nc(c(-c5c(F)cccc5F)c5ccc2[nH]5)C=C4)C=C3)cc1
REMARK SMILES IDX 5 1 4 2 3 3 1 4 2 5 33 7 34 8 86 9 35 10 85 11 36 12 37 13
REMARK SMILES IDX 38 14 79 15 39 16 84 17 78 18 80 19 40 20 83 21 77 22 76 23
REMARK SMILES IDX 41 25 67 26 50 27 66 28 51 29 54 30 65 31 81 32 52 33 53 34
REMARK SMILES IDX 64 36 82 37 55 38 42 39 43 40 48 41 44 42 45 43 47 44 49 45
REMARK SMILES IDX 46 46 68 47 69 48 74 49 70 50 71 51 73 52 75 53 72 54 56 55
REMARK SMILES IDX 57 56 62 57 58 58 59 59 61 60 63 61 60 62 6 63 7 64 8 65
REMARK SMILES IDX 9 66 10 68 11 69 12 70 32 71 13 72 22 73 14 76 21 77 15 78
REMARK SMILES IDX 16 79 20 80 17 82 19 83 18 84 23 85 24 86 31 87 25 88 26 89
REMARK SMILES IDX 30 90 27 92 29 93 28 94
REMARK H PARENT 3 6 80 24 54 35 8 67 32 74 32 75 15 81 25 91
REMARK Flexibility Score: inf
ROOT
ATOM      1  C   UNL A   1      33.414  28.496  25.954  1.00  0.00     0.023 C 
ENDROOT
BRANCH   1   2
ATOM      2  C   UNL A   1      34.217  28.587  27.242  1.00  0.00     0.116 C 
BRANCH   2   3
ATOM      3  N   UNL A   1      34.135  29.883  27.906  1.00  0.00    -0.352 N 
ATOM      4  O   UNL A   1      34.901  31.606  29.158  1.00  0.00    -0.269 OA
ATOM      5  C   UNL A   1      35.131  30.561  28.577  1.00  0.00     0.251 C 
ATOM      6  H   UNL A   1      33.259  30.330  27.871  1.00  0.00     0.163 HD
BRANCH   5   7
ATOM      7  C   UNL A   1      36.480  29.959  28.603  1.00  0.00     0.039 A 
ATOM      8  C   UNL A   1      36.934  29.339  29.766  1.00  0.00     0.014 A 
ATOM      9  C   UNL A   1      37.320  30.109  27.497  1.00  0.00     0.014 A 
ATOM     10  C   UNL A   1      38.279  29.042  29.893  1.00  0.00     0.010 A 
ATOM     11  C   UNL A   1      38.654  29.701  27.590  1.00  0.00     0.010 A 
ATOM     12  C   UNL A   1      39.153  29.205  28.803  1.00  0.00    -0.014 A 
BRANCH  12  13
ATOM     13  C   UNL A   1      40.566  28.787  28.970  1.00  0.00     0.031 A 
ATOM     14  C   UNL A   1      41.049  27.441  28.508  1.00  0.00     0.074 A 
ATOM     15  C   UNL A   1      41.432  29.688  29.472  1.00  0.00     0.049 A 
ATOM     16  N   UNL A   1      42.266  26.959  28.526  1.00  0.00    -0.248 NA
ATOM     17  C   UNL A   1      40.046  26.513  27.963  1.00  0.00     0.031 C 
ATOM     18  C   UNL A   1      41.066  31.022  29.959  1.00  0.00     0.029 A 
ATOM     19  N   UNL A   1      42.793  29.647  29.613  1.00  0.00    -0.354 N 
ATOM     20  C   UNL A   1      42.174  25.669  28.022  1.00  0.00     0.074 A 
ATOM     21  C   UNL A   1      40.779  25.434  27.718  1.00  0.00     0.031 C 
ATOM     22  C   UNL A   1      42.180  31.698  30.268  1.00  0.00     0.029 A 
ATOM     23  C   UNL A   1      43.329  30.824  30.073  1.00  0.00     0.049 A 
ATOM     24  H   UNL A   1      43.334  28.852  29.404  1.00  0.00     0.167 HD
ATOM     25  C   UNL A   1      43.167  24.767  27.828  1.00  0.00     0.037 A 
ATOM     26  C   UNL A   1      44.606  31.164  30.322  1.00  0.00     0.037 A 
ATOM     27  C   UNL A   1      44.558  25.018  28.111  1.00  0.00     0.049 A 
ATOM     28  C   UNL A   1      45.681  30.149  30.083  1.00  0.00     0.074 A 
ATOM     29  C   UNL A   1      45.640  24.171  27.943  1.00  0.00     0.029 A 
ATOM     30  N   UNL A   1      45.059  26.210  28.612  1.00  0.00    -0.354 N 
ATOM     31  N   UNL A   1      45.574  28.930  29.614  1.00  0.00    -0.248 NA
ATOM     32  C   UNL A   1      47.052  30.552  30.421  1.00  0.00     0.031 C 
ATOM     33  C   UNL A   1      46.792  24.841  28.369  1.00  0.00     0.029 A 
ATOM     34  C   UNL A   1      46.433  26.118  28.770  1.00  0.00     0.049 A 
ATOM     35  H   UNL A   1      44.518  27.005  28.825  1.00  0.00     0.167 HD
ATOM     36  C   UNL A   1      46.860  28.414  29.608  1.00  0.00     0.074 A 
ATOM     37  C   UNL A   1      47.735  29.468  30.082  1.00  0.00     0.031 C 
ATOM     38  C   UNL A   1      47.279  27.174  29.257  1.00  0.00     0.037 A 
BRANCH  25  39
ATOM     39  C   UNL A   1      42.792  23.415  27.297  1.00  0.00     0.057 A 
ATOM     40  C   UNL A   1      42.326  22.395  28.136  1.00  0.00     0.134 A 
ATOM     41  C   UNL A   1      42.830  23.153  25.921  1.00  0.00     0.134 A 
ATOM     42  F   UNL A   1      42.276  22.578  29.464  1.00  0.00    -0.206 F 
ATOM     43  C   UNL A   1      41.918  21.160  27.625  1.00  0.00     0.040 A 
ATOM     44  C   UNL A   1      42.408  21.929  25.397  1.00  0.00     0.040 A 
ATOM     45  F   UNL A   1      43.262  24.089  25.062  1.00  0.00    -0.206 F 
ATOM     46  C   UNL A   1      41.950  20.929  26.252  1.00  0.00     0.006 A 
ENDBRANCH  25  39
BRANCH  26  47
ATOM     47  C   UNL A   1      44.921  32.517  30.838  1.00  0.00     0.057 A 
ATOM     48  C   UNL A   1      44.944  32.784  32.210  1.00  0.00     0.134 A 
ATOM     49  C   UNL A   1      45.227  33.571  29.967  1.00  0.00     0.134 A 
ATOM     50  F   UNL A   1      44.646  31.818  33.091  1.00  0.00    -0.206 F 
ATOM     51  C   UNL A   1      45.250  34.054  32.700  1.00  0.00     0.040 A 
ATOM     52  C   UNL A   1      45.561  34.838  30.444  1.00  0.00     0.040 A 
ATOM     53  F   UNL A   1      45.231  33.374  28.641  1.00  0.00    -0.206 F 
ATOM     54  C   UNL A   1      45.567  35.084  31.815  1.00  0.00     0.006 A 
ENDBRANCH  26  47
BRANCH  38  55
ATOM     55  C   UNL A   1      48.747  26.907  29.382  1.00  0.00     0.057 A 
ATOM     56  C   UNL A   1      49.289  26.347  30.546  1.00  0.00     0.134 A 
ATOM     57  C   UNL A   1      49.625  27.215  28.336  1.00  0.00     0.134 A 
ATOM     58  F   UNL A   1      48.500  26.048  31.589  1.00  0.00    -0.206 F 
ATOM     59  C   UNL A   1      50.662  26.129  30.676  1.00  0.00     0.040 A 
ATOM     60  C   UNL A   1      50.995  26.981  28.446  1.00  0.00     0.040 A 
ATOM     61  F   UNL A   1      49.164  27.750  27.195  1.00  0.00    -0.206 F 
ATOM     62  C   UNL A   1      51.518  26.443  29.622  1.00  0.00     0.006 A 
ENDBRANCH  38  55
ENDBRANCH  12  13
ENDBRANCH   5   7
ENDBRANCH   2   3
ENDBRANCH   1   2
BRANCH   1  63
ATOM     63  C   UNL A   1      32.053  27.834  26.112  1.00  0.00     0.023 C 
BRANCH  63  64
ATOM     64  C   UNL A   1      31.955  26.421  25.540  1.00  0.00     0.116 C 
BRANCH  64  65
ATOM     65  N   UNL A   1      31.150  25.588  26.401  1.00  0.00    -0.351 N 
ATOM     66  C   UNL A   1      31.145  24.233  26.561  1.00  0.00     0.278 C 
ATOM     67  H   UNL A   1      30.504  26.075  26.963  1.00  0.00     0.163 HD
ATOM     68  O   UNL A   1      30.232  23.772  27.253  1.00  0.00    -0.268 OA
BRANCH  66  69
ATOM     69  C   UNL A   1      32.240  23.345  25.920  1.00  0.00     0.277 C 
ATOM     70  C   UNL A   1      33.588  23.948  26.398  1.00  0.00     0.114 C 
ATOM     71  N   UNL A   1      32.016  21.923  26.304  1.00  0.00    -0.324 N 
ATOM     72  C   UNL A   1      34.692  22.990  26.165  1.00  0.00    -0.006 A 
ATOM     73  C   UNL A   1      33.093  20.972  25.977  1.00  0.00     0.264 C 
ATOM     74  H   UNL A   1      31.170  21.606  25.832  1.00  0.00     0.347 HD
ATOM     75  H   UNL A   1      31.961  21.926  27.323  1.00  0.00     0.347 HD
ATOM     76  C   UNL A   1      34.435  21.646  25.996  1.00  0.00     0.083 A 
ATOM     77  C   UNL A   1      36.096  23.190  26.116  1.00  0.00     0.003 A 
ATOM     78  N   UNL A   1      35.646  21.014  25.896  1.00  0.00    -0.353 N 
ATOM     79  C   UNL A   1      36.673  21.930  25.945  1.00  0.00     0.046 A 
ATOM     80  C   UNL A   1      36.939  24.312  26.213  1.00  0.00     0.010 A 
ATOM     81  H   UNL A   1      35.765  20.041  25.803  1.00  0.00     0.166 HD
ATOM     82  C   UNL A   1      38.056  21.737  25.861  1.00  0.00     0.026 A 
ATOM     83  C   UNL A   1      38.325  24.138  26.125  1.00  0.00     0.001 A 
ATOM     84  C   UNL A   1      38.872  22.868  25.952  1.00  0.00     0.002 A 
BRANCH  73  85
ATOM     85  C   UNL A   1      32.879  20.139  24.713  1.00  0.00     0.041 A 
ATOM     86  C   UNL A   1      32.152  20.606  23.619  1.00  0.00     0.093 A 
ATOM     87  C   UNL A   1      33.330  18.825  24.315  1.00  0.00     0.009 A 
ATOM     88  N   UNL A   1      32.061  19.625  22.674  1.00  0.00    -0.361 N 
ATOM     89  C   UNL A   1      32.791  18.533  23.059  1.00  0.00     0.046 A 
ATOM     90  C   UNL A   1      34.154  17.834  24.880  1.00  0.00     0.011 A 
ATOM     91  H   UNL A   1      31.546  19.694  21.838  1.00  0.00     0.166 HD
ATOM     92  C   UNL A   1      33.009  17.326  22.378  1.00  0.00     0.026 A 
ATOM     93  C   UNL A   1      34.406  16.627  24.213  1.00  0.00     0.001 A 
ATOM     94  C   UNL A   1      33.832  16.376  22.978  1.00  0.00     0.002 A 
ENDBRANCH  73  85
ENDBRANCH  66  69
ENDBRANCH  64  65
ENDBRANCH  63  64
ENDBRANCH   1  63
TORSDOF 12
ENDMDL
