MODEL 1
REMARK VINA RESULT:     -10.6      0.000      0.000
REMARK SMILES C[C@H]([NH2+]CC1CCCC1)[C@H](C)C(=O)NCCCCNC(=O)c1ccc(-c2c3nc(c(-c4c(F)cccc4F)c4ccc([nH]4)c(-c4c(F)cccc4F)c4nc(c(-c5c(F)cccc5F)c5ccc2[nH]5)C=C4)C=C3)cc1
REMARK SMILES IDX 15 1 14 2 12 3 13 4 10 6 11 7 2 8 1 9 3 10 4 13 5 14 6 15
REMARK SMILES IDX 9 16 7 17 8 18 16 19 17 20 18 21 19 22 20 23 21 25 22 26
REMARK SMILES IDX 23 27 75 28 24 29 74 30 25 31 26 32 27 33 68 34 28 35 73 36
REMARK SMILES IDX 67 37 69 38 29 39 72 40 66 41 65 42 30 44 56 45 39 46 55 47
REMARK SMILES IDX 40 48 43 49 54 50 70 51 41 52 42 53 53 55 71 56 44 57 31 58
REMARK SMILES IDX 32 59 37 60 33 61 34 62 36 63 38 64 35 65 57 66 58 67 63 68
REMARK SMILES IDX 59 69 60 70 62 71 64 72 61 73 45 74 46 75 51 76 47 77 48 78
REMARK SMILES IDX 50 79 52 80 49 81
REMARK H PARENT 14 5 3 11 3 12 19 24 69 43 43 54
REMARK Flexibility Score: inf
ROOT
ATOM      1  C   UNL A   1      37.110  21.950  24.890  1.00  0.00     0.116 C 
ENDROOT
BRANCH   1   2
ATOM      2  N   UNL A   1      36.430  22.494  23.734  1.00  0.00    -0.356 N 
ATOM      3  C   UNL A   1      35.258  23.167  23.628  1.00  0.00     0.228 C 
ATOM      4  O   UNL A   1      34.835  23.376  22.488  1.00  0.00    -0.275 OA
ATOM      5  H   UNL A   1      36.897  22.351  22.880  1.00  0.00     0.163 HD
BRANCH   3   6
ATOM      6  C   UNL A   1      34.479  23.661  24.842  1.00  0.00     0.133 C 
ATOM      7  C   UNL A   1      33.948  25.075  24.595  1.00  0.00     0.024 C 
BRANCH   6   8
ATOM      8  C   UNL A   1      33.394  22.694  25.395  1.00  0.00     0.191 C 
ATOM      9  C   UNL A   1      33.595  22.441  26.898  1.00  0.00     0.076 C 
BRANCH   8  10
ATOM     10  N   UNL A   1      33.212  21.414  24.690  1.00  0.00    -0.343 N 
ATOM     11  H   UNL A   1      33.943  21.343  23.981  1.00  0.00     0.346 HD
ATOM     12  H   UNL A   1      32.265  21.441  24.312  1.00  0.00     0.346 HD
BRANCH  10  13
ATOM     13  C   UNL A   1      33.273  20.208  25.517  1.00  0.00     0.264 C 
BRANCH  13  14
ATOM     14  C   UNL A   1      32.888  18.999  24.656  1.00  0.00     0.044 C 
ATOM     15  C   UNL A   1      32.468  19.382  23.240  1.00  0.00     0.009 C 
ATOM     16  C   UNL A   1      34.038  18.017  24.419  1.00  0.00     0.009 C 
ATOM     17  C   UNL A   1      32.529  18.059  22.491  1.00  0.00     0.001 C 
ATOM     18  C   UNL A   1      33.682  17.283  23.126  1.00  0.00     0.001 C 
ENDBRANCH  13  14
ENDBRANCH  10  13
ENDBRANCH   8  10
ENDBRANCH   6   8
ENDBRANCH   3   6
ENDBRANCH   1   2
BRANCH   1  19
ATOM     19  C   UNL A   1      36.871  20.448  25.001  1.00  0.00     0.023 C 
BRANCH  19  20
ATOM     20  C   UNL A   1      38.148  19.604  24.982  1.00  0.00     0.023 C 
BRANCH  20  21
ATOM     21  C   UNL A   1      39.261  20.101  25.896  1.00  0.00     0.116 C 
BRANCH  21  22
ATOM     22  N   UNL A   1      40.344  19.140  26.039  1.00  0.00    -0.352 N 
ATOM     23  C   UNL A   1      41.681  19.383  26.236  1.00  0.00     0.251 C 
ATOM     24  H   UNL A   1      40.084  18.191  25.987  1.00  0.00     0.163 HD
ATOM     25  O   UNL A   1      42.498  18.468  26.192  1.00  0.00    -0.269 OA
BRANCH  23  26
ATOM     26  C   UNL A   1      42.127  20.769  26.471  1.00  0.00     0.039 A 
ATOM     27  C   UNL A   1      42.341  21.609  25.377  1.00  0.00     0.014 A 
ATOM     28  C   UNL A   1      42.287  21.244  27.775  1.00  0.00     0.014 A 
ATOM     29  C   UNL A   1      42.654  22.952  25.592  1.00  0.00     0.010 A 
ATOM     30  C   UNL A   1      42.528  22.595  27.988  1.00  0.00     0.010 A 
ATOM     31  C   UNL A   1      42.715  23.462  26.900  1.00  0.00    -0.014 A 
BRANCH  31  32
ATOM     32  C   UNL A   1      42.995  24.896  27.160  1.00  0.00     0.031 A 
ATOM     33  C   UNL A   1      44.370  25.444  26.896  1.00  0.00     0.074 A 
ATOM     34  C   UNL A   1      42.045  25.681  27.704  1.00  0.00     0.049 A 
ATOM     35  N   UNL A   1      44.858  26.626  27.171  1.00  0.00    -0.248 NA
ATOM     36  C   UNL A   1      45.333  24.528  26.262  1.00  0.00     0.031 C 
ATOM     37  C   UNL A   1      40.683  25.260  28.037  1.00  0.00     0.029 A 
ATOM     38  N   UNL A   1      42.088  26.998  28.086  1.00  0.00    -0.354 N 
ATOM     39  C   UNL A   1      46.185  26.589  26.763  1.00  0.00     0.074 A 
ATOM     40  C   UNL A   1      46.441  25.253  26.268  1.00  0.00     0.031 C 
ATOM     41  C   UNL A   1      40.015  26.303  28.558  1.00  0.00     0.029 A 
ATOM     42  C   UNL A   1      40.911  27.453  28.632  1.00  0.00     0.049 A 
ATOM     43  H   UNL A   1      42.885  27.565  27.978  1.00  0.00     0.167 HD
ATOM     44  C   UNL A   1      47.100  27.586  26.773  1.00  0.00     0.037 A 
ATOM     45  C   UNL A   1      40.598  28.658  29.146  1.00  0.00     0.037 A 
ATOM     46  C   UNL A   1      46.836  28.920  27.238  1.00  0.00     0.049 A 
ATOM     47  C   UNL A   1      41.640  29.744  29.159  1.00  0.00     0.074 A 
ATOM     48  C   UNL A   1      47.687  30.012  27.257  1.00  0.00     0.029 A 
ATOM     49  N   UNL A   1      45.624  29.348  27.757  1.00  0.00    -0.354 N 
ATOM     50  N   UNL A   1      42.877  29.708  28.731  1.00  0.00    -0.248 NA
ATOM     51  C   UNL A   1      41.238  31.039  29.726  1.00  0.00     0.031 C 
ATOM     52  C   UNL A   1      46.999  31.093  27.819  1.00  0.00     0.029 A 
ATOM     53  C   UNL A   1      45.706  30.685  28.107  1.00  0.00     0.049 A 
ATOM     54  H   UNL A   1      44.823  28.784  27.862  1.00  0.00     0.167 HD
ATOM     55  C   UNL A   1      43.389  30.983  28.937  1.00  0.00     0.074 A 
ATOM     56  C   UNL A   1      42.326  31.769  29.526  1.00  0.00     0.031 C 
ATOM     57  C   UNL A   1      44.627  31.459  28.664  1.00  0.00     0.037 A 
BRANCH  44  58
ATOM     58  C   UNL A   1      48.472  27.269  26.256  1.00  0.00     0.057 A 
ATOM     59  C   UNL A   1      49.489  26.807  27.104  1.00  0.00     0.134 A 
ATOM     60  C   UNL A   1      48.774  27.393  24.895  1.00  0.00     0.134 A 
ATOM     61  F   UNL A   1      49.269  26.681  28.422  1.00  0.00    -0.206 F 
ATOM     62  C   UNL A   1      50.762  26.504  26.621  1.00  0.00     0.040 A 
ATOM     63  C   UNL A   1      50.035  27.066  24.395  1.00  0.00     0.040 A 
ATOM     64  F   UNL A   1      47.847  27.825  24.028  1.00  0.00    -0.206 F 
ATOM     65  C   UNL A   1      51.035  26.626  25.260  1.00  0.00     0.006 A 
ENDBRANCH  44  58
BRANCH  45  66
ATOM     66  C   UNL A   1      39.235  28.917  29.675  1.00  0.00     0.057 A 
ATOM     67  C   UNL A   1      38.230  29.435  28.848  1.00  0.00     0.134 A 
ATOM     68  C   UNL A   1      38.910  28.685  31.016  1.00  0.00     0.134 A 
ATOM     69  F   UNL A   1      38.486  29.695  27.558  1.00  0.00    -0.206 F 
ATOM     70  C   UNL A   1      36.961  29.738  29.342  1.00  0.00     0.040 A 
ATOM     71  C   UNL A   1      37.637  28.961  31.518  1.00  0.00     0.040 A 
ATOM     72  F   UNL A   1      39.826  28.184  31.858  1.00  0.00    -0.206 F 
ATOM     73  C   UNL A   1      36.660  29.499  30.681  1.00  0.00     0.006 A 
ENDBRANCH  45  66
BRANCH  57  74
ATOM     74  C   UNL A   1      44.882  32.912  28.938  1.00  0.00     0.057 A 
ATOM     75  C   UNL A   1      44.589  33.906  27.998  1.00  0.00     0.134 A 
ATOM     76  C   UNL A   1      45.381  33.320  30.181  1.00  0.00     0.134 A 
ATOM     77  F   UNL A   1      44.121  33.578  26.784  1.00  0.00    -0.206 F 
ATOM     78  C   UNL A   1      44.801  35.257  28.278  1.00  0.00     0.040 A 
ATOM     79  C   UNL A   1      45.572  34.669  30.482  1.00  0.00     0.040 A 
ATOM     80  F   UNL A   1      45.673  32.416  31.129  1.00  0.00    -0.206 F 
ATOM     81  C   UNL A   1      45.287  35.641  29.526  1.00  0.00     0.006 A 
ENDBRANCH  57  74
ENDBRANCH  31  32
ENDBRANCH  23  26
ENDBRANCH  21  22
ENDBRANCH  20  21
ENDBRANCH  19  20
ENDBRANCH   1  19
TORSDOF 15
ENDMDL
MODEL 2
REMARK VINA RESULT:     -10.6      5.680     10.648
REMARK SMILES C[C@H]([NH2+]CC1CCCC1)[C@H](C)C(=O)NCCCCNC(=O)c1ccc(-c2c3nc(c(-c4c(F)cccc4F)c4ccc([nH]4)c(-c4c(F)cccc4F)c4nc(c(-c5c(F)cccc5F)c5ccc2[nH]5)C=C4)C=C3)cc1
REMARK SMILES IDX 15 1 14 2 12 3 13 4 10 6 11 7 2 8 1 9 3 10 4 13 5 14 6 15
REMARK SMILES IDX 9 16 7 17 8 18 16 19 17 20 18 21 19 22 20 23 21 25 22 26
REMARK SMILES IDX 23 27 75 28 24 29 74 30 25 31 26 32 27 33 68 34 28 35 73 36
REMARK SMILES IDX 67 37 69 38 29 39 72 40 66 41 65 42 30 44 56 45 39 46 55 47
REMARK SMILES IDX 40 48 43 49 54 50 70 51 41 52 42 53 53 55 71 56 44 57 31 58
REMARK SMILES IDX 32 59 37 60 33 61 34 62 36 63 38 64 35 65 57 66 58 67 63 68
REMARK SMILES IDX 59 69 60 70 62 71 64 72 61 73 45 74 46 75 51 76 47 77 48 78
REMARK SMILES IDX 50 79 52 80 49 81
REMARK H PARENT 14 5 3 11 3 12 19 24 69 43 43 54
REMARK Flexibility Score: inf
ROOT
ATOM      1  C   UNL A   1      32.540  29.836  26.892  1.00  0.00     0.116 C 
ENDROOT
BRANCH   1   2
ATOM      2  N   UNL A   1      31.881  28.572  27.144  1.00  0.00    -0.356 N 
ATOM      3  C   UNL A   1      32.026  27.361  26.552  1.00  0.00     0.228 C 
ATOM      4  O   UNL A   1      31.213  26.486  26.864  1.00  0.00    -0.275 OA
ATOM      5  H   UNL A   1      31.215  28.595  27.868  1.00  0.00     0.163 HD
BRANCH   3   6
ATOM      6  C   UNL A   1      33.135  27.061  25.550  1.00  0.00     0.133 C 
ATOM      7  C   UNL A   1      33.680  25.647  25.766  1.00  0.00     0.024 C 
BRANCH   6   8
ATOM      8  C   UNL A   1      32.807  27.365  24.060  1.00  0.00     0.191 C 
ATOM      9  C   UNL A   1      33.600  28.583  23.559  1.00  0.00     0.076 C 
BRANCH   8  10
ATOM     10  N   UNL A   1      31.387  27.506  23.700  1.00  0.00    -0.343 N 
ATOM     11  H   UNL A   1      30.890  27.848  24.523  1.00  0.00     0.346 HD
ATOM     12  H   UNL A   1      31.090  26.583  23.386  1.00  0.00     0.346 HD
BRANCH  10  13
ATOM     13  C   UNL A   1      31.090  28.414  22.591  1.00  0.00     0.264 C 
BRANCH  13  14
ATOM     14  C   UNL A   1      29.840  29.229  22.941  1.00  0.00     0.044 C 
ATOM     15  C   UNL A   1      29.435  30.207  21.841  1.00  0.00     0.009 C 
ATOM     16  C   UNL A   1      28.579  28.381  23.126  1.00  0.00     0.009 C 
ATOM     17  C   UNL A   1      28.010  30.583  22.220  1.00  0.00     0.001 C 
ATOM     18  C   UNL A   1      27.411  29.328  22.853  1.00  0.00     0.001 C 
ENDBRANCH  13  14
ENDBRANCH  10  13
ENDBRANCH   8  10
ENDBRANCH   6   8
ENDBRANCH   3   6
ENDBRANCH   1   2
BRANCH   1  19
ATOM     19  C   UNL A   1      31.638  30.766  26.089  1.00  0.00     0.023 C 
BRANCH  19  20
ATOM     20  C   UNL A   1      31.403  32.132  26.738  1.00  0.00     0.023 C 
BRANCH  20  21
ATOM     21  C   UNL A   1      32.665  32.848  27.203  1.00  0.00     0.116 C 
BRANCH  21  22
ATOM     22  N   UNL A   1      32.411  34.216  27.627  1.00  0.00    -0.352 N 
ATOM     23  C   UNL A   1      33.039  34.934  28.617  1.00  0.00     0.251 C 
ATOM     24  H   UNL A   1      31.697  34.690  27.142  1.00  0.00     0.163 HD
ATOM     25  O   UNL A   1      32.616  36.034  28.958  1.00  0.00    -0.269 OA
BRANCH  23  26
ATOM     26  C   UNL A   1      34.214  34.347  29.288  1.00  0.00     0.039 A 
ATOM     27  C   UNL A   1      34.027  33.577  30.436  1.00  0.00     0.014 A 
ATOM     28  C   UNL A   1      35.491  34.524  28.748  1.00  0.00     0.014 A 
ATOM     29  C   UNL A   1      35.119  32.926  31.013  1.00  0.00     0.010 A 
ATOM     30  C   UNL A   1      36.564  33.819  29.282  1.00  0.00     0.010 A 
ATOM     31  C   UNL A   1      36.389  33.015  30.419  1.00  0.00    -0.014 A 
BRANCH  31  32
ATOM     32  C   UNL A   1      37.559  32.293  30.978  1.00  0.00     0.031 A 
ATOM     33  C   UNL A   1      38.229  32.815  32.219  1.00  0.00     0.074 A 
ATOM     34  C   UNL A   1      38.063  31.223  30.333  1.00  0.00     0.049 A 
ATOM     35  N   UNL A   1      39.331  32.413  32.796  1.00  0.00    -0.248 NA
ATOM     36  C   UNL A   1      37.585  33.962  32.882  1.00  0.00     0.031 C 
ATOM     37  C   UNL A   1      37.524  30.640  29.104  1.00  0.00     0.029 A 
ATOM     38  N   UNL A   1      39.156  30.445  30.618  1.00  0.00    -0.354 N 
ATOM     39  C   UNL A   1      39.523  33.267  33.875  1.00  0.00     0.074 A 
ATOM     40  C   UNL A   1      38.453  34.240  33.843  1.00  0.00     0.031 C 
ATOM     41  C   UNL A   1      38.278  29.586  28.750  1.00  0.00     0.029 A 
ATOM     42  C   UNL A   1      39.374  29.444  29.702  1.00  0.00     0.049 A 
ATOM     43  H   UNL A   1      39.730  30.588  31.405  1.00  0.00     0.167 HD
ATOM     44  C   UNL A   1      40.488  33.228  34.823  1.00  0.00     0.037 A 
ATOM     45  C   UNL A   1      40.356  28.524  29.634  1.00  0.00     0.037 A 
ATOM     46  C   UNL A   1      41.534  32.242  34.870  1.00  0.00     0.049 A 
ATOM     47  C   UNL A   1      41.426  28.512  30.693  1.00  0.00     0.074 A 
ATOM     48  C   UNL A   1      42.540  32.096  35.809  1.00  0.00     0.029 A 
ATOM     49  N   UNL A   1      41.704  31.228  33.940  1.00  0.00    -0.354 N 
ATOM     50  N   UNL A   1      41.571  29.298  31.731  1.00  0.00    -0.248 NA
ATOM     51  C   UNL A   1      42.467  27.482  30.570  1.00  0.00     0.031 C 
ATOM     52  C   UNL A   1      43.338  31.011  35.430  1.00  0.00     0.029 A 
ATOM     53  C   UNL A   1      42.802  30.456  34.278  1.00  0.00     0.049 A 
ATOM     54  H   UNL A   1      41.128  31.079  33.154  1.00  0.00     0.167 HD
ATOM     55  C   UNL A   1      42.692  28.834  32.407  1.00  0.00     0.074 A 
ATOM     56  C   UNL A   1      43.186  27.695  31.663  1.00  0.00     0.031 C 
ATOM     57  C   UNL A   1      43.261  29.308  33.541  1.00  0.00     0.037 A 
BRANCH  44  58
ATOM     58  C   UNL A   1      40.449  34.278  35.893  1.00  0.00     0.057 A 
ATOM     59  C   UNL A   1      39.745  34.083  37.089  1.00  0.00     0.134 A 
ATOM     60  C   UNL A   1      41.149  35.481  35.744  1.00  0.00     0.134 A 
ATOM     61  F   UNL A   1      39.041  32.957  37.287  1.00  0.00    -0.206 F 
ATOM     62  C   UNL A   1      39.717  35.056  38.088  1.00  0.00     0.040 A 
ATOM     63  C   UNL A   1      41.152  36.452  36.748  1.00  0.00     0.040 A 
ATOM     64  F   UNL A   1      41.847  35.730  34.627  1.00  0.00    -0.206 F 
ATOM     65  C   UNL A   1      40.430  36.242  37.921  1.00  0.00     0.006 A 
ENDBRANCH  44  58
BRANCH  45  66
ATOM     66  C   UNL A   1      40.371  27.522  28.539  1.00  0.00     0.057 A 
ATOM     67  C   UNL A   1      39.664  26.319  28.655  1.00  0.00     0.134 A 
ATOM     68  C   UNL A   1      41.112  27.723  27.368  1.00  0.00     0.134 A 
ATOM     69  F   UNL A   1      38.951  26.061  29.761  1.00  0.00    -0.206 F 
ATOM     70  C   UNL A   1      39.713  25.342  27.661  1.00  0.00     0.040 A 
ATOM     71  C   UNL A   1      41.151  26.765  26.354  1.00  0.00     0.040 A 
ATOM     72  F   UNL A   1      41.806  28.857  27.192  1.00  0.00    -0.206 F 
ATOM     73  C   UNL A   1      40.457  25.564  26.504  1.00  0.00     0.006 A 
ENDBRANCH  45  66
BRANCH  57  74
ATOM     74  C   UNL A   1      44.442  28.559  34.084  1.00  0.00     0.057 A 
ATOM     75  C   UNL A   1      44.296  27.475  34.957  1.00  0.00     0.134 A 
ATOM     76  C   UNL A   1      45.740  28.899  33.683  1.00  0.00     0.134 A 
ATOM     77  F   UNL A   1      43.080  27.108  35.388  1.00  0.00    -0.206 F 
ATOM     78  C   UNL A   1      45.402  26.767  35.429  1.00  0.00     0.040 A 
ATOM     79  C   UNL A   1      46.852  28.183  34.127  1.00  0.00     0.040 A 
ATOM     80  F   UNL A   1      45.947  29.923  32.840  1.00  0.00    -0.206 F 
ATOM     81  C   UNL A   1      46.684  27.117  35.007  1.00  0.00     0.006 A 
ENDBRANCH  57  74
ENDBRANCH  31  32
ENDBRANCH  23  26
ENDBRANCH  21  22
ENDBRANCH  20  21
ENDBRANCH  19  20
ENDBRANCH   1  19
TORSDOF 15
ENDMDL
MODEL 3
REMARK VINA RESULT:     -10.6      0.923      6.514
REMARK SMILES C[C@H]([NH2+]CC1CCCC1)[C@H](C)C(=O)NCCCCNC(=O)c1ccc(-c2c3nc(c(-c4c(F)cccc4F)c4ccc([nH]4)c(-c4c(F)cccc4F)c4nc(c(-c5c(F)cccc5F)c5ccc2[nH]5)C=C4)C=C3)cc1
REMARK SMILES IDX 15 1 14 2 12 3 13 4 10 6 11 7 2 8 1 9 3 10 4 13 5 14 6 15
REMARK SMILES IDX 9 16 7 17 8 18 16 19 17 20 18 21 19 22 20 23 21 25 22 26
REMARK SMILES IDX 23 27 75 28 24 29 74 30 25 31 26 32 27 33 68 34 28 35 73 36
REMARK SMILES IDX 67 37 69 38 29 39 72 40 66 41 65 42 30 44 56 45 39 46 55 47
REMARK SMILES IDX 40 48 43 49 54 50 70 51 41 52 42 53 53 55 71 56 44 57 31 58
REMARK SMILES IDX 32 59 37 60 33 61 34 62 36 63 38 64 35 65 57 66 58 67 63 68
REMARK SMILES IDX 59 69 60 70 62 71 64 72 61 73 45 74 46 75 51 76 47 77 48 78
REMARK SMILES IDX 50 79 52 80 49 81
REMARK H PARENT 14 5 3 11 3 12 19 24 69 43 43 54
REMARK Flexibility Score: inf
ROOT
ATOM      1  C   UNL A   1      37.032  22.328  24.247  1.00  0.00     0.116 C 
ENDROOT
BRANCH   1   2
ATOM      2  N   UNL A   1      35.948  22.609  23.330  1.00  0.00    -0.356 N 
ATOM      3  C   UNL A   1      34.694  23.075  23.553  1.00  0.00     0.228 C 
ATOM      4  O   UNL A   1      33.918  23.070  22.594  1.00  0.00    -0.275 OA
ATOM      5  H   UNL A   1      36.156  22.434  22.385  1.00  0.00     0.163 HD
BRANCH   3   6
ATOM      6  C   UNL A   1      34.237  23.593  24.913  1.00  0.00     0.133 C 
ATOM      7  C   UNL A   1      33.680  25.012  24.782  1.00  0.00     0.024 C 
BRANCH   6   8
ATOM      8  C   UNL A   1      33.305  22.647  25.723  1.00  0.00     0.191 C 
ATOM      9  C   UNL A   1      33.896  22.347  27.110  1.00  0.00     0.076 C 
BRANCH   8  10
ATOM     10  N   UNL A   1      32.890  21.393  25.072  1.00  0.00    -0.343 N 
ATOM     11  H   UNL A   1      33.298  21.378  24.138  1.00  0.00     0.346 HD
ATOM     12  H   UNL A   1      31.870  21.403  25.083  1.00  0.00     0.346 HD
BRANCH  10  13
ATOM     13  C   UNL A   1      33.278  20.156  25.751  1.00  0.00     0.264 C 
BRANCH  13  14
ATOM     14  C   UNL A   1      32.898  18.965  24.861  1.00  0.00     0.044 C 
ATOM     15  C   UNL A   1      32.461  19.381  23.460  1.00  0.00     0.009 C 
ATOM     16  C   UNL A   1      34.056  18.003  24.588  1.00  0.00     0.009 C 
ATOM     17  C   UNL A   1      32.528  18.078  22.676  1.00  0.00     0.001 C 
ATOM     18  C   UNL A   1      33.695  17.299  23.280  1.00  0.00     0.001 C 
ENDBRANCH  13  14
ENDBRANCH  10  13
ENDBRANCH   8  10
ENDBRANCH   6   8
ENDBRANCH   3   6
ENDBRANCH   1   2
BRANCH   1  19
ATOM     19  C   UNL A   1      36.737  21.077  25.066  1.00  0.00     0.023 C 
BRANCH  19  20
ATOM     20  C   UNL A   1      37.831  20.008  24.999  1.00  0.00     0.023 C 
BRANCH  20  21
ATOM     21  C   UNL A   1      39.111  20.349  25.751  1.00  0.00     0.116 C 
BRANCH  21  22
ATOM     22  N   UNL A   1      40.028  19.224  25.841  1.00  0.00    -0.352 N 
ATOM     23  C   UNL A   1      41.382  19.242  26.071  1.00  0.00     0.251 C 
ATOM     24  H   UNL A   1      39.626  18.333  25.720  1.00  0.00     0.163 HD
ATOM     25  O   UNL A   1      42.049  18.216  25.974  1.00  0.00    -0.269 OA
BRANCH  23  26
ATOM     26  C   UNL A   1      42.032  20.523  26.407  1.00  0.00     0.039 A 
ATOM     27  C   UNL A   1      42.421  21.379  25.375  1.00  0.00     0.014 A 
ATOM     28  C   UNL A   1      42.209  20.891  27.743  1.00  0.00     0.014 A 
ATOM     29  C   UNL A   1      42.933  22.640  25.685  1.00  0.00     0.010 A 
ATOM     30  C   UNL A   1      42.652  22.172  28.048  1.00  0.00     0.010 A 
ATOM     31  C   UNL A   1      43.019  23.058  27.024  1.00  0.00    -0.014 A 
BRANCH  31  32
ATOM     32  C   UNL A   1      43.511  24.412  27.383  1.00  0.00     0.031 A 
ATOM     33  C   UNL A   1      42.529  25.469  27.805  1.00  0.00     0.074 A 
ATOM     34  C   UNL A   1      44.818  24.711  27.256  1.00  0.00     0.049 A 
ATOM     35  N   UNL A   1      42.730  26.741  28.038  1.00  0.00    -0.248 NA
ATOM     36  C   UNL A   1      41.128  25.044  27.959  1.00  0.00     0.031 C 
ATOM     37  C   UNL A   1      45.864  23.783  26.825  1.00  0.00     0.029 A 
ATOM     38  N   UNL A   1      45.487  25.890  27.464  1.00  0.00    -0.354 N 
ATOM     39  C   UNL A   1      41.483  27.269  28.345  1.00  0.00     0.074 A 
ATOM     40  C   UNL A   1      40.523  26.193  28.220  1.00  0.00     0.031 C 
ATOM     41  C   UNL A   1      47.045  24.423  26.817  1.00  0.00     0.029 A 
ATOM     42  C   UNL A   1      46.834  25.815  27.203  1.00  0.00     0.049 A 
ATOM     43  H   UNL A   1      45.044  26.714  27.773  1.00  0.00     0.167 HD
ATOM     44  C   UNL A   1      41.168  28.529  28.724  1.00  0.00     0.037 A 
ATOM     45  C   UNL A   1      47.786  26.765  27.257  1.00  0.00     0.037 A 
ATOM     46  C   UNL A   1      42.128  29.590  28.876  1.00  0.00     0.049 A 
ATOM     47  C   UNL A   1      47.407  28.163  27.667  1.00  0.00     0.074 A 
ATOM     48  C   UNL A   1      41.914  30.893  29.288  1.00  0.00     0.029 A 
ATOM     49  N   UNL A   1      43.486  29.465  28.629  1.00  0.00    -0.354 N 
ATOM     50  N   UNL A   1      46.231  28.638  27.996  1.00  0.00    -0.248 NA
ATOM     51  C   UNL A   1      48.490  29.156  27.715  1.00  0.00     0.031 C 
ATOM     52  C   UNL A   1      43.140  31.567  29.261  1.00  0.00     0.029 A 
ATOM     53  C   UNL A   1      44.122  30.670  28.873  1.00  0.00     0.049 A 
ATOM     54  H   UNL A   1      43.932  28.641  28.324  1.00  0.00     0.167 HD
ATOM     55  C   UNL A   1      46.438  29.970  28.329  1.00  0.00     0.074 A 
ATOM     56  C   UNL A   1      47.853  30.227  28.166  1.00  0.00     0.031 C 
ATOM     57  C   UNL A   1      45.537  30.898  28.734  1.00  0.00     0.037 A 
BRANCH  44  58
ATOM     58  C   UNL A   1      39.726  28.826  29.010  1.00  0.00     0.057 A 
ATOM     59  C   UNL A   1      38.843  29.225  27.997  1.00  0.00     0.134 A 
ATOM     60  C   UNL A   1      39.205  28.679  30.301  1.00  0.00     0.134 A 
ATOM     61  F   UNL A   1      39.283  29.398  26.741  1.00  0.00    -0.206 F 
ATOM     62  C   UNL A   1      37.499  29.491  28.262  1.00  0.00     0.040 A 
ATOM     63  C   UNL A   1      37.856  28.915  30.573  1.00  0.00     0.040 A 
ATOM     64  F   UNL A   1      39.993  28.296  31.315  1.00  0.00    -0.206 F 
ATOM     65  C   UNL A   1      37.001  29.328  29.553  1.00  0.00     0.006 A 
ENDBRANCH  44  58
BRANCH  45  66
ATOM     66  C   UNL A   1      49.197  26.433  26.936  1.00  0.00     0.057 A 
ATOM     67  C   UNL A   1      49.672  26.506  25.620  1.00  0.00     0.134 A 
ATOM     68  C   UNL A   1      50.095  26.007  27.922  1.00  0.00     0.134 A 
ATOM     69  F   UNL A   1      48.853  26.889  24.629  1.00  0.00    -0.206 F 
ATOM     70  C   UNL A   1      50.978  26.142  25.292  1.00  0.00     0.040 A 
ATOM     71  C   UNL A   1      51.412  25.663  27.611  1.00  0.00     0.040 A 
ATOM     72  F   UNL A   1      49.705  25.922  29.202  1.00  0.00    -0.206 F 
ATOM     73  C   UNL A   1      51.854  25.721  26.290  1.00  0.00     0.006 A 
ENDBRANCH  45  66
BRANCH  57  74
ATOM     74  C   UNL A   1      46.061  32.257  29.090  1.00  0.00     0.057 A 
ATOM     75  C   UNL A   1      46.509  32.565  30.380  1.00  0.00     0.134 A 
ATOM     76  C   UNL A   1      46.166  33.254  28.112  1.00  0.00     0.134 A 
ATOM     77  F   UNL A   1      46.424  31.657  31.364  1.00  0.00    -0.206 F 
ATOM     78  C   UNL A   1      47.025  33.824  30.690  1.00  0.00     0.040 A 
ATOM     79  C   UNL A   1      46.703  34.508  28.402  1.00  0.00     0.040 A 
ATOM     80  F   UNL A   1      45.762  33.019  26.853  1.00  0.00    -0.206 F 
ATOM     81  C   UNL A   1      47.130  34.797  29.697  1.00  0.00     0.006 A 
ENDBRANCH  57  74
ENDBRANCH  31  32
ENDBRANCH  23  26
ENDBRANCH  21  22
ENDBRANCH  20  21
ENDBRANCH  19  20
ENDBRANCH   1  19
TORSDOF 15
ENDMDL
