MODEL 1
REMARK VINA RESULT:     -11.4      0.000      0.000
REMARK SMILES CC[C@H](C)[C@@H](NC(=O)/C=C/c1csc(C)n1)C(=O)NCCCCNC(=O)c1ccc(-c2c3nc(c(-c4c(F)cccc4F)c4ccc([nH]4)c(-c4c(F)cccc4F)c4nc(c(-c5c(F)cccc5F)c5ccc2[nH]5)C=C4)C=C3)cc1
REMARK SMILES IDX 21 1 20 2 19 3 17 4 18 5 5 7 3 8 4 9 2 10 1 11 6 12 7 13
REMARK SMILES IDX 8 15 9 16 10 17 11 18 12 19 16 20 13 21 14 22 15 23 22 24
REMARK SMILES IDX 23 25 24 26 25 27 26 29 27 30 28 31 80 32 29 33 79 34 30 35
REMARK SMILES IDX 31 36 32 37 73 38 33 39 78 40 72 41 74 42 34 43 77 44 71 45
REMARK SMILES IDX 70 46 35 48 61 49 44 50 60 51 45 52 48 53 59 54 75 55 46 56
REMARK SMILES IDX 47 57 58 59 76 60 49 61 36 62 37 63 42 64 38 65 39 66 41 67
REMARK SMILES IDX 43 68 40 69 62 70 63 71 68 72 64 73 65 74 67 75 69 76 66 77
REMARK SMILES IDX 50 78 51 79 56 80 52 81 53 82 55 83 57 84 54 85
REMARK H PARENT 19 6 6 14 24 28 74 47 48 58
REMARK Flexibility Score: inf
ROOT
ATOM      1  C   UNL A   1      31.995  30.742  26.069  1.00  0.00     0.023 C 
ENDROOT
BRANCH   1   2
ATOM      2  C   UNL A   1      33.105  29.898  26.681  1.00  0.00     0.116 C 
BRANCH   2   3
ATOM      3  N   UNL A   1      32.557  28.741  27.358  1.00  0.00    -0.354 N 
ATOM      4  C   UNL A   1      32.133  27.559  26.838  1.00  0.00     0.242 C 
ATOM      5  O   UNL A   1      31.647  26.724  27.610  1.00  0.00    -0.273 OA
ATOM      6  H   UNL A   1      32.478  28.823  28.336  1.00  0.00     0.163 HD
BRANCH   4   7
ATOM      7  C   UNL A   1      32.138  27.305  25.318  1.00  0.00     0.174 C 
BRANCH   7   8
ATOM      8  C   UNL A   1      33.626  27.046  24.878  1.00  0.00     0.018 C 
ATOM      9  C   UNL A   1      34.120  25.650  25.269  1.00  0.00     0.010 C 
BRANCH   8  10
ATOM     10  C   UNL A   1      33.802  27.303  23.358  1.00  0.00     0.002 C 
ATOM     11  C   UNL A   1      33.770  28.767  22.943  1.00  0.00     0.004 C 
ENDBRANCH   8  10
ENDBRANCH   7   8
BRANCH   7  12
ATOM     12  N   UNL A   1      31.208  26.242  24.868  1.00  0.00    -0.340 N 
ATOM     13  C   UNL A   1      30.328  26.220  23.818  1.00  0.00     0.244 C 
ATOM     14  H   UNL A   1      31.225  25.420  25.411  1.00  0.00     0.164 HD
ATOM     15  O   UNL A   1      29.993  25.146  23.327  1.00  0.00    -0.270 OA
BRANCH  13  16
ATOM     16  C   UNL A   1      29.598  27.451  23.465  1.00  0.00     0.073 C 
ATOM     17  C   UNL A   1      30.024  28.341  22.560  1.00  0.00     0.035 C 
BRANCH  17  18
ATOM     18  C   UNL A   1      29.499  29.668  22.453  1.00  0.00     0.074 A 
ATOM     19  C   UNL A   1      29.222  30.469  23.539  1.00  0.00     0.095 A 
ATOM     20  N   UNL A   1      29.076  30.156  21.228  1.00  0.00    -0.242 NA
ATOM     21  S   UNL A   1      28.441  31.901  23.018  1.00  0.00    -0.127 S 
ATOM     22  C   UNL A   1      28.511  31.335  21.395  1.00  0.00     0.090 A 
ATOM     23  C   UNL A   1      27.937  32.167  20.301  1.00  0.00     0.079 C 
ENDBRANCH  17  18
ENDBRANCH  13  16
ENDBRANCH   7  12
ENDBRANCH   4   7
ENDBRANCH   2   3
ENDBRANCH   1   2
BRANCH   1  24
ATOM     24  C   UNL A   1      31.609  31.956  26.914  1.00  0.00     0.023 C 
BRANCH  24  25
ATOM     25  C   UNL A   1      32.795  32.751  27.451  1.00  0.00     0.116 C 
BRANCH  25  26
ATOM     26  N   UNL A   1      32.465  34.157  27.645  1.00  0.00    -0.352 N 
ATOM     27  C   UNL A   1      32.973  35.047  28.561  1.00  0.00     0.251 C 
ATOM     28  H   UNL A   1      31.784  34.520  27.035  1.00  0.00     0.163 HD
ATOM     29  O   UNL A   1      32.440  36.132  28.746  1.00  0.00    -0.269 OA
BRANCH  27  30
ATOM     30  C   UNL A   1      34.164  34.659  29.342  1.00  0.00     0.039 A 
ATOM     31  C   UNL A   1      33.991  34.104  30.611  1.00  0.00     0.014 A 
ATOM     32  C   UNL A   1      35.440  34.795  28.789  1.00  0.00     0.014 A 
ATOM     33  C   UNL A   1      35.098  33.598  31.292  1.00  0.00     0.010 A 
ATOM     34  C   UNL A   1      36.531  34.230  29.439  1.00  0.00     0.010 A 
ATOM     35  C   UNL A   1      36.367  33.609  30.687  1.00  0.00    -0.014 A 
BRANCH  35  36
ATOM     36  C   UNL A   1      37.524  32.928  31.316  1.00  0.00     0.031 A 
ATOM     37  C   UNL A   1      38.141  31.723  30.666  1.00  0.00     0.074 A 
ATOM     38  C   UNL A   1      37.955  33.344  32.523  1.00  0.00     0.049 A 
ATOM     39  N   UNL A   1      39.089  30.940  31.114  1.00  0.00    -0.248 NA
ATOM     40  C   UNL A   1      37.606  31.330  29.352  1.00  0.00     0.031 C 
ATOM     41  C   UNL A   1      37.399  34.468  33.281  1.00  0.00     0.029 A 
ATOM     42  N   UNL A   1      38.948  32.857  33.336  1.00  0.00    -0.354 N 
ATOM     43  C   UNL A   1      39.256  29.958  30.148  1.00  0.00     0.074 A 
ATOM     44  C   UNL A   1      38.285  30.218  29.106  1.00  0.00     0.031 C 
ATOM     45  C   UNL A   1      38.065  34.590  34.440  1.00  0.00     0.029 A 
ATOM     46  C   UNL A   1      39.065  33.531  34.529  1.00  0.00     0.049 A 
ATOM     47  H   UNL A   1      39.523  32.097  33.090  1.00  0.00     0.167 HD
ATOM     48  C   UNL A   1      40.151  28.943  30.124  1.00  0.00     0.037 A 
ATOM     49  C   UNL A   1      39.873  33.310  35.582  1.00  0.00     0.037 A 
ATOM     50  C   UNL A   1      41.136  28.708  31.146  1.00  0.00     0.049 A 
ATOM     51  C   UNL A   1      40.850  32.168  35.530  1.00  0.00     0.074 A 
ATOM     52  C   UNL A   1      42.145  27.760  31.165  1.00  0.00     0.029 A 
ATOM     53  N   UNL A   1      41.234  29.421  32.330  1.00  0.00    -0.354 N 
ATOM     54  N   UNL A   1      41.055  31.300  34.569  1.00  0.00    -0.248 NA
ATOM     55  C   UNL A   1      41.704  31.971  36.709  1.00  0.00     0.031 C 
ATOM     56  C   UNL A   1      42.822  27.868  32.383  1.00  0.00     0.029 A 
ATOM     57  C   UNL A   1      42.263  28.910  33.104  1.00  0.00     0.049 A 
ATOM     58  H   UNL A   1      40.657  30.176  32.584  1.00  0.00     0.167 HD
ATOM     59  C   UNL A   1      42.071  30.468  35.020  1.00  0.00     0.074 A 
ATOM     60  C   UNL A   1      42.456  30.948  36.331  1.00  0.00     0.031 C 
ATOM     61  C   UNL A   1      42.631  29.398  34.406  1.00  0.00     0.037 A 
BRANCH  48  62
ATOM     62  C   UNL A   1      40.119  28.007  28.953  1.00  0.00     0.057 A 
ATOM     63  C   UNL A   1      40.821  28.281  27.773  1.00  0.00     0.134 A 
ATOM     64  C   UNL A   1      39.442  26.784  29.037  1.00  0.00     0.134 A 
ATOM     65  F   UNL A   1      41.481  29.439  27.628  1.00  0.00    -0.206 F 
ATOM     66  C   UNL A   1      40.843  27.373  26.713  1.00  0.00     0.040 A 
ATOM     67  C   UNL A   1      39.476  25.859  27.992  1.00  0.00     0.040 A 
ATOM     68  F   UNL A   1      38.755  26.460  30.143  1.00  0.00    -0.206 F 
ATOM     69  C   UNL A   1      40.177  26.154  26.825  1.00  0.00     0.006 A 
ENDBRANCH  48  62
BRANCH  49  70
ATOM     70  C   UNL A   1      39.792  34.177  36.785  1.00  0.00     0.057 A 
ATOM     71  C   UNL A   1      38.969  33.838  37.866  1.00  0.00     0.134 A 
ATOM     72  C   UNL A   1      40.508  35.377  36.870  1.00  0.00     0.134 A 
ATOM     73  F   UNL A   1      38.243  32.712  37.834  1.00  0.00    -0.206 F 
ATOM     74  C   UNL A   1      38.840  34.674  38.976  1.00  0.00     0.040 A 
ATOM     75  C   UNL A   1      40.409  36.209  37.986  1.00  0.00     0.040 A 
ATOM     76  F   UNL A   1      41.320  35.754  35.872  1.00  0.00    -0.206 F 
ATOM     77  C   UNL A   1      39.564  35.863  39.039  1.00  0.00     0.006 A 
ENDBRANCH  49  70
BRANCH  61  78
ATOM     78  C   UNL A   1      43.725  28.683  35.142  1.00  0.00     0.057 A 
ATOM     79  C   UNL A   1      43.457  27.583  35.967  1.00  0.00     0.134 A 
ATOM     80  C   UNL A   1      45.062  29.072  34.994  1.00  0.00     0.134 A 
ATOM     81  F   UNL A   1      42.195  27.172  36.162  1.00  0.00    -0.206 F 
ATOM     82  C   UNL A   1      44.479  26.908  36.635  1.00  0.00     0.040 A 
ATOM     83  C   UNL A   1      46.094  28.389  35.636  1.00  0.00     0.040 A 
ATOM     84  F   UNL A   1      45.386  30.113  34.212  1.00  0.00    -0.206 F 
ATOM     85  C   UNL A   1      45.803  27.307  36.463  1.00  0.00     0.006 A 
ENDBRANCH  61  78
ENDBRANCH  35  36
ENDBRANCH  27  30
ENDBRANCH  25  26
ENDBRANCH  24  25
ENDBRANCH   1  24
TORSDOF 16
ENDMDL
MODEL 2
REMARK VINA RESULT:     -11.1      4.874      9.528
REMARK SMILES CC[C@H](C)[C@@H](NC(=O)/C=C/c1csc(C)n1)C(=O)NCCCCNC(=O)c1ccc(-c2c3nc(c(-c4c(F)cccc4F)c4ccc([nH]4)c(-c4c(F)cccc4F)c4nc(c(-c5c(F)cccc5F)c5ccc2[nH]5)C=C4)C=C3)cc1
REMARK SMILES IDX 21 1 20 2 19 3 17 4 18 5 5 7 3 8 4 9 2 10 1 11 6 12 7 13
REMARK SMILES IDX 8 15 9 16 10 17 11 18 12 19 16 20 13 21 14 22 15 23 22 24
REMARK SMILES IDX 23 25 24 26 25 27 26 29 27 30 28 31 80 32 29 33 79 34 30 35
REMARK SMILES IDX 31 36 32 37 73 38 33 39 78 40 72 41 74 42 34 43 77 44 71 45
REMARK SMILES IDX 70 46 35 48 61 49 44 50 60 51 45 52 48 53 59 54 75 55 46 56
REMARK SMILES IDX 47 57 58 59 76 60 49 61 36 62 37 63 42 64 38 65 39 66 41 67
REMARK SMILES IDX 43 68 40 69 62 70 63 71 68 72 64 73 65 74 67 75 69 76 66 77
REMARK SMILES IDX 50 78 51 79 56 80 52 81 53 82 55 83 57 84 54 85
REMARK H PARENT 19 6 6 14 24 28 74 47 48 58
REMARK Flexibility Score: inf
ROOT
ATOM      1  C   UNL A   1      36.566  21.989  24.326  1.00  0.00     0.023 C 
ENDROOT
BRANCH   1   2
ATOM      2  C   UNL A   1      35.951  22.893  25.385  1.00  0.00     0.116 C 
BRANCH   2   3
ATOM      3  N   UNL A   1      35.483  22.117  26.515  1.00  0.00    -0.354 N 
ATOM      4  C   UNL A   1      34.210  21.832  26.897  1.00  0.00     0.242 C 
ATOM      5  O   UNL A   1      34.045  21.187  27.939  1.00  0.00    -0.273 OA
ATOM      6  H   UNL A   1      36.189  21.742  27.091  1.00  0.00     0.163 HD
BRANCH   4   7
ATOM      7  C   UNL A   1      32.998  22.398  26.131  1.00  0.00     0.174 C 
BRANCH   7   8
ATOM      8  C   UNL A   1      32.617  21.367  25.005  1.00  0.00     0.018 C 
ATOM      9  C   UNL A   1      32.752  21.957  23.597  1.00  0.00     0.010 C 
BRANCH   8  10
ATOM     10  C   UNL A   1      33.445  20.062  25.153  1.00  0.00     0.002 C 
ATOM     11  C   UNL A   1      32.645  18.774  25.022  1.00  0.00     0.004 C 
ENDBRANCH   8  10
ENDBRANCH   7   8
BRANCH   7  12
ATOM     12  N   UNL A   1      31.848  22.773  26.987  1.00  0.00    -0.340 N 
ATOM     13  C   UNL A   1      30.727  23.503  26.695  1.00  0.00     0.244 C 
ATOM     14  H   UNL A   1      31.898  22.443  27.914  1.00  0.00     0.164 HD
ATOM     15  O   UNL A   1      29.701  23.332  27.347  1.00  0.00    -0.270 OA
BRANCH  13  16
ATOM     16  C   UNL A   1      30.837  24.661  25.789  1.00  0.00     0.073 C 
ATOM     17  C   UNL A   1      31.534  25.769  26.071  1.00  0.00     0.035 C 
BRANCH  17  18
ATOM     18  C   UNL A   1      31.380  26.999  25.357  1.00  0.00     0.074 A 
ATOM     19  C   UNL A   1      31.821  28.216  25.828  1.00  0.00     0.095 A 
ATOM     20  N   UNL A   1      30.608  27.049  24.208  1.00  0.00    -0.242 NA
ATOM     21  S   UNL A   1      31.292  29.468  24.786  1.00  0.00    -0.127 S 
ATOM     22  C   UNL A   1      30.499  28.299  23.804  1.00  0.00     0.090 A 
ATOM     23  C   UNL A   1      29.742  28.741  22.600  1.00  0.00     0.079 C 
ENDBRANCH  17  18
ENDBRANCH  13  16
ENDBRANCH   7  12
ENDBRANCH   4   7
ENDBRANCH   2   3
ENDBRANCH   1   2
BRANCH   1  24
ATOM     24  C   UNL A   1      37.285  20.769  24.902  1.00  0.00     0.023 C 
BRANCH  24  25
ATOM     25  C   UNL A   1      38.628  21.080  25.555  1.00  0.00     0.116 C 
BRANCH  25  26
ATOM     26  N   UNL A   1      39.488  19.906  25.616  1.00  0.00    -0.352 N 
ATOM     27  C   UNL A   1      40.818  19.823  25.956  1.00  0.00     0.251 C 
ATOM     28  H   UNL A   1      39.058  19.053  25.380  1.00  0.00     0.163 HD
ATOM     29  O   UNL A   1      41.457  18.802  25.748  1.00  0.00    -0.269 OA
BRANCH  27  30
ATOM     30  C   UNL A   1      41.471  21.003  26.555  1.00  0.00     0.039 A 
ATOM     31  C   UNL A   1      42.059  21.951  25.717  1.00  0.00     0.014 A 
ATOM     32  C   UNL A   1      41.446  21.191  27.940  1.00  0.00     0.014 A 
ATOM     33  C   UNL A   1      42.545  23.139  26.264  1.00  0.00     0.010 A 
ATOM     34  C   UNL A   1      41.868  22.402  28.474  1.00  0.00     0.010 A 
ATOM     35  C   UNL A   1      42.404  23.395  27.639  1.00  0.00    -0.014 A 
BRANCH  35  36
ATOM     36  C   UNL A   1      42.756  24.715  28.215  1.00  0.00     0.031 A 
ATOM     37  C   UNL A   1      41.699  25.761  28.418  1.00  0.00     0.074 A 
ATOM     38  C   UNL A   1      44.050  24.998  28.466  1.00  0.00     0.049 A 
ATOM     39  N   UNL A   1      41.833  27.001  28.814  1.00  0.00    -0.248 NA
ATOM     40  C   UNL A   1      40.313  25.374  28.112  1.00  0.00     0.031 C 
ATOM     41  C   UNL A   1      45.175  24.083  28.256  1.00  0.00     0.029 A 
ATOM     42  N   UNL A   1      44.642  26.145  28.932  1.00  0.00    -0.354 N 
ATOM     43  C   UNL A   1      40.556  27.545  28.793  1.00  0.00     0.074 A 
ATOM     44  C   UNL A   1      39.664  26.514  28.308  1.00  0.00     0.031 C 
ATOM     45  C   UNL A   1      46.315  24.700  28.602  1.00  0.00     0.029 A 
ATOM     46  C   UNL A   1      46.011  26.064  29.018  1.00  0.00     0.049 A 
ATOM     47  H   UNL A   1      44.134  26.951  29.182  1.00  0.00     0.167 HD
ATOM     48  C   UNL A   1      40.163  28.786  29.163  1.00  0.00     0.037 A 
ATOM     49  C   UNL A   1      46.920  26.991  29.374  1.00  0.00     0.037 A 
ATOM     50  C   UNL A   1      41.048  29.797  29.676  1.00  0.00     0.049 A 
ATOM     51  C   UNL A   1      46.453  28.364  29.769  1.00  0.00     0.074 A 
ATOM     52  C   UNL A   1      40.728  31.053  30.163  1.00  0.00     0.029 A 
ATOM     53  N   UNL A   1      42.426  29.673  29.763  1.00  0.00    -0.354 N 
ATOM     54  N   UNL A   1      45.231  28.834  29.829  1.00  0.00    -0.248 NA
ATOM     55  C   UNL A   1      47.490  29.335  30.145  1.00  0.00     0.031 C 
ATOM     56  C   UNL A   1      41.917  31.707  30.499  1.00  0.00     0.029 A 
ATOM     57  C   UNL A   1      42.974  30.844  30.261  1.00  0.00     0.049 A 
ATOM     58  H   UNL A   1      42.938  28.873  29.507  1.00  0.00     0.167 HD
ATOM     59  C   UNL A   1      45.351  30.148  30.263  1.00  0.00     0.074 A 
ATOM     60  C   UNL A   1      46.762  30.392  30.474  1.00  0.00     0.031 C 
ATOM     61  C   UNL A   1      44.380  31.071  30.463  1.00  0.00     0.037 A 
BRANCH  48  62
ATOM     62  C   UNL A   1      38.708  29.126  29.038  1.00  0.00     0.057 A 
ATOM     63  C   UNL A   1      37.841  29.067  30.136  1.00  0.00     0.134 A 
ATOM     64  C   UNL A   1      38.187  29.592  27.824  1.00  0.00     0.134 A 
ATOM     65  F   UNL A   1      38.278  28.620  31.323  1.00  0.00    -0.206 F 
ATOM     66  C   UNL A   1      36.504  29.451  30.029  1.00  0.00     0.040 A 
ATOM     67  C   UNL A   1      36.857  30.000  27.711  1.00  0.00     0.040 A 
ATOM     68  F   UNL A   1      38.967  29.677  26.736  1.00  0.00    -0.206 F 
ATOM     69  C   UNL A   1      36.011  29.929  28.816  1.00  0.00     0.006 A 
ENDBRANCH  48  62
BRANCH  49  70
ATOM     70  C   UNL A   1      48.370  26.663  29.363  1.00  0.00     0.057 A 
ATOM     71  C   UNL A   1      49.166  26.944  28.247  1.00  0.00     0.134 A 
ATOM     72  C   UNL A   1      48.984  26.034  30.452  1.00  0.00     0.134 A 
ATOM     73  F   UNL A   1      48.629  27.527  27.165  1.00  0.00    -0.206 F 
ATOM     74  C   UNL A   1      50.514  26.587  28.202  1.00  0.00     0.040 A 
ATOM     75  C   UNL A   1      50.337  25.695  30.432  1.00  0.00     0.040 A 
ATOM     76  F   UNL A   1      48.277  25.745  31.555  1.00  0.00    -0.206 F 
ATOM     77  C   UNL A   1      51.104  25.963  29.299  1.00  0.00     0.006 A 
ENDBRANCH  49  70
BRANCH  61  78
ATOM     78  C   UNL A   1      44.812  32.424  30.943  1.00  0.00     0.057 A 
ATOM     79  C   UNL A   1      44.955  32.709  32.307  1.00  0.00     0.134 A 
ATOM     80  C   UNL A   1      45.123  33.442  30.032  1.00  0.00     0.134 A 
ATOM     81  F   UNL A   1      44.657  31.781  33.229  1.00  0.00    -0.206 F 
ATOM     82  C   UNL A   1      45.375  33.963  32.749  1.00  0.00     0.040 A 
ATOM     83  C   UNL A   1      45.569  34.692  30.461  1.00  0.00     0.040 A 
ATOM     84  F   UNL A   1      45.014  33.232  28.711  1.00  0.00    -0.206 F 
ATOM     85  C   UNL A   1      45.691  34.957  31.823  1.00  0.00     0.006 A 
ENDBRANCH  61  78
ENDBRANCH  35  36
ENDBRANCH  27  30
ENDBRANCH  25  26
ENDBRANCH  24  25
ENDBRANCH   1  24
TORSDOF 16
ENDMDL
MODEL 3
REMARK VINA RESULT:     -11.1      2.084      6.579
REMARK SMILES CC[C@H](C)[C@@H](NC(=O)/C=C/c1csc(C)n1)C(=O)NCCCCNC(=O)c1ccc(-c2c3nc(c(-c4c(F)cccc4F)c4ccc([nH]4)c(-c4c(F)cccc4F)c4nc(c(-c5c(F)cccc5F)c5ccc2[nH]5)C=C4)C=C3)cc1
REMARK SMILES IDX 21 1 20 2 19 3 17 4 18 5 5 7 3 8 4 9 2 10 1 11 6 12 7 13
REMARK SMILES IDX 8 15 9 16 10 17 11 18 12 19 16 20 13 21 14 22 15 23 22 24
REMARK SMILES IDX 23 25 24 26 25 27 26 29 27 30 28 31 80 32 29 33 79 34 30 35
REMARK SMILES IDX 31 36 32 37 73 38 33 39 78 40 72 41 74 42 34 43 77 44 71 45
REMARK SMILES IDX 70 46 35 48 61 49 44 50 60 51 45 52 48 53 59 54 75 55 46 56
REMARK SMILES IDX 47 57 58 59 76 60 49 61 36 62 37 63 42 64 38 65 39 66 41 67
REMARK SMILES IDX 43 68 40 69 62 70 63 71 68 72 64 73 65 74 67 75 69 76 66 77
REMARK SMILES IDX 50 78 51 79 56 80 52 81 53 82 55 83 57 84 54 85
REMARK H PARENT 19 6 6 14 24 28 74 47 48 58
REMARK Flexibility Score: inf
ROOT
ATOM      1  C   UNL A   1      32.177  29.791  25.775  1.00  0.00     0.023 C 
ENDROOT
BRANCH   1   2
ATOM      2  C   UNL A   1      32.412  28.610  26.707  1.00  0.00     0.116 C 
BRANCH   2   3
ATOM      3  N   UNL A   1      31.311  27.673  26.636  1.00  0.00    -0.354 N 
ATOM      4  C   UNL A   1      31.171  26.564  25.861  1.00  0.00     0.242 C 
ATOM      5  O   UNL A   1      30.109  25.935  25.930  1.00  0.00    -0.273 OA
ATOM      6  H   UNL A   1      30.553  27.867  27.234  1.00  0.00     0.163 HD
BRANCH   4   7
ATOM      7  C   UNL A   1      32.247  26.165  24.832  1.00  0.00     0.174 C 
BRANCH   7   8
ATOM      8  C   UNL A   1      33.127  25.029  25.473  1.00  0.00     0.018 C 
ATOM      9  C   UNL A   1      32.489  23.642  25.334  1.00  0.00     0.010 C 
BRANCH   8  10
ATOM     10  C   UNL A   1      34.564  25.051  24.887  1.00  0.00     0.002 C 
ATOM     11  C   UNL A   1      35.551  24.111  25.565  1.00  0.00     0.004 C 
ENDBRANCH   8  10
ENDBRANCH   7   8
BRANCH   7  12
ATOM     12  N   UNL A   1      31.718  25.804  23.496  1.00  0.00    -0.340 N 
ATOM     13  C   UNL A   1      31.563  26.567  22.369  1.00  0.00     0.244 C 
ATOM     14  H   UNL A   1      31.432  24.866  23.403  1.00  0.00     0.164 HD
ATOM     15  O   UNL A   1      31.553  26.029  21.266  1.00  0.00    -0.270 OA
BRANCH  13  16
ATOM     16  C   UNL A   1      31.150  27.976  22.504  1.00  0.00     0.073 C 
ATOM     17  C   UNL A   1      29.895  28.368  22.760  1.00  0.00     0.035 C 
BRANCH  17  18
ATOM     18  C   UNL A   1      29.435  29.708  22.570  1.00  0.00     0.074 A 
ATOM     19  C   UNL A   1      29.219  30.596  23.601  1.00  0.00     0.095 A 
ATOM     20  N   UNL A   1      29.011  30.131  21.320  1.00  0.00    -0.242 NA
ATOM     21  S   UNL A   1      28.498  32.026  22.994  1.00  0.00    -0.127 S 
ATOM     22  C   UNL A   1      28.508  31.346  21.414  1.00  0.00     0.090 A 
ATOM     23  C   UNL A   1      27.952  32.127  20.274  1.00  0.00     0.079 C 
ENDBRANCH  17  18
ENDBRANCH  13  16
ENDBRANCH   7  12
ENDBRANCH   4   7
ENDBRANCH   2   3
ENDBRANCH   1   2
BRANCH   1  24
ATOM     24  C   UNL A   1      31.728  31.063  26.496  1.00  0.00     0.023 C 
BRANCH  24  25
ATOM     25  C   UNL A   1      32.837  31.775  27.264  1.00  0.00     0.116 C 
BRANCH  25  26
ATOM     26  N   UNL A   1      32.508  33.170  27.525  1.00  0.00    -0.352 N 
ATOM     27  C   UNL A   1      33.137  34.068  28.356  1.00  0.00     0.251 C 
ATOM     28  H   UNL A   1      31.727  33.519  27.038  1.00  0.00     0.163 HD
ATOM     29  O   UNL A   1      32.614  35.136  28.637  1.00  0.00    -0.269 OA
BRANCH  27  30
ATOM     30  C   UNL A   1      34.448  33.706  28.927  1.00  0.00     0.039 A 
ATOM     31  C   UNL A   1      34.495  33.087  30.177  1.00  0.00     0.014 A 
ATOM     32  C   UNL A   1      35.618  33.931  28.196  1.00  0.00     0.014 A 
ATOM     33  C   UNL A   1      35.715  32.607  30.656  1.00  0.00     0.010 A 
ATOM     34  C   UNL A   1      36.819  33.393  28.644  1.00  0.00     0.010 A 
ATOM     35  C   UNL A   1      36.874  32.710  29.869  1.00  0.00    -0.014 A 
BRANCH  35  36
ATOM     36  C   UNL A   1      38.142  32.060  30.280  1.00  0.00     0.031 A 
ATOM     37  C   UNL A   1      39.107  32.779  31.178  1.00  0.00     0.074 A 
ATOM     38  C   UNL A   1      38.461  30.856  29.764  1.00  0.00     0.049 A 
ATOM     39  N   UNL A   1      40.303  32.413  31.563  1.00  0.00    -0.248 NA
ATOM     40  C   UNL A   1      38.685  34.092  31.692  1.00  0.00     0.031 C 
ATOM     41  C   UNL A   1      37.631  30.083  28.837  1.00  0.00     0.029 A 
ATOM     42  N   UNL A   1      39.581  30.080  29.930  1.00  0.00    -0.354 N 
ATOM     43  C   UNL A   1      40.781  33.452  32.350  1.00  0.00     0.074 A 
ATOM     44  C   UNL A   1      39.763  34.482  32.357  1.00  0.00     0.031 C 
ATOM     45  C   UNL A   1      38.265  28.942  28.525  1.00  0.00     0.029 A 
ATOM     46  C   UNL A   1      39.560  28.918  29.195  1.00  0.00     0.049 A 
ATOM     47  H   UNL A   1      40.329  30.330  30.519  1.00  0.00     0.167 HD
ATOM     48  C   UNL A   1      41.954  33.531  33.020  1.00  0.00     0.037 A 
ATOM     49  C   UNL A   1      40.488  27.953  29.062  1.00  0.00     0.037 A 
ATOM     50  C   UNL A   1      42.949  32.491  33.036  1.00  0.00     0.049 A 
ATOM     51  C   UNL A   1      41.786  28.073  29.810  1.00  0.00     0.074 A 
ATOM     52  C   UNL A   1      44.128  32.442  33.760  1.00  0.00     0.029 A 
ATOM     53  N   UNL A   1      42.885  31.323  32.293  1.00  0.00    -0.354 N 
ATOM     54  N   UNL A   1      42.186  29.022  30.621  1.00  0.00    -0.248 NA
ATOM     55  C   UNL A   1      42.764  26.992  29.623  1.00  0.00     0.031 C 
ATOM     56  C   UNL A   1      44.801  31.265  33.416  1.00  0.00     0.029 A 
ATOM     57  C   UNL A   1      44.022  30.563  32.512  1.00  0.00     0.049 A 
ATOM     58  H   UNL A   1      42.143  31.073  31.697  1.00  0.00     0.167 HD
ATOM     59  C   UNL A   1      43.450  28.644  31.053  1.00  0.00     0.074 A 
ATOM     60  C   UNL A   1      43.742  27.369  30.433  1.00  0.00     0.031 C 
ATOM     61  C   UNL A   1      44.297  29.298  31.885  1.00  0.00     0.037 A 
BRANCH  48  62
ATOM     62  C   UNL A   1      42.232  34.779  33.803  1.00  0.00     0.057 A 
ATOM     63  C   UNL A   1      42.825  35.901  33.213  1.00  0.00     0.134 A 
ATOM     64  C   UNL A   1      41.830  34.884  35.141  1.00  0.00     0.134 A 
ATOM     65  F   UNL A   1      43.240  35.860  31.938  1.00  0.00    -0.206 F 
ATOM     66  C   UNL A   1      43.017  37.084  33.929  1.00  0.00     0.040 A 
ATOM     67  C   UNL A   1      41.997  36.069  35.860  1.00  0.00     0.040 A 
ATOM     68  F   UNL A   1      41.251  33.846  35.762  1.00  0.00    -0.206 F 
ATOM     69  C   UNL A   1      42.593  37.173  35.254  1.00  0.00     0.006 A 
ENDBRANCH  48  62
BRANCH  49  70
ATOM     70  C   UNL A   1      40.237  26.788  28.174  1.00  0.00     0.057 A 
ATOM     71  C   UNL A   1      40.787  26.727  26.888  1.00  0.00     0.134 A 
ATOM     72  C   UNL A   1      39.417  25.727  28.577  1.00  0.00     0.134 A 
ATOM     73  F   UNL A   1      41.562  27.723  26.438  1.00  0.00    -0.206 F 
ATOM     74  C   UNL A   1      40.509  25.666  26.025  1.00  0.00     0.040 A 
ATOM     75  C   UNL A   1      39.153  24.647  27.734  1.00  0.00     0.040 A 
ATOM     76  F   UNL A   1      38.867  25.722  29.800  1.00  0.00    -0.206 F 
ATOM     77  C   UNL A   1      39.692  24.620  26.448  1.00  0.00     0.006 A 
ENDBRANCH  49  70
BRANCH  61  78
ATOM     78  C   UNL A   1      45.612  28.639  32.178  1.00  0.00     0.057 A 
ATOM     79  C   UNL A   1      46.755  28.911  31.415  1.00  0.00     0.134 A 
ATOM     80  C   UNL A   1      45.747  27.755  33.255  1.00  0.00     0.134 A 
ATOM     81  F   UNL A   1      46.687  29.737  30.360  1.00  0.00    -0.206 F 
ATOM     82  C   UNL A   1      47.981  28.311  31.702  1.00  0.00     0.040 A 
ATOM     83  C   UNL A   1      46.973  27.169  33.568  1.00  0.00     0.040 A 
ATOM     84  F   UNL A   1      44.692  27.458  34.029  1.00  0.00    -0.206 F 
ATOM     85  C   UNL A   1      48.094  27.443  32.786  1.00  0.00     0.006 A 
ENDBRANCH  61  78
ENDBRANCH  35  36
ENDBRANCH  27  30
ENDBRANCH  25  26
ENDBRANCH  24  25
ENDBRANCH   1  24
TORSDOF 16
ENDMDL
