MODEL 1
REMARK VINA RESULT:     -11.5      0.000      0.000
REMARK SMILES O=C(NCCCCNC(=O)c1sccc1NS(=O)(=O)N1CCCC1)c1ccc(-c2c3nc(c(-c4c(F)cccc4F)c4ccc([nH]4)c(-c4c(F)cccc4F)c4nc(c(-c5c(F)cccc5F)c5ccc2[nH]5)C=C4)C=C3)cc1
REMARK SMILES IDX 6 1 5 2 4 3 3 4 1 5 2 6 25 8 26 9 78 10 27 11 77 12 28 13
REMARK SMILES IDX 29 14 30 15 71 16 31 17 76 18 70 19 72 20 32 21 75 22 69 23
REMARK SMILES IDX 68 24 33 26 59 27 42 28 58 29 43 30 46 31 57 32 73 33 44 34
REMARK SMILES IDX 45 35 56 37 74 38 47 39 34 40 35 41 40 42 36 43 37 44 39 45
REMARK SMILES IDX 41 46 38 47 60 48 61 49 66 50 62 51 63 52 65 53 67 54 64 55
REMARK SMILES IDX 48 56 49 57 54 58 50 59 51 60 53 61 55 62 52 63 7 64 8 65
REMARK SMILES IDX 9 66 10 68 11 69 12 70 15 71 13 72 14 73 16 74 17 76 18 77
REMARK SMILES IDX 19 78 20 79 21 80 24 81 22 82 23 83
REMARK H PARENT 3 7 72 25 46 36 8 67 16 75
REMARK Flexibility Score: inf
ROOT
ATOM      1  C   UNL A   1      37.284  21.114  24.444  1.00  0.00     0.023 C 
ENDROOT
BRANCH   1   2
ATOM      2  C   UNL A   1      37.990  19.886  25.001  1.00  0.00     0.023 C 
BRANCH   2   3
ATOM      3  C   UNL A   1      39.205  20.181  25.866  1.00  0.00     0.116 C 
BRANCH   3   4
ATOM      4  N   UNL A   1      40.199  19.117  25.863  1.00  0.00    -0.352 N 
ATOM      5  O   UNL A   1      42.282  18.224  25.890  1.00  0.00    -0.269 OA
ATOM      6  C   UNL A   1      41.563  19.205  26.042  1.00  0.00     0.251 C 
ATOM      7  H   UNL A   1      39.849  18.210  25.713  1.00  0.00     0.163 HD
BRANCH   6   8
ATOM      8  C   UNL A   1      42.159  20.513  26.390  1.00  0.00     0.039 A 
ATOM      9  C   UNL A   1      42.286  20.884  27.727  1.00  0.00     0.014 A 
ATOM     10  C   UNL A   1      42.540  21.396  25.376  1.00  0.00     0.014 A 
ATOM     11  C   UNL A   1      42.582  22.199  28.045  1.00  0.00     0.010 A 
ATOM     12  C   UNL A   1      42.975  22.685  25.709  1.00  0.00     0.010 A 
ATOM     13  C   UNL A   1      42.960  23.112  27.045  1.00  0.00    -0.014 A 
BRANCH  13  14
ATOM     14  C   UNL A   1      43.405  24.468  27.462  1.00  0.00     0.031 A 
ATOM     15  C   UNL A   1      44.841  24.901  27.362  1.00  0.00     0.074 A 
ATOM     16  C   UNL A   1      42.462  25.340  27.872  1.00  0.00     0.049 A 
ATOM     17  N   UNL A   1      45.363  26.074  27.626  1.00  0.00    -0.248 NA
ATOM     18  C   UNL A   1      45.821  23.899  26.919  1.00  0.00     0.031 C 
ATOM     19  C   UNL A   1      41.038  25.027  28.029  1.00  0.00     0.029 A 
ATOM     20  N   UNL A   1      42.543  26.669  28.197  1.00  0.00    -0.354 N 
ATOM     21  C   UNL A   1      46.726  25.951  27.386  1.00  0.00     0.074 A 
ATOM     22  C   UNL A   1      46.959  24.576  26.995  1.00  0.00     0.031 C 
ATOM     23  C   UNL A   1      40.373  26.142  28.353  1.00  0.00     0.029 A 
ATOM     24  C   UNL A   1      41.329  27.229  28.513  1.00  0.00     0.049 A 
ATOM     25  H   UNL A   1      43.389  27.173  28.203  1.00  0.00     0.167 HD
ATOM     26  C   UNL A   1      47.690  26.901  27.470  1.00  0.00     0.037 A 
ATOM     27  C   UNL A   1      41.015  28.473  28.915  1.00  0.00     0.037 A 
ATOM     28  C   UNL A   1      47.450  28.269  27.865  1.00  0.00     0.049 A 
ATOM     29  C   UNL A   1      42.110  29.490  29.036  1.00  0.00     0.074 A 
ATOM     30  C   UNL A   1      48.360  29.306  27.979  1.00  0.00     0.029 A 
ATOM     31  N   UNL A   1      46.212  28.787  28.216  1.00  0.00    -0.354 N 
ATOM     32  N   UNL A   1      43.389  29.362  28.779  1.00  0.00    -0.248 NA
ATOM     33  C   UNL A   1      41.718  30.825  29.501  1.00  0.00     0.031 C 
ATOM     34  C   UNL A   1      47.682  30.438  28.444  1.00  0.00     0.029 A 
ATOM     35  C   UNL A   1      46.339  30.125  28.562  1.00  0.00     0.049 A 
ATOM     36  H   UNL A   1      45.368  28.282  28.218  1.00  0.00     0.167 HD
ATOM     37  C   UNL A   1      43.953  30.603  29.037  1.00  0.00     0.074 A 
ATOM     38  C   UNL A   1      42.869  31.478  29.435  1.00  0.00     0.031 C 
ATOM     39  C   UNL A   1      45.251  30.984  28.960  1.00  0.00     0.037 A 
BRANCH  26  40
ATOM     40  C   UNL A   1      49.100  26.501  27.136  1.00  0.00     0.057 A 
ATOM     41  C   UNL A   1      49.974  25.992  28.108  1.00  0.00     0.134 A 
ATOM     42  C   UNL A   1      49.572  26.562  25.818  1.00  0.00     0.134 A 
ATOM     43  F   UNL A   1      49.591  25.912  29.391  1.00  0.00    -0.206 F 
ATOM     44  C   UNL A   1      51.268  25.578  27.783  1.00  0.00     0.040 A 
ATOM     45  C   UNL A   1      50.854  26.126  25.478  1.00  0.00     0.040 A 
ATOM     46  F   UNL A   1      48.788  27.029  24.834  1.00  0.00    -0.206 F 
ATOM     47  C   UNL A   1      51.709  25.636  26.463  1.00  0.00     0.006 A 
ENDBRANCH  26  40
BRANCH  27  48
ATOM     48  C   UNL A   1      39.612  28.808  29.264  1.00  0.00     0.057 A 
ATOM     49  C   UNL A   1      39.118  28.634  30.561  1.00  0.00     0.134 A 
ATOM     50  C   UNL A   1      38.725  29.303  28.298  1.00  0.00     0.134 A 
ATOM     51  F   UNL A   1      39.914  28.154  31.528  1.00  0.00    -0.206 F 
ATOM     52  C   UNL A   1      37.787  28.909  30.879  1.00  0.00     0.040 A 
ATOM     53  C   UNL A   1      37.402  29.616  28.610  1.00  0.00     0.040 A 
ATOM     54  F   UNL A   1      39.138  29.506  27.039  1.00  0.00    -0.206 F 
ATOM     55  C   UNL A   1      36.927  29.408  29.902  1.00  0.00     0.006 A 
ENDBRANCH  27  48
BRANCH  39  56
ATOM     56  C   UNL A   1      45.555  32.419  29.282  1.00  0.00     0.057 A 
ATOM     57  C   UNL A   1      45.510  33.424  28.308  1.00  0.00     0.134 A 
ATOM     58  C   UNL A   1      45.901  32.798  30.586  1.00  0.00     0.134 A 
ATOM     59  F   UNL A   1      45.200  33.126  27.036  1.00  0.00    -0.206 F 
ATOM     60  C   UNL A   1      45.838  34.747  28.608  1.00  0.00     0.040 A 
ATOM     61  C   UNL A   1      46.198  34.124  30.905  1.00  0.00     0.040 A 
ATOM     62  F   UNL A   1      45.956  31.888  31.570  1.00  0.00    -0.206 F 
ATOM     63  C   UNL A   1      46.179  35.100  29.913  1.00  0.00     0.006 A 
ENDBRANCH  39  56
ENDBRANCH  13  14
ENDBRANCH   6   8
ENDBRANCH   3   4
ENDBRANCH   2   3
ENDBRANCH   1   2
BRANCH   1  64
ATOM     64  C   UNL A   1      37.073  22.238  25.449  1.00  0.00     0.116 C 
BRANCH  64  65
ATOM     65  N   UNL A   1      36.126  21.904  26.501  1.00  0.00    -0.351 N 
ATOM     66  C   UNL A   1      34.774  22.159  26.542  1.00  0.00     0.263 C 
ATOM     67  H   UNL A   1      36.500  21.436  27.283  1.00  0.00     0.163 HD
ATOM     68  O   UNL A   1      34.165  21.875  27.571  1.00  0.00    -0.268 OA
BRANCH  66  69
ATOM     69  C   UNL A   1      34.160  22.749  25.374  1.00  0.00     0.116 A 
ATOM     70  S   UNL A   1      33.832  24.429  25.428  1.00  0.00    -0.136 S 
ATOM     71  C   UNL A   1      33.803  22.170  24.165  1.00  0.00     0.073 A 
ATOM     72  C   UNL A   1      33.305  24.434  23.809  1.00  0.00     0.068 A 
ATOM     73  C   UNL A   1      33.340  23.173  23.257  1.00  0.00     0.039 A 
BRANCH  71  74
ATOM     74  N   UNL A   1      33.832  20.782  23.876  1.00  0.00    -0.269 N 
ATOM     75  H   UNL A   1      34.625  20.423  23.414  1.00  0.00     0.181 HD
BRANCH  74  76
ATOM     76  S   UNL A   1      32.597  19.710  24.273  1.00  0.00     0.301 S 
ATOM     77  O   UNL A   1      31.778  20.347  25.276  1.00  0.00    -0.189 OA
ATOM     78  O   UNL A   1      32.012  19.263  23.029  1.00  0.00    -0.189 OA
BRANCH  76  79
ATOM     79  N   UNL A   1      33.402  18.418  24.985  1.00  0.00    -0.185 NA
ATOM     80  C   UNL A   1      34.570  17.874  24.251  1.00  0.00     0.104 C 
ATOM     81  C   UNL A   1      32.535  17.272  25.376  1.00  0.00     0.104 C 
ATOM     82  C   UNL A   1      34.057  16.578  23.651  1.00  0.00     0.018 C 
ATOM     83  C   UNL A   1      33.155  16.035  24.742  1.00  0.00     0.018 C 
ENDBRANCH  76  79
ENDBRANCH  74  76
ENDBRANCH  71  74
ENDBRANCH  66  69
ENDBRANCH  64  65
ENDBRANCH   1  64
TORSDOF 14
ENDMDL
MODEL 2
REMARK VINA RESULT:     -11.4      6.176     10.953
REMARK SMILES O=C(NCCCCNC(=O)c1sccc1NS(=O)(=O)N1CCCC1)c1ccc(-c2c3nc(c(-c4c(F)cccc4F)c4ccc([nH]4)c(-c4c(F)cccc4F)c4nc(c(-c5c(F)cccc5F)c5ccc2[nH]5)C=C4)C=C3)cc1
REMARK SMILES IDX 6 1 5 2 4 3 3 4 1 5 2 6 25 8 26 9 78 10 27 11 77 12 28 13
REMARK SMILES IDX 29 14 30 15 71 16 31 17 76 18 70 19 72 20 32 21 75 22 69 23
REMARK SMILES IDX 68 24 33 26 59 27 42 28 58 29 43 30 46 31 57 32 73 33 44 34
REMARK SMILES IDX 45 35 56 37 74 38 47 39 34 40 35 41 40 42 36 43 37 44 39 45
REMARK SMILES IDX 41 46 38 47 60 48 61 49 66 50 62 51 63 52 65 53 67 54 64 55
REMARK SMILES IDX 48 56 49 57 54 58 50 59 51 60 53 61 55 62 52 63 7 64 8 65
REMARK SMILES IDX 9 66 10 68 11 69 12 70 15 71 13 72 14 73 16 74 17 76 18 77
REMARK SMILES IDX 19 78 20 79 21 80 24 81 22 82 23 83
REMARK H PARENT 3 7 72 25 46 36 8 67 16 75
REMARK Flexibility Score: inf
ROOT
ATOM      1  C   UNL A   1      31.658  30.744  26.126  1.00  0.00     0.023 C 
ENDROOT
BRANCH   1   2
ATOM      2  C   UNL A   1      31.399  31.991  26.958  1.00  0.00     0.023 C 
BRANCH   2   3
ATOM      3  C   UNL A   1      32.637  32.808  27.293  1.00  0.00     0.116 C 
BRANCH   3   4
ATOM      4  N   UNL A   1      32.351  34.199  27.619  1.00  0.00    -0.352 N 
ATOM      5  O   UNL A   1      32.525  36.135  28.785  1.00  0.00    -0.269 OA
ATOM      6  C   UNL A   1      32.966  35.016  28.543  1.00  0.00     0.251 C 
ATOM      7  H   UNL A   1      31.617  34.612  27.109  1.00  0.00     0.163 HD
BRANCH   6   8
ATOM      8  C   UNL A   1      34.152  34.514  29.269  1.00  0.00     0.039 A 
ATOM      9  C   UNL A   1      35.424  34.698  28.731  1.00  0.00     0.014 A 
ATOM     10  C   UNL A   1      33.990  33.808  30.464  1.00  0.00     0.014 A 
ATOM     11  C   UNL A   1      36.496  33.998  29.260  1.00  0.00     0.010 A 
ATOM     12  C   UNL A   1      35.102  33.217  31.075  1.00  0.00     0.010 A 
ATOM     13  C   UNL A   1      36.360  33.272  30.455  1.00  0.00    -0.014 A 
BRANCH  13  14
ATOM     14  C   UNL A   1      37.577  32.662  31.050  1.00  0.00     0.031 A 
ATOM     15  C   UNL A   1      38.158  33.146  32.350  1.00  0.00     0.074 A 
ATOM     16  C   UNL A   1      38.118  31.597  30.423  1.00  0.00     0.049 A 
ATOM     17  N   UNL A   1      39.176  32.666  33.022  1.00  0.00    -0.248 NA
ATOM     18  C   UNL A   1      37.529  34.317  32.977  1.00  0.00     0.031 C 
ATOM     19  C   UNL A   1      37.654  31.050  29.144  1.00  0.00     0.029 A 
ATOM     20  N   UNL A   1      39.145  30.765  30.782  1.00  0.00    -0.354 N 
ATOM     21  C   UNL A   1      39.312  33.475  34.143  1.00  0.00     0.074 A 
ATOM     22  C   UNL A   1      38.298  34.503  34.042  1.00  0.00     0.031 C 
ATOM     23  C   UNL A   1      38.345  29.940  28.861  1.00  0.00     0.029 A 
ATOM     24  C   UNL A   1      39.359  29.744  29.888  1.00  0.00     0.049 A 
ATOM     25  H   UNL A   1      39.679  30.887  31.601  1.00  0.00     0.167 HD
ATOM     26  C   UNL A   1      40.192  33.360  35.168  1.00  0.00     0.037 A 
ATOM     27  C   UNL A   1      40.284  28.768  29.876  1.00  0.00     0.037 A 
ATOM     28  C   UNL A   1      41.204  32.334  35.260  1.00  0.00     0.049 A 
ATOM     29  C   UNL A   1      41.269  28.693  31.004  1.00  0.00     0.074 A 
ATOM     30  C   UNL A   1      42.141  32.133  36.260  1.00  0.00     0.029 A 
ATOM     31  N   UNL A   1      41.414  31.341  34.314  1.00  0.00    -0.354 N 
ATOM     32  N   UNL A   1      41.364  29.451  32.070  1.00  0.00    -0.248 NA
ATOM     33  C   UNL A   1      42.272  27.624  30.930  1.00  0.00     0.031 C 
ATOM     34  C   UNL A   1      42.946  31.049  35.896  1.00  0.00     0.029 A 
ATOM     35  C   UNL A   1      42.475  30.536  34.699  1.00  0.00     0.049 A 
ATOM     36  H   UNL A   1      40.887  31.224  33.492  1.00  0.00     0.167 HD
ATOM     37  C   UNL A   1      42.428  28.942  32.801  1.00  0.00     0.074 A 
ATOM     38  C   UNL A   1      42.921  27.790  32.073  1.00  0.00     0.031 C 
ATOM     39  C   UNL A   1      42.957  29.393  33.964  1.00  0.00     0.037 A 
BRANCH  26  40
ATOM     40  C   UNL A   1      40.112  34.372  36.279  1.00  0.00     0.057 A 
ATOM     41  C   UNL A   1      39.314  34.162  37.412  1.00  0.00     0.134 A 
ATOM     42  C   UNL A   1      40.887  35.538  36.247  1.00  0.00     0.134 A 
ATOM     43  F   UNL A   1      38.540  33.070  37.506  1.00  0.00    -0.206 F 
ATOM     44  C   UNL A   1      39.278  35.083  38.462  1.00  0.00     0.040 A 
ATOM     45  C   UNL A   1      40.880  36.452  37.302  1.00  0.00     0.040 A 
ATOM     46  F   UNL A   1      41.682  35.800  35.198  1.00  0.00    -0.206 F 
ATOM     47  C   UNL A   1      40.069  36.228  38.413  1.00  0.00     0.006 A 
ENDBRANCH  26  40
BRANCH  27  48
ATOM     48  C   UNL A   1      40.342  27.814  28.739  1.00  0.00     0.057 A 
ATOM     49  C   UNL A   1      41.091  28.088  27.591  1.00  0.00     0.134 A 
ATOM     50  C   UNL A   1      39.633  26.605  28.775  1.00  0.00     0.134 A 
ATOM     51  F   UNL A   1      41.782  29.233  27.491  1.00  0.00    -0.206 F 
ATOM     52  C   UNL A   1      41.111  27.210  26.505  1.00  0.00     0.040 A 
ATOM     53  C   UNL A   1      39.673  25.702  27.713  1.00  0.00     0.040 A 
ATOM     54  F   UNL A   1      38.906  26.276  29.852  1.00  0.00    -0.206 F 
ATOM     55  C   UNL A   1      40.404  26.010  26.568  1.00  0.00     0.006 A 
ENDBRANCH  27  48
BRANCH  39  56
ATOM     56  C   UNL A   1      44.106  28.611  34.532  1.00  0.00     0.057 A 
ATOM     57  C   UNL A   1      43.911  27.525  35.396  1.00  0.00     0.134 A 
ATOM     58  C   UNL A   1      45.427  28.951  34.211  1.00  0.00     0.134 A 
ATOM     59  F   UNL A   1      42.671  27.157  35.756  1.00  0.00    -0.206 F 
ATOM     60  C   UNL A   1      44.987  26.833  35.954  1.00  0.00     0.040 A 
ATOM     61  C   UNL A   1      46.510  28.244  34.736  1.00  0.00     0.040 A 
ATOM     62  F   UNL A   1      45.686  29.974  33.383  1.00  0.00    -0.206 F 
ATOM     63  C   UNL A   1      46.292  27.191  35.620  1.00  0.00     0.006 A 
ENDBRANCH  39  56
ENDBRANCH  13  14
ENDBRANCH   6   8
ENDBRANCH   3   4
ENDBRANCH   2   3
ENDBRANCH   1   2
BRANCH   1  64
ATOM     64  C   UNL A   1      32.980  30.047  26.416  1.00  0.00     0.116 C 
BRANCH  64  65
ATOM     65  N   UNL A   1      33.701  29.652  25.217  1.00  0.00    -0.351 N 
ATOM     66  C   UNL A   1      33.634  28.457  24.538  1.00  0.00     0.263 C 
ATOM     67  H   UNL A   1      34.316  30.326  24.844  1.00  0.00     0.163 HD
ATOM     68  O   UNL A   1      34.401  28.287  23.592  1.00  0.00    -0.268 OA
BRANCH  66  69
ATOM     69  C   UNL A   1      32.672  27.476  24.985  1.00  0.00     0.116 A 
ATOM     70  S   UNL A   1      33.276  26.119  25.837  1.00  0.00    -0.136 S 
ATOM     71  C   UNL A   1      31.290  27.461  24.860  1.00  0.00     0.073 A 
ATOM     72  C   UNL A   1      31.704  25.541  26.143  1.00  0.00     0.068 A 
ATOM     73  C   UNL A   1      30.744  26.346  25.569  1.00  0.00     0.039 A 
BRANCH  71  74
ATOM     74  N   UNL A   1      30.522  28.376  24.096  1.00  0.00    -0.269 N 
ATOM     75  H   UNL A   1      29.903  28.973  24.577  1.00  0.00     0.181 HD
BRANCH  74  76
ATOM     76  S   UNL A   1      30.603  28.506  22.420  1.00  0.00     0.301 S 
ATOM     77  O   UNL A   1      31.651  29.447  22.109  1.00  0.00    -0.189 OA
ATOM     78  O   UNL A   1      30.652  27.159  21.896  1.00  0.00    -0.189 OA
BRANCH  76  79
ATOM     79  N   UNL A   1      29.128  29.193  22.001  1.00  0.00    -0.185 NA
ATOM     80  C   UNL A   1      29.144  30.628  21.626  1.00  0.00     0.104 C 
ATOM     81  C   UNL A   1      28.033  28.992  22.990  1.00  0.00     0.104 C 
ATOM     82  C   UNL A   1      28.561  31.332  22.838  1.00  0.00     0.018 C 
ATOM     83  C   UNL A   1      27.476  30.376  23.294  1.00  0.00     0.018 C 
ENDBRANCH  76  79
ENDBRANCH  74  76
ENDBRANCH  71  74
ENDBRANCH  66  69
ENDBRANCH  64  65
ENDBRANCH   1  64
TORSDOF 14
ENDMDL
MODEL 3
REMARK VINA RESULT:     -11.3      1.387      6.441
REMARK SMILES O=C(NCCCCNC(=O)c1sccc1NS(=O)(=O)N1CCCC1)c1ccc(-c2c3nc(c(-c4c(F)cccc4F)c4ccc([nH]4)c(-c4c(F)cccc4F)c4nc(c(-c5c(F)cccc5F)c5ccc2[nH]5)C=C4)C=C3)cc1
REMARK SMILES IDX 6 1 5 2 4 3 3 4 1 5 2 6 25 8 26 9 78 10 27 11 77 12 28 13
REMARK SMILES IDX 29 14 30 15 71 16 31 17 76 18 70 19 72 20 32 21 75 22 69 23
REMARK SMILES IDX 68 24 33 26 59 27 42 28 58 29 43 30 46 31 57 32 73 33 44 34
REMARK SMILES IDX 45 35 56 37 74 38 47 39 34 40 35 41 40 42 36 43 37 44 39 45
REMARK SMILES IDX 41 46 38 47 60 48 61 49 66 50 62 51 63 52 65 53 67 54 64 55
REMARK SMILES IDX 48 56 49 57 54 58 50 59 51 60 53 61 55 62 52 63 7 64 8 65
REMARK SMILES IDX 9 66 10 68 11 69 12 70 15 71 13 72 14 73 16 74 17 76 18 77
REMARK SMILES IDX 19 78 20 79 21 80 24 81 22 82 23 83
REMARK H PARENT 3 7 72 25 46 36 8 67 16 75
REMARK Flexibility Score: inf
ROOT
ATOM      1  C   UNL A   1      37.366  21.308  24.425  1.00  0.00     0.023 C 
ENDROOT
BRANCH   1   2
ATOM      2  C   UNL A   1      37.999  20.037  24.971  1.00  0.00     0.023 C 
BRANCH   2   3
ATOM      3  C   UNL A   1      39.108  20.257  25.988  1.00  0.00     0.116 C 
BRANCH   3   4
ATOM      4  N   UNL A   1      40.210  19.312  25.867  1.00  0.00    -0.352 N 
ATOM      5  O   UNL A   1      42.377  18.651  25.781  1.00  0.00    -0.269 OA
ATOM      6  C   UNL A   1      41.561  19.529  26.039  1.00  0.00     0.251 C 
ATOM      7  H   UNL A   1      39.956  18.391  25.631  1.00  0.00     0.163 HD
BRANCH   6   8
ATOM      8  C   UNL A   1      42.021  20.854  26.508  1.00  0.00     0.039 A 
ATOM      9  C   UNL A   1      42.010  21.149  27.869  1.00  0.00     0.014 A 
ATOM     10  C   UNL A   1      42.411  21.824  25.581  1.00  0.00     0.014 A 
ATOM     11  C   UNL A   1      42.174  22.461  28.285  1.00  0.00     0.010 A 
ATOM     12  C   UNL A   1      42.714  23.118  26.021  1.00  0.00     0.010 A 
ATOM     13  C   UNL A   1      42.558  23.459  27.373  1.00  0.00    -0.014 A 
BRANCH  13  14
ATOM     14  C   UNL A   1      42.858  24.816  27.901  1.00  0.00     0.031 A 
ATOM     15  C   UNL A   1      41.779  25.835  28.142  1.00  0.00     0.074 A 
ATOM     16  C   UNL A   1      44.136  25.094  28.231  1.00  0.00     0.049 A 
ATOM     17  N   UNL A   1      41.885  27.034  28.660  1.00  0.00    -0.248 NA
ATOM     18  C   UNL A   1      40.409  25.475  27.749  1.00  0.00     0.031 C 
ATOM     19  C   UNL A   1      45.274  24.191  28.023  1.00  0.00     0.029 A 
ATOM     20  N   UNL A   1      44.693  26.187  28.839  1.00  0.00    -0.354 N 
ATOM     21  C   UNL A   1      40.604  27.571  28.653  1.00  0.00     0.074 A 
ATOM     22  C   UNL A   1      39.741  26.583  28.040  1.00  0.00     0.031 C 
ATOM     23  C   UNL A   1      46.374  24.737  28.553  1.00  0.00     0.029 A 
ATOM     24  C   UNL A   1      46.043  26.062  29.060  1.00  0.00     0.049 A 
ATOM     25  H   UNL A   1      44.176  26.986  29.093  1.00  0.00     0.167 HD
ATOM     26  C   UNL A   1      40.185  28.770  29.127  1.00  0.00     0.037 A 
ATOM     27  C   UNL A   1      46.930  26.924  29.587  1.00  0.00     0.037 A 
ATOM     28  C   UNL A   1      41.053  29.751  29.733  1.00  0.00     0.049 A 
ATOM     29  C   UNL A   1      46.442  28.258  30.066  1.00  0.00     0.074 A 
ATOM     30  C   UNL A   1      40.724  30.995  30.247  1.00  0.00     0.029 A 
ATOM     31  N   UNL A   1      42.422  29.603  29.903  1.00  0.00    -0.354 N 
ATOM     32  N   UNL A   1      45.221  28.737  30.075  1.00  0.00    -0.248 NA
ATOM     33  C   UNL A   1      47.453  29.171  30.611  1.00  0.00     0.031 C 
ATOM     34  C   UNL A   1      41.899  31.616  30.682  1.00  0.00     0.029 A 
ATOM     35  C   UNL A   1      42.953  30.738  30.497  1.00  0.00     0.049 A 
ATOM     36  H   UNL A   1      42.941  28.808  29.642  1.00  0.00     0.167 HD
ATOM     37  C   UNL A   1      45.316  30.001  30.639  1.00  0.00     0.074 A 
ATOM     38  C   UNL A   1      46.708  30.197  30.991  1.00  0.00     0.031 C 
ATOM     39  C   UNL A   1      44.341  30.921  30.840  1.00  0.00     0.037 A 
BRANCH  26  40
ATOM     40  C   UNL A   1      38.723  29.100  29.008  1.00  0.00     0.057 A 
ATOM     41  C   UNL A   1      37.854  29.009  30.105  1.00  0.00     0.134 A 
ATOM     42  C   UNL A   1      38.189  29.575  27.803  1.00  0.00     0.134 A 
ATOM     43  F   UNL A   1      38.296  28.555  31.287  1.00  0.00    -0.206 F 
ATOM     44  C   UNL A   1      36.506  29.361  30.000  1.00  0.00     0.040 A 
ATOM     45  C   UNL A   1      36.849  29.955  27.695  1.00  0.00     0.040 A 
ATOM     46  F   UNL A   1      38.964  29.697  26.715  1.00  0.00    -0.206 F 
ATOM     47  C   UNL A   1      36.002  29.844  28.795  1.00  0.00     0.006 A 
ENDBRANCH  26  40
BRANCH  27  48
ATOM     48  C   UNL A   1      48.368  26.562  29.652  1.00  0.00     0.057 A 
ATOM     49  C   UNL A   1      49.257  26.905  28.627  1.00  0.00     0.134 A 
ATOM     50  C   UNL A   1      48.886  25.852  30.744  1.00  0.00     0.134 A 
ATOM     51  F   UNL A   1      48.821  27.575  27.551  1.00  0.00    -0.206 F 
ATOM     52  C   UNL A   1      50.600  26.527  28.669  1.00  0.00     0.040 A 
ATOM     53  C   UNL A   1      50.234  25.500  30.816  1.00  0.00     0.040 A 
ATOM     54  F   UNL A   1      48.091  25.505  31.766  1.00  0.00    -0.206 F 
ATOM     55  C   UNL A   1      51.093  25.827  29.770  1.00  0.00     0.006 A 
ENDBRANCH  27  48
BRANCH  39  56
ATOM     56  C   UNL A   1      44.751  32.206  31.501  1.00  0.00     0.057 A 
ATOM     57  C   UNL A   1      44.738  32.361  32.894  1.00  0.00     0.134 A 
ATOM     58  C   UNL A   1      45.161  33.303  30.733  1.00  0.00     0.134 A 
ATOM     59  F   UNL A   1      44.341  31.354  33.687  1.00  0.00    -0.206 F 
ATOM     60  C   UNL A   1      45.077  33.574  33.496  1.00  0.00     0.040 A 
ATOM     61  C   UNL A   1      45.535  34.510  31.326  1.00  0.00     0.040 A 
ATOM     62  F   UNL A   1      45.205  33.221  29.395  1.00  0.00    -0.206 F 
ATOM     63  C   UNL A   1      45.481  34.652  32.710  1.00  0.00     0.006 A 
ENDBRANCH  39  56
ENDBRANCH  13  14
ENDBRANCH   6   8
ENDBRANCH   3   4
ENDBRANCH   2   3
ENDBRANCH   1   2
BRANCH   1  64
ATOM     64  C   UNL A   1      37.052  22.365  25.475  1.00  0.00     0.116 C 
BRANCH  64  65
ATOM     65  N   UNL A   1      36.160  21.893  26.522  1.00  0.00    -0.351 N 
ATOM     66  C   UNL A   1      34.795  22.048  26.611  1.00  0.00     0.263 C 
ATOM     67  H   UNL A   1      36.586  21.402  27.261  1.00  0.00     0.163 HD
ATOM     68  O   UNL A   1      34.235  21.653  27.632  1.00  0.00    -0.268 OA
BRANCH  66  69
ATOM     69  C   UNL A   1      34.109  22.671  25.501  1.00  0.00     0.116 A 
ATOM     70  S   UNL A   1      33.706  24.328  25.662  1.00  0.00    -0.136 S 
ATOM     71  C   UNL A   1      33.734  22.143  24.274  1.00  0.00     0.073 A 
ATOM     72  C   UNL A   1      33.118  24.396  24.065  1.00  0.00     0.068 A 
ATOM     73  C   UNL A   1      33.190  23.170  23.442  1.00  0.00     0.039 A 
BRANCH  71  74
ATOM     74  N   UNL A   1      33.817  20.775  23.906  1.00  0.00    -0.269 N 
ATOM     75  H   UNL A   1      34.629  20.472  23.440  1.00  0.00     0.181 HD
BRANCH  74  76
ATOM     76  S   UNL A   1      32.614  19.641  24.218  1.00  0.00     0.301 S 
ATOM     77  O   UNL A   1      31.721  20.214  25.195  1.00  0.00    -0.189 OA
ATOM     78  O   UNL A   1      32.107  19.202  22.936  1.00  0.00    -0.189 OA
BRANCH  76  79
ATOM     79  N   UNL A   1      33.441  18.367  24.935  1.00  0.00    -0.185 NA
ATOM     80  C   UNL A   1      34.569  17.788  24.167  1.00  0.00     0.104 C 
ATOM     81  C   UNL A   1      32.585  17.242  25.404  1.00  0.00     0.104 C 
ATOM     82  C   UNL A   1      34.020  16.477  23.636  1.00  0.00     0.018 C 
ATOM     83  C   UNL A   1      33.166  15.979  24.784  1.00  0.00     0.018 C 
ENDBRANCH  76  79
ENDBRANCH  74  76
ENDBRANCH  71  74
ENDBRANCH  66  69
ENDBRANCH  64  65
ENDBRANCH   1  64
TORSDOF 14
ENDMDL
