MODEL 1
REMARK VINA RESULT:     -11.8      0.000      0.000
REMARK SMILES N#CCCn1cc(C(=O)NCCCCNC(=O)c2ccc(-c3c4nc(c(-c5c(F)cccc5F)c5ccc([nH]5)c(-c5c(F)cccc5F)c5nc(c(-c6c(F)cccc6F)c6ccc3[nH]6)C=C5)C=C4)cc2)c(-c2cccc([N+](=O)[O-])c2)n1
REMARK SMILES IDX 12 1 11 2 10 3 8 4 9 5 7 7 5 8 6 9 82 10 72 11 4 12 3 13
REMARK SMILES IDX 2 14 1 15 73 16 74 17 81 18 75 19 77 20 76 21 78 22 79 23
REMARK SMILES IDX 80 24 13 25 14 26 15 27 16 28 17 30 18 31 19 32 71 33 20 34
REMARK SMILES IDX 70 35 21 36 22 37 23 38 64 39 24 40 69 41 63 42 65 43 25 44
REMARK SMILES IDX 68 45 62 46 61 47 26 49 52 50 35 51 51 52 36 53 39 54 50 55
REMARK SMILES IDX 66 56 37 57 38 58 49 60 67 61 40 62 27 63 28 64 33 65 29 66
REMARK SMILES IDX 30 67 32 68 34 69 31 70 53 71 54 72 59 73 55 74 56 75 58 76
REMARK SMILES IDX 60 77 57 78 41 79 42 80 47 81 43 82 44 83 46 84 48 85 45 86
REMARK H PARENT 10 6 15 29 65 48 39 59
REMARK Flexibility Score: inf
ROOT
ATOM      1  C   UNL A   1      37.291  22.087  24.449  1.00  0.00     0.023 C 
ENDROOT
BRANCH   1   2
ATOM      2  C   UNL A   1      36.103  23.040  24.625  1.00  0.00     0.116 C 
BRANCH   2   3
ATOM      3  N   UNL A   1      35.351  22.740  25.825  1.00  0.00    -0.352 N 
ATOM      4  C   UNL A   1      34.323  21.867  26.074  1.00  0.00     0.255 C 
ATOM      5  O   UNL A   1      33.942  21.807  27.247  1.00  0.00    -0.269 OA
ATOM      6  H   UNL A   1      35.629  23.263  26.612  1.00  0.00     0.163 HD
BRANCH   4   7
ATOM      7  C   UNL A   1      33.757  21.027  25.027  1.00  0.00     0.085 A 
ATOM      8  N   UNL A   1      33.065  19.297  23.859  1.00  0.00    -0.270 N 
ATOM      9  C   UNL A   1      34.028  19.708  24.727  1.00  0.00     0.123 A 
ATOM     10  N   UNL A   1      32.367  20.319  23.335  1.00  0.00    -0.172 NA
ATOM     11  C   UNL A   1      32.812  21.399  24.008  1.00  0.00     0.105 A 
BRANCH   8  12
ATOM     12  C   UNL A   1      32.776  17.923  23.477  1.00  0.00     0.159 C 
BRANCH  12  13
ATOM     13  C   UNL A   1      33.990  16.980  23.475  1.00  0.00     0.144 C 
BRANCH  13  14
ATOM     14  C   UNL A   1      33.804  15.863  24.489  1.00  0.00     0.064 C 
ATOM     15  N   UNL A   1      33.650  14.937  25.330  1.00  0.00    -0.198 NA
ENDBRANCH  13  14
ENDBRANCH  12  13
ENDBRANCH   8  12
BRANCH  11  16
ATOM     16  C   UNL A   1      32.369  22.752  23.670  1.00  0.00     0.010 A 
ATOM     17  C   UNL A   1      31.208  23.260  24.281  1.00  0.00     0.011 A 
ATOM     18  C   UNL A   1      33.034  23.525  22.715  1.00  0.00     0.096 A 
ATOM     19  C   UNL A   1      30.671  24.488  23.900  1.00  0.00     0.008 A 
ATOM     20  C   UNL A   1      32.488  24.763  22.335  1.00  0.00     0.270 A 
ATOM     21  C   UNL A   1      31.303  25.242  22.916  1.00  0.00     0.085 A 
BRANCH  20  22
ATOM     22  N   UNL A   1      33.141  25.562  21.290  1.00  0.00     0.062 N 
ATOM     23  O   UNL A   1      33.854  26.511  21.650  1.00  0.00    -0.258 OA
ATOM     24  O   UNL A   1      32.940  25.246  20.109  1.00  0.00    -0.258 OA
ENDBRANCH  20  22
ENDBRANCH  11  16
ENDBRANCH   4   7
ENDBRANCH   2   3
ENDBRANCH   1   2
BRANCH   1  25
ATOM     25  C   UNL A   1      37.993  21.669  25.750  1.00  0.00     0.023 C 
BRANCH  25  26
ATOM     26  C   UNL A   1      39.017  22.668  26.268  1.00  0.00     0.116 C 
BRANCH  26  27
ATOM     27  N   UNL A   1      40.404  22.201  26.130  1.00  0.00    -0.352 N 
ATOM     28  C   UNL A   1      41.556  22.963  26.042  1.00  0.00     0.251 C 
ATOM     29  H   UNL A   1      40.529  21.226  26.095  1.00  0.00     0.163 HD
ATOM     30  O   UNL A   1      42.590  22.508  25.552  1.00  0.00    -0.269 OA
BRANCH  28  31
ATOM     31  C   UNL A   1      41.532  24.323  26.594  1.00  0.00     0.039 A 
ATOM     32  C   UNL A   1      40.792  25.377  26.048  1.00  0.00     0.014 A 
ATOM     33  C   UNL A   1      42.264  24.493  27.759  1.00  0.00     0.014 A 
ATOM     34  C   UNL A   1      40.770  26.595  26.728  1.00  0.00     0.010 A 
ATOM     35  C   UNL A   1      42.010  25.567  28.549  1.00  0.00     0.010 A 
ATOM     36  C   UNL A   1      41.391  26.670  27.980  1.00  0.00    -0.014 A 
BRANCH  36  37
ATOM     37  C   UNL A   1      41.427  27.863  28.806  1.00  0.00     0.031 A 
ATOM     38  C   UNL A   1      42.529  28.801  28.482  1.00  0.00     0.074 A 
ATOM     39  C   UNL A   1      40.328  28.212  29.518  1.00  0.00     0.049 A 
ATOM     40  N   UNL A   1      43.544  29.112  29.217  1.00  0.00    -0.248 NA
ATOM     41  C   UNL A   1      42.614  29.327  27.107  1.00  0.00     0.031 C 
ATOM     42  C   UNL A   1      39.033  27.516  29.605  1.00  0.00     0.029 A 
ATOM     43  N   UNL A   1      40.089  29.356  30.208  1.00  0.00    -0.354 N 
ATOM     44  C   UNL A   1      44.266  30.056  28.488  1.00  0.00     0.074 A 
ATOM     45  C   UNL A   1      43.794  29.950  27.136  1.00  0.00     0.031 C 
ATOM     46  C   UNL A   1      38.094  28.354  30.097  1.00  0.00     0.029 A 
ATOM     47  C   UNL A   1      38.744  29.579  30.510  1.00  0.00     0.049 A 
ATOM     48  H   UNL A   1      40.805  29.979  30.473  1.00  0.00     0.167 HD
ATOM     49  C   UNL A   1      44.979  31.033  29.119  1.00  0.00     0.037 A 
ATOM     50  C   UNL A   1      38.232  30.729  31.019  1.00  0.00     0.037 A 
ATOM     51  C   UNL A   1      45.098  30.733  30.528  1.00  0.00     0.049 A 
ATOM     52  C   UNL A   1      39.377  31.488  31.594  1.00  0.00     0.074 A 
ATOM     53  C   UNL A   1      45.632  29.689  31.258  1.00  0.00     0.029 A 
ATOM     54  N   UNL A   1      44.249  31.396  31.383  1.00  0.00    -0.354 N 
ATOM     55  N   UNL A   1      40.059  31.078  32.630  1.00  0.00    -0.248 NA
ATOM     56  C   UNL A   1      40.081  32.402  30.705  1.00  0.00     0.031 C 
ATOM     57  C   UNL A   1      44.706  29.483  32.323  1.00  0.00     0.029 A 
ATOM     58  C   UNL A   1      43.721  30.467  32.240  1.00  0.00     0.049 A 
ATOM     59  H   UNL A   1      44.056  32.361  31.380  1.00  0.00     0.167 HD
ATOM     60  C   UNL A   1      41.386  31.332  32.306  1.00  0.00     0.074 A 
ATOM     61  C   UNL A   1      41.332  32.202  31.131  1.00  0.00     0.031 C 
ATOM     62  C   UNL A   1      42.399  30.570  32.816  1.00  0.00     0.037 A 
BRANCH  49  63
ATOM     63  C   UNL A   1      45.203  32.440  28.600  1.00  0.00     0.057 A 
ATOM     64  C   UNL A   1      46.530  32.909  28.502  1.00  0.00     0.134 A 
ATOM     65  C   UNL A   1      44.217  33.439  28.488  1.00  0.00     0.134 A 
ATOM     66  F   UNL A   1      47.568  32.060  28.553  1.00  0.00    -0.206 F 
ATOM     67  C   UNL A   1      46.848  34.270  28.445  1.00  0.00     0.040 A 
ATOM     68  C   UNL A   1      44.525  34.800  28.381  1.00  0.00     0.040 A 
ATOM     69  F   UNL A   1      42.908  33.186  28.562  1.00  0.00    -0.206 F 
ATOM     70  C   UNL A   1      45.843  35.223  28.407  1.00  0.00     0.006 A 
ENDBRANCH  49  63
BRANCH  50  71
ATOM     71  C   UNL A   1      36.906  31.343  30.763  1.00  0.00     0.057 A 
ATOM     72  C   UNL A   1      36.021  31.646  31.807  1.00  0.00     0.134 A 
ATOM     73  C   UNL A   1      36.583  31.892  29.508  1.00  0.00     0.134 A 
ATOM     74  F   UNL A   1      36.264  31.208  33.051  1.00  0.00    -0.206 F 
ATOM     75  C   UNL A   1      34.891  32.455  31.619  1.00  0.00     0.040 A 
ATOM     76  C   UNL A   1      35.456  32.697  29.305  1.00  0.00     0.040 A 
ATOM     77  F   UNL A   1      37.399  31.736  28.455  1.00  0.00    -0.206 F 
ATOM     78  C   UNL A   1      34.610  32.993  30.366  1.00  0.00     0.006 A 
ENDBRANCH  50  71
BRANCH  62  79
ATOM     79  C   UNL A   1      42.080  29.575  33.898  1.00  0.00     0.057 A 
ATOM     80  C   UNL A   1      41.787  28.223  33.661  1.00  0.00     0.134 A 
ATOM     81  C   UNL A   1      42.304  29.947  35.227  1.00  0.00     0.134 A 
ATOM     82  F   UNL A   1      41.650  27.751  32.418  1.00  0.00    -0.206 F 
ATOM     83  C   UNL A   1      41.704  27.290  34.700  1.00  0.00     0.040 A 
ATOM     84  C   UNL A   1      42.256  29.020  36.271  1.00  0.00     0.040 A 
ATOM     85  F   UNL A   1      42.647  31.211  35.524  1.00  0.00    -0.206 F 
ATOM     86  C   UNL A   1      41.953  27.686  36.009  1.00  0.00     0.006 A 
ENDBRANCH  62  79
ENDBRANCH  36  37
ENDBRANCH  28  31
ENDBRANCH  26  27
ENDBRANCH  25  26
ENDBRANCH   1  25
TORSDOF 16
ENDMDL
MODEL 2
REMARK VINA RESULT:     -11.5      1.965      6.237
REMARK SMILES N#CCCn1cc(C(=O)NCCCCNC(=O)c2ccc(-c3c4nc(c(-c5c(F)cccc5F)c5ccc([nH]5)c(-c5c(F)cccc5F)c5nc(c(-c6c(F)cccc6F)c6ccc3[nH]6)C=C5)C=C4)cc2)c(-c2cccc([N+](=O)[O-])c2)n1
REMARK SMILES IDX 12 1 11 2 10 3 8 4 9 5 7 7 5 8 6 9 82 10 72 11 4 12 3 13
REMARK SMILES IDX 2 14 1 15 73 16 74 17 81 18 75 19 77 20 76 21 78 22 79 23
REMARK SMILES IDX 80 24 13 25 14 26 15 27 16 28 17 30 18 31 19 32 71 33 20 34
REMARK SMILES IDX 70 35 21 36 22 37 23 38 64 39 24 40 69 41 63 42 65 43 25 44
REMARK SMILES IDX 68 45 62 46 61 47 26 49 52 50 35 51 51 52 36 53 39 54 50 55
REMARK SMILES IDX 66 56 37 57 38 58 49 60 67 61 40 62 27 63 28 64 33 65 29 66
REMARK SMILES IDX 30 67 32 68 34 69 31 70 53 71 54 72 59 73 55 74 56 75 58 76
REMARK SMILES IDX 60 77 57 78 41 79 42 80 47 81 43 82 44 83 46 84 48 85 45 86
REMARK H PARENT 10 6 15 29 65 48 39 59
REMARK Flexibility Score: inf
ROOT
ATOM      1  C   UNL A   1      38.025  22.300  25.639  1.00  0.00     0.023 C 
ENDROOT
BRANCH   1   2
ATOM      2  C   UNL A   1      36.802  21.414  25.380  1.00  0.00     0.116 C 
BRANCH   2   3
ATOM      3  N   UNL A   1      35.688  21.778  26.231  1.00  0.00    -0.352 N 
ATOM      4  C   UNL A   1      34.346  21.508  26.157  1.00  0.00     0.255 C 
ATOM      5  O   UNL A   1      33.663  21.919  27.100  1.00  0.00    -0.269 OA
ATOM      6  H   UNL A   1      35.943  22.323  27.011  1.00  0.00     0.163 HD
BRANCH   4   7
ATOM      7  C   UNL A   1      33.775  20.739  25.059  1.00  0.00     0.085 A 
ATOM      8  N   UNL A   1      33.065  19.091  23.789  1.00  0.00    -0.270 N 
ATOM      9  C   UNL A   1      34.026  19.435  24.687  1.00  0.00     0.123 A 
ATOM     10  N   UNL A   1      32.389  20.153  23.318  1.00  0.00    -0.172 NA
ATOM     11  C   UNL A   1      32.847  21.185  24.055  1.00  0.00     0.105 A 
BRANCH   8  12
ATOM     12  C   UNL A   1      32.756  17.746  23.326  1.00  0.00     0.159 C 
BRANCH  12  13
ATOM     13  C   UNL A   1      33.925  16.752  23.393  1.00  0.00     0.144 C 
BRANCH  13  14
ATOM     14  C   UNL A   1      33.723  15.761  24.528  1.00  0.00     0.064 C 
ATOM     15  N   UNL A   1      33.556  14.939  25.469  1.00  0.00    -0.198 NA
ENDBRANCH  13  14
ENDBRANCH  12  13
ENDBRANCH   8  12
BRANCH  11  16
ATOM     16  C   UNL A   1      32.431  22.563  23.790  1.00  0.00     0.010 A 
ATOM     17  C   UNL A   1      31.288  23.065  24.441  1.00  0.00     0.011 A 
ATOM     18  C   UNL A   1      33.101  23.368  22.866  1.00  0.00     0.096 A 
ATOM     19  C   UNL A   1      30.775  24.323  24.129  1.00  0.00     0.008 A 
ATOM     20  C   UNL A   1      32.579  24.636  22.556  1.00  0.00     0.270 A 
ATOM     21  C   UNL A   1      31.412  25.111  23.176  1.00  0.00     0.085 A 
BRANCH  20  22
ATOM     22  N   UNL A   1      33.237  25.471  21.544  1.00  0.00     0.062 N 
ATOM     23  O   UNL A   1      34.051  26.320  21.936  1.00  0.00    -0.258 OA
ATOM     24  O   UNL A   1      32.939  25.284  20.356  1.00  0.00    -0.258 OA
ENDBRANCH  20  22
ENDBRANCH  11  16
ENDBRANCH   4   7
ENDBRANCH   2   3
ENDBRANCH   1   2
BRANCH   1  25
ATOM     25  C   UNL A   1      37.711  23.743  26.064  1.00  0.00     0.023 C 
BRANCH  25  26
ATOM     26  C   UNL A   1      38.822  24.432  26.842  1.00  0.00     0.116 C 
BRANCH  26  27
ATOM     27  N   UNL A   1      40.007  24.724  26.024  1.00  0.00    -0.352 N 
ATOM     28  C   UNL A   1      40.757  25.886  25.993  1.00  0.00     0.251 C 
ATOM     29  H   UNL A   1      40.304  24.004  25.423  1.00  0.00     0.163 HD
ATOM     30  O   UNL A   1      41.467  26.167  25.027  1.00  0.00    -0.269 OA
BRANCH  28  31
ATOM     31  C   UNL A   1      40.725  26.763  27.170  1.00  0.00     0.039 A 
ATOM     32  C   UNL A   1      40.979  26.332  28.477  1.00  0.00     0.014 A 
ATOM     33  C   UNL A   1      40.476  28.100  26.896  1.00  0.00     0.014 A 
ATOM     34  C   UNL A   1      41.022  27.285  29.494  1.00  0.00     0.010 A 
ATOM     35  C   UNL A   1      40.798  29.037  27.823  1.00  0.00     0.010 A 
ATOM     36  C   UNL A   1      40.925  28.638  29.145  1.00  0.00    -0.014 A 
BRANCH  36  37
ATOM     37  C   UNL A   1      40.976  29.734  30.095  1.00  0.00     0.031 A 
ATOM     38  C   UNL A   1      39.669  30.387  30.349  1.00  0.00     0.074 A 
ATOM     39  C   UNL A   1      42.048  29.854  30.914  1.00  0.00     0.049 A 
ATOM     40  N   UNL A   1      39.315  31.591  30.046  1.00  0.00    -0.248 NA
ATOM     41  C   UNL A   1      38.558  29.553  30.841  1.00  0.00     0.031 C 
ATOM     42  C   UNL A   1      43.250  29.006  30.980  1.00  0.00     0.029 A 
ATOM     43  N   UNL A   1      42.222  30.687  31.972  1.00  0.00    -0.354 N 
ATOM     44  C   UNL A   1      38.015  31.738  30.527  1.00  0.00     0.074 A 
ATOM     45  C   UNL A   1      37.534  30.405  30.765  1.00  0.00     0.031 C 
ATOM     46  C   UNL A   1      43.895  29.215  32.150  1.00  0.00     0.029 A 
ATOM     47  C   UNL A   1      43.254  30.316  32.836  1.00  0.00     0.049 A 
ATOM     48  H   UNL A   1      41.665  31.486  32.119  1.00  0.00     0.167 HD
ATOM     49  C   UNL A   1      37.558  32.949  30.956  1.00  0.00     0.037 A 
ATOM     50  C   UNL A   1      43.501  30.870  34.051  1.00  0.00     0.037 A 
ATOM     51  C   UNL A   1      38.466  33.997  30.549  1.00  0.00     0.049 A 
ATOM     52  C   UNL A   1      42.792  32.179  34.074  1.00  0.00     0.074 A 
ATOM     53  C   UNL A   1      38.941  34.457  29.336  1.00  0.00     0.029 A 
ATOM     54  N   UNL A   1      39.341  34.471  31.500  1.00  0.00    -0.354 N 
ATOM     55  N   UNL A   1      43.120  33.185  33.307  1.00  0.00    -0.248 NA
ATOM     56  C   UNL A   1      41.414  32.180  34.549  1.00  0.00     0.031 C 
ATOM     57  C   UNL A   1      40.319  34.738  29.570  1.00  0.00     0.029 A 
ATOM     58  C   UNL A   1      40.582  34.529  30.924  1.00  0.00     0.049 A 
ATOM     59  H   UNL A   1      39.116  34.722  32.424  1.00  0.00     0.167 HD
ATOM     60  C   UNL A   1      41.911  33.703  32.862  1.00  0.00     0.074 A 
ATOM     61  C   UNL A   1      40.893  33.078  33.707  1.00  0.00     0.031 C 
ATOM     62  C   UNL A   1      41.814  34.339  31.656  1.00  0.00     0.037 A 
BRANCH  49  63
ATOM     63  C   UNL A   1      36.561  33.173  32.075  1.00  0.00     0.057 A 
ATOM     64  C   UNL A   1      35.458  34.017  31.825  1.00  0.00     0.134 A 
ATOM     65  C   UNL A   1      36.772  32.872  33.434  1.00  0.00     0.134 A 
ATOM     66  F   UNL A   1      35.117  34.354  30.571  1.00  0.00    -0.206 F 
ATOM     67  C   UNL A   1      34.722  34.624  32.848  1.00  0.00     0.040 A 
ATOM     68  C   UNL A   1      36.011  33.436  34.463  1.00  0.00     0.040 A 
ATOM     69  F   UNL A   1      37.769  32.095  33.864  1.00  0.00    -0.206 F 
ATOM     70  C   UNL A   1      35.013  34.350  34.175  1.00  0.00     0.006 A 
ENDBRANCH  49  63
BRANCH  50  71
ATOM     71  C   UNL A   1      44.026  30.218  35.275  1.00  0.00     0.057 A 
ATOM     72  C   UNL A   1      43.349  29.156  35.892  1.00  0.00     0.134 A 
ATOM     73  C   UNL A   1      45.341  30.446  35.720  1.00  0.00     0.134 A 
ATOM     74  F   UNL A   1      42.106  28.830  35.509  1.00  0.00    -0.206 F 
ATOM     75  C   UNL A   1      43.947  28.361  36.882  1.00  0.00     0.040 A 
ATOM     76  C   UNL A   1      45.950  29.663  36.710  1.00  0.00     0.040 A 
ATOM     77  F   UNL A   1      46.113  31.381  35.147  1.00  0.00    -0.206 F 
ATOM     78  C   UNL A   1      45.256  28.607  37.286  1.00  0.00     0.006 A 
ENDBRANCH  50  71
BRANCH  62  79
ATOM     79  C   UNL A   1      43.076  34.655  30.902  1.00  0.00     0.057 A 
ATOM     80  C   UNL A   1      43.565  33.890  29.833  1.00  0.00     0.134 A 
ATOM     81  C   UNL A   1      43.684  35.896  31.118  1.00  0.00     0.134 A 
ATOM     82  F   UNL A   1      42.990  32.734  29.487  1.00  0.00    -0.206 F 
ATOM     83  C   UNL A   1      44.620  34.332  29.027  1.00  0.00     0.040 A 
ATOM     84  C   UNL A   1      44.716  36.364  30.302  1.00  0.00     0.040 A 
ATOM     85  F   UNL A   1      43.230  36.709  32.086  1.00  0.00    -0.206 F 
ATOM     86  C   UNL A   1      45.190  35.580  29.253  1.00  0.00     0.006 A 
ENDBRANCH  62  79
ENDBRANCH  36  37
ENDBRANCH  28  31
ENDBRANCH  26  27
ENDBRANCH  25  26
ENDBRANCH   1  25
TORSDOF 16
ENDMDL
MODEL 3
REMARK VINA RESULT:     -11.0      2.945      7.196
REMARK SMILES N#CCCn1cc(C(=O)NCCCCNC(=O)c2ccc(-c3c4nc(c(-c5c(F)cccc5F)c5ccc([nH]5)c(-c5c(F)cccc5F)c5nc(c(-c6c(F)cccc6F)c6ccc3[nH]6)C=C5)C=C4)cc2)c(-c2cccc([N+](=O)[O-])c2)n1
REMARK SMILES IDX 12 1 11 2 10 3 8 4 9 5 7 7 5 8 6 9 82 10 72 11 4 12 3 13
REMARK SMILES IDX 2 14 1 15 73 16 74 17 81 18 75 19 77 20 76 21 78 22 79 23
REMARK SMILES IDX 80 24 13 25 14 26 15 27 16 28 17 30 18 31 19 32 71 33 20 34
REMARK SMILES IDX 70 35 21 36 22 37 23 38 64 39 24 40 69 41 63 42 65 43 25 44
REMARK SMILES IDX 68 45 62 46 61 47 26 49 52 50 35 51 51 52 36 53 39 54 50 55
REMARK SMILES IDX 66 56 37 57 38 58 49 60 67 61 40 62 27 63 28 64 33 65 29 66
REMARK SMILES IDX 30 67 32 68 34 69 31 70 53 71 54 72 59 73 55 74 56 75 58 76
REMARK SMILES IDX 60 77 57 78 41 79 42 80 47 81 43 82 44 83 46 84 48 85 45 86
REMARK H PARENT 10 6 15 29 65 48 39 59
REMARK Flexibility Score: inf
ROOT
ATOM      1  C   UNL A   1      36.909  20.273  24.778  1.00  0.00     0.023 C 
ENDROOT
BRANCH   1   2
ATOM      2  C   UNL A   1      36.399  21.626  25.287  1.00  0.00     0.116 C 
BRANCH   2   3
ATOM      3  N   UNL A   1      35.531  21.472  26.436  1.00  0.00    -0.352 N 
ATOM      4  C   UNL A   1      34.244  21.878  26.679  1.00  0.00     0.255 C 
ATOM      5  O   UNL A   1      33.764  21.521  27.759  1.00  0.00    -0.269 OA
ATOM      6  H   UNL A   1      35.943  20.984  27.186  1.00  0.00     0.163 HD
BRANCH   4   7
ATOM      7  C   UNL A   1      33.479  22.637  25.699  1.00  0.00     0.085 A 
ATOM      8  N   UNL A   1      32.614  24.274  24.511  1.00  0.00    -0.270 N 
ATOM      9  C   UNL A   1      33.037  23.942  25.760  1.00  0.00     0.123 A 
ATOM     10  N   UNL A   1      32.464  23.203  23.713  1.00  0.00    -0.172 NA
ATOM     11  C   UNL A   1      32.947  22.179  24.444  1.00  0.00     0.105 A 
BRANCH   8  12
ATOM     12  C   UNL A   1      32.320  25.613  24.025  1.00  0.00     0.159 C 
BRANCH  12  13
ATOM     13  C   UNL A   1      31.734  25.675  22.606  1.00  0.00     0.144 C 
BRANCH  13  14
ATOM     14  C   UNL A   1      31.008  26.991  22.382  1.00  0.00     0.064 C 
ATOM     15  N   UNL A   1      30.406  28.083  22.196  1.00  0.00    -0.198 NA
ENDBRANCH  13  14
ENDBRANCH  12  13
ENDBRANCH   8  12
BRANCH  11  16
ATOM     16  C   UNL A   1      32.877  20.796  23.970  1.00  0.00     0.010 A 
ATOM     17  C   UNL A   1      32.321  20.538  22.703  1.00  0.00     0.011 A 
ATOM     18  C   UNL A   1      33.291  19.725  24.767  1.00  0.00     0.096 A 
ATOM     19  C   UNL A   1      32.113  19.233  22.259  1.00  0.00     0.008 A 
ATOM     20  C   UNL A   1      33.079  18.412  24.312  1.00  0.00     0.270 A 
ATOM     21  C   UNL A   1      32.482  18.163  23.067  1.00  0.00     0.085 A 
BRANCH  20  22
ATOM     22  N   UNL A   1      33.454  17.274  25.162  1.00  0.00     0.062 N 
ATOM     23  O   UNL A   1      32.716  17.003  26.121  1.00  0.00    -0.258 OA
ATOM     24  O   UNL A   1      34.488  16.654  24.878  1.00  0.00    -0.258 OA
ENDBRANCH  20  22
ENDBRANCH  11  16
ENDBRANCH   4   7
ENDBRANCH   2   3
ENDBRANCH   1   2
BRANCH   1  25
ATOM     25  C   UNL A   1      38.437  20.129  24.720  1.00  0.00     0.023 C 
BRANCH  25  26
ATOM     26  C   UNL A   1      39.108  19.925  26.071  1.00  0.00     0.116 C 
BRANCH  26  27
ATOM     27  N   UNL A   1      40.282  19.044  26.008  1.00  0.00    -0.352 N 
ATOM     28  C   UNL A   1      41.616  19.404  25.939  1.00  0.00     0.251 C 
ATOM     29  H   UNL A   1      40.096  18.078  26.017  1.00  0.00     0.163 HD
ATOM     30  O   UNL A   1      42.469  18.626  25.510  1.00  0.00    -0.269 OA
BRANCH  28  31
ATOM     31  C   UNL A   1      42.003  20.729  26.437  1.00  0.00     0.039 A 
ATOM     32  C   UNL A   1      42.511  21.752  25.629  1.00  0.00     0.014 A 
ATOM     33  C   UNL A   1      41.776  20.934  27.789  1.00  0.00     0.014 A 
ATOM     34  C   UNL A   1      42.741  23.001  26.205  1.00  0.00     0.010 A 
ATOM     35  C   UNL A   1      41.730  22.204  28.268  1.00  0.00     0.010 A 
ATOM     36  C   UNL A   1      42.345  23.206  27.533  1.00  0.00    -0.014 A 
BRANCH  36  37
ATOM     37  C   UNL A   1      42.504  24.458  28.250  1.00  0.00     0.031 A 
ATOM     38  C   UNL A   1      41.374  25.405  28.088  1.00  0.00     0.074 A 
ATOM     39  C   UNL A   1      43.419  24.543  29.245  1.00  0.00     0.049 A 
ATOM     40  N   UNL A   1      41.383  26.552  27.496  1.00  0.00    -0.248 NA
ATOM     41  C   UNL A   1      40.025  24.952  28.473  1.00  0.00     0.031 C 
ATOM     42  C   UNL A   1      44.347  23.506  29.728  1.00  0.00     0.029 A 
ATOM     43  N   UNL A   1      43.611  25.544  30.142  1.00  0.00    -0.354 N 
ATOM     44  C   UNL A   1      40.097  27.069  27.648  1.00  0.00     0.074 A 
ATOM     45  C   UNL A   1      39.270  25.954  28.019  1.00  0.00     0.031 C 
ATOM     46  C   UNL A   1      44.816  23.843  30.949  1.00  0.00     0.029 A 
ATOM     47  C   UNL A   1      44.359  25.181  31.263  1.00  0.00     0.049 A 
ATOM     48  H   UNL A   1      43.252  26.452  30.013  1.00  0.00     0.167 HD
ATOM     49  C   UNL A   1      39.887  28.414  27.733  1.00  0.00     0.037 A 
ATOM     50  C   UNL A   1      44.526  25.938  32.377  1.00  0.00     0.037 A 
ATOM     51  C   UNL A   1      41.080  29.131  27.346  1.00  0.00     0.049 A 
ATOM     52  C   UNL A   1      44.168  27.333  32.002  1.00  0.00     0.074 A 
ATOM     53  C   UNL A   1      41.850  29.191  26.201  1.00  0.00     0.029 A 
ATOM     54  N   UNL A   1      41.871  29.623  28.358  1.00  0.00    -0.354 N 
ATOM     55  N   UNL A   1      44.858  28.046  31.150  1.00  0.00    -0.248 NA
ATOM     56  C   UNL A   1      42.773  27.726  32.157  1.00  0.00     0.031 C 
ATOM     57  C   UNL A   1      43.195  29.231  26.671  1.00  0.00     0.029 A 
ATOM     58  C   UNL A   1      43.167  29.292  28.065  1.00  0.00     0.049 A 
ATOM     59  H   UNL A   1      41.562  30.121  29.148  1.00  0.00     0.167 HD
ATOM     60  C   UNL A   1      43.907  28.682  30.364  1.00  0.00     0.074 A 
ATOM     61  C   UNL A   1      42.639  28.491  31.069  1.00  0.00     0.031 C 
ATOM     62  C   UNL A   1      44.173  29.029  29.070  1.00  0.00     0.037 A 
BRANCH  49  63
ATOM     63  C   UNL A   1      38.801  29.089  28.548  1.00  0.00     0.057 A 
ATOM     64  C   UNL A   1      38.697  28.764  29.916  1.00  0.00     0.134 A 
ATOM     65  C   UNL A   1      37.692  29.780  28.023  1.00  0.00     0.134 A 
ATOM     66  F   UNL A   1      39.698  28.140  30.556  1.00  0.00    -0.206 F 
ATOM     67  C   UNL A   1      37.531  28.979  30.658  1.00  0.00     0.040 A 
ATOM     68  C   UNL A   1      36.539  30.044  28.770  1.00  0.00     0.040 A 
ATOM     69  F   UNL A   1      37.608  30.166  26.747  1.00  0.00    -0.206 F 
ATOM     70  C   UNL A   1      36.437  29.602  30.078  1.00  0.00     0.006 A 
ENDBRANCH  49  63
BRANCH  50  71
ATOM     71  C   UNL A   1      44.662  25.493  33.786  1.00  0.00     0.057 A 
ATOM     72  C   UNL A   1      43.541  25.214  34.580  1.00  0.00     0.134 A 
ATOM     73  C   UNL A   1      45.901  25.077  34.307  1.00  0.00     0.134 A 
ATOM     74  F   UNL A   1      42.310  25.530  34.153  1.00  0.00    -0.206 F 
ATOM     75  C   UNL A   1      43.643  24.549  35.812  1.00  0.00     0.040 A 
ATOM     76  C   UNL A   1      46.018  24.417  35.537  1.00  0.00     0.040 A 
ATOM     77  F   UNL A   1      47.031  25.219  33.600  1.00  0.00    -0.206 F 
ATOM     78  C   UNL A   1      44.885  24.139  36.289  1.00  0.00     0.006 A 
ENDBRANCH  50  71
BRANCH  62  79
ATOM     79  C   UNL A   1      45.583  28.897  28.562  1.00  0.00     0.057 A 
ATOM     80  C   UNL A   1      46.064  27.783  27.859  1.00  0.00     0.134 A 
ATOM     81  C   UNL A   1      46.404  30.028  28.587  1.00  0.00     0.134 A 
ATOM     82  F   UNL A   1      45.314  26.688  27.697  1.00  0.00    -0.206 F 
ATOM     83  C   UNL A   1      47.311  27.788  27.224  1.00  0.00     0.040 A 
ATOM     84  C   UNL A   1      47.637  30.060  27.932  1.00  0.00     0.040 A 
ATOM     85  F   UNL A   1      45.985  31.152  29.191  1.00  0.00    -0.206 F 
ATOM     86  C   UNL A   1      48.096  28.936  27.249  1.00  0.00     0.006 A 
ENDBRANCH  62  79
ENDBRANCH  36  37
ENDBRANCH  28  31
ENDBRANCH  26  27
ENDBRANCH  25  26
ENDBRANCH   1  25
TORSDOF 16
ENDMDL
