MODEL 1
REMARK VINA RESULT:     -11.5      0.000      0.000
REMARK SMILES CCn1nc(C(C)C)cc1C(=O)N[C@@H](CC(N)=O)C(=O)NCCCCNC(=O)c1ccc(-c2c3nc(c(-c4c(F)cccc4F)c4ccc([nH]4)c(-c4c(F)cccc4F)c4nc(c(-c5c(F)cccc5F)c5ccc2[nH]5)C=C4)C=C3)cc1
REMARK SMILES IDX 23 1 22 2 21 3 19 4 20 5 14 7 13 8 11 9 12 10 10 12 3 13
REMARK SMILES IDX 4 14 5 15 9 16 2 17 1 18 6 19 7 20 8 21 15 22 16 23 17 24
REMARK SMILES IDX 18 25 24 28 25 29 26 30 27 31 28 33 29 34 30 35 82 36 31 37
REMARK SMILES IDX 81 38 32 39 33 40 34 41 75 42 35 43 80 44 74 45 76 46 36 47
REMARK SMILES IDX 79 48 73 49 72 50 37 52 63 53 46 54 62 55 47 56 50 57 61 58
REMARK SMILES IDX 77 59 48 60 49 61 60 63 78 64 51 65 38 66 39 67 44 68 40 69
REMARK SMILES IDX 41 70 43 71 45 72 42 73 64 74 65 75 70 76 66 77 67 78 69 79
REMARK SMILES IDX 71 80 68 81 52 82 53 83 58 84 54 85 55 86 57 87 59 88 56 89
REMARK H PARENT 21 6 13 11 17 26 17 27 26 32 76 51 50 62
REMARK Flexibility Score: inf
ROOT
ATOM      1  C   UNL A   1      31.881  29.892  26.041  1.00  0.00     0.023 C 
ENDROOT
BRANCH   1   2
ATOM      2  C   UNL A   1      32.579  29.567  24.724  1.00  0.00     0.116 C 
BRANCH   2   3
ATOM      3  N   UNL A   1      31.678  29.375  23.604  1.00  0.00    -0.354 N 
ATOM      4  C   UNL A   1      31.153  28.236  23.069  1.00  0.00     0.243 C 
ATOM      5  O   UNL A   1      30.177  28.373  22.319  1.00  0.00    -0.273 OA
ATOM      6  H   UNL A   1      31.399  30.206  23.155  1.00  0.00     0.163 HD
BRANCH   4   7
ATOM      7  C   UNL A   1      31.640  26.815  23.432  1.00  0.00     0.181 C 
BRANCH   7   8
ATOM      8  N   UNL A   1      31.243  26.407  24.777  1.00  0.00    -0.338 N 
ATOM      9  C   UNL A   1      31.850  25.633  25.739  1.00  0.00     0.270 C 
ATOM     10  O   UNL A   1      31.310  25.684  26.845  1.00  0.00    -0.268 OA
ATOM     11  H   UNL A   1      30.364  26.755  25.050  1.00  0.00     0.164 HD
BRANCH   9  12
ATOM     12  C   UNL A   1      32.976  24.761  25.452  1.00  0.00     0.126 A 
ATOM     13  N   UNL A   1      32.870  23.464  24.968  1.00  0.00    -0.260 N 
ATOM     14  N   UNL A   1      34.043  22.970  24.503  1.00  0.00    -0.177 NA
ATOM     15  C   UNL A   1      34.952  23.866  24.883  1.00  0.00     0.066 A 
ATOM     16  C   UNL A   1      34.346  24.926  25.586  1.00  0.00     0.059 A 
BRANCH  13  17
ATOM     17  C   UNL A   1      31.702  22.605  24.844  1.00  0.00     0.142 C 
ATOM     18  C   UNL A   1      32.040  21.128  25.021  1.00  0.00     0.029 C 
ENDBRANCH  13  17
BRANCH  15  19
ATOM     19  C   UNL A   1      36.412  23.718  24.563  1.00  0.00     0.034 C 
ATOM     20  C   UNL A   1      37.209  23.240  25.774  1.00  0.00     0.014 C 
ATOM     21  C   UNL A   1      36.662  22.825  23.346  1.00  0.00     0.014 C 
ENDBRANCH  15  19
ENDBRANCH   9  12
ENDBRANCH   7   8
BRANCH   7  22
ATOM     22  C   UNL A   1      31.465  25.771  22.332  1.00  0.00     0.134 C 
BRANCH  22  23
ATOM     23  C   UNL A   1      32.482  25.806  21.228  1.00  0.00     0.220 C 
ATOM     24  N   UNL A   1      31.995  25.642  19.967  1.00  0.00    -0.370 N 
ATOM     25  O   UNL A   1      33.682  25.953  21.426  1.00  0.00    -0.275 OA
ATOM     26  H   UNL A   1      31.028  25.524  19.823  1.00  0.00     0.159 HD
ATOM     27  H   UNL A   1      32.610  25.641  19.197  1.00  0.00     0.159 HD
ENDBRANCH  22  23
ENDBRANCH   7  22
ENDBRANCH   4   7
ENDBRANCH   2   3
ENDBRANCH   1   2
BRANCH   1  28
ATOM     28  C   UNL A   1      31.611  31.373  26.324  1.00  0.00     0.023 C 
BRANCH  28  29
ATOM     29  C   UNL A   1      32.662  32.075  27.175  1.00  0.00     0.116 C 
BRANCH  29  30
ATOM     30  N   UNL A   1      32.354  33.476  27.442  1.00  0.00    -0.352 N 
ATOM     31  C   UNL A   1      32.969  34.313  28.355  1.00  0.00     0.251 C 
ATOM     32  H   UNL A   1      31.624  33.869  26.911  1.00  0.00     0.163 HD
ATOM     33  O   UNL A   1      32.424  35.326  28.756  1.00  0.00    -0.269 OA
BRANCH  31  34
ATOM     34  C   UNL A   1      34.315  33.954  28.838  1.00  0.00     0.039 A 
ATOM     35  C   UNL A   1      34.486  33.330  30.078  1.00  0.00     0.014 A 
ATOM     36  C   UNL A   1      35.406  34.224  28.015  1.00  0.00     0.014 A 
ATOM     37  C   UNL A   1      35.759  32.897  30.446  1.00  0.00     0.010 A 
ATOM     38  C   UNL A   1      36.641  33.705  28.332  1.00  0.00     0.010 A 
ATOM     39  C   UNL A   1      36.831  33.064  29.557  1.00  0.00    -0.014 A 
BRANCH  39  40
ATOM     40  C   UNL A   1      38.117  32.410  29.818  1.00  0.00     0.031 A 
ATOM     41  C   UNL A   1      38.177  30.974  29.398  1.00  0.00     0.074 A 
ATOM     42  C   UNL A   1      39.230  33.107  30.138  1.00  0.00     0.049 A 
ATOM     43  N   UNL A   1      38.501  29.940  30.105  1.00  0.00    -0.248 NA
ATOM     44  C   UNL A   1      37.725  30.633  28.035  1.00  0.00     0.031 C 
ATOM     45  C   UNL A   1      39.370  34.564  30.250  1.00  0.00     0.029 A 
ATOM     46  N   UNL A   1      40.515  32.678  30.290  1.00  0.00    -0.354 N 
ATOM     47  C   UNL A   1      38.486  28.851  29.231  1.00  0.00     0.074 A 
ATOM     48  C   UNL A   1      37.843  29.306  28.028  1.00  0.00     0.031 C 
ATOM     49  C   UNL A   1      40.677  34.900  30.187  1.00  0.00     0.029 A 
ATOM     50  C   UNL A   1      41.472  33.686  30.192  1.00  0.00     0.049 A 
ATOM     51  H   UNL A   1      40.747  31.736  30.456  1.00  0.00     0.167 HD
ATOM     52  C   UNL A   1      39.229  27.736  29.475  1.00  0.00     0.037 A 
ATOM     53  C   UNL A   1      42.816  33.534  30.072  1.00  0.00     0.037 A 
ATOM     54  C   UNL A   1      39.596  27.651  30.865  1.00  0.00     0.049 A 
ATOM     55  C   UNL A   1      43.145  32.144  30.464  1.00  0.00     0.074 A 
ATOM     56  C   UNL A   1      38.902  27.614  32.059  1.00  0.00     0.029 A 
ATOM     57  N   UNL A   1      40.892  27.951  31.205  1.00  0.00    -0.354 N 
ATOM     58  N   UNL A   1      43.067  31.689  31.681  1.00  0.00    -0.248 NA
ATOM     59  C   UNL A   1      43.147  31.136  29.416  1.00  0.00     0.031 C 
ATOM     60  C   UNL A   1      39.687  28.388  32.963  1.00  0.00     0.029 A 
ATOM     61  C   UNL A   1      40.843  28.784  32.290  1.00  0.00     0.049 A 
ATOM     62  H   UNL A   1      41.704  27.627  30.752  1.00  0.00     0.167 HD
ATOM     63  C   UNL A   1      42.556  30.408  31.539  1.00  0.00     0.074 A 
ATOM     64  C   UNL A   1      42.717  30.087  30.123  1.00  0.00     0.031 C 
ATOM     65  C   UNL A   1      41.789  29.847  32.519  1.00  0.00     0.037 A 
BRANCH  52  66
ATOM     66  C   UNL A   1      39.961  26.951  28.405  1.00  0.00     0.057 A 
ATOM     67  C   UNL A   1      40.792  27.639  27.499  1.00  0.00     0.134 A 
ATOM     68  C   UNL A   1      39.645  25.629  28.030  1.00  0.00     0.134 A 
ATOM     69  F   UNL A   1      41.167  28.906  27.733  1.00  0.00    -0.206 F 
ATOM     70  C   UNL A   1      41.188  27.091  26.273  1.00  0.00     0.040 A 
ATOM     71  C   UNL A   1      40.079  25.054  26.832  1.00  0.00     0.040 A 
ATOM     72  F   UNL A   1      38.820  24.853  28.742  1.00  0.00    -0.206 F 
ATOM     73  C   UNL A   1      40.820  25.797  25.930  1.00  0.00     0.006 A 
ENDBRANCH  52  66
BRANCH  53  74
ATOM     74  C   UNL A   1      43.815  34.394  29.396  1.00  0.00     0.057 A 
ATOM     75  C   UNL A   1      44.782  35.092  30.137  1.00  0.00     0.134 A 
ATOM     76  C   UNL A   1      44.035  34.325  28.010  1.00  0.00     0.134 A 
ATOM     77  F   UNL A   1      44.678  35.189  31.470  1.00  0.00    -0.206 F 
ATOM     78  C   UNL A   1      45.921  35.650  29.543  1.00  0.00     0.040 A 
ATOM     79  C   UNL A   1      45.165  34.885  27.402  1.00  0.00     0.040 A 
ATOM     80  F   UNL A   1      43.210  33.633  27.211  1.00  0.00    -0.206 F 
ATOM     81  C   UNL A   1      46.123  35.535  28.172  1.00  0.00     0.006 A 
ENDBRANCH  53  74
BRANCH  65  82
ATOM     82  C   UNL A   1      41.752  30.521  33.862  1.00  0.00     0.057 A 
ATOM     83  C   UNL A   1      40.875  31.561  34.210  1.00  0.00     0.134 A 
ATOM     84  C   UNL A   1      42.558  30.008  34.884  1.00  0.00     0.134 A 
ATOM     85  F   UNL A   1      39.988  32.049  33.333  1.00  0.00    -0.206 F 
ATOM     86  C   UNL A   1      40.848  32.100  35.500  1.00  0.00     0.040 A 
ATOM     87  C   UNL A   1      42.512  30.511  36.185  1.00  0.00     0.040 A 
ATOM     88  F   UNL A   1      43.382  28.976  34.642  1.00  0.00    -0.206 F 
ATOM     89  C   UNL A   1      41.665  31.572  36.494  1.00  0.00     0.006 A 
ENDBRANCH  65  82
ENDBRANCH  39  40
ENDBRANCH  31  34
ENDBRANCH  29  30
ENDBRANCH  28  29
ENDBRANCH   1  28
TORSDOF 17
ENDMDL
MODEL 2
REMARK VINA RESULT:     -11.3      3.452      4.877
REMARK SMILES CCn1nc(C(C)C)cc1C(=O)N[C@@H](CC(N)=O)C(=O)NCCCCNC(=O)c1ccc(-c2c3nc(c(-c4c(F)cccc4F)c4ccc([nH]4)c(-c4c(F)cccc4F)c4nc(c(-c5c(F)cccc5F)c5ccc2[nH]5)C=C4)C=C3)cc1
REMARK SMILES IDX 23 1 22 2 21 3 19 4 20 5 14 7 13 8 11 9 12 10 10 12 3 13
REMARK SMILES IDX 4 14 5 15 9 16 2 17 1 18 6 19 7 20 8 21 15 22 16 23 17 24
REMARK SMILES IDX 18 25 24 28 25 29 26 30 27 31 28 33 29 34 30 35 82 36 31 37
REMARK SMILES IDX 81 38 32 39 33 40 34 41 75 42 35 43 80 44 74 45 76 46 36 47
REMARK SMILES IDX 79 48 73 49 72 50 37 52 63 53 46 54 62 55 47 56 50 57 61 58
REMARK SMILES IDX 77 59 48 60 49 61 60 63 78 64 51 65 38 66 39 67 44 68 40 69
REMARK SMILES IDX 41 70 43 71 45 72 42 73 64 74 65 75 70 76 66 77 67 78 69 79
REMARK SMILES IDX 71 80 68 81 52 82 53 83 58 84 54 85 55 86 57 87 59 88 56 89
REMARK H PARENT 21 6 13 11 17 26 17 27 26 32 76 51 50 62
REMARK Flexibility Score: inf
ROOT
ATOM      1  C   UNL A   1      32.953  29.707  25.847  1.00  0.00     0.023 C 
ENDROOT
BRANCH   1   2
ATOM      2  C   UNL A   1      33.537  29.352  24.483  1.00  0.00     0.116 C 
BRANCH   2   3
ATOM      3  N   UNL A   1      32.568  29.350  23.403  1.00  0.00    -0.354 N 
ATOM      4  C   UNL A   1      31.754  28.359  22.940  1.00  0.00     0.243 C 
ATOM      5  O   UNL A   1      30.811  28.707  22.217  1.00  0.00    -0.273 OA
ATOM      6  H   UNL A   1      32.486  30.206  22.924  1.00  0.00     0.163 HD
BRANCH   4   7
ATOM      7  C   UNL A   1      31.887  26.876  23.355  1.00  0.00     0.181 C 
BRANCH   7   8
ATOM      8  N   UNL A   1      31.365  26.613  24.694  1.00  0.00    -0.338 N 
ATOM      9  C   UNL A   1      31.779  25.792  25.716  1.00  0.00     0.270 C 
ATOM     10  O   UNL A   1      31.210  25.993  26.790  1.00  0.00    -0.268 OA
ATOM     11  H   UNL A   1      30.553  27.127  24.907  1.00  0.00     0.164 HD
BRANCH   9  12
ATOM     12  C   UNL A   1      32.738  24.717  25.524  1.00  0.00     0.126 A 
ATOM     13  N   UNL A   1      32.412  23.425  25.137  1.00  0.00    -0.260 N 
ATOM     14  N   UNL A   1      33.486  22.700  24.739  1.00  0.00    -0.177 NA
ATOM     15  C   UNL A   1      34.533  23.451  25.072  1.00  0.00     0.066 A 
ATOM     16  C   UNL A   1      34.113  24.652  25.677  1.00  0.00     0.059 A 
BRANCH  13  17
ATOM     17  C   UNL A   1      31.113  22.774  25.049  1.00  0.00     0.142 C 
ATOM     18  C   UNL A   1      30.482  22.541  26.418  1.00  0.00     0.029 C 
ENDBRANCH  13  17
BRANCH  15  19
ATOM     19  C   UNL A   1      35.948  23.029  24.800  1.00  0.00     0.034 C 
ATOM     20  C   UNL A   1      36.274  23.079  23.309  1.00  0.00     0.014 C 
ATOM     21  C   UNL A   1      36.969  23.821  25.618  1.00  0.00     0.014 C 
ENDBRANCH  15  19
ENDBRANCH   9  12
ENDBRANCH   7   8
BRANCH   7  22
ATOM     22  C   UNL A   1      31.509  25.866  22.274  1.00  0.00     0.134 C 
BRANCH  22  23
ATOM     23  C   UNL A   1      32.574  25.564  21.260  1.00  0.00     0.220 C 
ATOM     24  N   UNL A   1      32.189  25.642  19.955  1.00  0.00    -0.370 N 
ATOM     25  O   UNL A   1      33.718  25.246  21.562  1.00  0.00    -0.275 OA
ATOM     26  H   UNL A   1      31.266  25.898  19.728  1.00  0.00     0.159 HD
ATOM     27  H   UNL A   1      32.836  25.442  19.239  1.00  0.00     0.159 HD
ENDBRANCH  22  23
ENDBRANCH   7  22
ENDBRANCH   4   7
ENDBRANCH   2   3
ENDBRANCH   1   2
BRANCH   1  28
ATOM     28  C   UNL A   1      33.423  28.860  27.033  1.00  0.00     0.023 C 
BRANCH  28  29
ATOM     29  C   UNL A   1      34.873  29.073  27.450  1.00  0.00     0.116 C 
BRANCH  29  30
ATOM     30  N   UNL A   1      35.044  30.128  28.443  1.00  0.00    -0.352 N 
ATOM     31  C   UNL A   1      36.081  30.273  29.347  1.00  0.00     0.251 C 
ATOM     32  H   UNL A   1      34.340  30.816  28.472  1.00  0.00     0.163 HD
ATOM     33  O   UNL A   1      35.960  30.955  30.349  1.00  0.00    -0.269 OA
BRANCH  31  34
ATOM     34  C   UNL A   1      37.352  29.579  29.071  1.00  0.00     0.039 A 
ATOM     35  C   UNL A   1      38.100  29.884  27.930  1.00  0.00     0.014 A 
ATOM     36  C   UNL A   1      37.803  28.635  29.992  1.00  0.00     0.014 A 
ATOM     37  C   UNL A   1      39.352  29.296  27.766  1.00  0.00     0.010 A 
ATOM     38  C   UNL A   1      39.080  28.135  29.883  1.00  0.00     0.010 A 
ATOM     39  C   UNL A   1      39.851  28.440  28.760  1.00  0.00    -0.014 A 
BRANCH  39  40
ATOM     40  C   UNL A   1      41.249  28.002  28.724  1.00  0.00     0.031 A 
ATOM     41  C   UNL A   1      41.474  26.700  28.020  1.00  0.00     0.074 A 
ATOM     42  C   UNL A   1      42.273  28.828  29.039  1.00  0.00     0.049 A 
ATOM     43  N   UNL A   1      42.065  25.637  28.460  1.00  0.00    -0.248 NA
ATOM     44  C   UNL A   1      40.874  26.526  26.682  1.00  0.00     0.031 C 
ATOM     45  C   UNL A   1      42.193  30.243  29.423  1.00  0.00     0.029 A 
ATOM     46  N   UNL A   1      43.617  28.628  28.942  1.00  0.00    -0.354 N 
ATOM     47  C   UNL A   1      42.089  24.736  27.393  1.00  0.00     0.074 A 
ATOM     48  C   UNL A   1      41.202  25.267  26.394  1.00  0.00     0.031 C 
ATOM     49  C   UNL A   1      43.403  30.824  29.269  1.00  0.00     0.029 A 
ATOM     50  C   UNL A   1      44.373  29.799  28.932  1.00  0.00     0.049 A 
ATOM     51  H   UNL A   1      44.021  27.732  28.885  1.00  0.00     0.167 HD
ATOM     52  C   UNL A   1      43.030  23.755  27.314  1.00  0.00     0.037 A 
ATOM     53  C   UNL A   1      45.689  29.925  28.620  1.00  0.00     0.037 A 
ATOM     54  C   UNL A   1      43.620  23.497  28.604  1.00  0.00     0.049 A 
ATOM     55  C   UNL A   1      46.294  28.574  28.681  1.00  0.00     0.074 A 
ATOM     56  C   UNL A   1      43.136  23.120  29.842  1.00  0.00     0.029 A 
ATOM     57  N   UNL A   1      44.888  23.970  28.835  1.00  0.00    -0.354 N 
ATOM     58  N   UNL A   1      46.481  27.905  29.782  1.00  0.00    -0.248 NA
ATOM     59  C   UNL A   1      46.294  27.785  27.460  1.00  0.00     0.031 C 
ATOM     60  C   UNL A   1      43.918  23.856  30.780  1.00  0.00     0.029 A 
ATOM     61  C   UNL A   1      44.875  24.574  30.063  1.00  0.00     0.049 A 
ATOM     62  H   UNL A   1      45.660  23.889  28.230  1.00  0.00     0.167 HD
ATOM     63  C   UNL A   1      46.167  26.597  29.449  1.00  0.00     0.074 A 
ATOM     64  C   UNL A   1      46.154  26.567  27.988  1.00  0.00     0.031 C 
ATOM     65  C   UNL A   1      45.663  25.739  30.382  1.00  0.00     0.037 A 
BRANCH  52  66
ATOM     66  C   UNL A   1      43.703  23.322  26.027  1.00  0.00     0.057 A 
ATOM     67  C   UNL A   1      43.803  21.948  25.735  1.00  0.00     0.134 A 
ATOM     68  C   UNL A   1      44.521  24.156  25.237  1.00  0.00     0.134 A 
ATOM     69  F   UNL A   1      43.082  21.044  26.416  1.00  0.00    -0.206 F 
ATOM     70  C   UNL A   1      44.720  21.438  24.807  1.00  0.00     0.040 A 
ATOM     71  C   UNL A   1      45.401  23.661  24.270  1.00  0.00     0.040 A 
ATOM     72  F   UNL A   1      44.596  25.479  25.420  1.00  0.00    -0.206 F 
ATOM     73  C   UNL A   1      45.532  22.297  24.078  1.00  0.00     0.006 A 
ENDBRANCH  52  66
BRANCH  53  74
ATOM     74  C   UNL A   1      46.418  31.063  28.013  1.00  0.00     0.057 A 
ATOM     75  C   UNL A   1      45.917  31.712  26.873  1.00  0.00     0.134 A 
ATOM     76  C   UNL A   1      47.454  31.726  28.693  1.00  0.00     0.134 A 
ATOM     77  F   UNL A   1      44.908  31.175  26.173  1.00  0.00    -0.206 F 
ATOM     78  C   UNL A   1      46.387  32.965  26.459  1.00  0.00     0.040 A 
ATOM     79  C   UNL A   1      47.938  32.975  28.285  1.00  0.00     0.040 A 
ATOM     80  F   UNL A   1      47.968  31.230  29.827  1.00  0.00    -0.206 F 
ATOM     81  C   UNL A   1      47.392  33.608  27.174  1.00  0.00     0.006 A 
ENDBRANCH  53  74
BRANCH  65  82
ATOM     82  C   UNL A   1      45.728  26.147  31.828  1.00  0.00     0.057 A 
ATOM     83  C   UNL A   1      44.688  26.777  32.528  1.00  0.00     0.134 A 
ATOM     84  C   UNL A   1      46.852  25.771  32.573  1.00  0.00     0.134 A 
ATOM     85  F   UNL A   1      43.528  27.081  31.931  1.00  0.00    -0.206 F 
ATOM     86  C   UNL A   1      44.790  27.071  33.892  1.00  0.00     0.040 A 
ATOM     87  C   UNL A   1      46.949  26.023  33.942  1.00  0.00     0.040 A 
ATOM     88  F   UNL A   1      47.864  25.114  31.984  1.00  0.00    -0.206 F 
ATOM     89  C   UNL A   1      45.922  26.689  34.604  1.00  0.00     0.006 A 
ENDBRANCH  65  82
ENDBRANCH  39  40
ENDBRANCH  31  34
ENDBRANCH  29  30
ENDBRANCH  28  29
ENDBRANCH   1  28
TORSDOF 17
ENDMDL
MODEL 3
REMARK VINA RESULT:     -11.2      3.702      7.788
REMARK SMILES CCn1nc(C(C)C)cc1C(=O)N[C@@H](CC(N)=O)C(=O)NCCCCNC(=O)c1ccc(-c2c3nc(c(-c4c(F)cccc4F)c4ccc([nH]4)c(-c4c(F)cccc4F)c4nc(c(-c5c(F)cccc5F)c5ccc2[nH]5)C=C4)C=C3)cc1
REMARK SMILES IDX 23 1 22 2 21 3 19 4 20 5 14 7 13 8 11 9 12 10 10 12 3 13
REMARK SMILES IDX 4 14 5 15 9 16 2 17 1 18 6 19 7 20 8 21 15 22 16 23 17 24
REMARK SMILES IDX 18 25 24 28 25 29 26 30 27 31 28 33 29 34 30 35 82 36 31 37
REMARK SMILES IDX 81 38 32 39 33 40 34 41 75 42 35 43 80 44 74 45 76 46 36 47
REMARK SMILES IDX 79 48 73 49 72 50 37 52 63 53 46 54 62 55 47 56 50 57 61 58
REMARK SMILES IDX 77 59 48 60 49 61 60 63 78 64 51 65 38 66 39 67 44 68 40 69
REMARK SMILES IDX 41 70 43 71 45 72 42 73 64 74 65 75 70 76 66 77 67 78 69 79
REMARK SMILES IDX 71 80 68 81 52 82 53 83 58 84 54 85 55 86 57 87 59 88 56 89
REMARK H PARENT 21 6 13 11 17 26 17 27 26 32 76 51 50 62
REMARK Flexibility Score: inf
ROOT
ATOM      1  C   UNL A   1      32.929  29.907  25.787  1.00  0.00     0.023 C 
ENDROOT
BRANCH   1   2
ATOM      2  C   UNL A   1      33.446  29.400  24.445  1.00  0.00     0.116 C 
BRANCH   2   3
ATOM      3  N   UNL A   1      32.439  29.341  23.403  1.00  0.00    -0.354 N 
ATOM      4  C   UNL A   1      31.655  28.308  22.979  1.00  0.00     0.243 C 
ATOM      5  O   UNL A   1      30.671  28.604  22.290  1.00  0.00    -0.273 OA
ATOM      6  H   UNL A   1      32.298  30.187  22.920  1.00  0.00     0.163 HD
BRANCH   4   7
ATOM      7  C   UNL A   1      31.875  26.837  23.400  1.00  0.00     0.181 C 
BRANCH   7   8
ATOM      8  N   UNL A   1      31.425  26.565  24.763  1.00  0.00    -0.338 N 
ATOM      9  C   UNL A   1      31.901  25.746  25.761  1.00  0.00     0.270 C 
ATOM     10  O   UNL A   1      31.386  25.939  26.863  1.00  0.00    -0.268 OA
ATOM     11  H   UNL A   1      30.620  27.069  25.020  1.00  0.00     0.164 HD
BRANCH   9  12
ATOM     12  C   UNL A   1      32.861  24.684  25.516  1.00  0.00     0.126 A 
ATOM     13  N   UNL A   1      32.542  23.426  25.021  1.00  0.00    -0.260 N 
ATOM     14  N   UNL A   1      33.624  22.727  24.602  1.00  0.00    -0.177 NA
ATOM     15  C   UNL A   1      34.664  23.444  25.024  1.00  0.00     0.066 A 
ATOM     16  C   UNL A   1      34.231  24.598  25.707  1.00  0.00     0.059 A 
BRANCH  13  17
ATOM     17  C   UNL A   1      31.244  22.793  24.844  1.00  0.00     0.142 C 
ATOM     18  C   UNL A   1      30.568  22.461  26.171  1.00  0.00     0.029 C 
ENDBRANCH  13  17
BRANCH  15  19
ATOM     19  C   UNL A   1      36.085  23.034  24.764  1.00  0.00     0.034 C 
ATOM     20  C   UNL A   1      36.440  23.140  23.283  1.00  0.00     0.014 C 
ATOM     21  C   UNL A   1      37.088  23.798  25.631  1.00  0.00     0.014 C 
ENDBRANCH  15  19
ENDBRANCH   9  12
ENDBRANCH   7   8
BRANCH   7  22
ATOM     22  C   UNL A   1      31.495  25.800  22.346  1.00  0.00     0.134 C 
BRANCH  22  23
ATOM     23  C   UNL A   1      32.491  25.595  21.242  1.00  0.00     0.220 C 
ATOM     24  N   UNL A   1      31.987  25.625  19.976  1.00  0.00    -0.370 N 
ATOM     25  O   UNL A   1      33.682  25.393  21.441  1.00  0.00    -0.275 OA
ATOM     26  H   UNL A   1      31.027  25.788  19.831  1.00  0.00     0.159 HD
ATOM     27  H   UNL A   1      32.584  25.484  19.205  1.00  0.00     0.159 HD
ENDBRANCH  22  23
ENDBRANCH   7  22
ENDBRANCH   4   7
ENDBRANCH   2   3
ENDBRANCH   1   2
BRANCH   1  28
ATOM     28  C   UNL A   1      33.501  29.233  27.038  1.00  0.00     0.023 C 
BRANCH  28  29
ATOM     29  C   UNL A   1      35.011  29.349  27.207  1.00  0.00     0.116 C 
BRANCH  29  30
ATOM     30  N   UNL A   1      35.430  30.581  27.868  1.00  0.00    -0.352 N 
ATOM     31  C   UNL A   1      36.550  30.773  28.656  1.00  0.00     0.251 C 
ATOM     32  H   UNL A   1      34.847  31.364  27.739  1.00  0.00     0.163 HD
ATOM     33  O   UNL A   1      36.624  31.703  29.440  1.00  0.00    -0.269 OA
BRANCH  31  34
ATOM     34  C   UNL A   1      37.669  29.822  28.526  1.00  0.00     0.039 A 
ATOM     35  C   UNL A   1      38.617  29.968  27.509  1.00  0.00     0.014 A 
ATOM     36  C   UNL A   1      37.773  28.794  29.460  1.00  0.00     0.014 A 
ATOM     37  C   UNL A   1      39.725  29.123  27.491  1.00  0.00     0.010 A 
ATOM     38  C   UNL A   1      38.916  28.028  29.504  1.00  0.00     0.010 A 
ATOM     39  C   UNL A   1      39.884  28.169  28.508  1.00  0.00    -0.014 A 
BRANCH  39  40
ATOM     40  C   UNL A   1      41.147  27.437  28.643  1.00  0.00     0.031 A 
ATOM     41  C   UNL A   1      41.879  27.697  29.923  1.00  0.00     0.074 A 
ATOM     42  C   UNL A   1      41.478  26.410  27.829  1.00  0.00     0.049 A 
ATOM     43  N   UNL A   1      43.100  28.091  30.087  1.00  0.00    -0.248 NA
ATOM     44  C   UNL A   1      41.120  27.599  31.185  1.00  0.00     0.031 C 
ATOM     45  C   UNL A   1      40.676  25.841  26.737  1.00  0.00     0.029 A 
ATOM     46  N   UNL A   1      42.536  25.554  27.889  1.00  0.00    -0.354 N 
ATOM     47  C   UNL A   1      43.325  28.097  31.466  1.00  0.00     0.074 A 
ATOM     48  C   UNL A   1      42.036  27.953  32.087  1.00  0.00     0.031 C 
ATOM     49  C   UNL A   1      41.140  24.610  26.429  1.00  0.00     0.029 A 
ATOM     50  C   UNL A   1      42.357  24.368  27.179  1.00  0.00     0.049 A 
ATOM     51  H   UNL A   1      43.359  25.756  28.391  1.00  0.00     0.167 HD
ATOM     52  C   UNL A   1      44.578  27.968  31.982  1.00  0.00     0.037 A 
ATOM     53  C   UNL A   1      43.125  23.250  27.241  1.00  0.00     0.037 A 
ATOM     54  C   UNL A   1      45.579  28.296  30.999  1.00  0.00     0.049 A 
ATOM     55  C   UNL A   1      44.410  23.624  27.877  1.00  0.00     0.074 A 
ATOM     56  C   UNL A   1      45.865  29.406  30.227  1.00  0.00     0.029 A 
ATOM     57  N   UNL A   1      46.276  27.262  30.424  1.00  0.00    -0.354 N 
ATOM     58  N   UNL A   1      45.313  24.375  27.315  1.00  0.00    -0.248 NA
ATOM     59  C   UNL A   1      44.497  23.513  29.324  1.00  0.00     0.031 C 
ATOM     60  C   UNL A   1      46.280  28.879  28.968  1.00  0.00     0.029 A 
ATOM     61  C   UNL A   1      46.295  27.489  29.074  1.00  0.00     0.049 A 
ATOM     62  H   UNL A   1      46.685  26.500  30.895  1.00  0.00     0.167 HD
ATOM     63  C   UNL A   1      45.782  25.178  28.343  1.00  0.00     0.074 A 
ATOM     64  C   UNL A   1      45.317  24.538  29.571  1.00  0.00     0.031 C 
ATOM     65  C   UNL A   1      46.250  26.435  28.091  1.00  0.00     0.037 A 
BRANCH  52  66
ATOM     66  C   UNL A   1      44.910  27.163  33.222  1.00  0.00     0.057 A 
ATOM     67  C   UNL A   1      45.766  27.720  34.192  1.00  0.00     0.134 A 
ATOM     68  C   UNL A   1      44.691  25.776  33.352  1.00  0.00     0.134 A 
ATOM     69  F   UNL A   1      46.061  29.029  34.180  1.00  0.00    -0.206 F 
ATOM     70  C   UNL A   1      46.432  26.942  35.147  1.00  0.00     0.040 A 
ATOM     71  C   UNL A   1      45.310  24.998  34.336  1.00  0.00     0.040 A 
ATOM     72  F   UNL A   1      43.955  25.074  32.484  1.00  0.00    -0.206 F 
ATOM     73  C   UNL A   1      46.214  25.572  35.213  1.00  0.00     0.006 A 
ENDBRANCH  52  66
BRANCH  53  74
ATOM     74  C   UNL A   1      42.754  21.828  27.047  1.00  0.00     0.057 A 
ATOM     75  C   UNL A   1      41.611  21.294  27.661  1.00  0.00     0.134 A 
ATOM     76  C   UNL A   1      43.331  21.044  26.033  1.00  0.00     0.134 A 
ATOM     77  F   UNL A   1      40.969  21.978  28.618  1.00  0.00    -0.206 F 
ATOM     78  C   UNL A   1      41.049  20.074  27.263  1.00  0.00     0.040 A 
ATOM     79  C   UNL A   1      42.785  19.819  25.632  1.00  0.00     0.040 A 
ATOM     80  F   UNL A   1      44.390  21.481  25.336  1.00  0.00    -0.206 F 
ATOM     81  C   UNL A   1      41.628  19.338  26.235  1.00  0.00     0.006 A 
ENDBRANCH  53  74
BRANCH  65  82
ATOM     82  C   UNL A   1      46.516  26.818  26.662  1.00  0.00     0.057 A 
ATOM     83  C   UNL A   1      45.570  27.394  25.799  1.00  0.00     0.134 A 
ATOM     84  C   UNL A   1      47.825  26.712  26.180  1.00  0.00     0.134 A 
ATOM     85  F   UNL A   1      44.316  27.637  26.202  1.00  0.00    -0.206 F 
ATOM     86  C   UNL A   1      45.902  27.788  24.500  1.00  0.00     0.040 A 
ATOM     87  C   UNL A   1      48.178  27.138  24.898  1.00  0.00     0.040 A 
ATOM     88  F   UNL A   1      48.798  26.223  26.966  1.00  0.00    -0.206 F 
ATOM     89  C   UNL A   1      47.211  27.664  24.047  1.00  0.00     0.006 A 
ENDBRANCH  65  82
ENDBRANCH  39  40
ENDBRANCH  31  34
ENDBRANCH  29  30
ENDBRANCH  28  29
ENDBRANCH   1  28
TORSDOF 17
ENDMDL
