MODEL 1
REMARK VINA RESULT:      -9.6      0.000      0.000
REMARK SMILES CC[C@@H](C)[C@H](NC(=O)[C@H](C)N1C(=O)N2CCC3=c4cc(OC)ccc4=N[C@@H]3[C@@]2(C)C1=O)C(=O)NCCCCNC(=O)c1ccc(-c2c3nc(c(-c4c(F)cccc4F)c4ccc([nH]4)c(-c4c(F)cccc4F)c4nc(c(-c5c(F)cccc5F)c5ccc2[nH]5)C=C4)C=C3)cc1
REMARK SMILES IDX 35 1 34 2 32 3 33 4 5 6 3 7 4 8 2 9 1 10 6 11 7 12 8 14 9 15
REMARK SMILES IDX 10 16 11 17 12 18 30 19 14 20 13 21 28 22 31 23 15 24 27 25
REMARK SMILES IDX 29 26 16 27 17 28 26 29 18 30 25 31 19 32 24 33 20 34 23 35
REMARK SMILES IDX 21 36 22 37 36 38 37 39 38 40 39 41 40 42 41 44 42 45 43 46
REMARK SMILES IDX 95 47 44 48 94 49 45 50 46 51 47 52 88 53 48 54 93 55 87 56
REMARK SMILES IDX 89 57 49 58 92 59 86 60 85 61 50 63 76 64 59 65 75 66 60 67
REMARK SMILES IDX 63 68 74 69 90 70 61 71 62 72 73 74 91 75 64 76 51 77 52 78
REMARK SMILES IDX 57 79 53 80 54 81 56 82 58 83 55 84 77 85 78 86 83 87 79 88
REMARK SMILES IDX 80 89 82 90 84 91 81 92 65 93 66 94 71 95 67 96 68 97 70 98
REMARK SMILES IDX 72 99 69 100
REMARK H PARENT 34 5 6 13 39 43 89 62 63 73
REMARK Flexibility Score: inf
ROOT
ATOM      1  C   UNL A   1      40.998  27.679  28.151  1.00  0.00     0.116 C 
ENDROOT
BRANCH   1   2
ATOM      2  N   UNL A   1      40.874  29.072  28.481  1.00  0.00    -0.354 N 
ATOM      3  C   UNL A   1      41.387  29.751  29.537  1.00  0.00     0.242 C 
ATOM      4  O   UNL A   1      41.727  30.910  29.255  1.00  0.00    -0.273 OA
ATOM      5  H   UNL A   1      40.341  29.609  27.851  1.00  0.00     0.163 HD
BRANCH   3   6
ATOM      6  C   UNL A   1      41.848  29.111  30.898  1.00  0.00     0.174 C 
BRANCH   6   7
ATOM      7  C   UNL A   1      43.221  28.411  30.574  1.00  0.00     0.018 C 
ATOM      8  C   UNL A   1      43.247  26.922  30.927  1.00  0.00     0.010 C 
BRANCH   7   9
ATOM      9  C   UNL A   1      44.402  29.190  31.185  1.00  0.00     0.002 C 
ATOM     10  C   UNL A   1      44.954  30.274  30.263  1.00  0.00     0.004 C 
ENDBRANCH   7   9
ENDBRANCH   6   7
BRANCH   6  11
ATOM     11  N   UNL A   1      40.954  28.273  31.735  1.00  0.00    -0.342 N 
ATOM     12  C   UNL A   1      39.820  28.475  32.482  1.00  0.00     0.243 C 
ATOM     13  H   UNL A   1      41.248  27.334  31.760  1.00  0.00     0.164 HD
ATOM     14  O   UNL A   1      39.343  27.448  32.988  1.00  0.00    -0.273 OA
BRANCH  12  15
ATOM     15  C   UNL A   1      39.067  29.844  32.674  1.00  0.00     0.181 C 
ATOM     16  C   UNL A   1      37.884  29.629  33.603  1.00  0.00     0.042 C 
BRANCH  15  17
ATOM     17  N   UNL A   1      38.686  30.368  31.341  1.00  0.00    -0.250 N 
ATOM     18  C   UNL A   1      37.801  29.918  30.326  1.00  0.00     0.328 C 
ATOM     19  C   UNL A   1      38.827  31.716  31.254  1.00  0.00     0.259 C 
ATOM     20  N   UNL A   1      37.555  31.040  29.420  1.00  0.00    -0.307 N 
ATOM     21  O   UNL A   1      37.189  28.861  30.284  1.00  0.00    -0.248 OA
ATOM     22  C   UNL A   1      37.893  32.158  30.225  1.00  0.00     0.147 C 
ATOM     23  O   UNL A   1      39.458  32.479  31.970  1.00  0.00    -0.271 OA
ATOM     24  C   UNL A   1      36.327  31.404  28.512  1.00  0.00     0.127 C 
ATOM     25  C   UNL A   1      36.517  32.322  30.891  1.00  0.00     0.168 C 
ATOM     26  C   UNL A   1      38.623  33.178  29.330  1.00  0.00     0.048 C 
ATOM     27  C   UNL A   1      35.581  32.974  28.920  1.00  0.00     0.055 C 
ATOM     28  C   UNL A   1      35.958  33.540  30.341  1.00  0.00    -0.032 C 
ATOM     29  N   UNL A   1      35.982  32.014  32.223  1.00  0.00    -0.274 NA
ATOM     30  C   UNL A   1      35.510  34.202  31.444  1.00  0.00     0.005 A 
ATOM     31  C   UNL A   1      35.080  32.975  32.240  1.00  0.00     0.066 A 
ATOM     32  C   UNL A   1      36.528  34.744  32.522  1.00  0.00     0.056 A 
ATOM     33  C   UNL A   1      34.186  33.310  33.360  1.00  0.00     0.032 A 
ATOM     34  C   UNL A   1      36.247  34.424  33.831  1.00  0.00     0.119 A 
ATOM     35  C   UNL A   1      34.858  34.129  34.183  1.00  0.00     0.048 A 
BRANCH  34  36
ATOM     36  O   UNL A   1      37.193  33.746  34.603  1.00  0.00    -0.497 OA
ATOM     37  C   UNL A   1      38.477  34.394  34.784  1.00  0.00     0.278 C 
ENDBRANCH  34  36
ENDBRANCH  15  17
ENDBRANCH  12  15
ENDBRANCH   6  11
ENDBRANCH   3   6
ENDBRANCH   1   2
BRANCH   1  38
ATOM     38  C   UNL A   1      39.666  26.947  28.159  1.00  0.00     0.023 C 
BRANCH  38  39
ATOM     39  C   UNL A   1      39.745  25.419  28.126  1.00  0.00     0.023 C 
BRANCH  39  40
ATOM     40  C   UNL A   1      39.707  24.760  26.747  1.00  0.00     0.116 C 
BRANCH  40  41
ATOM     41  N   UNL A   1      40.585  23.604  26.616  1.00  0.00    -0.352 N 
ATOM     42  C   UNL A   1      41.949  23.522  26.463  1.00  0.00     0.251 C 
ATOM     43  H   UNL A   1      40.123  22.735  26.643  1.00  0.00     0.163 HD
ATOM     44  O   UNL A   1      42.481  22.428  26.305  1.00  0.00    -0.269 OA
BRANCH  42  45
ATOM     45  C   UNL A   1      42.773  24.748  26.440  1.00  0.00     0.039 A 
ATOM     46  C   UNL A   1      42.853  25.540  25.296  1.00  0.00     0.014 A 
ATOM     47  C   UNL A   1      43.497  25.099  27.585  1.00  0.00     0.014 A 
ATOM     48  C   UNL A   1      43.799  26.555  25.230  1.00  0.00     0.010 A 
ATOM     49  C   UNL A   1      44.382  26.181  27.547  1.00  0.00     0.010 A 
ATOM     50  C   UNL A   1      44.588  26.879  26.347  1.00  0.00    -0.014 A 
BRANCH  50  51
ATOM     51  C   UNL A   1      45.623  27.937  26.214  1.00  0.00     0.031 A 
ATOM     52  C   UNL A   1      45.292  29.385  26.466  1.00  0.00     0.074 A 
ATOM     53  C   UNL A   1      46.894  27.575  25.956  1.00  0.00     0.049 A 
ATOM     54  N   UNL A   1      46.097  30.417  26.521  1.00  0.00    -0.248 NA
ATOM     55  C   UNL A   1      43.875  29.723  26.678  1.00  0.00     0.031 C 
ATOM     56  C   UNL A   1      47.340  26.207  25.681  1.00  0.00     0.029 A 
ATOM     57  N   UNL A   1      48.050  28.313  25.932  1.00  0.00    -0.354 N 
ATOM     58  C   UNL A   1      45.287  31.524  26.748  1.00  0.00     0.074 A 
ATOM     59  C   UNL A   1      43.924  31.042  26.797  1.00  0.00     0.031 C 
ATOM     60  C   UNL A   1      48.679  26.190  25.603  1.00  0.00     0.029 A 
ATOM     61  C   UNL A   1      49.180  27.550  25.769  1.00  0.00     0.049 A 
ATOM     62  H   UNL A   1      48.067  29.294  26.023  1.00  0.00     0.167 HD
ATOM     63  C   UNL A   1      45.646  32.820  26.912  1.00  0.00     0.037 A 
ATOM     64  C   UNL A   1      50.478  27.903  25.768  1.00  0.00     0.037 A 
ATOM     65  C   UNL A   1      47.004  33.299  26.895  1.00  0.00     0.049 A 
ATOM     66  C   UNL A   1      50.847  29.344  25.963  1.00  0.00     0.074 A 
ATOM     67  C   UNL A   1      47.470  34.589  27.085  1.00  0.00     0.029 A 
ATOM     68  N   UNL A   1      48.118  32.501  26.678  1.00  0.00    -0.354 N 
ATOM     69  N   UNL A   1      50.071  30.371  26.204  1.00  0.00    -0.248 NA
ATOM     70  C   UNL A   1      52.277  29.673  25.879  1.00  0.00     0.031 C 
ATOM     71  C   UNL A   1      48.864  34.577  26.951  1.00  0.00     0.029 A 
ATOM     72  C   UNL A   1      49.268  33.274  26.715  1.00  0.00     0.049 A 
ATOM     73  H   UNL A   1      48.095  31.529  26.522  1.00  0.00     0.167 HD
ATOM     74  C   UNL A   1      50.916  31.467  26.314  1.00  0.00     0.074 A 
ATOM     75  C   UNL A   1      52.267  30.971  26.138  1.00  0.00     0.031 C 
ATOM     76  C   UNL A   1      50.604  32.766  26.535  1.00  0.00     0.037 A 
BRANCH  63  77
ATOM     77  C   UNL A   1      44.544  33.822  27.111  1.00  0.00     0.057 A 
ATOM     78  C   UNL A   1      43.955  34.459  26.012  1.00  0.00     0.134 A 
ATOM     79  C   UNL A   1      44.086  34.178  28.386  1.00  0.00     0.134 A 
ATOM     80  F   UNL A   1      44.352  34.170  24.763  1.00  0.00    -0.206 F 
ATOM     81  C   UNL A   1      42.949  35.414  26.174  1.00  0.00     0.040 A 
ATOM     82  C   UNL A   1      43.066  35.116  28.560  1.00  0.00     0.040 A 
ATOM     83  F   UNL A   1      44.600  33.595  29.480  1.00  0.00    -0.206 F 
ATOM     84  C   UNL A   1      42.498  35.740  27.450  1.00  0.00     0.006 A 
ENDBRANCH  63  77
BRANCH  64  85
ATOM     85  C   UNL A   1      51.528  26.868  25.605  1.00  0.00     0.057 A 
ATOM     86  C   UNL A   1      52.057  26.554  24.348  1.00  0.00     0.134 A 
ATOM     87  C   UNL A   1      52.028  26.171  26.711  1.00  0.00     0.134 A 
ATOM     88  F   UNL A   1      51.613  27.184  23.251  1.00  0.00    -0.206 F 
ATOM     89  C   UNL A   1      53.039  25.576  24.194  1.00  0.00     0.040 A 
ATOM     90  C   UNL A   1      53.028  25.208  26.575  1.00  0.00     0.040 A 
ATOM     91  F   UNL A   1      51.572  26.442  27.943  1.00  0.00    -0.206 F 
ATOM     92  C   UNL A   1      53.532  24.905  25.311  1.00  0.00     0.006 A 
ENDBRANCH  64  85
BRANCH  76  93
ATOM     93  C   UNL A   1      51.749  33.728  26.620  1.00  0.00     0.057 A 
ATOM     94  C   UNL A   1      52.221  34.378  25.474  1.00  0.00     0.134 A 
ATOM     95  C   UNL A   1      52.376  34.021  27.838  1.00  0.00     0.134 A 
ATOM     96  F   UNL A   1      51.667  34.138  24.276  1.00  0.00    -0.206 F 
ATOM     97  C   UNL A   1      53.271  35.295  25.538  1.00  0.00     0.040 A 
ATOM     98  C   UNL A   1      53.410  34.954  27.918  1.00  0.00     0.040 A 
ATOM     99  F   UNL A   1      51.957  33.444  28.975  1.00  0.00    -0.206 F 
ATOM    100  C   UNL A   1      53.862  35.593  26.764  1.00  0.00     0.006 A 
ENDBRANCH  76  93
ENDBRANCH  50  51
ENDBRANCH  42  45
ENDBRANCH  40  41
ENDBRANCH  39  40
ENDBRANCH  38  39
ENDBRANCH   1  38
TORSDOF 17
ENDMDL
MODEL 2
REMARK VINA RESULT:      -9.5      7.031     13.635
REMARK SMILES CC[C@@H](C)[C@H](NC(=O)[C@H](C)N1C(=O)N2CCC3=c4cc(OC)ccc4=N[C@@H]3[C@@]2(C)C1=O)C(=O)NCCCCNC(=O)c1ccc(-c2c3nc(c(-c4c(F)cccc4F)c4ccc([nH]4)c(-c4c(F)cccc4F)c4nc(c(-c5c(F)cccc5F)c5ccc2[nH]5)C=C4)C=C3)cc1
REMARK SMILES IDX 35 1 34 2 32 3 33 4 5 6 3 7 4 8 2 9 1 10 6 11 7 12 8 14 9 15
REMARK SMILES IDX 10 16 11 17 12 18 30 19 14 20 13 21 28 22 31 23 15 24 27 25
REMARK SMILES IDX 29 26 16 27 17 28 26 29 18 30 25 31 19 32 24 33 20 34 23 35
REMARK SMILES IDX 21 36 22 37 36 38 37 39 38 40 39 41 40 42 41 44 42 45 43 46
REMARK SMILES IDX 95 47 44 48 94 49 45 50 46 51 47 52 88 53 48 54 93 55 87 56
REMARK SMILES IDX 89 57 49 58 92 59 86 60 85 61 50 63 76 64 59 65 75 66 60 67
REMARK SMILES IDX 63 68 74 69 90 70 61 71 62 72 73 74 91 75 64 76 51 77 52 78
REMARK SMILES IDX 57 79 53 80 54 81 56 82 58 83 55 84 77 85 78 86 83 87 79 88
REMARK SMILES IDX 80 89 82 90 84 91 81 92 65 93 66 94 71 95 67 96 68 97 70 98
REMARK SMILES IDX 72 99 69 100
REMARK H PARENT 34 5 6 13 39 43 89 62 63 73
REMARK Flexibility Score: inf
ROOT
ATOM      1  C   UNL A   1      46.214  40.518  25.363  1.00  0.00     0.116 C 
ENDROOT
BRANCH   1   2
ATOM      2  N   UNL A   1      44.833  40.537  25.756  1.00  0.00    -0.354 N 
ATOM      3  C   UNL A   1      43.869  41.444  25.457  1.00  0.00     0.242 C 
ATOM      4  O   UNL A   1      42.748  40.936  25.305  1.00  0.00    -0.273 OA
ATOM      5  H   UNL A   1      44.545  39.784  26.323  1.00  0.00     0.163 HD
BRANCH   3   6
ATOM      6  C   UNL A   1      44.122  42.928  25.003  1.00  0.00     0.174 C 
BRANCH   6   7
ATOM      7  C   UNL A   1      44.136  42.876  23.429  1.00  0.00     0.018 C 
ATOM      8  C   UNL A   1      45.509  43.168  22.818  1.00  0.00     0.010 C 
BRANCH   7   9
ATOM      9  C   UNL A   1      43.019  43.752  22.832  1.00  0.00     0.002 C 
ATOM     10  C   UNL A   1      41.620  43.177  23.041  1.00  0.00     0.004 C 
ENDBRANCH   7   9
ENDBRANCH   6   7
BRANCH   6  11
ATOM     11  N   UNL A   1      45.211  43.766  25.564  1.00  0.00    -0.342 N 
ATOM     12  C   UNL A   1      45.678  44.075  26.818  1.00  0.00     0.243 C 
ATOM     13  H   UNL A   1      45.731  44.213  24.858  1.00  0.00     0.164 HD
ATOM     14  O   UNL A   1      46.691  44.792  26.832  1.00  0.00    -0.273 OA
BRANCH  12  15
ATOM     15  C   UNL A   1      45.095  43.546  28.180  1.00  0.00     0.181 C 
ATOM     16  C   UNL A   1      44.885  44.725  29.116  1.00  0.00     0.042 C 
BRANCH  15  17
ATOM     17  N   UNL A   1      46.013  42.515  28.722  1.00  0.00    -0.250 N 
ATOM     18  C   UNL A   1      47.255  42.570  29.407  1.00  0.00     0.328 C 
ATOM     19  C   UNL A   1      45.367  41.366  29.047  1.00  0.00     0.259 C 
ATOM     20  N   UNL A   1      47.482  41.262  30.023  1.00  0.00    -0.307 N 
ATOM     21  O   UNL A   1      47.945  43.555  29.625  1.00  0.00    -0.248 OA
ATOM     22  C   UNL A   1      46.171  40.723  30.080  1.00  0.00     0.147 C 
ATOM     23  O   UNL A   1      44.260  40.974  28.708  1.00  0.00    -0.271 OA
ATOM     24  C   UNL A   1      48.278  40.831  31.305  1.00  0.00     0.127 C 
ATOM     25  C   UNL A   1      45.778  41.351  31.427  1.00  0.00     0.168 C 
ATOM     26  C   UNL A   1      46.265  39.223  29.742  1.00  0.00     0.048 C 
ATOM     27  C   UNL A   1      47.264  40.030  32.537  1.00  0.00     0.055 C 
ATOM     28  C   UNL A   1      45.713  40.251  32.368  1.00  0.00    -0.032 C 
ATOM     29  N   UNL A   1      44.916  42.473  31.820  1.00  0.00    -0.274 NA
ATOM     30  C   UNL A   1      44.529  40.458  33.008  1.00  0.00     0.005 A 
ATOM     31  C   UNL A   1      44.571  41.982  32.994  1.00  0.00     0.066 A 
ATOM     32  C   UNL A   1      43.163  40.328  32.229  1.00  0.00     0.056 A 
ATOM     33  C   UNL A   1      43.622  42.585  33.944  1.00  0.00     0.032 A 
ATOM     34  C   UNL A   1      42.280  41.374  32.380  1.00  0.00     0.119 A 
ATOM     35  C   UNL A   1      42.389  42.196  33.585  1.00  0.00     0.048 A 
BRANCH  34  36
ATOM     36  O   UNL A   1      41.811  42.059  31.256  1.00  0.00    -0.497 OA
ATOM     37  C   UNL A   1      41.126  41.272  30.249  1.00  0.00     0.278 C 
ENDBRANCH  34  36
ENDBRANCH  15  17
ENDBRANCH  12  15
ENDBRANCH   6  11
ENDBRANCH   3   6
ENDBRANCH   1   2
BRANCH   1  38
ATOM     38  C   UNL A   1      46.790  39.114  25.287  1.00  0.00     0.023 C 
BRANCH  38  39
ATOM     39  C   UNL A   1      46.281  38.126  26.340  1.00  0.00     0.023 C 
BRANCH  39  40
ATOM     40  C   UNL A   1      46.929  36.743  26.352  1.00  0.00     0.116 C 
BRANCH  40  41
ATOM     41  N   UNL A   1      46.327  35.796  25.422  1.00  0.00    -0.352 N 
ATOM     42  C   UNL A   1      45.246  34.958  25.565  1.00  0.00     0.251 C 
ATOM     43  H   UNL A   1      46.767  35.749  24.542  1.00  0.00     0.163 HD
ATOM     44  O   UNL A   1      44.948  34.185  24.659  1.00  0.00    -0.269 OA
BRANCH  42  45
ATOM     45  C   UNL A   1      44.469  34.948  26.822  1.00  0.00     0.039 A 
ATOM     46  C   UNL A   1      43.521  35.933  27.089  1.00  0.00     0.014 A 
ATOM     47  C   UNL A   1      44.713  33.938  27.760  1.00  0.00     0.014 A 
ATOM     48  C   UNL A   1      42.969  36.026  28.361  1.00  0.00     0.010 A 
ATOM     49  C   UNL A   1      44.085  33.981  29.009  1.00  0.00     0.010 A 
ATOM     50  C   UNL A   1      43.255  35.062  29.343  1.00  0.00    -0.014 A 
BRANCH  50  51
ATOM     51  C   UNL A   1      42.683  35.231  30.704  1.00  0.00     0.031 A 
ATOM     52  C   UNL A   1      41.314  34.702  31.043  1.00  0.00     0.074 A 
ATOM     53  C   UNL A   1      43.446  35.782  31.667  1.00  0.00     0.049 A 
ATOM     54  N   UNL A   1      40.716  34.648  32.208  1.00  0.00    -0.248 NA
ATOM     55  C   UNL A   1      40.506  34.171  29.934  1.00  0.00     0.031 C 
ATOM     56  C   UNL A   1      44.784  36.342  31.462  1.00  0.00     0.029 A 
ATOM     57  N   UNL A   1      43.232  35.917  33.014  1.00  0.00    -0.354 N 
ATOM     58  C   UNL A   1      39.460  34.102  31.970  1.00  0.00     0.074 A 
ATOM     59  C   UNL A   1      39.370  33.864  30.546  1.00  0.00     0.031 C 
ATOM     60  C   UNL A   1      45.304  36.681  32.651  1.00  0.00     0.029 A 
ATOM     61  C   UNL A   1      44.320  36.410  33.693  1.00  0.00     0.049 A 
ATOM     62  H   UNL A   1      42.381  35.683  33.452  1.00  0.00     0.167 HD
ATOM     63  C   UNL A   1      38.476  33.816  32.856  1.00  0.00     0.037 A 
ATOM     64  C   UNL A   1      44.510  36.609  35.010  1.00  0.00     0.037 A 
ATOM     65  C   UNL A   1      38.574  34.023  34.278  1.00  0.00     0.049 A 
ATOM     66  C   UNL A   1      43.407  36.272  35.970  1.00  0.00     0.074 A 
ATOM     67  C   UNL A   1      37.643  33.733  35.262  1.00  0.00     0.029 A 
ATOM     68  N   UNL A   1      39.674  34.571  34.921  1.00  0.00    -0.354 N 
ATOM     69  N   UNL A   1      42.238  35.732  35.730  1.00  0.00    -0.248 NA
ATOM     70  C   UNL A   1      43.653  36.580  37.385  1.00  0.00     0.031 C 
ATOM     71  C   UNL A   1      38.168  34.135  36.496  1.00  0.00     0.029 A 
ATOM     72  C   UNL A   1      39.440  34.640  36.286  1.00  0.00     0.049 A 
ATOM     73  H   UNL A   1      40.501  34.865  34.474  1.00  0.00     0.167 HD
ATOM     74  C   UNL A   1      41.612  35.623  36.964  1.00  0.00     0.074 A 
ATOM     75  C   UNL A   1      42.543  36.130  37.952  1.00  0.00     0.031 C 
ATOM     76  C   UNL A   1      40.376  35.150  37.254  1.00  0.00     0.037 A 
BRANCH  63  77
ATOM     77  C   UNL A   1      37.194  33.258  32.308  1.00  0.00     0.057 A 
ATOM     78  C   UNL A   1      37.103  31.908  31.946  1.00  0.00     0.134 A 
ATOM     79  C   UNL A   1      36.061  34.057  32.111  1.00  0.00     0.134 A 
ATOM     80  F   UNL A   1      38.154  31.088  32.103  1.00  0.00    -0.206 F 
ATOM     81  C   UNL A   1      35.930  31.373  31.408  1.00  0.00     0.040 A 
ATOM     82  C   UNL A   1      34.875  33.529  31.594  1.00  0.00     0.040 A 
ATOM     83  F   UNL A   1      36.078  35.355  32.450  1.00  0.00    -0.206 F 
ATOM     84  C   UNL A   1      34.811  32.183  31.237  1.00  0.00     0.006 A 
ENDBRANCH  63  77
BRANCH  64  85
ATOM     85  C   UNL A   1      45.809  37.128  35.501  1.00  0.00     0.057 A 
ATOM     86  C   UNL A   1      45.981  38.476  35.833  1.00  0.00     0.134 A 
ATOM     87  C   UNL A   1      46.912  36.277  35.652  1.00  0.00     0.134 A 
ATOM     88  F   UNL A   1      44.962  39.338  35.704  1.00  0.00    -0.206 F 
ATOM     89  C   UNL A   1      47.204  38.964  36.289  1.00  0.00     0.040 A 
ATOM     90  C   UNL A   1      48.135  36.748  36.130  1.00  0.00     0.040 A 
ATOM     91  F   UNL A   1      46.803  34.972  35.366  1.00  0.00    -0.206 F 
ATOM     92  C   UNL A   1      48.284  38.098  36.446  1.00  0.00     0.006 A 
ENDBRANCH  64  85
BRANCH  76  93
ATOM     93  C   UNL A   1      39.981  35.144  38.699  1.00  0.00     0.057 A 
ATOM     94  C   UNL A   1      39.376  36.265  39.278  1.00  0.00     0.134 A 
ATOM     95  C   UNL A   1      40.185  34.023  39.513  1.00  0.00     0.134 A 
ATOM     96  F   UNL A   1      39.156  37.372  38.554  1.00  0.00    -0.206 F 
ATOM     97  C   UNL A   1      38.980  36.268  40.617  1.00  0.00     0.040 A 
ATOM     98  C   UNL A   1      39.772  34.005  40.846  1.00  0.00     0.040 A 
ATOM     99  F   UNL A   1      40.744  32.910  39.011  1.00  0.00    -0.206 F 
ATOM    100  C   UNL A   1      39.168  35.132  41.401  1.00  0.00     0.006 A 
ENDBRANCH  76  93
ENDBRANCH  50  51
ENDBRANCH  42  45
ENDBRANCH  40  41
ENDBRANCH  39  40
ENDBRANCH  38  39
ENDBRANCH   1  38
TORSDOF 17
ENDMDL
MODEL 3
REMARK VINA RESULT:      -9.5      6.812     11.909
REMARK SMILES CC[C@@H](C)[C@H](NC(=O)[C@H](C)N1C(=O)N2CCC3=c4cc(OC)ccc4=N[C@@H]3[C@@]2(C)C1=O)C(=O)NCCCCNC(=O)c1ccc(-c2c3nc(c(-c4c(F)cccc4F)c4ccc([nH]4)c(-c4c(F)cccc4F)c4nc(c(-c5c(F)cccc5F)c5ccc2[nH]5)C=C4)C=C3)cc1
REMARK SMILES IDX 35 1 34 2 32 3 33 4 5 6 3 7 4 8 2 9 1 10 6 11 7 12 8 14 9 15
REMARK SMILES IDX 10 16 11 17 12 18 30 19 14 20 13 21 28 22 31 23 15 24 27 25
REMARK SMILES IDX 29 26 16 27 17 28 26 29 18 30 25 31 19 32 24 33 20 34 23 35
REMARK SMILES IDX 21 36 22 37 36 38 37 39 38 40 39 41 40 42 41 44 42 45 43 46
REMARK SMILES IDX 95 47 44 48 94 49 45 50 46 51 47 52 88 53 48 54 93 55 87 56
REMARK SMILES IDX 89 57 49 58 92 59 86 60 85 61 50 63 76 64 59 65 75 66 60 67
REMARK SMILES IDX 63 68 74 69 90 70 61 71 62 72 73 74 91 75 64 76 51 77 52 78
REMARK SMILES IDX 57 79 53 80 54 81 56 82 58 83 55 84 77 85 78 86 83 87 79 88
REMARK SMILES IDX 80 89 82 90 84 91 81 92 65 93 66 94 71 95 67 96 68 97 70 98
REMARK SMILES IDX 72 99 69 100
REMARK H PARENT 34 5 6 13 39 43 89 62 63 73
REMARK Flexibility Score: inf
ROOT
ATOM      1  C   UNL A   1      34.103  28.460  26.875  1.00  0.00     0.116 C 
ENDROOT
BRANCH   1   2
ATOM      2  N   UNL A   1      32.781  28.007  27.205  1.00  0.00    -0.354 N 
ATOM      3  C   UNL A   1      31.884  27.346  26.431  1.00  0.00     0.242 C 
ATOM      4  O   UNL A   1      31.205  26.522  27.063  1.00  0.00    -0.273 OA
ATOM      5  H   UNL A   1      32.484  28.204  28.123  1.00  0.00     0.163 HD
BRANCH   3   6
ATOM      6  C   UNL A   1      31.878  27.321  24.858  1.00  0.00     0.174 C 
BRANCH   6   7
ATOM      7  C   UNL A   1      31.974  28.832  24.426  1.00  0.00     0.018 C 
ATOM      8  C   UNL A   1      30.615  29.469  24.121  1.00  0.00     0.010 C 
BRANCH   7   9
ATOM      9  C   UNL A   1      32.992  29.024  23.287  1.00  0.00     0.002 C 
ATOM     10  C   UNL A   1      33.999  27.882  23.176  1.00  0.00     0.004 C 
ENDBRANCH   7   9
ENDBRANCH   6   7
BRANCH   6  11
ATOM     11  N   UNL A   1      30.881  26.555  24.070  1.00  0.00    -0.342 N 
ATOM     12  C   UNL A   1      30.903  25.465  23.236  1.00  0.00     0.243 C 
ATOM     13  H   UNL A   1      29.973  26.922  24.172  1.00  0.00     0.164 HD
ATOM     14  O   UNL A   1      29.790  25.105  22.824  1.00  0.00    -0.273 OA
BRANCH  12  15
ATOM     15  C   UNL A   1      32.174  24.625  22.842  1.00  0.00     0.181 C 
ATOM     16  C   UNL A   1      32.451  24.817  21.360  1.00  0.00     0.042 C 
BRANCH  15  17
ATOM     17  N   UNL A   1      31.947  23.211  23.223  1.00  0.00    -0.250 N 
ATOM     18  C   UNL A   1      31.989  21.983  22.512  1.00  0.00     0.328 C 
ATOM     19  C   UNL A   1      32.203  22.981  24.537  1.00  0.00     0.259 C 
ATOM     20  N   UNL A   1      32.060  20.901  23.494  1.00  0.00    -0.307 N 
ATOM     21  O   UNL A   1      32.132  21.822  21.308  1.00  0.00    -0.248 OA
ATOM     22  C   UNL A   1      32.550  21.569  24.645  1.00  0.00     0.147 C 
ATOM     23  O   UNL A   1      32.304  23.776  25.460  1.00  0.00    -0.271 OA
ATOM     24  C   UNL A   1      32.680  19.461  23.424  1.00  0.00     0.127 C 
ATOM     25  C   UNL A   1      34.044  21.435  24.308  1.00  0.00     0.168 C 
ATOM     26  C   UNL A   1      31.815  20.993  25.871  1.00  0.00     0.048 C 
ATOM     27  C   UNL A   1      33.968  19.181  24.628  1.00  0.00     0.055 C 
ATOM     28  C   UNL A   1      34.578  20.487  25.265  1.00  0.00    -0.032 C 
ATOM     29  N   UNL A   1      35.068  22.362  23.810  1.00  0.00    -0.274 NA
ATOM     30  C   UNL A   1      35.710  21.099  25.710  1.00  0.00     0.005 A 
ATOM     31  C   UNL A   1      36.091  21.772  24.396  1.00  0.00     0.066 A 
ATOM     32  C   UNL A   1      35.623  22.431  26.553  1.00  0.00     0.056 A 
ATOM     33  C   UNL A   1      37.488  22.234  24.379  1.00  0.00     0.032 A 
ATOM     34  C   UNL A   1      36.429  23.465  26.132  1.00  0.00     0.119 A 
ATOM     35  C   UNL A   1      37.629  23.132  25.366  1.00  0.00     0.048 A 
BRANCH  34  36
ATOM     36  O   UNL A   1      35.866  24.703  25.813  1.00  0.00    -0.497 OA
ATOM     37  C   UNL A   1      34.472  24.898  26.159  1.00  0.00     0.278 C 
ENDBRANCH  34  36
ENDBRANCH  15  17
ENDBRANCH  12  15
ENDBRANCH   6  11
ENDBRANCH   3   6
ENDBRANCH   1   2
BRANCH   1  38
ATOM     38  C   UNL A   1      34.455  29.789  27.524  1.00  0.00     0.023 C 
BRANCH  38  39
ATOM     39  C   UNL A   1      33.852  31.032  26.866  1.00  0.00     0.023 C 
BRANCH  39  40
ATOM     40  C   UNL A   1      32.452  31.440  27.323  1.00  0.00     0.116 C 
BRANCH  40  41
ATOM     41  N   UNL A   1      32.256  32.880  27.426  1.00  0.00    -0.352 N 
ATOM     42  C   UNL A   1      32.995  33.846  28.067  1.00  0.00     0.251 C 
ATOM     43  H   UNL A   1      31.459  33.219  26.956  1.00  0.00     0.163 HD
ATOM     44  O   UNL A   1      32.604  35.008  28.077  1.00  0.00    -0.269 OA
BRANCH  42  45
ATOM     45  C   UNL A   1      34.235  33.483  28.784  1.00  0.00     0.039 A 
ATOM     46  C   UNL A   1      35.486  33.846  28.287  1.00  0.00     0.014 A 
ATOM     47  C   UNL A   1      34.141  32.747  29.971  1.00  0.00     0.014 A 
ATOM     48  C   UNL A   1      36.632  33.307  28.858  1.00  0.00     0.010 A 
ATOM     49  C   UNL A   1      35.302  32.283  30.598  1.00  0.00     0.010 A 
ATOM     50  C   UNL A   1      36.555  32.506  30.010  1.00  0.00    -0.014 A 
BRANCH  50  51
ATOM     51  C   UNL A   1      37.803  31.910  30.555  1.00  0.00     0.031 A 
ATOM     52  C   UNL A   1      38.280  32.239  31.945  1.00  0.00     0.074 A 
ATOM     53  C   UNL A   1      38.458  30.989  29.822  1.00  0.00     0.049 A 
ATOM     54  N   UNL A   1      39.271  31.713  32.623  1.00  0.00    -0.248 NA
ATOM     55  C   UNL A   1      37.560  33.299  32.669  1.00  0.00     0.031 C 
ATOM     56  C   UNL A   1      38.103  30.592  28.457  1.00  0.00     0.029 A 
ATOM     57  N   UNL A   1      39.524  30.186  30.135  1.00  0.00    -0.354 N 
ATOM     58  C   UNL A   1      39.307  32.391  33.837  1.00  0.00     0.074 A 
ATOM     59  C   UNL A   1      38.256  33.383  33.794  1.00  0.00     0.031 C 
ATOM     60  C   UNL A   1      38.879  29.564  28.084  1.00  0.00     0.029 A 
ATOM     61  C   UNL A   1      39.818  29.264  29.160  1.00  0.00     0.049 A 
ATOM     62  H   UNL A   1      40.030  30.262  30.977  1.00  0.00     0.167 HD
ATOM     63  C   UNL A   1      40.133  32.197  34.893  1.00  0.00     0.037 A 
ATOM     64  C   UNL A   1      40.732  28.278  29.138  1.00  0.00     0.037 A 
ATOM     65  C   UNL A   1      41.161  31.190  34.951  1.00  0.00     0.049 A 
ATOM     66  C   UNL A   1      41.626  28.079  30.327  1.00  0.00     0.074 A 
ATOM     67  C   UNL A   1      42.026  30.895  35.991  1.00  0.00     0.029 A 
ATOM     68  N   UNL A   1      41.459  30.309  33.923  1.00  0.00    -0.354 N 
ATOM     69  N   UNL A   1      41.628  28.710  31.475  1.00  0.00    -0.248 NA
ATOM     70  C   UNL A   1      42.649  27.031  30.211  1.00  0.00     0.031 C 
ATOM     71  C   UNL A   1      42.870  29.855  35.580  1.00  0.00     0.029 A 
ATOM     72  C   UNL A   1      42.505  29.479  34.298  1.00  0.00     0.049 A 
ATOM     73  H   UNL A   1      40.996  30.276  33.055  1.00  0.00     0.167 HD
ATOM     74  C   UNL A   1      42.642  28.129  32.224  1.00  0.00     0.074 A 
ATOM     75  C   UNL A   1      43.216  27.078  31.407  1.00  0.00     0.031 C 
ATOM     76  C   UNL A   1      43.064  28.440  33.473  1.00  0.00     0.037 A 
BRANCH  63  77
ATOM     77  C   UNL A   1      39.968  33.109  36.075  1.00  0.00     0.057 A 
ATOM     78  C   UNL A   1      40.714  34.291  36.172  1.00  0.00     0.134 A 
ATOM     79  C   UNL A   1      39.096  32.808  37.129  1.00  0.00     0.134 A 
ATOM     80  F   UNL A   1      41.572  34.636  35.201  1.00  0.00    -0.206 F 
ATOM     81  C   UNL A   1      40.598  35.140  37.275  1.00  0.00     0.040 A 
ATOM     82  C   UNL A   1      38.955  33.660  38.227  1.00  0.00     0.040 A 
ATOM     83  F   UNL A   1      38.342  31.698  37.091  1.00  0.00    -0.206 F 
ATOM     84  C   UNL A   1      39.712  34.828  38.303  1.00  0.00     0.006 A 
ENDBRANCH  63  77
BRANCH  64  85
ATOM     85  C   UNL A   1      40.828  27.382  27.961  1.00  0.00     0.057 A 
ATOM     86  C   UNL A   1      41.622  27.708  26.856  1.00  0.00     0.134 A 
ATOM     87  C   UNL A   1      40.125  26.171  27.919  1.00  0.00     0.134 A 
ATOM     88  F   UNL A   1      42.313  28.856  26.836  1.00  0.00    -0.206 F 
ATOM     89  C   UNL A   1      41.707  26.868  25.746  1.00  0.00     0.040 A 
ATOM     90  C   UNL A   1      40.220  25.310  26.825  1.00  0.00     0.040 A 
ATOM     91  F   UNL A   1      39.362  25.797  28.957  1.00  0.00    -0.206 F 
ATOM     92  C   UNL A   1      41.010  25.662  25.732  1.00  0.00     0.006 A 
ENDBRANCH  64  85
BRANCH  76  93
ATOM     93  C   UNL A   1      44.184  27.614  34.029  1.00  0.00     0.057 A 
ATOM     94  C   UNL A   1      45.513  28.037  33.902  1.00  0.00     0.134 A 
ATOM     95  C   UNL A   1      43.947  26.409  34.701  1.00  0.00     0.134 A 
ATOM     96  F   UNL A   1      45.808  29.179  33.265  1.00  0.00    -0.206 F 
ATOM     97  C   UNL A   1      46.566  27.291  34.435  1.00  0.00     0.040 A 
ATOM     98  C   UNL A   1      44.989  25.669  35.259  1.00  0.00     0.040 A 
ATOM     99  F   UNL A   1      42.692  25.961  34.871  1.00  0.00    -0.206 F 
ATOM    100  C   UNL A   1      46.305  26.110  35.124  1.00  0.00     0.006 A 
ENDBRANCH  76  93
ENDBRANCH  50  51
ENDBRANCH  42  45
ENDBRANCH  40  41
ENDBRANCH  39  40
ENDBRANCH  38  39
ENDBRANCH   1  38
TORSDOF 17
ENDMDL
