MODEL 1
REMARK VINA RESULT:     -11.0      0.000      0.000
REMARK SMILES C[C@H]1CN(C(=O)C[N@H+]2CCO[C@H](CC(=O)NCCCCNC(=O)c3ccc(-c4c5nc(c(-c6c(F)cccc6F)c6ccc([nH]6)c(-c6c(F)cccc6F)c6nc(c(-c7c(F)cccc7F)c7ccc4[nH]7)C=C6)C=C5)cc3)C2)CCO1
REMARK SMILES IDX 17 1 16 2 14 3 15 4 13 6 12 7 8 8 9 9 78 10 10 12 11 13 7 14
REMARK SMILES IDX 5 15 6 16 4 17 1 18 2 19 3 20 81 21 80 22 79 23 18 24 19 25
REMARK SMILES IDX 20 26 21 27 22 28 23 30 24 31 25 32 77 33 26 34 76 35 27 36
REMARK SMILES IDX 28 37 29 38 70 39 30 40 75 41 69 42 71 43 31 44 74 45 68 46
REMARK SMILES IDX 67 47 32 49 58 50 41 51 57 52 42 53 45 54 56 55 72 56 43 57
REMARK SMILES IDX 44 58 55 60 73 61 46 62 33 63 34 64 39 65 35 66 36 67 38 68
REMARK SMILES IDX 40 69 37 70 59 71 60 72 65 73 61 74 62 75 64 76 66 77 63 78
REMARK SMILES IDX 47 79 48 80 53 81 49 82 50 83 52 84 54 85 51 86
REMARK H PARENT 16 5 8 11 21 29 71 48 45 59
REMARK Flexibility Score: inf
ROOT
ATOM      1  C   UNL A   1      35.673  21.482  25.683  1.00  0.00     0.116 C 
ENDROOT
BRANCH   1   2
ATOM      2  N   UNL A   1      34.749  20.363  25.728  1.00  0.00    -0.356 N 
ATOM      3  C   UNL A   1      33.587  20.147  25.051  1.00  0.00     0.222 C 
ATOM      4  O   UNL A   1      32.980  19.097  25.277  1.00  0.00    -0.275 OA
ATOM      5  H   UNL A   1      35.005  19.643  26.348  1.00  0.00     0.163 HD
BRANCH   3   6
ATOM      6  C   UNL A   1      33.068  21.126  24.017  1.00  0.00     0.138 C 
BRANCH   6   7
ATOM      7  C   UNL A   1      32.235  22.251  24.625  1.00  0.00     0.182 C 
ATOM      8  N   UNL A   1      32.098  24.738  25.116  1.00  0.00    -0.323 N 
ATOM      9  C   UNL A   1      31.944  24.333  26.522  1.00  0.00     0.291 C 
ATOM     10  C   UNL A   1      32.803  23.670  24.363  1.00  0.00     0.295 C 
ATOM     11  H   UNL A   1      32.679  25.578  25.101  1.00  0.00     0.348 HD
ATOM     12  C   UNL A   1      31.390  22.931  26.729  1.00  0.00     0.222 C 
ATOM     13  O   UNL A   1      32.191  21.983  26.041  1.00  0.00    -0.366 OA
BRANCH   8  14
ATOM     14  C   UNL A   1      30.848  25.193  24.470  1.00  0.00     0.363 C 
BRANCH  14  15
ATOM     15  C   UNL A   1      31.180  26.303  23.441  1.00  0.00     0.277 C 
ATOM     16  O   UNL A   1      31.402  26.000  22.265  1.00  0.00    -0.268 OA
BRANCH  15  17
ATOM     17  N   UNL A   1      31.243  27.625  23.875  1.00  0.00    -0.333 N 
ATOM     18  C   UNL A   1      32.949  28.591  27.116  1.00  0.00     0.040 C 
ATOM     19  C   UNL A   1      32.761  28.265  25.642  1.00  0.00     0.134 C 
ATOM     20  C   UNL A   1      31.282  28.057  25.268  1.00  0.00     0.151 C 
ATOM     21  O   UNL A   1      33.293  29.337  24.834  1.00  0.00    -0.375 OA
ATOM     22  C   UNL A   1      33.212  29.014  23.425  1.00  0.00     0.182 C 
ATOM     23  C   UNL A   1      31.778  28.655  22.983  1.00  0.00     0.148 C 
ENDBRANCH  15  17
ENDBRANCH  14  15
ENDBRANCH   8  14
ENDBRANCH   6   7
ENDBRANCH   3   6
ENDBRANCH   1   2
BRANCH   1  24
ATOM     24  C   UNL A   1      36.786  21.266  24.653  1.00  0.00     0.023 C 
BRANCH  24  25
ATOM     25  C   UNL A   1      37.728  20.105  24.961  1.00  0.00     0.023 C 
BRANCH  25  26
ATOM     26  C   UNL A   1      38.966  20.491  25.754  1.00  0.00     0.116 C 
BRANCH  26  27
ATOM     27  N   UNL A   1      39.971  19.439  25.782  1.00  0.00    -0.352 N 
ATOM     28  C   UNL A   1      41.305  19.531  26.115  1.00  0.00     0.251 C 
ATOM     29  H   UNL A   1      39.656  18.542  25.529  1.00  0.00     0.163 HD
ATOM     30  O   UNL A   1      42.052  18.583  25.963  1.00  0.00    -0.269 OA
BRANCH  28  31
ATOM     31  C   UNL A   1      41.822  20.821  26.623  1.00  0.00     0.039 A 
ATOM     32  C   UNL A   1      42.332  21.749  25.712  1.00  0.00     0.014 A 
ATOM     33  C   UNL A   1      41.748  21.128  27.984  1.00  0.00     0.014 A 
ATOM     34  C   UNL A   1      42.695  23.020  26.158  1.00  0.00     0.010 A 
ATOM     35  C   UNL A   1      42.034  22.419  28.412  1.00  0.00     0.010 A 
ATOM     36  C   UNL A   1      42.507  23.377  27.504  1.00  0.00    -0.014 A 
BRANCH  36  37
ATOM     37  C   UNL A   1      42.791  24.750  27.987  1.00  0.00     0.031 A 
ATOM     38  C   UNL A   1      44.189  25.135  28.376  1.00  0.00     0.074 A 
ATOM     39  C   UNL A   1      41.777  25.623  28.151  1.00  0.00     0.049 A 
ATOM     40  N   UNL A   1      44.622  26.249  28.908  1.00  0.00    -0.248 NA
ATOM     41  C   UNL A   1      45.235  24.122  28.166  1.00  0.00     0.031 C 
ATOM     42  C   UNL A   1      40.369  25.353  27.854  1.00  0.00     0.029 A 
ATOM     43  N   UNL A   1      41.775  26.911  28.623  1.00  0.00    -0.354 N 
ATOM     44  C   UNL A   1      45.984  26.065  29.110  1.00  0.00     0.074 A 
ATOM     45  C   UNL A   1      46.295  24.713  28.695  1.00  0.00     0.031 C 
ATOM     46  C   UNL A   1      39.644  26.450  28.127  1.00  0.00     0.029 A 
ATOM     47  C   UNL A   1      40.527  27.484  28.655  1.00  0.00     0.049 A 
ATOM     48  H   UNL A   1      42.591  27.380  28.911  1.00  0.00     0.167 HD
ATOM     49  C   UNL A   1      46.898  26.948  29.575  1.00  0.00     0.037 A 
ATOM     50  C   UNL A   1      40.139  28.704  29.071  1.00  0.00     0.037 A 
ATOM     51  C   UNL A   1      46.590  28.299  29.964  1.00  0.00     0.049 A 
ATOM     52  C   UNL A   1      41.170  29.663  29.597  1.00  0.00     0.074 A 
ATOM     53  C   UNL A   1      47.454  29.290  30.395  1.00  0.00     0.029 A 
ATOM     54  N   UNL A   1      45.316  28.847  29.970  1.00  0.00    -0.354 N 
ATOM     55  N   UNL A   1      42.464  29.497  29.725  1.00  0.00    -0.248 NA
ATOM     56  C   UNL A   1      40.687  30.979  30.036  1.00  0.00     0.031 C 
ATOM     57  C   UNL A   1      46.697  30.427  30.698  1.00  0.00     0.029 A 
ATOM     58  C   UNL A   1      45.368  30.157  30.415  1.00  0.00     0.049 A 
ATOM     59  H   UNL A   1      44.496  28.374  29.698  1.00  0.00     0.167 HD
ATOM     60  C   UNL A   1      42.953  30.693  30.231  1.00  0.00     0.074 A 
ATOM     61  C   UNL A   1      41.818  31.581  30.377  1.00  0.00     0.031 C 
ATOM     62  C   UNL A   1      44.228  31.028  30.546  1.00  0.00     0.037 A 
BRANCH  49  63
ATOM     63  C   UNL A   1      48.318  26.477  29.681  1.00  0.00     0.057 A 
ATOM     64  C   UNL A   1      49.244  26.691  28.651  1.00  0.00     0.134 A 
ATOM     65  C   UNL A   1      48.773  25.821  30.831  1.00  0.00     0.134 A 
ATOM     66  F   UNL A   1      48.870  27.302  27.516  1.00  0.00    -0.206 F 
ATOM     67  C   UNL A   1      50.562  26.242  28.748  1.00  0.00     0.040 A 
ATOM     68  C   UNL A   1      50.096  25.392  30.952  1.00  0.00     0.040 A 
ATOM     69  F   UNL A   1      47.940  25.588  31.857  1.00  0.00    -0.206 F 
ATOM     70  C   UNL A   1      50.993  25.596  29.905  1.00  0.00     0.006 A 
ENDBRANCH  49  63
BRANCH  50  71
ATOM     71  C   UNL A   1      38.712  29.101  28.982  1.00  0.00     0.057 A 
ATOM     72  C   UNL A   1      37.867  28.996  30.093  1.00  0.00     0.134 A 
ATOM     73  C   UNL A   1      38.157  29.588  27.792  1.00  0.00     0.134 A 
ATOM     74  F   UNL A   1      38.336  28.519  31.255  1.00  0.00    -0.206 F 
ATOM     75  C   UNL A   1      36.517  29.344  30.020  1.00  0.00     0.040 A 
ATOM     76  C   UNL A   1      36.815  29.962  27.712  1.00  0.00     0.040 A 
ATOM     77  F   UNL A   1      38.917  29.720  26.695  1.00  0.00    -0.206 F 
ATOM     78  C   UNL A   1      35.989  29.833  28.827  1.00  0.00     0.006 A 
ENDBRANCH  50  71
BRANCH  62  79
ATOM     79  C   UNL A   1      44.468  32.422  31.045  1.00  0.00     0.057 A 
ATOM     80  C   UNL A   1      44.471  32.727  32.412  1.00  0.00     0.134 A 
ATOM     81  C   UNL A   1      44.741  33.462  30.148  1.00  0.00     0.134 A 
ATOM     82  F   UNL A   1      44.202  31.777  33.321  1.00  0.00    -0.206 F 
ATOM     83  C   UNL A   1      44.719  34.022  32.868  1.00  0.00     0.040 A 
ATOM     84  C   UNL A   1      45.016  34.756  30.593  1.00  0.00     0.040 A 
ATOM     85  F   UNL A   1      44.761  33.234  28.826  1.00  0.00    -0.206 F 
ATOM     86  C   UNL A   1      45.001  35.039  31.957  1.00  0.00     0.006 A 
ENDBRANCH  62  79
ENDBRANCH  36  37
ENDBRANCH  28  31
ENDBRANCH  26  27
ENDBRANCH  25  26
ENDBRANCH  24  25
ENDBRANCH   1  24
TORSDOF 15
ENDMDL
MODEL 2
REMARK VINA RESULT:     -11.0      0.993      2.072
REMARK SMILES C[C@H]1CN(C(=O)C[N@H+]2CCO[C@H](CC(=O)NCCCCNC(=O)c3ccc(-c4c5nc(c(-c6c(F)cccc6F)c6ccc([nH]6)c(-c6c(F)cccc6F)c6nc(c(-c7c(F)cccc7F)c7ccc4[nH]7)C=C6)C=C5)cc3)C2)CCO1
REMARK SMILES IDX 17 1 16 2 14 3 15 4 13 6 12 7 8 8 9 9 78 10 10 12 11 13 7 14
REMARK SMILES IDX 5 15 6 16 4 17 1 18 2 19 3 20 81 21 80 22 79 23 18 24 19 25
REMARK SMILES IDX 20 26 21 27 22 28 23 30 24 31 25 32 77 33 26 34 76 35 27 36
REMARK SMILES IDX 28 37 29 38 70 39 30 40 75 41 69 42 71 43 31 44 74 45 68 46
REMARK SMILES IDX 67 47 32 49 58 50 41 51 57 52 42 53 45 54 56 55 72 56 43 57
REMARK SMILES IDX 44 58 55 60 73 61 46 62 33 63 34 64 39 65 35 66 36 67 38 68
REMARK SMILES IDX 40 69 37 70 59 71 60 72 65 73 61 74 62 75 64 76 66 77 63 78
REMARK SMILES IDX 47 79 48 80 53 81 49 82 50 83 52 84 54 85 51 86
REMARK H PARENT 16 5 8 11 21 29 71 48 45 59
REMARK Flexibility Score: inf
ROOT
ATOM      1  C   UNL A   1      35.594  21.363  25.202  1.00  0.00     0.116 C 
ENDROOT
BRANCH   1   2
ATOM      2  N   UNL A   1      35.256  21.919  23.904  1.00  0.00    -0.356 N 
ATOM      3  C   UNL A   1      34.749  23.137  23.568  1.00  0.00     0.222 C 
ATOM      4  O   UNL A   1      34.547  23.363  22.372  1.00  0.00    -0.275 OA
ATOM      5  H   UNL A   1      35.420  21.317  23.143  1.00  0.00     0.163 HD
BRANCH   3   6
ATOM      6  C   UNL A   1      34.486  24.209  24.607  1.00  0.00     0.138 C 
BRANCH   6   7
ATOM      7  C   UNL A   1      33.002  24.383  24.921  1.00  0.00     0.182 C 
ATOM      8  N   UNL A   1      31.292  25.217  26.602  1.00  0.00    -0.323 N 
ATOM      9  C   UNL A   1      30.769  23.842  26.576  1.00  0.00     0.291 C 
ATOM     10  C   UNL A   1      32.720  25.216  26.199  1.00  0.00     0.295 C 
ATOM     11  H   UNL A   1      31.230  25.551  27.565  1.00  0.00     0.348 HD
ATOM     12  C   UNL A   1      31.075  23.062  25.306  1.00  0.00     0.222 C 
ATOM     13  O   UNL A   1      32.474  23.050  25.067  1.00  0.00    -0.366 OA
BRANCH   8  14
ATOM     14  C   UNL A   1      30.468  26.198  25.863  1.00  0.00     0.363 C 
BRANCH  14  15
ATOM     15  C   UNL A   1      31.225  27.548  25.788  1.00  0.00     0.277 C 
ATOM     16  O   UNL A   1      31.606  28.095  26.828  1.00  0.00    -0.268 OA
BRANCH  15  17
ATOM     17  N   UNL A   1      31.441  28.129  24.541  1.00  0.00    -0.333 N 
ATOM     18  C   UNL A   1      32.311  26.060  21.490  1.00  0.00     0.040 C 
ATOM     19  C   UNL A   1      31.475  26.770  22.544  1.00  0.00     0.134 C 
ATOM     20  C   UNL A   1      32.332  27.609  23.509  1.00  0.00     0.151 C 
ATOM     21  O   UNL A   1      30.519  27.641  21.902  1.00  0.00    -0.375 OA
ATOM     22  C   UNL A   1      29.646  28.260  22.876  1.00  0.00     0.182 C 
ATOM     23  C   UNL A   1      30.427  29.018  23.971  1.00  0.00     0.148 C 
ENDBRANCH  15  17
ENDBRANCH  14  15
ENDBRANCH   8  14
ENDBRANCH   6   7
ENDBRANCH   3   6
ENDBRANCH   1   2
BRANCH   1  24
ATOM     24  C   UNL A   1      36.439  20.091  25.078  1.00  0.00     0.023 C 
BRANCH  24  25
ATOM     25  C   UNL A   1      37.882  20.320  24.634  1.00  0.00     0.023 C 
BRANCH  25  26
ATOM     26  C   UNL A   1      38.873  20.491  25.774  1.00  0.00     0.116 C 
BRANCH  26  27
ATOM     27  N   UNL A   1      39.862  19.427  25.829  1.00  0.00    -0.352 N 
ATOM     28  C   UNL A   1      41.197  19.507  26.163  1.00  0.00     0.251 C 
ATOM     29  H   UNL A   1      39.535  18.528  25.595  1.00  0.00     0.163 HD
ATOM     30  O   UNL A   1      41.930  18.545  26.034  1.00  0.00    -0.269 OA
BRANCH  28  31
ATOM     31  C   UNL A   1      41.731  20.800  26.643  1.00  0.00     0.039 A 
ATOM     32  C   UNL A   1      42.194  21.728  25.706  1.00  0.00     0.014 A 
ATOM     33  C   UNL A   1      41.720  21.112  28.004  1.00  0.00     0.014 A 
ATOM     34  C   UNL A   1      42.572  23.002  26.131  1.00  0.00     0.010 A 
ATOM     35  C   UNL A   1      42.019  22.405  28.416  1.00  0.00     0.010 A 
ATOM     36  C   UNL A   1      42.445  23.362  27.483  1.00  0.00    -0.014 A 
BRANCH  36  37
ATOM     37  C   UNL A   1      42.745  24.738  27.949  1.00  0.00     0.031 A 
ATOM     38  C   UNL A   1      44.156  25.126  28.286  1.00  0.00     0.074 A 
ATOM     39  C   UNL A   1      41.737  25.611  28.144  1.00  0.00     0.049 A 
ATOM     40  N   UNL A   1      44.607  26.243  28.796  1.00  0.00    -0.248 NA
ATOM     41  C   UNL A   1      45.194  24.111  28.044  1.00  0.00     0.031 C 
ATOM     42  C   UNL A   1      40.319  25.339  27.898  1.00  0.00     0.029 A 
ATOM     43  N   UNL A   1      41.751  26.902  28.609  1.00  0.00    -0.354 N 
ATOM     44  C   UNL A   1      45.975  26.060  28.951  1.00  0.00     0.074 A 
ATOM     45  C   UNL A   1      46.272  24.706  28.533  1.00  0.00     0.031 C 
ATOM     46  C   UNL A   1      39.604  26.437  28.191  1.00  0.00     0.029 A 
ATOM     47  C   UNL A   1      40.505  27.474  28.682  1.00  0.00     0.049 A 
ATOM     48  H   UNL A   1      42.577  27.373  28.865  1.00  0.00     0.167 HD
ATOM     49  C   UNL A   1      46.904  26.946  29.379  1.00  0.00     0.037 A 
ATOM     50  C   UNL A   1      40.131  28.697  29.105  1.00  0.00     0.037 A 
ATOM     51  C   UNL A   1      46.610  28.299  29.771  1.00  0.00     0.049 A 
ATOM     52  C   UNL A   1      41.179  29.658  29.590  1.00  0.00     0.074 A 
ATOM     53  C   UNL A   1      47.487  29.293  30.166  1.00  0.00     0.029 A 
ATOM     54  N   UNL A   1      45.337  28.846  29.820  1.00  0.00    -0.354 N 
ATOM     55  N   UNL A   1      42.477  29.494  29.672  1.00  0.00    -0.248 NA
ATOM     56  C   UNL A   1      40.711  30.977  30.039  1.00  0.00     0.031 C 
ATOM     57  C   UNL A   1      46.742  30.430  30.490  1.00  0.00     0.029 A 
ATOM     58  C   UNL A   1      45.403  30.159  30.256  1.00  0.00     0.049 A 
ATOM     59  H   UNL A   1      44.508  28.371  29.579  1.00  0.00     0.167 HD
ATOM     60  C   UNL A   1      42.983  30.693  30.154  1.00  0.00     0.074 A 
ATOM     61  C   UNL A   1      41.853  31.581  30.336  1.00  0.00     0.031 C 
ATOM     62  C   UNL A   1      44.268  31.030  30.422  1.00  0.00     0.037 A 
BRANCH  49  63
ATOM     63  C   UNL A   1      48.328  26.476  29.437  1.00  0.00     0.057 A 
ATOM     64  C   UNL A   1      49.216  26.684  28.373  1.00  0.00     0.134 A 
ATOM     65  C   UNL A   1      48.824  25.827  30.574  1.00  0.00     0.134 A 
ATOM     66  F   UNL A   1      48.802  27.288  27.249  1.00  0.00    -0.206 F 
ATOM     67  C   UNL A   1      50.538  26.237  28.426  1.00  0.00     0.040 A 
ATOM     68  C   UNL A   1      50.150  25.399  30.650  1.00  0.00     0.040 A 
ATOM     69  F   UNL A   1      48.028  25.599  31.630  1.00  0.00    -0.206 F 
ATOM     70  C   UNL A   1      51.010  25.597  29.570  1.00  0.00     0.006 A 
ENDBRANCH  49  63
BRANCH  50  71
ATOM     71  C   UNL A   1      38.701  29.093  29.065  1.00  0.00     0.057 A 
ATOM     72  C   UNL A   1      38.128  29.593  27.891  1.00  0.00     0.134 A 
ATOM     73  C   UNL A   1      37.877  28.988  30.192  1.00  0.00     0.134 A 
ATOM     74  F   UNL A   1      38.872  29.733  26.784  1.00  0.00    -0.206 F 
ATOM     75  C   UNL A   1      36.791  29.991  27.841  1.00  0.00     0.040 A 
ATOM     76  C   UNL A   1      36.533  29.360  30.151  1.00  0.00     0.040 A 
ATOM     77  F   UNL A   1      38.366  28.509  31.346  1.00  0.00    -0.206 F 
ATOM     78  C   UNL A   1      35.989  29.871  28.974  1.00  0.00     0.006 A 
ENDBRANCH  50  71
BRANCH  62  79
ATOM     79  C   UNL A   1      44.525  32.426  30.905  1.00  0.00     0.057 A 
ATOM     80  C   UNL A   1      44.740  33.488  30.019  1.00  0.00     0.134 A 
ATOM     81  C   UNL A   1      44.512  32.717  32.276  1.00  0.00     0.134 A 
ATOM     82  F   UNL A   1      44.777  33.272  28.695  1.00  0.00    -0.206 F 
ATOM     83  C   UNL A   1      44.953  34.789  30.478  1.00  0.00     0.040 A 
ATOM     84  C   UNL A   1      44.698  34.018  32.746  1.00  0.00     0.040 A 
ATOM     85  F   UNL A   1      44.303  31.747  33.177  1.00  0.00    -0.206 F 
ATOM     86  C   UNL A   1      44.924  35.057  31.846  1.00  0.00     0.006 A 
ENDBRANCH  62  79
ENDBRANCH  36  37
ENDBRANCH  28  31
ENDBRANCH  26  27
ENDBRANCH  25  26
ENDBRANCH  24  25
ENDBRANCH   1  24
TORSDOF 15
ENDMDL
MODEL 3
REMARK VINA RESULT:     -10.9      1.425      2.210
REMARK SMILES C[C@H]1CN(C(=O)C[N@H+]2CCO[C@H](CC(=O)NCCCCNC(=O)c3ccc(-c4c5nc(c(-c6c(F)cccc6F)c6ccc([nH]6)c(-c6c(F)cccc6F)c6nc(c(-c7c(F)cccc7F)c7ccc4[nH]7)C=C6)C=C5)cc3)C2)CCO1
REMARK SMILES IDX 17 1 16 2 14 3 15 4 13 6 12 7 8 8 9 9 78 10 10 12 11 13 7 14
REMARK SMILES IDX 5 15 6 16 4 17 1 18 2 19 3 20 81 21 80 22 79 23 18 24 19 25
REMARK SMILES IDX 20 26 21 27 22 28 23 30 24 31 25 32 77 33 26 34 76 35 27 36
REMARK SMILES IDX 28 37 29 38 70 39 30 40 75 41 69 42 71 43 31 44 74 45 68 46
REMARK SMILES IDX 67 47 32 49 58 50 41 51 57 52 42 53 45 54 56 55 72 56 43 57
REMARK SMILES IDX 44 58 55 60 73 61 46 62 33 63 34 64 39 65 35 66 36 67 38 68
REMARK SMILES IDX 40 69 37 70 59 71 60 72 65 73 61 74 62 75 64 76 66 77 63 78
REMARK SMILES IDX 47 79 48 80 53 81 49 82 50 83 52 84 54 85 51 86
REMARK H PARENT 16 5 8 11 21 29 71 48 45 59
REMARK Flexibility Score: inf
ROOT
ATOM      1  C   UNL A   1      35.517  20.324  24.986  1.00  0.00     0.116 C 
ENDROOT
BRANCH   1   2
ATOM      2  N   UNL A   1      34.294  19.641  25.364  1.00  0.00    -0.356 N 
ATOM      3  C   UNL A   1      33.030  19.748  24.867  1.00  0.00     0.222 C 
ATOM      4  O   UNL A   1      32.154  19.044  25.376  1.00  0.00    -0.275 OA
ATOM      5  H   UNL A   1      34.394  18.995  26.100  1.00  0.00     0.163 HD
BRANCH   3   6
ATOM      6  C   UNL A   1      32.704  20.653  23.697  1.00  0.00     0.138 C 
BRANCH   6   7
ATOM      7  C   UNL A   1      32.490  22.108  24.110  1.00  0.00     0.182 C 
ATOM      8  N   UNL A   1      33.412  24.472  24.039  1.00  0.00    -0.323 N 
ATOM      9  C   UNL A   1      33.362  24.410  25.508  1.00  0.00     0.291 C 
ATOM     10  C   UNL A   1      33.506  23.098  23.485  1.00  0.00     0.295 C 
ATOM     11  H   UNL A   1      34.259  24.980  23.782  1.00  0.00     0.348 HD
ATOM     12  C   UNL A   1      32.356  23.421  26.076  1.00  0.00     0.222 C 
ATOM     13  O   UNL A   1      32.595  22.125  25.548  1.00  0.00    -0.366 OA
BRANCH   8  14
ATOM     14  C   UNL A   1      32.342  25.287  23.425  1.00  0.00     0.363 C 
BRANCH  14  15
ATOM     15  C   UNL A   1      32.981  26.457  22.635  1.00  0.00     0.277 C 
ATOM     16  O   UNL A   1      33.653  26.219  21.626  1.00  0.00    -0.268 OA
BRANCH  15  17
ATOM     17  N   UNL A   1      32.802  27.759  23.098  1.00  0.00    -0.333 N 
ATOM     18  C   UNL A   1      29.793  29.837  22.110  1.00  0.00     0.040 C 
ATOM     19  C   UNL A   1      30.658  28.851  22.881  1.00  0.00     0.134 C 
ATOM     20  C   UNL A   1      32.112  28.824  22.377  1.00  0.00     0.151 C 
ATOM     21  O   UNL A   1      30.663  29.200  24.283  1.00  0.00    -0.375 OA
ATOM     22  C   UNL A   1      31.403  28.225  25.056  1.00  0.00     0.182 C 
ATOM     23  C   UNL A   1      32.843  28.028  24.536  1.00  0.00     0.148 C 
ENDBRANCH  15  17
ENDBRANCH  14  15
ENDBRANCH   8  14
ENDBRANCH   6   7
ENDBRANCH   3   6
ENDBRANCH   1   2
BRANCH   1  24
ATOM     24  C   UNL A   1      36.728  19.384  25.001  1.00  0.00     0.023 C 
BRANCH  24  25
ATOM     25  C   UNL A   1      38.054  20.040  24.626  1.00  0.00     0.023 C 
BRANCH  25  26
ATOM     26  C   UNL A   1      39.025  20.204  25.785  1.00  0.00     0.116 C 
BRANCH  26  27
ATOM     27  N   UNL A   1      39.995  19.124  25.867  1.00  0.00    -0.352 N 
ATOM     28  C   UNL A   1      41.352  19.200  26.100  1.00  0.00     0.251 C 
ATOM     29  H   UNL A   1      39.635  18.217  25.739  1.00  0.00     0.163 HD
ATOM     30  O   UNL A   1      42.056  18.211  26.008  1.00  0.00    -0.269 OA
BRANCH  28  31
ATOM     31  C   UNL A   1      41.943  20.517  26.422  1.00  0.00     0.039 A 
ATOM     32  C   UNL A   1      42.364  21.341  25.376  1.00  0.00     0.014 A 
ATOM     33  C   UNL A   1      42.027  20.952  27.747  1.00  0.00     0.014 A 
ATOM     34  C   UNL A   1      42.796  22.638  25.656  1.00  0.00     0.010 A 
ATOM     35  C   UNL A   1      42.380  22.269  28.016  1.00  0.00     0.010 A 
ATOM     36  C   UNL A   1      42.764  23.125  26.973  1.00  0.00    -0.014 A 
BRANCH  36  37
ATOM     37  C   UNL A   1      43.123  24.529  27.288  1.00  0.00     0.031 A 
ATOM     38  C   UNL A   1      44.561  24.962  27.255  1.00  0.00     0.074 A 
ATOM     39  C   UNL A   1      42.164  25.390  27.682  1.00  0.00     0.049 A 
ATOM     40  N   UNL A   1      45.085  26.113  27.589  1.00  0.00    -0.248 NA
ATOM     41  C   UNL A   1      45.542  23.958  26.816  1.00  0.00     0.031 C 
ATOM     42  C   UNL A   1      40.739  25.077  27.799  1.00  0.00     0.029 A 
ATOM     43  N   UNL A   1      42.248  26.704  28.069  1.00  0.00    -0.354 N 
ATOM     44  C   UNL A   1      46.455  25.966  27.416  1.00  0.00     0.074 A 
ATOM     45  C   UNL A   1      46.686  24.599  27.001  1.00  0.00     0.031 C 
ATOM     46  C   UNL A   1      40.080  26.175  28.206  1.00  0.00     0.029 A 
ATOM     47  C   UNL A   1      41.039  27.254  28.416  1.00  0.00     0.049 A 
ATOM     48  H   UNL A   1      43.096  27.204  28.096  1.00  0.00     0.167 HD
ATOM     49  C   UNL A   1      47.431  26.893  27.565  1.00  0.00     0.037 A 
ATOM     50  C   UNL A   1      40.738  28.489  28.860  1.00  0.00     0.037 A 
ATOM     51  C   UNL A   1      47.196  28.258  27.954  1.00  0.00     0.049 A 
ATOM     52  C   UNL A   1      41.841  29.496  29.031  1.00  0.00     0.074 A 
ATOM     53  C   UNL A   1      48.111  29.289  28.079  1.00  0.00     0.029 A 
ATOM     54  N   UNL A   1      45.955  28.781  28.284  1.00  0.00    -0.354 N 
ATOM     55  N   UNL A   1      43.125  29.363  28.804  1.00  0.00    -0.248 NA
ATOM     56  C   UNL A   1      41.452  30.827  29.519  1.00  0.00     0.031 C 
ATOM     57  C   UNL A   1      47.428  30.426  28.520  1.00  0.00     0.029 A 
ATOM     58  C   UNL A   1      46.082  30.116  28.630  1.00  0.00     0.049 A 
ATOM     59  H   UNL A   1      45.109  28.278  28.274  1.00  0.00     0.167 HD
ATOM     60  C   UNL A   1      43.693  30.595  29.093  1.00  0.00     0.074 A 
ATOM     61  C   UNL A   1      42.612  31.468  29.502  1.00  0.00     0.031 C 
ATOM     62  C   UNL A   1      44.993  30.972  29.026  1.00  0.00     0.037 A 
BRANCH  49  63
ATOM     63  C   UNL A   1      48.841  26.455  27.298  1.00  0.00     0.057 A 
ATOM     64  C   UNL A   1      49.670  25.975  28.321  1.00  0.00     0.134 A 
ATOM     65  C   UNL A   1      49.371  26.494  26.003  1.00  0.00     0.134 A 
ATOM     66  F   UNL A   1      49.228  25.924  29.586  1.00  0.00    -0.206 F 
ATOM     67  C   UNL A   1      50.985  25.578  28.070  1.00  0.00     0.040 A 
ATOM     68  C   UNL A   1      50.675  26.074  25.735  1.00  0.00     0.040 A 
ATOM     69  F   UNL A   1      48.630  26.939  24.976  1.00  0.00    -0.206 F 
ATOM     70  C   UNL A   1      51.488  25.621  26.772  1.00  0.00     0.006 A 
ENDBRANCH  49  63
BRANCH  50  71
ATOM     71  C   UNL A   1      39.329  28.853  29.149  1.00  0.00     0.057 A 
ATOM     72  C   UNL A   1      38.523  29.440  28.167  1.00  0.00     0.134 A 
ATOM     73  C   UNL A   1      38.756  28.631  30.407  1.00  0.00     0.134 A 
ATOM     74  F   UNL A   1      39.022  29.694  26.948  1.00  0.00    -0.206 F 
ATOM     75  C   UNL A   1      37.203  29.810  28.428  1.00  0.00     0.040 A 
ATOM     76  C   UNL A   1      37.429  28.975  30.675  1.00  0.00     0.040 A 
ATOM     77  F   UNL A   1      39.474  28.066  31.388  1.00  0.00    -0.206 F 
ATOM     78  C   UNL A   1      36.652  29.572  29.686  1.00  0.00     0.006 A 
ENDBRANCH  50  71
BRANCH  62  79
ATOM     79  C   UNL A   1      45.313  32.396  29.368  1.00  0.00     0.057 A 
ATOM     80  C   UNL A   1      45.690  32.779  30.661  1.00  0.00     0.134 A 
ATOM     81  C   UNL A   1      45.285  33.389  28.380  1.00  0.00     0.134 A 
ATOM     82  F   UNL A   1      45.723  31.878  31.655  1.00  0.00    -0.206 F 
ATOM     83  C   UNL A   1      46.010  34.104  30.964  1.00  0.00     0.040 A 
ATOM     84  C   UNL A   1      45.627  34.711  28.665  1.00  0.00     0.040 A 
ATOM     85  F   UNL A   1      44.940  33.086  27.120  1.00  0.00    -0.206 F 
ATOM     86  C   UNL A   1      45.986  35.072  29.962  1.00  0.00     0.006 A 
ENDBRANCH  62  79
ENDBRANCH  36  37
ENDBRANCH  28  31
ENDBRANCH  26  27
ENDBRANCH  25  26
ENDBRANCH  24  25
ENDBRANCH   1  24
TORSDOF 15
ENDMDL
