MODEL 1
REMARK VINA RESULT:     -11.8      0.000      0.000
REMARK SMILES N#Cc1ccc(/C=C/C(=O)N[C@H]2C=C[C@H](C(=O)NCCCCNC(=O)c3ccc(-c4c5nc(c(-c6c(F)cccc6F)c6ccc([nH]6)c(-c6c(F)cccc6F)c6nc(c(-c7c(F)cccc7F)c7ccc4[nH]7)C=C6)C=C5)cc3)C2)cc1
REMARK SMILES IDX 19 1 18 2 16 3 17 4 15 6 12 7 13 8 80 9 14 10 11 11 9 12
REMARK SMILES IDX 10 13 8 15 7 16 6 17 3 18 4 19 82 20 5 21 81 22 2 23 1 24
REMARK SMILES IDX 20 25 21 26 22 27 23 28 24 29 25 31 26 32 27 33 79 34 28 35
REMARK SMILES IDX 78 36 29 37 30 38 31 39 72 40 32 41 77 42 71 43 73 44 33 45
REMARK SMILES IDX 76 46 70 47 69 48 34 50 60 51 43 52 59 53 44 54 47 55 58 56
REMARK SMILES IDX 74 57 45 58 46 59 57 61 75 62 48 63 35 64 36 65 41 66 37 67
REMARK SMILES IDX 38 68 40 69 42 70 39 71 61 72 62 73 67 74 63 75 64 76 66 77
REMARK SMILES IDX 68 78 65 79 49 80 50 81 55 82 51 83 52 84 54 85 56 86 53 87
REMARK H PARENT 18 5 11 14 23 30 73 49 47 60
REMARK Flexibility Score: inf
ROOT
ATOM      1  C   UNL A   1      32.828  29.744  25.967  1.00  0.00     0.116 C 
ENDROOT
BRANCH   1   2
ATOM      2  N   UNL A   1      32.949  29.712  24.530  1.00  0.00    -0.356 N 
ATOM      3  C   UNL A   1      33.277  28.672  23.724  1.00  0.00     0.227 C 
ATOM      4  O   UNL A   1      33.376  28.916  22.522  1.00  0.00    -0.274 OA
ATOM      5  H   UNL A   1      32.769  30.564  24.070  1.00  0.00     0.163 HD
BRANCH   3   6
ATOM      6  C   UNL A   1      33.548  27.282  24.313  1.00  0.00     0.103 C 
ATOM      7  C   UNL A   1      32.290  25.743  22.948  1.00  0.00     0.106 C 
ATOM      8  C   UNL A   1      31.772  25.704  24.343  1.00  0.00    -0.006 C 
ATOM      9  C   UNL A   1      33.709  26.267  23.175  1.00  0.00     0.047 C 
ATOM     10  C   UNL A   1      32.392  26.654  25.063  1.00  0.00    -0.016 C 
BRANCH   7  11
ATOM     11  N   UNL A   1      32.282  24.511  22.221  1.00  0.00    -0.346 N 
ATOM     12  C   UNL A   1      32.946  23.350  22.507  1.00  0.00     0.244 C 
ATOM     13  O   UNL A   1      32.664  22.347  21.847  1.00  0.00    -0.270 OA
ATOM     14  H   UNL A   1      31.727  24.498  21.407  1.00  0.00     0.164 HD
BRANCH  12  15
ATOM     15  C   UNL A   1      33.992  23.200  23.584  1.00  0.00     0.072 C 
ATOM     16  C   UNL A   1      35.313  23.007  23.462  1.00  0.00     0.014 C 
BRANCH  16  17
ATOM     17  C   UNL A   1      36.400  22.848  24.439  1.00  0.00    -0.025 A 
ATOM     18  C   UNL A   1      38.629  22.349  26.087  1.00  0.00     0.052 A 
ATOM     19  C   UNL A   1      37.964  23.582  26.134  1.00  0.00     0.020 A 
ATOM     20  C   UNL A   1      38.167  21.351  25.238  1.00  0.00     0.020 A 
ATOM     21  C   UNL A   1      36.856  23.834  25.309  1.00  0.00     0.009 A 
ATOM     22  C   UNL A   1      37.056  21.598  24.438  1.00  0.00     0.009 A 
BRANCH  18  23
ATOM     23  C   UNL A   1      39.793  22.102  26.890  1.00  0.00     0.099 C 
ATOM     24  N   UNL A   1      40.725  21.927  27.552  1.00  0.00    -0.192 NA
ENDBRANCH  18  23
ENDBRANCH  16  17
ENDBRANCH  12  15
ENDBRANCH   7  11
ENDBRANCH   3   6
ENDBRANCH   1   2
BRANCH   1  25
ATOM     25  C   UNL A   1      31.467  30.282  26.396  1.00  0.00     0.023 C 
BRANCH  25  26
ATOM     26  C   UNL A   1      31.390  31.805  26.539  1.00  0.00     0.023 C 
BRANCH  26  27
ATOM     27  C   UNL A   1      32.696  32.491  26.926  1.00  0.00     0.116 C 
BRANCH  27  28
ATOM     28  N   UNL A   1      32.485  33.807  27.503  1.00  0.00    -0.352 N 
ATOM     29  C   UNL A   1      33.137  34.430  28.537  1.00  0.00     0.251 C 
ATOM     30  H   UNL A   1      31.763  34.333  27.087  1.00  0.00     0.163 HD
ATOM     31  O   UNL A   1      32.689  35.481  28.986  1.00  0.00    -0.269 OA
BRANCH  29  32
ATOM     32  C   UNL A   1      34.354  33.833  29.130  1.00  0.00     0.039 A 
ATOM     33  C   UNL A   1      34.204  32.798  30.055  1.00  0.00     0.014 A 
ATOM     34  C   UNL A   1      35.633  34.295  28.806  1.00  0.00     0.014 A 
ATOM     35  C   UNL A   1      35.333  32.195  30.611  1.00  0.00     0.010 A 
ATOM     36  C   UNL A   1      36.760  33.631  29.289  1.00  0.00     0.010 A 
ATOM     37  C   UNL A   1      36.623  32.579  30.206  1.00  0.00    -0.014 A 
BRANCH  37  38
ATOM     38  C   UNL A   1      37.822  31.875  30.738  1.00  0.00     0.031 A 
ATOM     39  C   UNL A   1      38.325  32.155  32.129  1.00  0.00     0.074 A 
ATOM     40  C   UNL A   1      38.461  30.978  29.960  1.00  0.00     0.049 A 
ATOM     41  N   UNL A   1      39.333  31.612  32.767  1.00  0.00    -0.248 NA
ATOM     42  C   UNL A   1      37.619  33.189  32.902  1.00  0.00     0.031 C 
ATOM     43  C   UNL A   1      38.104  30.652  28.577  1.00  0.00     0.029 A 
ATOM     44  N   UNL A   1      39.537  30.167  30.223  1.00  0.00    -0.354 N 
ATOM     45  C   UNL A   1      39.370  32.225  34.013  1.00  0.00     0.074 A 
ATOM     46  C   UNL A   1      38.337  33.238  34.014  1.00  0.00     0.031 C 
ATOM     47  C   UNL A   1      38.914  29.679  28.130  1.00  0.00     0.029 A 
ATOM     48  C   UNL A   1      39.877  29.345  29.174  1.00  0.00     0.049 A 
ATOM     49  H   UNL A   1      40.020  30.175  31.080  1.00  0.00     0.167 HD
ATOM     50  C   UNL A   1      40.165  31.948  35.074  1.00  0.00     0.037 A 
ATOM     51  C   UNL A   1      40.857  28.427  29.065  1.00  0.00     0.037 A 
ATOM     52  C   UNL A   1      41.199  30.945  35.072  1.00  0.00     0.049 A 
ATOM     53  C   UNL A   1      41.762  28.183  30.243  1.00  0.00     0.074 A 
ATOM     54  C   UNL A   1      42.049  30.580  36.102  1.00  0.00     0.029 A 
ATOM     55  N   UNL A   1      41.526  30.148  33.985  1.00  0.00    -0.354 N 
ATOM     56  N   UNL A   1      41.737  28.724  31.437  1.00  0.00    -0.248 NA
ATOM     57  C   UNL A   1      42.827  27.188  30.060  1.00  0.00     0.031 C 
ATOM     58  C   UNL A   1      42.925  29.602  35.622  1.00  0.00     0.029 A 
ATOM     59  C   UNL A   1      42.577  29.307  34.315  1.00  0.00     0.049 A 
ATOM     60  H   UNL A   1      41.077  30.176  33.108  1.00  0.00     0.167 HD
ATOM     61  C   UNL A   1      42.754  28.107  32.156  1.00  0.00     0.074 A 
ATOM     62  C   UNL A   1      43.354  27.131  31.272  1.00  0.00     0.031 C 
ATOM     63  C   UNL A   1      43.158  28.328  33.431  1.00  0.00     0.037 A 
BRANCH  50  64
ATOM     64  C   UNL A   1      39.935  32.728  36.338  1.00  0.00     0.057 A 
ATOM     65  C   UNL A   1      38.954  32.351  37.265  1.00  0.00     0.134 A 
ATOM     66  C   UNL A   1      40.736  33.831  36.663  1.00  0.00     0.134 A 
ATOM     67  F   UNL A   1      38.145  31.311  37.014  1.00  0.00    -0.206 F 
ATOM     68  C   UNL A   1      38.763  33.054  38.456  1.00  0.00     0.040 A 
ATOM     69  C   UNL A   1      40.575  34.522  37.865  1.00  0.00     0.040 A 
ATOM     70  F   UNL A   1      41.700  34.244  35.826  1.00  0.00    -0.206 F 
ATOM     71  C   UNL A   1      39.581  34.137  38.764  1.00  0.00     0.006 A 
ENDBRANCH  50  64
BRANCH  51  72
ATOM     72  C   UNL A   1      41.045  27.661  27.804  1.00  0.00     0.057 A 
ATOM     73  C   UNL A   1      40.491  26.385  27.639  1.00  0.00     0.134 A 
ATOM     74  C   UNL A   1      41.838  28.154  26.761  1.00  0.00     0.134 A 
ATOM     75  F   UNL A   1      39.733  25.847  28.605  1.00  0.00    -0.206 F 
ATOM     76  C   UNL A   1      40.762  25.608  26.511  1.00  0.00     0.040 A 
ATOM     77  C   UNL A   1      42.085  27.405  25.610  1.00  0.00     0.040 A 
ATOM     78  F   UNL A   1      42.390  29.374  26.846  1.00  0.00    -0.206 F 
ATOM     79  C   UNL A   1      41.561  26.119  25.491  1.00  0.00     0.006 A 
ENDBRANCH  51  72
BRANCH  63  80
ATOM     80  C   UNL A   1      44.265  27.459  33.961  1.00  0.00     0.057 A 
ATOM     81  C   UNL A   1      44.020  26.210  34.547  1.00  0.00     0.134 A 
ATOM     82  C   UNL A   1      45.599  27.881  33.882  1.00  0.00     0.134 A 
ATOM     83  F   UNL A   1      42.765  25.747  34.663  1.00  0.00    -0.206 F 
ATOM     84  C   UNL A   1      45.053  25.437  35.079  1.00  0.00     0.040 A 
ATOM     85  C   UNL A   1      46.645  27.100  34.375  1.00  0.00     0.040 A 
ATOM     86  F   UNL A   1      45.910  29.060  33.321  1.00  0.00    -0.206 F 
ATOM     87  C   UNL A   1      46.371  25.879  34.990  1.00  0.00     0.006 A 
ENDBRANCH  63  80
ENDBRANCH  37  38
ENDBRANCH  29  32
ENDBRANCH  27  28
ENDBRANCH  26  27
ENDBRANCH  25  26
ENDBRANCH   1  25
TORSDOF 15
ENDMDL
MODEL 2
REMARK VINA RESULT:     -11.7      4.309      9.866
REMARK SMILES N#Cc1ccc(/C=C/C(=O)N[C@H]2C=C[C@H](C(=O)NCCCCNC(=O)c3ccc(-c4c5nc(c(-c6c(F)cccc6F)c6ccc([nH]6)c(-c6c(F)cccc6F)c6nc(c(-c7c(F)cccc7F)c7ccc4[nH]7)C=C6)C=C5)cc3)C2)cc1
REMARK SMILES IDX 19 1 18 2 16 3 17 4 15 6 12 7 13 8 80 9 14 10 11 11 9 12
REMARK SMILES IDX 10 13 8 15 7 16 6 17 3 18 4 19 82 20 5 21 81 22 2 23 1 24
REMARK SMILES IDX 20 25 21 26 22 27 23 28 24 29 25 31 26 32 27 33 79 34 28 35
REMARK SMILES IDX 78 36 29 37 30 38 31 39 72 40 32 41 77 42 71 43 73 44 33 45
REMARK SMILES IDX 76 46 70 47 69 48 34 50 60 51 43 52 59 53 44 54 47 55 58 56
REMARK SMILES IDX 74 57 45 58 46 59 57 61 75 62 48 63 35 64 36 65 41 66 37 67
REMARK SMILES IDX 38 68 40 69 42 70 39 71 61 72 62 73 67 74 63 75 64 76 66 77
REMARK SMILES IDX 68 78 65 79 49 80 50 81 55 82 51 83 52 84 54 85 56 86 53 87
REMARK H PARENT 18 5 11 14 23 30 73 49 47 60
REMARK Flexibility Score: inf
ROOT
ATOM      1  C   UNL A   1      36.271  21.245  24.772  1.00  0.00     0.116 C 
ENDROOT
BRANCH   1   2
ATOM      2  N   UNL A   1      35.779  22.177  23.788  1.00  0.00    -0.356 N 
ATOM      3  C   UNL A   1      35.184  23.381  23.975  1.00  0.00     0.227 C 
ATOM      4  O   UNL A   1      34.793  23.966  22.966  1.00  0.00    -0.274 OA
ATOM      5  H   UNL A   1      35.891  21.902  22.849  1.00  0.00     0.163 HD
BRANCH   3   6
ATOM      6  C   UNL A   1      34.981  23.941  25.389  1.00  0.00     0.103 C 
ATOM      7  C   UNL A   1      32.644  24.518  25.528  1.00  0.00     0.106 C 
ATOM      8  C   UNL A   1      33.467  25.749  25.679  1.00  0.00    -0.006 C 
ATOM      9  C   UNL A   1      33.645  23.441  25.950  1.00  0.00     0.047 C 
ATOM     10  C   UNL A   1      34.758  25.436  25.473  1.00  0.00    -0.016 C 
BRANCH   7  11
ATOM     11  N   UNL A   1      31.434  24.453  26.287  1.00  0.00    -0.346 N 
ATOM     12  C   UNL A   1      30.308  25.220  26.162  1.00  0.00     0.244 C 
ATOM     13  O   UNL A   1      29.307  24.883  26.799  1.00  0.00    -0.270 OA
ATOM     14  H   UNL A   1      31.408  23.767  26.994  1.00  0.00     0.164 HD
BRANCH  12  15
ATOM     15  C   UNL A   1      30.193  26.442  25.285  1.00  0.00     0.072 C 
ATOM     16  C   UNL A   1      29.318  26.701  24.303  1.00  0.00     0.014 C 
BRANCH  16  17
ATOM     17  C   UNL A   1      29.130  27.847  23.400  1.00  0.00    -0.025 A 
ATOM     18  C   UNL A   1      28.520  30.131  21.869  1.00  0.00     0.052 A 
ATOM     19  C   UNL A   1      29.842  29.678  21.987  1.00  0.00     0.020 A 
ATOM     20  C   UNL A   1      27.495  29.429  22.492  1.00  0.00     0.020 A 
ATOM     21  C   UNL A   1      30.148  28.543  22.754  1.00  0.00     0.009 A 
ATOM     22  C   UNL A   1      27.801  28.293  23.234  1.00  0.00     0.009 A 
BRANCH  18  23
ATOM     23  C   UNL A   1      28.205  31.319  21.129  1.00  0.00     0.099 C 
ATOM     24  N   UNL A   1      27.956  32.293  20.555  1.00  0.00    -0.192 NA
ENDBRANCH  18  23
ENDBRANCH  16  17
ENDBRANCH  12  15
ENDBRANCH   7  11
ENDBRANCH   3   6
ENDBRANCH   1   2
BRANCH   1  25
ATOM     25  C   UNL A   1      37.795  21.264  24.841  1.00  0.00     0.023 C 
BRANCH  25  26
ATOM     26  C   UNL A   1      38.457  19.883  24.859  1.00  0.00     0.023 C 
BRANCH  26  27
ATOM     27  C   UNL A   1      39.175  19.520  26.154  1.00  0.00     0.116 C 
BRANCH  27  28
ATOM     28  N   UNL A   1      40.473  18.912  25.921  1.00  0.00    -0.352 N 
ATOM     29  C   UNL A   1      41.727  19.467  25.973  1.00  0.00     0.251 C 
ATOM     30  H   UNL A   1      40.449  17.955  25.691  1.00  0.00     0.163 HD
ATOM     31  O   UNL A   1      42.690  18.819  25.571  1.00  0.00    -0.269 OA
BRANCH  29  32
ATOM     32  C   UNL A   1      41.924  20.842  26.481  1.00  0.00     0.039 A 
ATOM     33  C   UNL A   1      41.827  21.063  27.857  1.00  0.00     0.014 A 
ATOM     34  C   UNL A   1      42.176  21.915  25.622  1.00  0.00     0.014 A 
ATOM     35  C   UNL A   1      42.035  22.344  28.370  1.00  0.00     0.010 A 
ATOM     36  C   UNL A   1      42.475  23.173  26.142  1.00  0.00     0.010 A 
ATOM     37  C   UNL A   1      42.399  23.405  27.522  1.00  0.00    -0.014 A 
BRANCH  37  38
ATOM     38  C   UNL A   1      42.703  24.749  28.085  1.00  0.00     0.031 A 
ATOM     39  C   UNL A   1      44.120  25.144  28.413  1.00  0.00     0.074 A 
ATOM     40  C   UNL A   1      41.696  25.617  28.304  1.00  0.00     0.049 A 
ATOM     41  N   UNL A   1      44.571  26.283  28.878  1.00  0.00    -0.248 NA
ATOM     42  C   UNL A   1      45.163  24.128  28.208  1.00  0.00     0.031 C 
ATOM     43  C   UNL A   1      40.276  25.340  28.075  1.00  0.00     0.029 A 
ATOM     44  N   UNL A   1      41.710  26.914  28.756  1.00  0.00    -0.354 N 
ATOM     45  C   UNL A   1      45.946  26.123  29.006  1.00  0.00     0.074 A 
ATOM     46  C   UNL A   1      46.245  24.754  28.647  1.00  0.00     0.031 C 
ATOM     47  C   UNL A   1      39.562  26.445  28.343  1.00  0.00     0.029 A 
ATOM     48  C   UNL A   1      40.464  27.494  28.807  1.00  0.00     0.049 A 
ATOM     49  H   UNL A   1      42.534  27.383  29.020  1.00  0.00     0.167 HD
ATOM     50  C   UNL A   1      46.880  27.041  29.353  1.00  0.00     0.037 A 
ATOM     51  C   UNL A   1      40.091  28.730  29.187  1.00  0.00     0.037 A 
ATOM     52  C   UNL A   1      46.582  28.402  29.718  1.00  0.00     0.049 A 
ATOM     53  C   UNL A   1      41.147  29.710  29.625  1.00  0.00     0.074 A 
ATOM     54  C   UNL A   1      47.461  29.411  30.073  1.00  0.00     0.029 A 
ATOM     55  N   UNL A   1      45.308  28.944  29.777  1.00  0.00    -0.354 N 
ATOM     56  N   UNL A   1      42.449  29.562  29.672  1.00  0.00    -0.248 NA
ATOM     57  C   UNL A   1      40.680  31.035  30.050  1.00  0.00     0.031 C 
ATOM     58  C   UNL A   1      46.715  30.547  30.399  1.00  0.00     0.029 A 
ATOM     59  C   UNL A   1      45.376  30.269  30.181  1.00  0.00     0.049 A 
ATOM     60  H   UNL A   1      44.477  28.461  29.564  1.00  0.00     0.167 HD
ATOM     61  C   UNL A   1      42.956  30.785  30.093  1.00  0.00     0.074 A 
ATOM     62  C   UNL A   1      41.823  31.670  30.258  1.00  0.00     0.031 C 
ATOM     63  C   UNL A   1      44.242  31.145  30.328  1.00  0.00     0.037 A 
BRANCH  50  64
ATOM     64  C   UNL A   1      48.320  26.608  29.337  1.00  0.00     0.057 A 
ATOM     65  C   UNL A   1      48.891  25.921  30.418  1.00  0.00     0.134 A 
ATOM     66  C   UNL A   1      49.128  26.825  28.214  1.00  0.00     0.134 A 
ATOM     67  F   UNL A   1      48.178  25.688  31.529  1.00  0.00    -0.206 F 
ATOM     68  C   UNL A   1      50.218  25.488  30.390  1.00  0.00     0.040 A 
ATOM     69  C   UNL A   1      50.446  26.368  28.163  1.00  0.00     0.040 A 
ATOM     70  F   UNL A   1      48.645  27.468  27.140  1.00  0.00    -0.206 F 
ATOM     71  C   UNL A   1      50.997  25.702  29.256  1.00  0.00     0.006 A 
ENDBRANCH  50  64
BRANCH  51  72
ATOM     72  C   UNL A   1      38.658  29.130  29.175  1.00  0.00     0.057 A 
ATOM     73  C   UNL A   1      38.066  29.682  28.031  1.00  0.00     0.134 A 
ATOM     74  C   UNL A   1      37.862  29.036  30.323  1.00  0.00     0.134 A 
ATOM     75  F   UNL A   1      38.776  29.815  26.901  1.00  0.00    -0.206 F 
ATOM     76  C   UNL A   1      36.759  30.172  28.044  1.00  0.00     0.040 A 
ATOM     77  C   UNL A   1      36.542  29.485  30.340  1.00  0.00     0.040 A 
ATOM     78  F   UNL A   1      38.360  28.505  31.451  1.00  0.00    -0.206 F 
ATOM     79  C   UNL A   1      35.993  30.073  29.203  1.00  0.00     0.006 A 
ENDBRANCH  51  72
BRANCH  63  80
ATOM     80  C   UNL A   1      44.493  32.573  30.730  1.00  0.00     0.057 A 
ATOM     81  C   UNL A   1      44.539  32.975  32.071  1.00  0.00     0.134 A 
ATOM     82  C   UNL A   1      44.691  33.560  29.755  1.00  0.00     0.134 A 
ATOM     83  F   UNL A   1      44.348  32.084  33.056  1.00  0.00    -0.206 F 
ATOM     84  C   UNL A   1      44.723  34.312  32.427  1.00  0.00     0.040 A 
ATOM     85  C   UNL A   1      44.916  34.894  30.099  1.00  0.00     0.040 A 
ATOM     86  F   UNL A   1      44.674  33.245  28.451  1.00  0.00    -0.206 F 
ATOM     87  C   UNL A   1      44.917  35.275  31.439  1.00  0.00     0.006 A 
ENDBRANCH  63  80
ENDBRANCH  37  38
ENDBRANCH  29  32
ENDBRANCH  27  28
ENDBRANCH  26  27
ENDBRANCH  25  26
ENDBRANCH   1  25
TORSDOF 15
ENDMDL
MODEL 3
REMARK VINA RESULT:     -11.7      4.314      9.111
REMARK SMILES N#Cc1ccc(/C=C/C(=O)N[C@H]2C=C[C@H](C(=O)NCCCCNC(=O)c3ccc(-c4c5nc(c(-c6c(F)cccc6F)c6ccc([nH]6)c(-c6c(F)cccc6F)c6nc(c(-c7c(F)cccc7F)c7ccc4[nH]7)C=C6)C=C5)cc3)C2)cc1
REMARK SMILES IDX 19 1 18 2 16 3 17 4 15 6 12 7 13 8 80 9 14 10 11 11 9 12
REMARK SMILES IDX 10 13 8 15 7 16 6 17 3 18 4 19 82 20 5 21 81 22 2 23 1 24
REMARK SMILES IDX 20 25 21 26 22 27 23 28 24 29 25 31 26 32 27 33 79 34 28 35
REMARK SMILES IDX 78 36 29 37 30 38 31 39 72 40 32 41 77 42 71 43 73 44 33 45
REMARK SMILES IDX 76 46 70 47 69 48 34 50 60 51 43 52 59 53 44 54 47 55 58 56
REMARK SMILES IDX 74 57 45 58 46 59 57 61 75 62 48 63 35 64 36 65 41 66 37 67
REMARK SMILES IDX 38 68 40 69 42 70 39 71 61 72 62 73 67 74 63 75 64 76 66 77
REMARK SMILES IDX 68 78 65 79 49 80 50 81 55 82 51 83 52 84 54 85 56 86 53 87
REMARK H PARENT 18 5 11 14 23 30 73 49 47 60
REMARK Flexibility Score: inf
ROOT
ATOM      1  C   UNL A   1      35.620  20.498  25.030  1.00  0.00     0.116 C 
ENDROOT
BRANCH   1   2
ATOM      2  N   UNL A   1      35.015  21.453  25.927  1.00  0.00    -0.356 N 
ATOM      3  C   UNL A   1      33.785  22.018  25.868  1.00  0.00     0.227 C 
ATOM      4  O   UNL A   1      33.523  22.861  26.726  1.00  0.00    -0.274 OA
ATOM      5  H   UNL A   1      35.574  21.733  26.688  1.00  0.00     0.163 HD
BRANCH   3   6
ATOM      6  C   UNL A   1      32.803  21.641  24.750  1.00  0.00     0.103 C 
ATOM      7  C   UNL A   1      32.628  23.599  23.354  1.00  0.00     0.106 C 
ATOM      8  C   UNL A   1      31.301  23.304  23.960  1.00  0.00    -0.006 C 
ATOM      9  C   UNL A   1      33.294  22.224  23.420  1.00  0.00     0.047 C 
ATOM     10  C   UNL A   1      31.438  22.291  24.833  1.00  0.00    -0.016 C 
BRANCH   7  11
ATOM     11  N   UNL A   1      32.627  24.132  22.027  1.00  0.00    -0.346 N 
ATOM     12  C   UNL A   1      32.919  25.406  21.621  1.00  0.00     0.244 C 
ATOM     13  O   UNL A   1      33.031  25.613  20.410  1.00  0.00    -0.270 OA
ATOM     14  H   UNL A   1      32.384  23.500  21.312  1.00  0.00     0.164 HD
BRANCH  12  15
ATOM     15  C   UNL A   1      33.130  26.577  22.548  1.00  0.00     0.072 C 
ATOM     16  C   UNL A   1      32.592  26.811  23.753  1.00  0.00     0.014 C 
BRANCH  16  17
ATOM     17  C   UNL A   1      32.731  27.910  24.721  1.00  0.00    -0.025 A 
ATOM     18  C   UNL A   1      33.319  29.941  26.581  1.00  0.00     0.052 A 
ATOM     19  C   UNL A   1      32.305  30.113  25.628  1.00  0.00     0.020 A 
ATOM     20  C   UNL A   1      34.023  28.744  26.627  1.00  0.00     0.020 A 
ATOM     21  C   UNL A   1      32.014  29.103  24.697  1.00  0.00     0.009 A 
ATOM     22  C   UNL A   1      33.717  27.739  25.715  1.00  0.00     0.009 A 
BRANCH  18  23
ATOM     23  C   UNL A   1      33.655  30.987  27.504  1.00  0.00     0.099 C 
ATOM     24  N   UNL A   1      33.926  31.850  28.226  1.00  0.00    -0.192 NA
ENDBRANCH  18  23
ENDBRANCH  16  17
ENDBRANCH  12  15
ENDBRANCH   7  11
ENDBRANCH   3   6
ENDBRANCH   1   2
BRANCH   1  25
ATOM     25  C   UNL A   1      37.041  20.908  24.660  1.00  0.00     0.023 C 
BRANCH  25  26
ATOM     26  C   UNL A   1      38.097  19.816  24.848  1.00  0.00     0.023 C 
BRANCH  26  27
ATOM     27  C   UNL A   1      39.112  20.072  25.957  1.00  0.00     0.116 C 
BRANCH  27  28
ATOM     28  N   UNL A   1      40.231  19.146  25.914  1.00  0.00    -0.352 N 
ATOM     29  C   UNL A   1      41.574  19.380  26.072  1.00  0.00     0.251 C 
ATOM     30  H   UNL A   1      39.988  18.206  25.745  1.00  0.00     0.163 HD
ATOM     31  O   UNL A   1      42.375  18.483  25.826  1.00  0.00    -0.269 OA
BRANCH  29  32
ATOM     32  C   UNL A   1      42.062  20.707  26.508  1.00  0.00     0.039 A 
ATOM     33  C   UNL A   1      42.458  21.623  25.532  1.00  0.00     0.014 A 
ATOM     34  C   UNL A   1      42.156  21.048  27.861  1.00  0.00     0.014 A 
ATOM     35  C   UNL A   1      42.897  22.893  25.910  1.00  0.00     0.010 A 
ATOM     36  C   UNL A   1      42.505  22.346  28.232  1.00  0.00     0.010 A 
ATOM     37  C   UNL A   1      42.889  23.281  27.261  1.00  0.00    -0.014 A 
BRANCH  37  38
ATOM     38  C   UNL A   1      43.276  24.665  27.651  1.00  0.00     0.031 A 
ATOM     39  C   UNL A   1      42.226  25.697  27.972  1.00  0.00     0.074 A 
ATOM     40  C   UNL A   1      44.582  24.993  27.713  1.00  0.00     0.049 A 
ATOM     41  N   UNL A   1      42.383  26.938  28.359  1.00  0.00    -0.248 NA
ATOM     42  C   UNL A   1      40.820  25.290  27.824  1.00  0.00     0.031 C 
ATOM     43  C   UNL A   1      45.695  24.101  27.379  1.00  0.00     0.029 A 
ATOM     44  N   UNL A   1      45.197  26.161  28.089  1.00  0.00    -0.354 N 
ATOM     45  C   UNL A   1      41.101  27.452  28.515  1.00  0.00     0.074 A 
ATOM     46  C   UNL A   1      40.179  26.416  28.103  1.00  0.00     0.031 C 
ATOM     47  C   UNL A   1      46.854  24.737  27.610  1.00  0.00     0.029 A 
ATOM     48  C   UNL A   1      46.571  26.095  28.061  1.00  0.00     0.049 A 
ATOM     49  H   UNL A   1      44.702  26.970  28.352  1.00  0.00     0.167 HD
ATOM     50  C   UNL A   1      40.722  28.662  28.992  1.00  0.00     0.037 A 
ATOM     51  C   UNL A   1      47.497  27.025  28.363  1.00  0.00     0.037 A 
ATOM     52  C   UNL A   1      41.638  29.697  29.396  1.00  0.00     0.049 A 
ATOM     53  C   UNL A   1      47.043  28.380  28.835  1.00  0.00     0.074 A 
ATOM     54  C   UNL A   1      41.351  30.952  29.905  1.00  0.00     0.029 A 
ATOM     55  N   UNL A   1      43.020  29.599  29.333  1.00  0.00    -0.354 N 
ATOM     56  N   UNL A   1      45.827  28.824  29.042  1.00  0.00    -0.248 NA
ATOM     57  C   UNL A   1      48.095  29.362  29.128  1.00  0.00     0.031 C 
ATOM     58  C   UNL A   1      42.557  31.633  30.099  1.00  0.00     0.029 A 
ATOM     59  C   UNL A   1      43.598  30.779  29.777  1.00  0.00     0.049 A 
ATOM     60  H   UNL A   1      43.517  28.809  29.020  1.00  0.00     0.167 HD
ATOM     61  C   UNL A   1      45.972  30.119  29.527  1.00  0.00     0.074 A 
ATOM     62  C   UNL A   1      47.394  30.375  29.609  1.00  0.00     0.031 C 
ATOM     63  C   UNL A   1      45.016  31.017  29.868  1.00  0.00     0.037 A 
BRANCH  50  64
ATOM     64  C   UNL A   1      39.248  28.927  29.124  1.00  0.00     0.057 A 
ATOM     65  C   UNL A   1      38.568  28.708  30.331  1.00  0.00     0.134 A 
ATOM     66  C   UNL A   1      38.510  29.459  28.058  1.00  0.00     0.134 A 
ATOM     67  F   UNL A   1      39.210  28.192  31.389  1.00  0.00    -0.206 F 
ATOM     68  C   UNL A   1      37.207  28.987  30.465  1.00  0.00     0.040 A 
ATOM     69  C   UNL A   1      37.156  29.770  28.191  1.00  0.00     0.040 A 
ATOM     70  F   UNL A   1      39.097  29.701  26.877  1.00  0.00    -0.206 F 
ATOM     71  C   UNL A   1      36.499  29.529  29.396  1.00  0.00     0.006 A 
ENDBRANCH  50  64
BRANCH  51  72
ATOM     72  C   UNL A   1      48.948  26.722  28.237  1.00  0.00     0.057 A 
ATOM     73  C   UNL A   1      49.617  26.863  27.014  1.00  0.00     0.134 A 
ATOM     74  C   UNL A   1      49.686  26.219  29.315  1.00  0.00     0.134 A 
ATOM     75  F   UNL A   1      48.965  27.326  25.937  1.00  0.00    -0.206 F 
ATOM     76  C   UNL A   1      50.946  26.467  26.854  1.00  0.00     0.040 A 
ATOM     77  C   UNL A   1      51.026  25.855  29.180  1.00  0.00     0.040 A 
ATOM     78  F   UNL A   1      49.113  26.069  30.518  1.00  0.00    -0.206 F 
ATOM     79  C   UNL A   1      51.654  25.962  27.941  1.00  0.00     0.006 A 
ENDBRANCH  51  72
BRANCH  63  80
ATOM     80  C   UNL A   1      45.481  32.338  30.418  1.00  0.00     0.057 A 
ATOM     81  C   UNL A   1      45.711  33.451  29.598  1.00  0.00     0.134 A 
ATOM     82  C   UNL A   1      45.703  32.497  31.793  1.00  0.00     0.134 A 
ATOM     83  F   UNL A   1      45.528  33.367  28.270  1.00  0.00    -0.206 F 
ATOM     84  C   UNL A   1      46.190  34.655  30.116  1.00  0.00     0.040 A 
ATOM     85  C   UNL A   1      46.144  33.708  32.329  1.00  0.00     0.040 A 
ATOM     86  F   UNL A   1      45.490  31.479  32.640  1.00  0.00    -0.206 F 
ATOM     87  C   UNL A   1      46.403  34.787  31.486  1.00  0.00     0.006 A 
ENDBRANCH  63  80
ENDBRANCH  37  38
ENDBRANCH  29  32
ENDBRANCH  27  28
ENDBRANCH  26  27
ENDBRANCH  25  26
ENDBRANCH   1  25
TORSDOF 15
ENDMDL
