MODEL 1
REMARK VINA RESULT:     -11.8      0.000      0.000
REMARK SMILES CCc1cc(OC(F)(F)F)cc2c1O[C@@H](C(F)(F)F)C(C(=O)NCCCCNC(=O)c1ccc(-c3c4nc(c(-c5c(F)cccc5F)c5ccc([nH]5)c(-c5c(F)cccc5F)c5nc(c(-c6c(F)cccc6F)c6ccc3[nH]6)C=C5)C=C4)cc1)=C2
REMARK SMILES IDX 25 1 24 2 23 3 21 4 22 5 20 7 3 8 4 9 13 10 5 11 12 12 14 13
REMARK SMILES IDX 11 14 85 15 15 16 2 17 1 18 6 19 7 20 8 21 9 22 10 23 16 24
REMARK SMILES IDX 17 25 18 26 19 27 26 28 27 29 28 30 29 31 30 33 31 34 32 35
REMARK SMILES IDX 84 36 33 37 83 38 34 39 35 40 36 41 77 42 37 43 82 44 76 45
REMARK SMILES IDX 78 46 38 47 81 48 75 49 74 50 39 52 65 53 48 54 64 55 49 56
REMARK SMILES IDX 52 57 63 58 79 59 50 60 51 61 62 63 80 64 53 65 40 66 41 67
REMARK SMILES IDX 46 68 42 69 43 70 45 71 47 72 44 73 66 74 67 75 72 76 68 77
REMARK SMILES IDX 69 78 71 79 73 80 70 81 54 82 55 83 60 84 56 85 57 86 59 87
REMARK SMILES IDX 61 88 58 89
REMARK H PARENT 23 6 28 32 78 51 52 62
REMARK Flexibility Score: inf
ROOT
ATOM      1  C   UNL A   1      37.101  21.293  24.328  1.00  0.00     0.023 C 
ENDROOT
BRANCH   1   2
ATOM      2  C   UNL A   1      36.589  22.303  25.363  1.00  0.00     0.116 C 
BRANCH   2   3
ATOM      3  N   UNL A   1      35.611  21.672  26.229  1.00  0.00    -0.352 N 
ATOM      4  C   UNL A   1      34.404  22.086  26.696  1.00  0.00     0.251 C 
ATOM      5  O   UNL A   1      33.863  21.412  27.568  1.00  0.00    -0.270 OA
ATOM      6  H   UNL A   1      35.870  20.773  26.537  1.00  0.00     0.163 HD
BRANCH   4   7
ATOM      7  C   UNL A   1      33.691  23.271  26.149  1.00  0.00     0.067 C 
ATOM      8  C   UNL A   1      31.645  26.429  24.269  1.00  0.00    -0.002 A 
ATOM      9  C   UNL A   1      31.966  27.754  24.624  1.00  0.00     0.054 A 
ATOM     10  C   UNL A   1      32.332  25.375  24.889  1.00  0.00     0.131 A 
ATOM     11  C   UNL A   1      32.945  28.022  25.583  1.00  0.00     0.130 A 
ATOM     12  C   UNL A   1      33.281  25.634  25.875  1.00  0.00     0.021 A 
ATOM     13  O   UNL A   1      32.108  24.109  24.429  1.00  0.00    -0.475 OA
ATOM     14  C   UNL A   1      33.584  26.955  26.217  1.00  0.00     0.058 A 
ATOM     15  C   UNL A   1      34.011  24.531  26.478  1.00  0.00     0.025 C 
ATOM     16  C   UNL A   1      32.450  22.998  25.307  1.00  0.00     0.314 C 
BRANCH   8  17
ATOM     17  C   UNL A   1      30.589  26.172  23.218  1.00  0.00     0.036 C 
ATOM     18  C   UNL A   1      29.168  26.361  23.738  1.00  0.00     0.009 C 
ENDBRANCH   8  17
BRANCH  11  19
ATOM     19  O   UNL A   1      33.382  29.251  25.986  1.00  0.00    -0.406 OA
BRANCH  19  20
ATOM     20  C   UNL A   1      32.507  30.045  26.769  1.00  0.00     0.573 C 
ATOM     21  F   UNL A   1      33.193  30.839  27.618  1.00  0.00    -0.132 F 
ATOM     22  F   UNL A   1      31.712  30.802  25.984  1.00  0.00    -0.132 F 
ATOM     23  F   UNL A   1      31.721  29.226  27.502  1.00  0.00    -0.132 F 
ENDBRANCH  19  20
ENDBRANCH  11  19
BRANCH  16  24
ATOM     24  C   UNL A   1      32.461  21.726  24.428  1.00  0.00     0.429 C 
ATOM     25  F   UNL A   1      33.691  21.421  23.959  1.00  0.00    -0.167 F 
ATOM     26  F   UNL A   1      32.073  20.638  25.150  1.00  0.00    -0.167 F 
ATOM     27  F   UNL A   1      31.613  21.817  23.378  1.00  0.00    -0.167 F 
ENDBRANCH  16  24
ENDBRANCH   4   7
ENDBRANCH   2   3
ENDBRANCH   1   2
BRANCH   1  28
ATOM     28  C   UNL A   1      37.802  20.075  24.932  1.00  0.00     0.023 C 
BRANCH  28  29
ATOM     29  C   UNL A   1      38.993  20.405  25.821  1.00  0.00     0.116 C 
BRANCH  29  30
ATOM     30  N   UNL A   1      40.042  19.399  25.771  1.00  0.00    -0.352 N 
ATOM     31  C   UNL A   1      41.374  19.540  26.084  1.00  0.00     0.251 C 
ATOM     32  H   UNL A   1      39.763  18.503  25.474  1.00  0.00     0.163 HD
ATOM     33  O   UNL A   1      42.160  18.625  25.894  1.00  0.00    -0.269 OA
BRANCH  31  34
ATOM     34  C   UNL A   1      41.847  20.837  26.610  1.00  0.00     0.039 A 
ATOM     35  C   UNL A   1      42.355  21.777  25.711  1.00  0.00     0.014 A 
ATOM     36  C   UNL A   1      41.745  21.135  27.970  1.00  0.00     0.014 A 
ATOM     37  C   UNL A   1      42.700  23.049  26.170  1.00  0.00     0.010 A 
ATOM     38  C   UNL A   1      42.025  22.422  28.414  1.00  0.00     0.010 A 
ATOM     39  C   UNL A   1      42.503  23.390  27.518  1.00  0.00    -0.014 A 
BRANCH  39  40
ATOM     40  C   UNL A   1      42.788  24.757  28.012  1.00  0.00     0.031 A 
ATOM     41  C   UNL A   1      44.188  25.139  28.402  1.00  0.00     0.074 A 
ATOM     42  C   UNL A   1      41.775  25.628  28.181  1.00  0.00     0.049 A 
ATOM     43  N   UNL A   1      44.623  26.255  28.927  1.00  0.00    -0.248 NA
ATOM     44  C   UNL A   1      45.230  24.119  28.205  1.00  0.00     0.031 C 
ATOM     45  C   UNL A   1      40.365  25.354  27.889  1.00  0.00     0.029 A 
ATOM     46  N   UNL A   1      41.773  26.916  28.652  1.00  0.00    -0.354 N 
ATOM     47  C   UNL A   1      45.982  26.066  29.138  1.00  0.00     0.074 A 
ATOM     48  C   UNL A   1      46.290  24.712  28.731  1.00  0.00     0.031 C 
ATOM     49  C   UNL A   1      39.639  26.449  28.170  1.00  0.00     0.029 A 
ATOM     50  C   UNL A   1      40.524  27.486  28.689  1.00  0.00     0.049 A 
ATOM     51  H   UNL A   1      42.589  27.388  28.935  1.00  0.00     0.167 HD
ATOM     52  C   UNL A   1      46.896  26.949  29.608  1.00  0.00     0.037 A 
ATOM     53  C   UNL A   1      40.137  28.708  29.101  1.00  0.00     0.037 A 
ATOM     54  C   UNL A   1      46.591  28.304  29.983  1.00  0.00     0.049 A 
ATOM     55  C   UNL A   1      41.171  29.675  29.603  1.00  0.00     0.074 A 
ATOM     56  C   UNL A   1      47.455  29.297  30.407  1.00  0.00     0.029 A 
ATOM     57  N   UNL A   1      45.318  28.856  29.974  1.00  0.00    -0.354 N 
ATOM     58  N   UNL A   1      42.465  29.507  29.733  1.00  0.00    -0.248 NA
ATOM     59  C   UNL A   1      40.694  31.005  30.010  1.00  0.00     0.031 C 
ATOM     60  C   UNL A   1      46.702  30.441  30.689  1.00  0.00     0.029 A 
ATOM     61  C   UNL A   1      45.372  30.172  30.402  1.00  0.00     0.049 A 
ATOM     62  H   UNL A   1      44.498  28.383  29.705  1.00  0.00     0.167 HD
ATOM     63  C   UNL A   1      42.960  30.714  30.208  1.00  0.00     0.074 A 
ATOM     64  C   UNL A   1      41.828  31.609  30.334  1.00  0.00     0.031 C 
ATOM     65  C   UNL A   1      44.237  31.051  30.510  1.00  0.00     0.037 A 
BRANCH  52  66
ATOM     66  C   UNL A   1      48.312  26.473  29.736  1.00  0.00     0.057 A 
ATOM     67  C   UNL A   1      49.249  26.664  28.713  1.00  0.00     0.134 A 
ATOM     68  C   UNL A   1      48.751  25.837  30.904  1.00  0.00     0.134 A 
ATOM     69  F   UNL A   1      48.889  27.254  27.563  1.00  0.00    -0.206 F 
ATOM     70  C   UNL A   1      50.566  26.217  28.835  1.00  0.00     0.040 A 
ATOM     71  C   UNL A   1      50.071  25.408  31.049  1.00  0.00     0.040 A 
ATOM     72  F   UNL A   1      47.905  25.626  31.924  1.00  0.00    -0.206 F 
ATOM     73  C   UNL A   1      50.981  25.592  30.009  1.00  0.00     0.006 A 
ENDBRANCH  52  66
BRANCH  53  74
ATOM     74  C   UNL A   1      38.707  29.097  29.026  1.00  0.00     0.057 A 
ATOM     75  C   UNL A   1      38.151  29.566  27.831  1.00  0.00     0.134 A 
ATOM     76  C   UNL A   1      37.864  29.009  30.139  1.00  0.00     0.134 A 
ATOM     77  F   UNL A   1      38.914  29.687  26.734  1.00  0.00    -0.206 F 
ATOM     78  C   UNL A   1      36.812  29.952  27.748  1.00  0.00     0.040 A 
ATOM     79  C   UNL A   1      36.518  29.371  30.067  1.00  0.00     0.040 A 
ATOM     80  F   UNL A   1      38.335  28.559  31.312  1.00  0.00    -0.206 F 
ATOM     81  C   UNL A   1      35.990  29.850  28.869  1.00  0.00     0.006 A 
ENDBRANCH  53  74
BRANCH  65  82
ATOM     82  C   UNL A   1      44.483  32.456  30.973  1.00  0.00     0.057 A 
ATOM     83  C   UNL A   1      44.733  33.497  30.070  1.00  0.00     0.134 A 
ATOM     84  C   UNL A   1      44.425  32.776  32.335  1.00  0.00     0.134 A 
ATOM     85  F   UNL A   1      44.813  33.252  28.754  1.00  0.00    -0.206 F 
ATOM     86  C   UNL A   1      44.934  34.807  30.510  1.00  0.00     0.040 A 
ATOM     87  C   UNL A   1      44.602  34.085  32.784  1.00  0.00     0.040 A 
ATOM     88  F   UNL A   1      44.182  31.825  33.250  1.00  0.00    -0.206 F 
ATOM     89  C   UNL A   1      44.861  35.104  31.869  1.00  0.00     0.006 A 
ENDBRANCH  65  82
ENDBRANCH  39  40
ENDBRANCH  31  34
ENDBRANCH  29  30
ENDBRANCH  28  29
ENDBRANCH   1  28
TORSDOF 15
ENDMDL
MODEL 2
REMARK VINA RESULT:     -11.5      1.273      2.084
REMARK SMILES CCc1cc(OC(F)(F)F)cc2c1O[C@@H](C(F)(F)F)C(C(=O)NCCCCNC(=O)c1ccc(-c3c4nc(c(-c5c(F)cccc5F)c5ccc([nH]5)c(-c5c(F)cccc5F)c5nc(c(-c6c(F)cccc6F)c6ccc3[nH]6)C=C5)C=C4)cc1)=C2
REMARK SMILES IDX 25 1 24 2 23 3 21 4 22 5 20 7 3 8 4 9 13 10 5 11 12 12 14 13
REMARK SMILES IDX 11 14 85 15 15 16 2 17 1 18 6 19 7 20 8 21 9 22 10 23 16 24
REMARK SMILES IDX 17 25 18 26 19 27 26 28 27 29 28 30 29 31 30 33 31 34 32 35
REMARK SMILES IDX 84 36 33 37 83 38 34 39 35 40 36 41 77 42 37 43 82 44 76 45
REMARK SMILES IDX 78 46 38 47 81 48 75 49 74 50 39 52 65 53 48 54 64 55 49 56
REMARK SMILES IDX 52 57 63 58 79 59 50 60 51 61 62 63 80 64 53 65 40 66 41 67
REMARK SMILES IDX 46 68 42 69 43 70 45 71 47 72 44 73 66 74 67 75 72 76 68 77
REMARK SMILES IDX 69 78 71 79 73 80 70 81 54 82 55 83 60 84 56 85 57 86 59 87
REMARK SMILES IDX 61 88 58 89
REMARK H PARENT 23 6 28 32 78 51 52 62
REMARK Flexibility Score: inf
ROOT
ATOM      1  C   UNL A   1      39.202  22.637  26.442  1.00  0.00     0.023 C 
ENDROOT
BRANCH   1   2
ATOM      2  C   UNL A   1      38.003  23.500  26.031  1.00  0.00     0.116 C 
BRANCH   2   3
ATOM      3  N   UNL A   1      37.706  23.298  24.626  1.00  0.00    -0.352 N 
ATOM      4  C   UNL A   1      36.535  23.268  23.936  1.00  0.00     0.251 C 
ATOM      5  O   UNL A   1      36.566  22.896  22.766  1.00  0.00    -0.270 OA
ATOM      6  H   UNL A   1      38.503  23.157  24.064  1.00  0.00     0.163 HD
BRANCH   4   7
ATOM      7  C   UNL A   1      35.246  23.728  24.516  1.00  0.00     0.067 C 
ATOM      8  C   UNL A   1      31.481  24.661  26.143  1.00  0.00    -0.002 A 
ATOM      9  C   UNL A   1      30.900  25.909  25.843  1.00  0.00     0.054 A 
ATOM     10  C   UNL A   1      32.732  24.345  25.595  1.00  0.00     0.131 A 
ATOM     11  C   UNL A   1      31.558  26.825  25.019  1.00  0.00     0.130 A 
ATOM     12  C   UNL A   1      33.411  25.270  24.806  1.00  0.00     0.021 A 
ATOM     13  O   UNL A   1      33.210  23.080  25.782  1.00  0.00    -0.475 OA
ATOM     14  C   UNL A   1      32.822  26.505  24.521  1.00  0.00     0.058 A 
ATOM     15  C   UNL A   1      34.690  24.910  24.214  1.00  0.00     0.025 C 
ATOM     16  C   UNL A   1      34.641  22.863  25.616  1.00  0.00     0.314 C 
BRANCH   8  17
ATOM     17  C   UNL A   1      30.737  23.685  27.028  1.00  0.00     0.036 C 
ATOM     18  C   UNL A   1      30.077  22.553  26.248  1.00  0.00     0.009 C 
ENDBRANCH   8  17
BRANCH  11  19
ATOM     19  O   UNL A   1      31.092  28.043  24.614  1.00  0.00    -0.406 OA
BRANCH  19  20
ATOM     20  C   UNL A   1      31.585  29.197  25.272  1.00  0.00     0.573 C 
ATOM     21  F   UNL A   1      32.814  29.531  24.824  1.00  0.00    -0.132 F 
ATOM     22  F   UNL A   1      30.745  30.241  25.108  1.00  0.00    -0.132 F 
ATOM     23  F   UNL A   1      31.678  28.934  26.594  1.00  0.00    -0.132 F 
ENDBRANCH  19  20
ENDBRANCH  11  19
BRANCH  16  24
ATOM     24  C   UNL A   1      34.848  21.335  25.506  1.00  0.00     0.429 C 
ATOM     25  F   UNL A   1      36.049  20.932  25.975  1.00  0.00    -0.167 F 
ATOM     26  F   UNL A   1      33.927  20.668  26.256  1.00  0.00    -0.167 F 
ATOM     27  F   UNL A   1      34.711  20.886  24.236  1.00  0.00    -0.167 F 
ENDBRANCH  16  24
ENDBRANCH   4   7
ENDBRANCH   2   3
ENDBRANCH   1   2
BRANCH   1  28
ATOM     28  C   UNL A   1      39.325  21.323  25.668  1.00  0.00     0.023 C 
BRANCH  28  29
ATOM     29  C   UNL A   1      39.669  20.112  26.526  1.00  0.00     0.116 C 
BRANCH  29  30
ATOM     30  N   UNL A   1      40.783  19.338  26.003  1.00  0.00    -0.352 N 
ATOM     31  C   UNL A   1      42.106  19.702  25.910  1.00  0.00     0.251 C 
ATOM     32  H   UNL A   1      40.562  18.436  25.674  1.00  0.00     0.163 HD
ATOM     33  O   UNL A   1      42.915  18.979  25.351  1.00  0.00    -0.269 OA
BRANCH  31  34
ATOM     34  C   UNL A   1      42.522  21.009  26.457  1.00  0.00     0.039 A 
ATOM     35  C   UNL A   1      42.943  22.002  25.569  1.00  0.00     0.014 A 
ATOM     36  C   UNL A   1      42.453  21.264  27.828  1.00  0.00     0.014 A 
ATOM     37  C   UNL A   1      43.232  23.278  26.053  1.00  0.00     0.010 A 
ATOM     38  C   UNL A   1      42.675  22.553  28.300  1.00  0.00     0.010 A 
ATOM     39  C   UNL A   1      43.064  23.571  27.416  1.00  0.00    -0.014 A 
BRANCH  39  40
ATOM     40  C   UNL A   1      43.289  24.939  27.940  1.00  0.00     0.031 A 
ATOM     41  C   UNL A   1      44.669  25.373  28.341  1.00  0.00     0.074 A 
ATOM     42  C   UNL A   1      42.237  25.760  28.125  1.00  0.00     0.049 A 
ATOM     43  N   UNL A   1      45.054  26.496  28.890  1.00  0.00    -0.248 NA
ATOM     44  C   UNL A   1      45.756  24.404  28.124  1.00  0.00     0.031 C 
ATOM     45  C   UNL A   1      40.842  25.431  27.824  1.00  0.00     0.029 A 
ATOM     46  N   UNL A   1      42.178  27.037  28.623  1.00  0.00    -0.354 N 
ATOM     47  C   UNL A   1      46.421  26.362  29.100  1.00  0.00     0.074 A 
ATOM     48  C   UNL A   1      46.788  25.032  28.665  1.00  0.00     0.031 C 
ATOM     49  C   UNL A   1      40.068  26.486  28.127  1.00  0.00     0.029 A 
ATOM     50  C   UNL A   1      40.905  27.551  28.670  1.00  0.00     0.049 A 
ATOM     51  H   UNL A   1      42.973  27.537  28.918  1.00  0.00     0.167 HD
ATOM     52  C   UNL A   1      47.293  27.274  29.591  1.00  0.00     0.037 A 
ATOM     53  C   UNL A   1      40.464  28.745  29.107  1.00  0.00     0.037 A 
ATOM     54  C   UNL A   1      46.929  28.606  29.993  1.00  0.00     0.049 A 
ATOM     55  C   UNL A   1      41.455  29.745  29.631  1.00  0.00     0.074 A 
ATOM     56  C   UNL A   1      47.749  29.627  30.440  1.00  0.00     0.029 A 
ATOM     57  N   UNL A   1      45.634  29.102  29.994  1.00  0.00    -0.354 N 
ATOM     58  N   UNL A   1      42.755  29.632  29.760  1.00  0.00    -0.248 NA
ATOM     59  C   UNL A   1      40.919  31.044  30.066  1.00  0.00     0.031 C 
ATOM     60  C   UNL A   1      46.945  30.731  30.745  1.00  0.00     0.029 A 
ATOM     61  C   UNL A   1      45.629  30.410  30.450  1.00  0.00     0.049 A 
ATOM     62  H   UNL A   1      44.835  28.599  29.713  1.00  0.00     0.167 HD
ATOM     63  C   UNL A   1      43.195  30.849  30.262  1.00  0.00     0.074 A 
ATOM     64  C   UNL A   1      42.025  31.691  30.405  1.00  0.00     0.031 C 
ATOM     65  C   UNL A   1      44.456  31.235  30.574  1.00  0.00     0.037 A 
BRANCH  52  66
ATOM     66  C   UNL A   1      48.729  26.858  29.711  1.00  0.00     0.057 A 
ATOM     67  C   UNL A   1      49.643  27.049  28.666  1.00  0.00     0.134 A 
ATOM     68  C   UNL A   1      49.210  26.282  30.893  1.00  0.00     0.134 A 
ATOM     69  F   UNL A   1      49.241  27.583  27.503  1.00  0.00    -0.206 F 
ATOM     70  C   UNL A   1      50.977  26.657  28.782  1.00  0.00     0.040 A 
ATOM     71  C   UNL A   1      50.549  25.909  31.031  1.00  0.00     0.040 A 
ATOM     72  F   UNL A   1      48.390  26.074  31.934  1.00  0.00    -0.206 F 
ATOM     73  C   UNL A   1      51.434  26.091  29.970  1.00  0.00     0.006 A 
ENDBRANCH  52  66
BRANCH  53  74
ATOM     74  C   UNL A   1      39.019  29.072  29.037  1.00  0.00     0.057 A 
ATOM     75  C   UNL A   1      38.201  28.955  30.166  1.00  0.00     0.134 A 
ATOM     76  C   UNL A   1      38.423  29.510  27.850  1.00  0.00     0.134 A 
ATOM     77  F   UNL A   1      38.712  28.525  31.329  1.00  0.00    -0.206 F 
ATOM     78  C   UNL A   1      36.835  29.243  30.114  1.00  0.00     0.040 A 
ATOM     79  C   UNL A   1      37.064  29.823  27.787  1.00  0.00     0.040 A 
ATOM     80  F   UNL A   1      39.156  29.651  26.736  1.00  0.00    -0.206 F 
ATOM     81  C   UNL A   1      36.265  29.683  28.921  1.00  0.00     0.006 A 
ENDBRANCH  53  74
BRANCH  65  82
ATOM     82  C   UNL A   1      44.640  32.639  31.067  1.00  0.00     0.057 A 
ATOM     83  C   UNL A   1      44.625  32.950  32.433  1.00  0.00     0.134 A 
ATOM     84  C   UNL A   1      44.878  33.684  30.165  1.00  0.00     0.134 A 
ATOM     85  F   UNL A   1      44.389  31.996  33.345  1.00  0.00    -0.206 F 
ATOM     86  C   UNL A   1      44.824  34.256  32.883  1.00  0.00     0.040 A 
ATOM     87  C   UNL A   1      45.101  34.989  30.605  1.00  0.00     0.040 A 
ATOM     88  F   UNL A   1      44.912  33.450  28.845  1.00  0.00    -0.206 F 
ATOM     89  C   UNL A   1      45.070  35.278  31.968  1.00  0.00     0.006 A 
ENDBRANCH  65  82
ENDBRANCH  39  40
ENDBRANCH  31  34
ENDBRANCH  29  30
ENDBRANCH  28  29
ENDBRANCH   1  28
TORSDOF 15
ENDMDL
MODEL 3
REMARK VINA RESULT:     -11.5      0.791      6.235
REMARK SMILES CCc1cc(OC(F)(F)F)cc2c1O[C@@H](C(F)(F)F)C(C(=O)NCCCCNC(=O)c1ccc(-c3c4nc(c(-c5c(F)cccc5F)c5ccc([nH]5)c(-c5c(F)cccc5F)c5nc(c(-c6c(F)cccc6F)c6ccc3[nH]6)C=C5)C=C4)cc1)=C2
REMARK SMILES IDX 25 1 24 2 23 3 21 4 22 5 20 7 3 8 4 9 13 10 5 11 12 12 14 13
REMARK SMILES IDX 11 14 85 15 15 16 2 17 1 18 6 19 7 20 8 21 9 22 10 23 16 24
REMARK SMILES IDX 17 25 18 26 19 27 26 28 27 29 28 30 29 31 30 33 31 34 32 35
REMARK SMILES IDX 84 36 33 37 83 38 34 39 35 40 36 41 77 42 37 43 82 44 76 45
REMARK SMILES IDX 78 46 38 47 81 48 75 49 74 50 39 52 65 53 48 54 64 55 49 56
REMARK SMILES IDX 52 57 63 58 79 59 50 60 51 61 62 63 80 64 53 65 40 66 41 67
REMARK SMILES IDX 46 68 42 69 43 70 45 71 47 72 44 73 66 74 67 75 72 76 68 77
REMARK SMILES IDX 69 78 71 79 73 80 70 81 54 82 55 83 60 84 56 85 57 86 59 87
REMARK SMILES IDX 61 88 58 89
REMARK H PARENT 23 6 28 32 78 51 52 62
REMARK Flexibility Score: inf
ROOT
ATOM      1  C   UNL A   1      37.075  22.388  24.024  1.00  0.00     0.023 C 
ENDROOT
BRANCH   1   2
ATOM      2  C   UNL A   1      35.583  22.697  23.843  1.00  0.00     0.116 C 
BRANCH   2   3
ATOM      3  N   UNL A   1      34.831  22.185  24.973  1.00  0.00    -0.352 N 
ATOM      4  C   UNL A   1      33.883  22.747  25.768  1.00  0.00     0.251 C 
ATOM      5  O   UNL A   1      33.539  22.134  26.775  1.00  0.00    -0.270 OA
ATOM      6  H   UNL A   1      35.048  21.253  25.209  1.00  0.00     0.163 HD
BRANCH   4   7
ATOM      7  C   UNL A   1      33.205  24.027  25.432  1.00  0.00     0.067 C 
ATOM      8  C   UNL A   1      31.190  27.487  24.144  1.00  0.00    -0.002 A 
ATOM      9  C   UNL A   1      31.676  28.747  24.546  1.00  0.00     0.054 A 
ATOM     10  C   UNL A   1      31.865  26.333  24.566  1.00  0.00     0.131 A 
ATOM     11  C   UNL A   1      32.807  28.852  25.358  1.00  0.00     0.130 A 
ATOM     12  C   UNL A   1      32.969  26.429  25.409  1.00  0.00     0.021 A 
ATOM     13  O   UNL A   1      31.463  25.134  24.050  1.00  0.00    -0.475 OA
ATOM     14  C   UNL A   1      33.436  27.688  25.801  1.00  0.00     0.058 A 
ATOM     15  C   UNL A   1      33.680  25.224  25.804  1.00  0.00     0.025 C 
ATOM     16  C   UNL A   1      31.833  23.926  24.775  1.00  0.00     0.314 C 
BRANCH   8  17
ATOM     17  C   UNL A   1      29.970  27.407  23.253  1.00  0.00     0.036 C 
ATOM     18  C   UNL A   1      29.595  28.746  22.630  1.00  0.00     0.009 C 
ENDBRANCH   8  17
BRANCH  11  19
ATOM     19  O   UNL A   1      33.406  30.004  25.782  1.00  0.00    -0.406 OA
BRANCH  19  20
ATOM     20  C   UNL A   1      32.773  30.744  26.811  1.00  0.00     0.573 C 
ATOM     21  F   UNL A   1      31.691  31.405  26.346  1.00  0.00    -0.132 F 
ATOM     22  F   UNL A   1      32.407  29.937  27.829  1.00  0.00    -0.132 F 
ATOM     23  F   UNL A   1      33.648  31.656  27.288  1.00  0.00    -0.132 F 
ENDBRANCH  19  20
ENDBRANCH  11  19
BRANCH  16  24
ATOM     24  C   UNL A   1      31.600  22.741  23.809  1.00  0.00     0.429 C 
ATOM     25  F   UNL A   1      30.482  22.882  23.063  1.00  0.00    -0.167 F 
ATOM     26  F   UNL A   1      32.620  22.642  22.913  1.00  0.00    -0.167 F 
ATOM     27  F   UNL A   1      31.536  21.554  24.455  1.00  0.00    -0.167 F 
ENDBRANCH  16  24
ENDBRANCH   4   7
ENDBRANCH   2   3
ENDBRANCH   1   2
BRANCH   1  28
ATOM     28  C   UNL A   1      37.365  20.987  24.566  1.00  0.00     0.023 C 
BRANCH  28  29
ATOM     29  C   UNL A   1      38.371  20.946  25.708  1.00  0.00     0.116 C 
BRANCH  29  30
ATOM     30  N   UNL A   1      39.320  19.850  25.597  1.00  0.00    -0.352 N 
ATOM     31  C   UNL A   1      40.655  19.841  25.928  1.00  0.00     0.251 C 
ATOM     32  H   UNL A   1      38.962  19.006  25.237  1.00  0.00     0.163 HD
ATOM     33  O   UNL A   1      41.353  18.871  25.682  1.00  0.00    -0.269 OA
BRANCH  31  34
ATOM     34  C   UNL A   1      41.241  21.048  26.546  1.00  0.00     0.039 A 
ATOM     35  C   UNL A   1      41.793  22.024  25.713  1.00  0.00     0.014 A 
ATOM     36  C   UNL A   1      41.203  21.232  27.930  1.00  0.00     0.014 A 
ATOM     37  C   UNL A   1      42.249  23.221  26.267  1.00  0.00     0.010 A 
ATOM     38  C   UNL A   1      41.594  22.451  28.472  1.00  0.00     0.010 A 
ATOM     39  C   UNL A   1      42.118  23.456  27.645  1.00  0.00    -0.014 A 
BRANCH  39  40
ATOM     40  C   UNL A   1      42.522  24.750  28.244  1.00  0.00     0.031 A 
ATOM     41  C   UNL A   1      41.499  25.828  28.464  1.00  0.00     0.074 A 
ATOM     42  C   UNL A   1      43.821  24.980  28.515  1.00  0.00     0.049 A 
ATOM     43  N   UNL A   1      41.669  27.049  28.901  1.00  0.00    -0.248 NA
ATOM     44  C   UNL A   1      40.108  25.498  28.119  1.00  0.00     0.031 C 
ATOM     45  C   UNL A   1      44.914  24.030  28.292  1.00  0.00     0.029 A 
ATOM     46  N   UNL A   1      44.444  26.090  29.026  1.00  0.00    -0.354 N 
ATOM     47  C   UNL A   1      40.411  27.638  28.867  1.00  0.00     0.074 A 
ATOM     48  C   UNL A   1      39.499  26.657  28.321  1.00  0.00     0.031 C 
ATOM     49  C   UNL A   1      46.070  24.593  28.683  1.00  0.00     0.029 A 
ATOM     50  C   UNL A   1      45.804  25.949  29.152  1.00  0.00     0.049 A 
ATOM     51  H   UNL A   1      43.961  26.910  29.279  1.00  0.00     0.167 HD
ATOM     52  C   UNL A   1      40.047  28.877  29.275  1.00  0.00     0.037 A 
ATOM     53  C   UNL A   1      46.733  26.818  29.592  1.00  0.00     0.037 A 
ATOM     54  C   UNL A   1      40.952  29.838  29.846  1.00  0.00     0.049 A 
ATOM     55  C   UNL A   1      46.301  28.181  30.055  1.00  0.00     0.074 A 
ATOM     56  C   UNL A   1      40.670  31.094  30.351  1.00  0.00     0.029 A 
ATOM     57  N   UNL A   1      42.318  29.645  29.989  1.00  0.00    -0.354 N 
ATOM     58  N   UNL A   1      45.097  28.701  30.082  1.00  0.00    -0.248 NA
ATOM     59  C   UNL A   1      47.354  29.077  30.554  1.00  0.00     0.031 C 
ATOM     60  C   UNL A   1      41.871  31.677  30.769  1.00  0.00     0.029 A 
ATOM     61  C   UNL A   1      42.896  30.767  30.560  1.00  0.00     0.049 A 
ATOM     62  H   UNL A   1      42.806  28.832  29.723  1.00  0.00     0.167 HD
ATOM     63  C   UNL A   1      45.244  29.971  30.625  1.00  0.00     0.074 A 
ATOM     64  C   UNL A   1      46.651  30.138  30.923  1.00  0.00     0.031 C 
ATOM     65  C   UNL A   1      44.297  30.911  30.859  1.00  0.00     0.037 A 
BRANCH  52  66
ATOM     66  C   UNL A   1      38.604  29.256  29.121  1.00  0.00     0.057 A 
ATOM     67  C   UNL A   1      37.713  29.220  30.202  1.00  0.00     0.134 A 
ATOM     68  C   UNL A   1      38.104  29.684  27.885  1.00  0.00     0.134 A 
ATOM     69  F   UNL A   1      38.127  28.806  31.410  1.00  0.00    -0.206 F 
ATOM     70  C   UNL A   1      36.371  29.571  30.054  1.00  0.00     0.040 A 
ATOM     71  C   UNL A   1      36.769  30.062  27.730  1.00  0.00     0.040 A 
ATOM     72  F   UNL A   1      38.904  29.745  26.810  1.00  0.00    -0.206 F 
ATOM     73  C   UNL A   1      35.898  30.000  28.815  1.00  0.00     0.006 A 
ENDBRANCH  52  66
BRANCH  53  74
ATOM     74  C   UNL A   1      48.159  26.415  29.647  1.00  0.00     0.057 A 
ATOM     75  C   UNL A   1      48.684  25.780  30.779  1.00  0.00     0.134 A 
ATOM     76  C   UNL A   1      49.029  26.650  28.577  1.00  0.00     0.134 A 
ATOM     77  F   UNL A   1      47.902  25.543  31.842  1.00  0.00    -0.206 F 
ATOM     78  C   UNL A   1      50.028  25.410  30.853  1.00  0.00     0.040 A 
ATOM     79  C   UNL A   1      50.370  26.266  28.628  1.00  0.00     0.040 A 
ATOM     80  F   UNL A   1      48.584  27.247  27.462  1.00  0.00    -0.206 F 
ATOM     81  C   UNL A   1      50.874  25.649  29.772  1.00  0.00     0.006 A 
ENDBRANCH  53  74
BRANCH  65  82
ATOM     82  C   UNL A   1      44.746  32.191  31.498  1.00  0.00     0.057 A 
ATOM     83  C   UNL A   1      44.791  32.345  32.889  1.00  0.00     0.134 A 
ATOM     84  C   UNL A   1      45.180  33.265  30.710  1.00  0.00     0.134 A 
ATOM     85  F   UNL A   1      44.378  31.358  33.697  1.00  0.00    -0.206 F 
ATOM     86  C   UNL A   1      45.237  33.531  33.474  1.00  0.00     0.040 A 
ATOM     87  C   UNL A   1      45.649  34.446  31.285  1.00  0.00     0.040 A 
ATOM     88  F   UNL A   1      45.168  33.177  29.372  1.00  0.00    -0.206 F 
ATOM     89  C   UNL A   1      45.674  34.583  32.672  1.00  0.00     0.006 A 
ENDBRANCH  65  82
ENDBRANCH  39  40
ENDBRANCH  31  34
ENDBRANCH  29  30
ENDBRANCH  28  29
ENDBRANCH   1  28
TORSDOF 15
ENDMDL
