MODEL 1
REMARK VINA RESULT:     -13.2      0.000      0.000
REMARK SMILES CCN1C(=O)N/C(=C/c2cc(Cl)c(OCc3cccc(C(=O)NCCCCNC(=O)c4ccc(-c5c6nc(c(-c7c(F)cccc7F)c7ccc([nH]7)c(-c7c(F)cccc7F)c7nc(c(-c8c(F)cccc8F)c8ccc5[nH]8)C=C7)C=C6)cc4)c3)c(OC)c2)C1=O
REMARK SMILES IDX 24 1 23 2 21 3 22 4 20 6 16 7 17 8 85 9 18 10 19 11 15 12
REMARK SMILES IDX 14 13 13 14 9 15 10 16 89 17 11 18 86 19 12 20 8 21 3 22
REMARK SMILES IDX 4 23 90 24 5 25 6 26 7 27 91 28 2 30 1 31 87 32 88 33 25 34
REMARK SMILES IDX 26 35 27 36 28 37 29 38 30 40 31 41 32 42 84 43 33 44 83 45
REMARK SMILES IDX 34 46 35 47 36 48 77 49 37 50 82 51 76 52 78 53 38 54 81 55
REMARK SMILES IDX 75 56 74 57 39 59 65 60 48 61 64 62 49 63 52 64 63 65 79 66
REMARK SMILES IDX 50 67 51 68 62 70 80 71 53 72 40 73 41 74 46 75 42 76 43 77
REMARK SMILES IDX 45 78 47 79 44 80 66 81 67 82 72 83 68 84 69 85 71 86 73 87
REMARK SMILES IDX 70 88 54 89 55 90 60 91 56 92 57 93 59 94 61 95 58 96
REMARK H PARENT 23 5 6 29 28 39 78 58 52 69
REMARK Flexibility Score: inf
ROOT
ATOM      1  C   UNL A   1      33.010  30.218  26.193  1.00  0.00     0.116 C 
ENDROOT
BRANCH   1   2
ATOM      2  N   UNL A   1      33.481  29.773  24.887  1.00  0.00    -0.352 N 
ATOM      3  C   UNL A   1      32.956  28.875  23.978  1.00  0.00     0.251 C 
ATOM      4  O   UNL A   1      33.560  28.687  22.924  1.00  0.00    -0.269 OA
ATOM      5  H   UNL A   1      34.325  30.189  24.601  1.00  0.00     0.163 HD
BRANCH   3   6
ATOM      6  C   UNL A   1      31.739  28.071  24.278  1.00  0.00     0.040 A 
ATOM      7  C   UNL A   1      30.748  26.098  25.307  1.00  0.00    -0.010 A 
ATOM      8  C   UNL A   1      29.664  26.211  24.432  1.00  0.00     0.007 A 
ATOM      9  C   UNL A   1      31.708  27.121  25.297  1.00  0.00     0.021 A 
ATOM     10  C   UNL A   1      29.566  27.302  23.562  1.00  0.00     0.001 A 
ATOM     11  C   UNL A   1      30.621  28.210  23.453  1.00  0.00     0.014 A 
BRANCH   7  12
ATOM     12  C   UNL A   1      31.072  24.892  26.177  1.00  0.00     0.265 C 
BRANCH  12  13
ATOM     13  O   UNL A   1      30.935  23.567  25.683  1.00  0.00    -0.483 OA
BRANCH  13  14
ATOM     14  C   UNL A   1      32.022  22.751  25.543  1.00  0.00     0.180 A 
ATOM     15  C   UNL A   1      33.968  20.834  24.935  1.00  0.00    -0.018 A 
ATOM     16  C   UNL A   1      33.760  21.234  26.257  1.00  0.00     0.033 A 
ATOM     17  C   UNL A   1      33.287  21.473  23.899  1.00  0.00     0.058 A 
ATOM     18  C   UNL A   1      32.801  22.198  26.567  1.00  0.00     0.087 A 
ATOM     19  C   UNL A   1      32.323  22.439  24.195  1.00  0.00     0.162 A 
ATOM     20  Cl  UNL A   1      32.708  22.643  28.234  1.00  0.00    -0.080 Cl
BRANCH  15  21
ATOM     21  C   UNL A   1      34.850  19.703  24.654  1.00  0.00     0.040 C 
ATOM     22  N   UNL A   1      33.343  16.544  25.456  1.00  0.00    -0.259 N 
ATOM     23  C   UNL A   1      34.625  16.199  25.075  1.00  0.00     0.328 C 
ATOM     24  C   UNL A   1      33.146  17.899  25.329  1.00  0.00     0.278 C 
ATOM     25  O   UNL A   1      35.127  15.088  25.075  1.00  0.00    -0.248 OA
ATOM     26  N   UNL A   1      35.288  17.354  24.699  1.00  0.00    -0.303 N 
ATOM     27  C   UNL A   1      34.474  18.435  24.857  1.00  0.00     0.109 C 
ATOM     28  O   UNL A   1      32.139  18.548  25.524  1.00  0.00    -0.267 OA
ATOM     29  H   UNL A   1      36.212  17.390  24.366  1.00  0.00     0.172 HD
BRANCH  22  30
ATOM     30  C   UNL A   1      32.409  15.555  25.968  1.00  0.00     0.127 C 
ATOM     31  C   UNL A   1      32.594  14.126  25.491  1.00  0.00     0.028 C 
ENDBRANCH  22  30
ENDBRANCH  15  21
BRANCH  19  32
ATOM     32  O   UNL A   1      31.571  23.086  23.241  1.00  0.00    -0.493 OA
ATOM     33  C   UNL A   1      32.179  24.171  22.552  1.00  0.00     0.278 C 
ENDBRANCH  19  32
ENDBRANCH  13  14
ENDBRANCH  12  13
ENDBRANCH   7  12
ENDBRANCH   3   6
ENDBRANCH   1   2
BRANCH   1  34
ATOM     34  C   UNL A   1      31.558  30.670  26.237  1.00  0.00     0.023 C 
BRANCH  34  35
ATOM     35  C   UNL A   1      31.303  32.036  26.851  1.00  0.00     0.023 C 
BRANCH  35  36
ATOM     36  C   UNL A   1      32.544  32.811  27.270  1.00  0.00     0.116 C 
BRANCH  36  37
ATOM     37  N   UNL A   1      32.297  34.220  27.547  1.00  0.00    -0.352 N 
ATOM     38  C   UNL A   1      32.954  35.060  28.417  1.00  0.00     0.251 C 
ATOM     39  H   UNL A   1      31.558  34.628  27.041  1.00  0.00     0.163 HD
ATOM     40  O   UNL A   1      32.561  36.207  28.596  1.00  0.00    -0.269 OA
BRANCH  38  41
ATOM     41  C   UNL A   1      34.118  34.548  29.170  1.00  0.00     0.039 A 
ATOM     42  C   UNL A   1      33.905  33.891  30.384  1.00  0.00     0.014 A 
ATOM     43  C   UNL A   1      35.405  34.653  28.638  1.00  0.00     0.014 A 
ATOM     44  C   UNL A   1      34.975  33.258  31.019  1.00  0.00     0.010 A 
ATOM     45  C   UNL A   1      36.447  33.943  29.221  1.00  0.00     0.010 A 
ATOM     46  C   UNL A   1      36.243  33.236  30.417  1.00  0.00    -0.014 A 
BRANCH  46  47
ATOM     47  C   UNL A   1      37.374  32.478  31.013  1.00  0.00     0.031 A 
ATOM     48  C   UNL A   1      37.960  32.916  32.326  1.00  0.00     0.074 A 
ATOM     49  C   UNL A   1      37.923  31.450  30.337  1.00  0.00     0.049 A 
ATOM     50  N   UNL A   1      39.002  32.450  32.964  1.00  0.00    -0.248 NA
ATOM     51  C   UNL A   1      37.304  34.051  32.997  1.00  0.00     0.031 C 
ATOM     52  C   UNL A   1      37.479  30.958  29.031  1.00  0.00     0.029 A 
ATOM     53  N   UNL A   1      38.987  30.640  30.651  1.00  0.00    -0.354 N 
ATOM     54  C   UNL A   1      39.135  33.241  34.098  1.00  0.00     0.074 A 
ATOM     55  C   UNL A   1      38.107  34.256  34.030  1.00  0.00     0.031 C 
ATOM     56  C   UNL A   1      38.247  29.917  28.668  1.00  0.00     0.029 A 
ATOM     57  C   UNL A   1      39.265  29.698  29.690  1.00  0.00     0.049 A 
ATOM     58  H   UNL A   1      39.502  30.727  31.485  1.00  0.00     0.167 HD
ATOM     59  C   UNL A   1      40.017  33.119  35.117  1.00  0.00     0.037 A 
ATOM     60  C   UNL A   1      40.239  28.769  29.634  1.00  0.00     0.037 A 
ATOM     61  C   UNL A   1      41.026  32.096  35.191  1.00  0.00     0.049 A 
ATOM     62  C   UNL A   1      41.222  28.666  30.769  1.00  0.00     0.074 A 
ATOM     63  C   UNL A   1      41.934  31.854  36.208  1.00  0.00     0.029 A 
ATOM     64  N   UNL A   1      41.266  31.151  34.206  1.00  0.00    -0.354 N 
ATOM     65  N   UNL A   1      41.293  29.377  31.869  1.00  0.00    -0.248 NA
ATOM     66  C   UNL A   1      42.255  27.627  30.660  1.00  0.00     0.031 C 
ATOM     67  C   UNL A   1      42.757  30.795  35.813  1.00  0.00     0.029 A 
ATOM     68  C   UNL A   1      42.324  30.338  34.580  1.00  0.00     0.049 A 
ATOM     69  H   UNL A   1      40.760  31.069  33.366  1.00  0.00     0.167 HD
ATOM     70  C   UNL A   1      42.353  28.851  32.595  1.00  0.00     0.074 A 
ATOM     71  C   UNL A   1      42.888  27.753  31.817  1.00  0.00     0.031 C 
ATOM     72  C   UNL A   1      42.838  29.240  33.800  1.00  0.00     0.037 A 
BRANCH  59  73
ATOM     73  C   UNL A   1      39.927  34.118  36.236  1.00  0.00     0.057 A 
ATOM     74  C   UNL A   1      40.642  35.323  36.212  1.00  0.00     0.134 A 
ATOM     75  C   UNL A   1      39.095  33.885  37.339  1.00  0.00     0.134 A 
ATOM     76  F   UNL A   1      41.467  35.605  35.192  1.00  0.00    -0.206 F 
ATOM     77  C   UNL A   1      40.554  36.247  37.255  1.00  0.00     0.040 A 
ATOM     78  C   UNL A   1      38.975  34.814  38.373  1.00  0.00     0.040 A 
ATOM     79  F   UNL A   1      38.378  32.754  37.425  1.00  0.00    -0.206 F 
ATOM     80  C   UNL A   1      39.712  35.996  38.336  1.00  0.00     0.006 A 
ENDBRANCH  59  73
BRANCH  60  81
ATOM     81  C   UNL A   1      40.330  27.849  28.470  1.00  0.00     0.057 A 
ATOM     82  C   UNL A   1      39.697  26.600  28.485  1.00  0.00     0.134 A 
ATOM     83  C   UNL A   1      41.058  28.186  27.323  1.00  0.00     0.134 A 
ATOM     84  F   UNL A   1      38.998  26.211  29.562  1.00  0.00    -0.206 F 
ATOM     85  C   UNL A   1      39.806  25.709  27.415  1.00  0.00     0.040 A 
ATOM     86  C   UNL A   1      41.153  27.317  26.234  1.00  0.00     0.040 A 
ATOM     87  F   UNL A   1      41.682  29.370  27.239  1.00  0.00    -0.206 F 
ATOM     88  C   UNL A   1      40.533  26.070  26.283  1.00  0.00     0.006 A 
ENDBRANCH  60  81
BRANCH  72  89
ATOM     89  C   UNL A   1      43.973  28.444  34.377  1.00  0.00     0.057 A 
ATOM     90  C   UNL A   1      43.769  27.234  35.052  1.00  0.00     0.134 A 
ATOM     91  C   UNL A   1      45.296  28.876  34.212  1.00  0.00     0.134 A 
ATOM     92  F   UNL A   1      42.526  26.770  35.254  1.00  0.00    -0.206 F 
ATOM     93  C   UNL A   1      44.837  26.494  35.563  1.00  0.00     0.040 A 
ATOM     94  C   UNL A   1      46.374  28.129  34.691  1.00  0.00     0.040 A 
ATOM     95  F   UNL A   1      45.565  30.021  33.566  1.00  0.00    -0.206 F 
ATOM     96  C   UNL A   1      46.144  26.938  35.375  1.00  0.00     0.006 A 
ENDBRANCH  72  89
ENDBRANCH  46  47
ENDBRANCH  38  41
ENDBRANCH  36  37
ENDBRANCH  35  36
ENDBRANCH  34  35
ENDBRANCH   1  34
TORSDOF 17
ENDMDL
MODEL 2
REMARK VINA RESULT:     -12.7      5.802     11.488
REMARK SMILES CCN1C(=O)N/C(=C/c2cc(Cl)c(OCc3cccc(C(=O)NCCCCNC(=O)c4ccc(-c5c6nc(c(-c7c(F)cccc7F)c7ccc([nH]7)c(-c7c(F)cccc7F)c7nc(c(-c8c(F)cccc8F)c8ccc5[nH]8)C=C7)C=C6)cc4)c3)c(OC)c2)C1=O
REMARK SMILES IDX 24 1 23 2 21 3 22 4 20 6 16 7 17 8 85 9 18 10 19 11 15 12
REMARK SMILES IDX 14 13 13 14 9 15 10 16 89 17 11 18 86 19 12 20 8 21 3 22
REMARK SMILES IDX 4 23 90 24 5 25 6 26 7 27 91 28 2 30 1 31 87 32 88 33 25 34
REMARK SMILES IDX 26 35 27 36 28 37 29 38 30 40 31 41 32 42 84 43 33 44 83 45
REMARK SMILES IDX 34 46 35 47 36 48 77 49 37 50 82 51 76 52 78 53 38 54 81 55
REMARK SMILES IDX 75 56 74 57 39 59 65 60 48 61 64 62 49 63 52 64 63 65 79 66
REMARK SMILES IDX 50 67 51 68 62 70 80 71 53 72 40 73 41 74 46 75 42 76 43 77
REMARK SMILES IDX 45 78 47 79 44 80 66 81 67 82 72 83 68 84 69 85 71 86 73 87
REMARK SMILES IDX 70 88 54 89 55 90 60 91 56 92 57 93 59 94 61 95 58 96
REMARK H PARENT 23 5 6 29 28 39 78 58 52 69
REMARK Flexibility Score: inf
ROOT
ATOM      1  C   UNL A   1      39.754  21.808  26.015  1.00  0.00     0.116 C 
ENDROOT
BRANCH   1   2
ATOM      2  N   UNL A   1      39.582  23.140  26.581  1.00  0.00    -0.352 N 
ATOM      3  C   UNL A   1      38.539  24.042  26.505  1.00  0.00     0.251 C 
ATOM      4  O   UNL A   1      38.648  25.115  27.097  1.00  0.00    -0.269 OA
ATOM      5  H   UNL A   1      40.348  23.452  27.113  1.00  0.00     0.163 HD
BRANCH   3   6
ATOM      6  C   UNL A   1      37.338  23.790  25.662  1.00  0.00     0.040 A 
ATOM      7  C   UNL A   1      34.921  23.528  25.503  1.00  0.00    -0.010 A 
ATOM      8  C   UNL A   1      35.098  22.795  24.326  1.00  0.00     0.007 A 
ATOM      9  C   UNL A   1      36.052  24.127  26.078  1.00  0.00     0.021 A 
ATOM     10  C   UNL A   1      36.372  22.653  23.764  1.00  0.00     0.001 A 
ATOM     11  C   UNL A   1      37.497  23.112  24.451  1.00  0.00     0.014 A 
BRANCH   7  12
ATOM     12  C   UNL A   1      33.636  23.620  26.313  1.00  0.00     0.265 C 
BRANCH  12  13
ATOM     13  O   UNL A   1      32.823  24.785  26.276  1.00  0.00    -0.483 OA
BRANCH  13  14
ATOM     14  C   UNL A   1      32.745  25.556  25.151  1.00  0.00     0.180 A 
ATOM     15  C   UNL A   1      32.440  27.492  23.153  1.00  0.00    -0.018 A 
ATOM     16  C   UNL A   1      32.004  26.182  22.940  1.00  0.00     0.033 A 
ATOM     17  C   UNL A   1      33.135  27.813  24.318  1.00  0.00     0.058 A 
ATOM     18  C   UNL A   1      32.163  25.209  23.926  1.00  0.00     0.087 A 
ATOM     19  C   UNL A   1      33.301  26.848  25.314  1.00  0.00     0.162 A 
ATOM     20  Cl  UNL A   1      31.643  23.619  23.491  1.00  0.00    -0.080 Cl
BRANCH  15  21
ATOM     21  C   UNL A   1      32.104  28.530  22.181  1.00  0.00     0.040 C 
ATOM     22  N   UNL A   1      28.835  29.918  22.712  1.00  0.00    -0.259 N 
ATOM     23  C   UNL A   1      29.263  30.539  21.554  1.00  0.00     0.328 C 
ATOM     24  C   UNL A   1      29.814  29.090  23.208  1.00  0.00     0.278 C 
ATOM     25  O   UNL A   1      28.641  31.325  20.859  1.00  0.00    -0.248 OA
ATOM     26  N   UNL A   1      30.547  30.103  21.280  1.00  0.00    -0.303 N 
ATOM     27  C   UNL A   1      30.944  29.195  22.214  1.00  0.00     0.109 C 
ATOM     28  O   UNL A   1      29.813  28.426  24.225  1.00  0.00    -0.267 OA
ATOM     29  H   UNL A   1      31.094  30.405  20.521  1.00  0.00     0.172 HD
BRANCH  22  30
ATOM     30  C   UNL A   1      27.494  30.119  23.233  1.00  0.00     0.127 C 
ATOM     31  C   UNL A   1      27.227  31.431  23.950  1.00  0.00     0.028 C 
ENDBRANCH  22  30
ENDBRANCH  15  21
BRANCH  19  32
ATOM     32  O   UNL A   1      33.932  27.089  26.514  1.00  0.00    -0.493 OA
ATOM     33  C   UNL A   1      33.708  28.350  27.132  1.00  0.00     0.278 C 
ENDBRANCH  19  32
ENDBRANCH  13  14
ENDBRANCH  12  13
ENDBRANCH   7  12
ENDBRANCH   3   6
ENDBRANCH   1   2
BRANCH   1  34
ATOM     34  C   UNL A   1      40.643  20.873  26.821  1.00  0.00     0.023 C 
BRANCH  34  35
ATOM     35  C   UNL A   1      41.259  19.712  26.058  1.00  0.00     0.023 C 
BRANCH  35  36
ATOM     36  C   UNL A   1      42.725  19.435  26.356  1.00  0.00     0.116 C 
BRANCH  36  37
ATOM     37  N   UNL A   1      43.469  18.900  25.222  1.00  0.00    -0.352 N 
ATOM     38  C   UNL A   1      44.398  19.526  24.423  1.00  0.00     0.251 C 
ATOM     39  H   UNL A   1      43.281  17.961  24.997  1.00  0.00     0.163 HD
ATOM     40  O   UNL A   1      44.871  18.954  23.447  1.00  0.00    -0.269 OA
BRANCH  38  41
ATOM     41  C   UNL A   1      44.790  20.917  24.730  1.00  0.00     0.039 A 
ATOM     42  C   UNL A   1      44.433  21.934  23.841  1.00  0.00     0.014 A 
ATOM     43  C   UNL A   1      45.442  21.220  25.927  1.00  0.00     0.014 A 
ATOM     44  C   UNL A   1      44.648  23.266  24.200  1.00  0.00     0.010 A 
ATOM     45  C   UNL A   1      45.568  22.546  26.322  1.00  0.00     0.010 A 
ATOM     46  C   UNL A   1      45.170  23.584  25.464  1.00  0.00    -0.014 A 
BRANCH  46  47
ATOM     47  C   UNL A   1      45.308  24.992  25.917  1.00  0.00     0.031 A 
ATOM     48  C   UNL A   1      46.654  25.659  25.891  1.00  0.00     0.074 A 
ATOM     49  C   UNL A   1      44.241  25.642  26.424  1.00  0.00     0.049 A 
ATOM     50  N   UNL A   1      47.001  26.842  26.328  1.00  0.00    -0.248 NA
ATOM     51  C   UNL A   1      47.768  24.878  25.327  1.00  0.00     0.031 C 
ATOM     52  C   UNL A   1      42.891  25.090  26.549  1.00  0.00     0.029 A 
ATOM     53  N   UNL A   1      44.129  26.909  26.942  1.00  0.00    -0.354 N 
ATOM     54  C   UNL A   1      48.369  26.941  26.106  1.00  0.00     0.074 A 
ATOM     55  C   UNL A   1      48.800  25.676  25.555  1.00  0.00     0.031 C 
ATOM     56  C   UNL A   1      42.082  26.019  27.084  1.00  0.00     0.029 A 
ATOM     57  C   UNL A   1      42.864  27.214  27.383  1.00  0.00     0.049 A 
ATOM     58  H   UNL A   1      44.884  27.538  26.993  1.00  0.00     0.167 HD
ATOM     59  C   UNL A   1      49.187  27.997  26.319  1.00  0.00     0.037 A 
ATOM     60  C   UNL A   1      42.390  28.329  27.973  1.00  0.00     0.037 A 
ATOM     61  C   UNL A   1      48.750  29.261  26.850  1.00  0.00     0.049 A 
ATOM     62  C   UNL A   1      43.324  29.483  28.218  1.00  0.00     0.074 A 
ATOM     63  C   UNL A   1      49.491  30.413  27.054  1.00  0.00     0.029 A 
ATOM     64  N   UNL A   1      47.458  29.537  27.270  1.00  0.00    -0.354 N 
ATOM     65  N   UNL A   1      44.601  29.587  27.940  1.00  0.00    -0.248 NA
ATOM     66  C   UNL A   1      42.750  30.677  28.854  1.00  0.00     0.031 C 
ATOM     67  C   UNL A   1      48.659  31.367  27.646  1.00  0.00     0.029 A 
ATOM     68  C   UNL A   1      47.386  30.834  27.755  1.00  0.00     0.049 A 
ATOM     69  H   UNL A   1      46.703  28.906  27.230  1.00  0.00     0.167 HD
ATOM     70  C   UNL A   1      44.974  30.866  28.333  1.00  0.00     0.074 A 
ATOM     71  C   UNL A   1      43.786  31.504  28.859  1.00  0.00     0.031 C 
ATOM     72  C   UNL A   1      46.191  31.460  28.263  1.00  0.00     0.037 A 
BRANCH  59  73
ATOM     73  C   UNL A   1      50.640  27.830  25.975  1.00  0.00     0.057 A 
ATOM     74  C   UNL A   1      51.115  27.992  24.666  1.00  0.00     0.134 A 
ATOM     75  C   UNL A   1      51.581  27.530  26.968  1.00  0.00     0.134 A 
ATOM     76  F   UNL A   1      50.266  28.267  23.663  1.00  0.00    -0.206 F 
ATOM     77  C   UNL A   1      52.466  27.834  24.353  1.00  0.00     0.040 A 
ATOM     78  C   UNL A   1      52.939  27.400  26.673  1.00  0.00     0.040 A 
ATOM     79  F   UNL A   1      51.197  27.367  28.244  1.00  0.00    -0.206 F 
ATOM     80  C   UNL A   1      53.383  27.544  25.361  1.00  0.00     0.006 A 
ENDBRANCH  59  73
BRANCH  60  81
ATOM     81  C   UNL A   1      40.959  28.419  28.360  1.00  0.00     0.057 A 
ATOM     82  C   UNL A   1      40.526  28.014  29.629  1.00  0.00     0.134 A 
ATOM     83  C   UNL A   1      39.986  28.897  27.473  1.00  0.00     0.134 A 
ATOM     84  F   UNL A   1      41.406  27.530  30.519  1.00  0.00    -0.206 F 
ATOM     85  C   UNL A   1      39.179  28.056  29.993  1.00  0.00     0.040 A 
ATOM     86  C   UNL A   1      38.640  28.972  27.834  1.00  0.00     0.040 A 
ATOM     87  F   UNL A   1      40.333  29.309  26.245  1.00  0.00    -0.206 F 
ATOM     88  C   UNL A   1      38.232  28.541  29.095  1.00  0.00     0.006 A 
ENDBRANCH  60  81
BRANCH  72  89
ATOM     89  C   UNL A   1      46.291  32.887  28.718  1.00  0.00     0.057 A 
ATOM     90  C   UNL A   1      46.626  33.230  30.033  1.00  0.00     0.134 A 
ATOM     91  C   UNL A   1      46.092  33.936  27.808  1.00  0.00     0.134 A 
ATOM     92  F   UNL A   1      46.817  32.275  30.956  1.00  0.00    -0.206 F 
ATOM     93  C   UNL A   1      46.736  34.562  30.435  1.00  0.00     0.040 A 
ATOM     94  C   UNL A   1      46.231  35.271  28.191  1.00  0.00     0.040 A 
ATOM     95  F   UNL A   1      45.779  33.679  26.529  1.00  0.00    -0.206 F 
ATOM     96  C   UNL A   1      46.547  35.586  29.510  1.00  0.00     0.006 A 
ENDBRANCH  72  89
ENDBRANCH  46  47
ENDBRANCH  38  41
ENDBRANCH  36  37
ENDBRANCH  35  36
ENDBRANCH  34  35
ENDBRANCH   1  34
TORSDOF 17
ENDMDL
MODEL 3
REMARK VINA RESULT:     -12.7      0.746      5.804
REMARK SMILES CCN1C(=O)N/C(=C/c2cc(Cl)c(OCc3cccc(C(=O)NCCCCNC(=O)c4ccc(-c5c6nc(c(-c7c(F)cccc7F)c7ccc([nH]7)c(-c7c(F)cccc7F)c7nc(c(-c8c(F)cccc8F)c8ccc5[nH]8)C=C7)C=C6)cc4)c3)c(OC)c2)C1=O
REMARK SMILES IDX 24 1 23 2 21 3 22 4 20 6 16 7 17 8 85 9 18 10 19 11 15 12
REMARK SMILES IDX 14 13 13 14 9 15 10 16 89 17 11 18 86 19 12 20 8 21 3 22
REMARK SMILES IDX 4 23 90 24 5 25 6 26 7 27 91 28 2 30 1 31 87 32 88 33 25 34
REMARK SMILES IDX 26 35 27 36 28 37 29 38 30 40 31 41 32 42 84 43 33 44 83 45
REMARK SMILES IDX 34 46 35 47 36 48 77 49 37 50 82 51 76 52 78 53 38 54 81 55
REMARK SMILES IDX 75 56 74 57 39 59 65 60 48 61 64 62 49 63 52 64 63 65 79 66
REMARK SMILES IDX 50 67 51 68 62 70 80 71 53 72 40 73 41 74 46 75 42 76 43 77
REMARK SMILES IDX 45 78 47 79 44 80 66 81 67 82 72 83 68 84 69 85 71 86 73 87
REMARK SMILES IDX 70 88 54 89 55 90 60 91 56 92 57 93 59 94 61 95 58 96
REMARK H PARENT 23 5 6 29 28 39 78 58 52 69
REMARK Flexibility Score: inf
ROOT
ATOM      1  C   UNL A   1      33.170  29.663  26.181  1.00  0.00     0.116 C 
ENDROOT
BRANCH   1   2
ATOM      2  N   UNL A   1      33.468  29.518  24.762  1.00  0.00    -0.352 N 
ATOM      3  C   UNL A   1      32.744  28.964  23.724  1.00  0.00     0.251 C 
ATOM      4  O   UNL A   1      33.233  28.979  22.595  1.00  0.00    -0.269 OA
ATOM      5  H   UNL A   1      34.343  29.879  24.496  1.00  0.00     0.163 HD
BRANCH   3   6
ATOM      6  C   UNL A   1      31.444  28.275  23.949  1.00  0.00     0.040 A 
ATOM      7  C   UNL A   1      30.237  26.301  24.710  1.00  0.00    -0.010 A 
ATOM      8  C   UNL A   1      29.156  26.676  23.907  1.00  0.00     0.007 A 
ATOM      9  C   UNL A   1      31.317  27.191  24.814  1.00  0.00     0.021 A 
ATOM     10  C   UNL A   1      29.177  27.892  23.215  1.00  0.00     0.001 A 
ATOM     11  C   UNL A   1      30.334  28.672  23.200  1.00  0.00     0.014 A 
BRANCH   7  12
ATOM     12  C   UNL A   1      30.427  24.946  25.376  1.00  0.00     0.265 C 
BRANCH  12  13
ATOM     13  O   UNL A   1      30.683  23.776  24.611  1.00  0.00    -0.483 OA
BRANCH  13  14
ATOM     14  C   UNL A   1      31.807  23.029  24.819  1.00  0.00     0.180 A 
ATOM     15  C   UNL A   1      33.969  21.251  24.845  1.00  0.00    -0.018 A 
ATOM     16  C   UNL A   1      33.315  21.585  26.033  1.00  0.00     0.033 A 
ATOM     17  C   UNL A   1      33.622  21.892  23.656  1.00  0.00     0.058 A 
ATOM     18  C   UNL A   1      32.245  22.479  26.030  1.00  0.00     0.087 A 
ATOM     19  C   UNL A   1      32.552  22.789  23.638  1.00  0.00     0.162 A 
ATOM     20  Cl  UNL A   1      31.584  22.851  27.583  1.00  0.00    -0.080 Cl
BRANCH  15  21
ATOM     21  C   UNL A   1      34.967  20.184  24.846  1.00  0.00     0.040 C 
ATOM     22  N   UNL A   1      33.490  16.911  24.797  1.00  0.00    -0.259 N 
ATOM     23  C   UNL A   1      34.842  16.650  24.912  1.00  0.00     0.328 C 
ATOM     24  C   UNL A   1      33.263  18.263  24.696  1.00  0.00     0.278 C 
ATOM     25  O   UNL A   1      35.382  15.563  25.028  1.00  0.00    -0.248 OA
ATOM     26  N   UNL A   1      35.516  17.858  24.897  1.00  0.00    -0.303 N 
ATOM     27  C   UNL A   1      34.631  18.889  24.805  1.00  0.00     0.109 C 
ATOM     28  O   UNL A   1      32.215  18.854  24.534  1.00  0.00    -0.267 OA
ATOM     29  H   UNL A   1      36.494  17.959  24.945  1.00  0.00     0.172 HD
BRANCH  22  30
ATOM     30  C   UNL A   1      32.503  15.846  24.846  1.00  0.00     0.127 C 
ATOM     31  C   UNL A   1      32.438  15.030  26.124  1.00  0.00     0.028 C 
ENDBRANCH  22  30
ENDBRANCH  15  21
BRANCH  19  32
ATOM     32  O   UNL A   1      32.111  23.431  22.503  1.00  0.00    -0.493 OA
ATOM     33  C   UNL A   1      33.047  24.237  21.800  1.00  0.00     0.278 C 
ENDBRANCH  19  32
ENDBRANCH  13  14
ENDBRANCH  12  13
ENDBRANCH   7  12
ENDBRANCH   3   6
ENDBRANCH   1   2
BRANCH   1  34
ATOM     34  C   UNL A   1      32.020  30.605  26.507  1.00  0.00     0.023 C 
BRANCH  34  35
ATOM     35  C   UNL A   1      32.291  31.642  27.584  1.00  0.00     0.023 C 
BRANCH  35  36
ATOM     36  C   UNL A   1      33.138  32.831  27.154  1.00  0.00     0.116 C 
BRANCH  36  37
ATOM     37  N   UNL A   1      32.597  34.122  27.560  1.00  0.00    -0.352 N 
ATOM     38  C   UNL A   1      33.011  34.954  28.575  1.00  0.00     0.251 C 
ATOM     39  H   UNL A   1      31.829  34.443  27.035  1.00  0.00     0.163 HD
ATOM     40  O   UNL A   1      32.385  35.974  28.842  1.00  0.00    -0.269 OA
BRANCH  38  41
ATOM     41  C   UNL A   1      34.197  34.581  29.372  1.00  0.00     0.039 A 
ATOM     42  C   UNL A   1      34.015  34.053  30.653  1.00  0.00     0.014 A 
ATOM     43  C   UNL A   1      35.478  34.683  28.824  1.00  0.00     0.014 A 
ATOM     44  C   UNL A   1      35.113  33.543  31.347  1.00  0.00     0.010 A 
ATOM     45  C   UNL A   1      36.552  34.089  29.476  1.00  0.00     0.010 A 
ATOM     46  C   UNL A   1      36.380  33.510  30.743  1.00  0.00    -0.014 A 
BRANCH  46  47
ATOM     47  C   UNL A   1      37.545  32.874  31.413  1.00  0.00     0.031 A 
ATOM     48  C   UNL A   1      38.196  31.667  30.797  1.00  0.00     0.074 A 
ATOM     49  C   UNL A   1      37.963  33.331  32.610  1.00  0.00     0.049 A 
ATOM     50  N   UNL A   1      39.157  30.915  31.266  1.00  0.00    -0.248 NA
ATOM     51  C   UNL A   1      37.676  31.230  29.490  1.00  0.00     0.031 C 
ATOM     52  C   UNL A   1      37.384  34.463  33.336  1.00  0.00     0.029 A 
ATOM     53  N   UNL A   1      38.968  32.889  33.434  1.00  0.00    -0.354 N 
ATOM     54  C   UNL A   1      39.345  29.911  30.325  1.00  0.00     0.074 A 
ATOM     55  C   UNL A   1      38.357  30.113  29.288  1.00  0.00     0.031 C 
ATOM     56  C   UNL A   1      38.058  34.640  34.485  1.00  0.00     0.029 A 
ATOM     57  C   UNL A   1      39.085  33.609  34.598  1.00  0.00     0.049 A 
ATOM     58  H   UNL A   1      39.550  32.126  33.212  1.00  0.00     0.167 HD
ATOM     59  C   UNL A   1      40.272  28.925  30.312  1.00  0.00     0.037 A 
ATOM     60  C   UNL A   1      39.918  33.450  35.645  1.00  0.00     0.037 A 
ATOM     61  C   UNL A   1      41.265  28.739  31.336  1.00  0.00     0.049 A 
ATOM     62  C   UNL A   1      40.926  32.333  35.617  1.00  0.00     0.074 A 
ATOM     63  C   UNL A   1      42.284  27.803  31.388  1.00  0.00     0.029 A 
ATOM     64  N   UNL A   1      41.361  29.499  32.491  1.00  0.00    -0.354 N 
ATOM     65  N   UNL A   1      41.137  31.433  34.687  1.00  0.00    -0.248 NA
ATOM     66  C   UNL A   1      41.816  32.214  36.780  1.00  0.00     0.031 C 
ATOM     67  C   UNL A   1      42.961  27.964  32.600  1.00  0.00     0.029 A 
ATOM     68  C   UNL A   1      42.407  29.038  33.275  1.00  0.00     0.049 A 
ATOM     69  H   UNL A   1      40.773  30.256  32.720  1.00  0.00     0.167 HD
ATOM     70  C   UNL A   1      42.204  30.665  35.136  1.00  0.00     0.074 A 
ATOM     71  C   UNL A   1      42.603  31.212  36.416  1.00  0.00     0.031 C 
ATOM     72  C   UNL A   1      42.801  29.602  34.541  1.00  0.00     0.037 A 
BRANCH  59  73
ATOM     73  C   UNL A   1      40.254  27.971  29.150  1.00  0.00     0.057 A 
ATOM     74  C   UNL A   1      41.006  28.203  27.990  1.00  0.00     0.134 A 
ATOM     75  C   UNL A   1      39.497  26.794  29.204  1.00  0.00     0.134 A 
ATOM     76  F   UNL A   1      41.743  29.317  27.868  1.00  0.00    -0.206 F 
ATOM     77  C   UNL A   1      40.984  27.312  26.915  1.00  0.00     0.040 A 
ATOM     78  C   UNL A   1      39.492  25.881  28.148  1.00  0.00     0.040 A 
ATOM     79  F   UNL A   1      38.758  26.506  30.286  1.00  0.00    -0.206 F 
ATOM     80  C   UNL A   1      40.230  26.144  26.996  1.00  0.00     0.006 A 
ENDBRANCH  59  73
BRANCH  60  81
ATOM     81  C   UNL A   1      39.848  34.377  36.804  1.00  0.00     0.057 A 
ATOM     82  C   UNL A   1      39.077  34.068  37.931  1.00  0.00     0.134 A 
ATOM     83  C   UNL A   1      40.536  35.597  36.810  1.00  0.00     0.134 A 
ATOM     84  F   UNL A   1      38.381  32.923  37.979  1.00  0.00    -0.206 F 
ATOM     85  C   UNL A   1      38.972  34.948  39.011  1.00  0.00     0.040 A 
ATOM     86  C   UNL A   1      40.461  36.473  37.895  1.00  0.00     0.040 A 
ATOM     87  F   UNL A   1      41.298  35.951  35.766  1.00  0.00    -0.206 F 
ATOM     88  C   UNL A   1      39.669  36.153  38.996  1.00  0.00     0.006 A 
ENDBRANCH  60  81
BRANCH  72  89
ATOM     89  C   UNL A   1      43.981  28.993  35.240  1.00  0.00     0.057 A 
ATOM     90  C   UNL A   1      43.839  28.006  36.224  1.00  0.00     0.134 A 
ATOM     91  C   UNL A   1      45.285  29.368  34.887  1.00  0.00     0.134 A 
ATOM     92  F   UNL A   1      42.619  27.610  36.616  1.00  0.00    -0.206 F 
ATOM     93  C   UNL A   1      44.948  27.433  36.849  1.00  0.00     0.040 A 
ATOM     94  C   UNL A   1      46.402  28.780  35.482  1.00  0.00     0.040 A 
ATOM     95  F   UNL A   1      45.495  30.300  33.944  1.00  0.00    -0.206 F 
ATOM     96  C   UNL A   1      46.234  27.814  36.471  1.00  0.00     0.006 A 
ENDBRANCH  72  89
ENDBRANCH  46  47
ENDBRANCH  38  41
ENDBRANCH  36  37
ENDBRANCH  35  36
ENDBRANCH  34  35
ENDBRANCH   1  34
TORSDOF 17
ENDMDL
