MODEL 1
REMARK VINA RESULT:     -11.0      0.000      0.000
REMARK SMILES O=C(COc1ccc2c(c1)CCC2)N[C@@H](CO)C(=O)NCCCCNC(=O)c1ccc(-c2c3nc(c(-c4c(F)cccc4F)c4ccc([nH]4)c(-c4c(F)cccc4F)c4nc(c(-c5c(F)cccc5F)c5ccc2[nH]5)C=C4)C=C3)cc1
REMARK SMILES IDX 21 1 20 2 18 3 19 4 15 6 14 7 1 8 2 9 3 11 4 12 5 13 6 14
REMARK SMILES IDX 10 15 7 16 9 17 8 18 11 19 13 20 12 21 16 22 17 23 22 25
REMARK SMILES IDX 23 26 24 27 25 28 26 29 27 31 28 32 29 33 81 34 30 35 80 36
REMARK SMILES IDX 31 37 32 38 33 39 74 40 34 41 79 42 73 43 75 44 35 45 78 46
REMARK SMILES IDX 72 47 71 48 36 50 62 51 45 52 61 53 46 54 49 55 60 56 76 57
REMARK SMILES IDX 47 58 48 59 59 61 77 62 50 63 37 64 38 65 43 66 39 67 40 68
REMARK SMILES IDX 42 69 44 70 41 71 63 72 64 73 69 74 65 75 66 76 68 77 70 78
REMARK SMILES IDX 67 79 51 80 52 81 57 82 53 83 54 84 56 85 58 86 55 87
REMARK H PARENT 20 5 14 10 17 24 25 30 75 49 49 60
REMARK Flexibility Score: inf
ROOT
ATOM      1  C   UNL A   1      33.022  36.200  29.220  1.00  0.00     0.116 C 
ENDROOT
BRANCH   1   2
ATOM      2  N   UNL A   1      33.363  37.073  30.327  1.00  0.00    -0.354 N 
ATOM      3  C   UNL A   1      33.334  36.847  31.672  1.00  0.00     0.244 C 
ATOM      4  O   UNL A   1      33.891  37.677  32.397  1.00  0.00    -0.273 OA
ATOM      5  H   UNL A   1      33.663  37.974  30.066  1.00  0.00     0.163 HD
BRANCH   3   6
ATOM      6  C   UNL A   1      32.692  35.585  32.277  1.00  0.00     0.197 C 
BRANCH   6   7
ATOM      7  N   UNL A   1      33.571  34.991  33.285  1.00  0.00    -0.339 N 
ATOM      8  O   UNL A   1      33.866  32.989  32.212  1.00  0.00    -0.271 OA
ATOM      9  C   UNL A   1      34.217  33.794  33.068  1.00  0.00     0.258 C 
ATOM     10  H   UNL A   1      33.703  35.459  34.141  1.00  0.00     0.164 HD
BRANCH   9  11
ATOM     11  C   UNL A   1      35.420  33.565  33.992  1.00  0.00     0.329 C 
BRANCH  11  12
ATOM     12  O   UNL A   1      36.228  34.724  34.221  1.00  0.00    -0.484 OA
BRANCH  12  13
ATOM     13  C   UNL A   1      37.450  34.678  33.596  1.00  0.00     0.120 A 
ATOM     14  C   UNL A   1      38.652  34.572  34.314  1.00  0.00     0.047 A 
ATOM     15  C   UNL A   1      37.457  34.622  32.199  1.00  0.00     0.050 A 
ATOM     16  C   UNL A   1      39.874  34.432  33.654  1.00  0.00     0.008 A 
ATOM     17  C   UNL A   1      38.676  34.477  31.550  1.00  0.00    -0.041 A 
ATOM     18  C   UNL A   1      39.870  34.379  32.272  1.00  0.00    -0.045 A 
ATOM     19  C   UNL A   1      38.951  34.434  30.078  1.00  0.00     0.036 C 
ATOM     20  C   UNL A   1      41.047  34.248  31.359  1.00  0.00     0.036 C 
ATOM     21  C   UNL A   1      40.361  33.819  30.055  1.00  0.00     0.010 C 
ENDBRANCH  12  13
ENDBRANCH  11  12
ENDBRANCH   9  11
ENDBRANCH   6   7
BRANCH   6  22
ATOM     22  C   UNL A   1      31.240  35.818  32.711  1.00  0.00     0.191 C 
BRANCH  22  23
ATOM     23  O   UNL A   1      31.065  36.939  33.575  1.00  0.00    -0.394 OA
ATOM     24  H   UNL A   1      30.366  36.745  34.220  1.00  0.00     0.210 HD
ENDBRANCH  22  23
ENDBRANCH   6  22
ENDBRANCH   3   6
ENDBRANCH   1   2
BRANCH   1  25
ATOM     25  C   UNL A   1      34.259  35.595  28.564  1.00  0.00     0.023 C 
BRANCH  25  26
ATOM     26  C   UNL A   1      34.708  34.261  29.156  1.00  0.00     0.023 C 
BRANCH  26  27
ATOM     27  C   UNL A   1      35.264  33.259  28.150  1.00  0.00     0.116 C 
BRANCH  27  28
ATOM     28  N   UNL A   1      34.303  32.231  27.779  1.00  0.00    -0.352 N 
ATOM     29  C   UNL A   1      34.458  30.869  27.726  1.00  0.00     0.251 C 
ATOM     30  H   UNL A   1      33.410  32.561  27.529  1.00  0.00     0.163 HD
ATOM     31  O   UNL A   1      33.566  30.170  27.247  1.00  0.00    -0.269 OA
BRANCH  29  32
ATOM     32  C   UNL A   1      35.704  30.240  28.213  1.00  0.00     0.039 A 
ATOM     33  C   UNL A   1      36.806  30.193  27.357  1.00  0.00     0.014 A 
ATOM     34  C   UNL A   1      35.794  29.703  29.500  1.00  0.00     0.014 A 
ATOM     35  C   UNL A   1      38.013  29.662  27.814  1.00  0.00     0.010 A 
ATOM     36  C   UNL A   1      37.022  29.260  29.985  1.00  0.00     0.010 A 
ATOM     37  C   UNL A   1      38.144  29.226  29.145  1.00  0.00    -0.014 A 
BRANCH  37  38
ATOM     38  C   UNL A   1      39.457  28.751  29.654  1.00  0.00     0.031 A 
ATOM     39  C   UNL A   1      40.078  29.368  30.877  1.00  0.00     0.074 A 
ATOM     40  C   UNL A   1      40.100  27.765  28.996  1.00  0.00     0.049 A 
ATOM     41  N   UNL A   1      41.184  29.038  31.497  1.00  0.00    -0.248 NA
ATOM     42  C   UNL A   1      39.386  30.523  31.472  1.00  0.00     0.031 C 
ATOM     43  C   UNL A   1      39.637  27.132  27.758  1.00  0.00     0.029 A 
ATOM     44  N   UNL A   1      41.273  27.113  29.281  1.00  0.00    -0.354 N 
ATOM     45  C   UNL A   1      41.321  29.943  32.541  1.00  0.00     0.074 A 
ATOM     46  C   UNL A   1      40.220  30.874  32.440  1.00  0.00     0.031 C 
ATOM     47  C   UNL A   1      40.485  26.147  27.423  1.00  0.00     0.029 A 
ATOM     48  C   UNL A   1      41.569  26.101  28.398  1.00  0.00     0.049 A 
ATOM     49  H   UNL A   1      41.847  27.345  30.046  1.00  0.00     0.167 HD
ATOM     50  C   UNL A   1      42.265  29.980  33.512  1.00  0.00     0.037 A 
ATOM     51  C   UNL A   1      42.594  25.229  28.384  1.00  0.00     0.037 A 
ATOM     52  C   UNL A   1      43.347  29.037  33.625  1.00  0.00     0.049 A 
ATOM     53  C   UNL A   1      43.619  25.289  29.482  1.00  0.00     0.074 A 
ATOM     54  C   UNL A   1      44.309  28.944  34.616  1.00  0.00     0.029 A 
ATOM     55  N   UNL A   1      43.617  28.030  32.710  1.00  0.00    -0.354 N 
ATOM     56  N   UNL A   1      43.676  26.086  30.522  1.00  0.00    -0.248 NA
ATOM     57  C   UNL A   1      44.717  24.316  29.410  1.00  0.00     0.031 C 
ATOM     58  C   UNL A   1      45.195  27.917  34.271  1.00  0.00     0.029 A 
ATOM     59  C   UNL A   1      44.748  27.330  33.098  1.00  0.00     0.049 A 
ATOM     60  H   UNL A   1      43.083  27.840  31.906  1.00  0.00     0.167 HD
ATOM     61  C   UNL A   1      44.797  25.689  31.242  1.00  0.00     0.074 A 
ATOM     62  C   UNL A   1      45.370  24.563  30.535  1.00  0.00     0.031 C 
ATOM     63  C   UNL A   1      45.309  26.213  32.384  1.00  0.00     0.037 A 
BRANCH  50  64
ATOM     64  C   UNL A   1      42.172  31.076  34.537  1.00  0.00     0.057 A 
ATOM     65  C   UNL A   1      41.430  30.929  35.716  1.00  0.00     0.134 A 
ATOM     66  C   UNL A   1      42.881  32.272  34.368  1.00  0.00     0.134 A 
ATOM     67  F   UNL A   1      40.718  29.812  35.937  1.00  0.00    -0.206 F 
ATOM     68  C   UNL A   1      41.379  31.938  36.680  1.00  0.00     0.040 A 
ATOM     69  C   UNL A   1      42.861  33.277  35.337  1.00  0.00     0.040 A 
ATOM     70  F   UNL A   1      43.615  32.479  33.265  1.00  0.00    -0.206 F 
ATOM     71  C   UNL A   1      42.105  33.113  36.496  1.00  0.00     0.006 A 
ENDBRANCH  50  64
BRANCH  51  72
ATOM     72  C   UNL A   1      42.692  24.198  27.318  1.00  0.00     0.057 A 
ATOM     73  C   UNL A   1      42.211  22.898  27.523  1.00  0.00     0.134 A 
ATOM     74  C   UNL A   1      43.306  24.468  26.089  1.00  0.00     0.134 A 
ATOM     75  F   UNL A   1      41.629  22.570  28.686  1.00  0.00    -0.206 F 
ATOM     76  C   UNL A   1      42.369  21.897  26.562  1.00  0.00     0.040 A 
ATOM     77  C   UNL A   1      43.442  23.487  25.107  1.00  0.00     0.040 A 
ATOM     78  F   UNL A   1      43.781  25.695  25.825  1.00  0.00    -0.206 F 
ATOM     79  C   UNL A   1      42.984  22.193  25.348  1.00  0.00     0.006 A 
ENDBRANCH  51  72
BRANCH  63  80
ATOM     80  C   UNL A   1      46.530  25.543  32.949  1.00  0.00     0.057 A 
ATOM     81  C   UNL A   1      46.443  24.509  33.890  1.00  0.00     0.134 A 
ATOM     82  C   UNL A   1      47.812  25.946  32.553  1.00  0.00     0.134 A 
ATOM     83  F   UNL A   1      45.246  24.081  34.322  1.00  0.00    -0.206 F 
ATOM     84  C   UNL A   1      47.584  23.934  34.452  1.00  0.00     0.040 A 
ATOM     85  C   UNL A   1      48.960  25.355  33.081  1.00  0.00     0.040 A 
ATOM     86  F   UNL A   1      47.971  26.922  31.646  1.00  0.00    -0.206 F 
ATOM     87  C   UNL A   1      48.848  24.355  34.045  1.00  0.00     0.006 A 
ENDBRANCH  63  80
ENDBRANCH  37  38
ENDBRANCH  29  32
ENDBRANCH  27  28
ENDBRANCH  26  27
ENDBRANCH  25  26
ENDBRANCH   1  25
TORSDOF 17
ENDMDL
MODEL 2
REMARK VINA RESULT:     -10.7      5.090     12.250
REMARK SMILES O=C(COc1ccc2c(c1)CCC2)N[C@@H](CO)C(=O)NCCCCNC(=O)c1ccc(-c2c3nc(c(-c4c(F)cccc4F)c4ccc([nH]4)c(-c4c(F)cccc4F)c4nc(c(-c5c(F)cccc5F)c5ccc2[nH]5)C=C4)C=C3)cc1
REMARK SMILES IDX 21 1 20 2 18 3 19 4 15 6 14 7 1 8 2 9 3 11 4 12 5 13 6 14
REMARK SMILES IDX 10 15 7 16 9 17 8 18 11 19 13 20 12 21 16 22 17 23 22 25
REMARK SMILES IDX 23 26 24 27 25 28 26 29 27 31 28 32 29 33 81 34 30 35 80 36
REMARK SMILES IDX 31 37 32 38 33 39 74 40 34 41 79 42 73 43 75 44 35 45 78 46
REMARK SMILES IDX 72 47 71 48 36 50 62 51 45 52 61 53 46 54 49 55 60 56 76 57
REMARK SMILES IDX 47 58 48 59 59 61 77 62 50 63 37 64 38 65 43 66 39 67 40 68
REMARK SMILES IDX 42 69 44 70 41 71 63 72 64 73 69 74 65 75 66 76 68 77 70 78
REMARK SMILES IDX 67 79 51 80 52 81 57 82 53 83 54 84 56 85 58 86 55 87
REMARK H PARENT 20 5 14 10 17 24 25 30 75 49 49 60
REMARK Flexibility Score: inf
ROOT
ATOM      1  C   UNL A   1      42.069  19.137  26.258  1.00  0.00     0.116 C 
ENDROOT
BRANCH   1   2
ATOM      2  N   UNL A   1      43.328  18.427  26.144  1.00  0.00    -0.354 N 
ATOM      3  C   UNL A   1      44.417  18.678  25.360  1.00  0.00     0.244 C 
ATOM      4  O   UNL A   1      45.453  18.056  25.617  1.00  0.00    -0.273 OA
ATOM      5  H   UNL A   1      43.412  17.637  26.725  1.00  0.00     0.163 HD
BRANCH   3   6
ATOM      6  C   UNL A   1      44.393  19.730  24.238  1.00  0.00     0.197 C 
BRANCH   6   7
ATOM      7  N   UNL A   1      45.078  20.952  24.660  1.00  0.00    -0.339 N 
ATOM      8  O   UNL A   1      44.265  22.288  22.987  1.00  0.00    -0.271 OA
ATOM      9  C   UNL A   1      44.808  22.172  24.080  1.00  0.00     0.258 C 
ATOM     10  H   UNL A   1      45.750  20.901  25.378  1.00  0.00     0.164 HD
BRANCH   9  11
ATOM     11  C   UNL A   1      45.245  23.371  24.931  1.00  0.00     0.329 C 
BRANCH  11  12
ATOM     12  O   UNL A   1      46.413  23.147  25.727  1.00  0.00    -0.484 OA
BRANCH  12  13
ATOM     13  C   UNL A   1      46.360  23.739  26.965  1.00  0.00     0.120 A 
ATOM     14  C   UNL A   1      47.333  24.656  27.396  1.00  0.00     0.047 A 
ATOM     15  C   UNL A   1      45.231  23.488  27.751  1.00  0.00     0.050 A 
ATOM     16  C   UNL A   1      47.206  25.315  28.620  1.00  0.00     0.008 A 
ATOM     17  C   UNL A   1      45.110  24.152  28.964  1.00  0.00    -0.041 A 
ATOM     18  C   UNL A   1      46.087  25.059  29.390  1.00  0.00    -0.045 A 
ATOM     19  C   UNL A   1      44.030  24.026  29.994  1.00  0.00     0.036 C 
ATOM     20  C   UNL A   1      45.748  25.631  30.730  1.00  0.00     0.036 C 
ATOM     21  C   UNL A   1      44.251  25.307  30.817  1.00  0.00     0.010 C 
ENDBRANCH  12  13
ENDBRANCH  11  12
ENDBRANCH   9  11
ENDBRANCH   6   7
BRANCH   6  22
ATOM     22  C   UNL A   1      44.830  19.154  22.885  1.00  0.00     0.191 C 
BRANCH  22  23
ATOM     23  O   UNL A   1      46.224  18.870  22.798  1.00  0.00    -0.394 OA
ATOM     24  H   UNL A   1      46.676  19.223  23.580  1.00  0.00     0.210 HD
ENDBRANCH  22  23
ENDBRANCH   6  22
ENDBRANCH   3   6
ENDBRANCH   1   2
BRANCH   1  25
ATOM     25  C   UNL A   1      41.924  19.835  27.606  1.00  0.00     0.023 C 
BRANCH  25  26
ATOM     26  C   UNL A   1      41.210  21.184  27.553  1.00  0.00     0.023 C 
BRANCH  26  27
ATOM     27  C   UNL A   1      40.970  21.737  26.152  1.00  0.00     0.116 C 
BRANCH  27  28
ATOM     28  N   UNL A   1      39.562  21.967  25.864  1.00  0.00    -0.352 N 
ATOM     29  C   UNL A   1      38.773  23.047  26.165  1.00  0.00     0.251 C 
ATOM     30  H   UNL A   1      39.109  21.238  25.381  1.00  0.00     0.163 HD
ATOM     31  O   UNL A   1      37.561  22.994  25.964  1.00  0.00    -0.269 OA
BRANCH  29  32
ATOM     32  C   UNL A   1      39.368  24.262  26.760  1.00  0.00     0.039 A 
ATOM     33  C   UNL A   1      40.033  25.160  25.922  1.00  0.00     0.014 A 
ATOM     34  C   UNL A   1      39.276  24.523  28.130  1.00  0.00     0.014 A 
ATOM     35  C   UNL A   1      40.549  26.344  26.449  1.00  0.00     0.010 A 
ATOM     36  C   UNL A   1      39.708  25.746  28.637  1.00  0.00     0.010 A 
ATOM     37  C   UNL A   1      40.357  26.667  27.804  1.00  0.00    -0.014 A 
BRANCH  37  38
ATOM     38  C   UNL A   1      40.824  27.973  28.338  1.00  0.00     0.031 A 
ATOM     39  C   UNL A   1      42.287  28.324  28.346  1.00  0.00     0.074 A 
ATOM     40  C   UNL A   1      39.920  28.842  28.835  1.00  0.00     0.049 A 
ATOM     41  N   UNL A   1      42.866  29.440  28.715  1.00  0.00    -0.248 NA
ATOM     42  C   UNL A   1      43.230  27.282  27.908  1.00  0.00     0.031 C 
ATOM     43  C   UNL A   1      38.480  28.592  28.948  1.00  0.00     0.029 A 
ATOM     44  N   UNL A   1      40.074  30.114  29.325  1.00  0.00    -0.354 N 
ATOM     45  C   UNL A   1      44.230  29.231  28.562  1.00  0.00     0.074 A 
ATOM     46  C   UNL A   1      44.400  27.864  28.123  1.00  0.00     0.031 C 
ATOM     47  C   UNL A   1      37.878  29.695  29.420  1.00  0.00     0.029 A 
ATOM     48  C   UNL A   1      38.888  30.715  29.677  1.00  0.00     0.049 A 
ATOM     49  H   UNL A   1      40.949  30.555  29.414  1.00  0.00     0.167 HD
ATOM     50  C   UNL A   1      45.248  30.106  28.745  1.00  0.00     0.037 A 
ATOM     51  C   UNL A   1      38.644  31.954  30.144  1.00  0.00     0.037 A 
ATOM     52  C   UNL A   1      45.073  31.474  29.158  1.00  0.00     0.049 A 
ATOM     53  C   UNL A   1      39.793  32.905  30.325  1.00  0.00     0.074 A 
ATOM     54  C   UNL A   1      46.033  32.461  29.298  1.00  0.00     0.029 A 
ATOM     55  N   UNL A   1      43.859  32.046  29.509  1.00  0.00    -0.354 N 
ATOM     56  N   UNL A   1      41.068  32.725  30.076  1.00  0.00    -0.248 NA
ATOM     57  C   UNL A   1      39.466  34.241  30.844  1.00  0.00     0.031 C 
ATOM     58  C   UNL A   1      45.409  33.613  29.789  1.00  0.00     0.029 A 
ATOM     59  C   UNL A   1      44.051  33.363  29.895  1.00  0.00     0.049 A 
ATOM     60  H   UNL A   1      42.990  31.584  29.487  1.00  0.00     0.167 HD
ATOM     61  C   UNL A   1      41.688  33.932  30.376  1.00  0.00     0.074 A 
ATOM     62  C   UNL A   1      40.644  34.844  30.797  1.00  0.00     0.031 C 
ATOM     63  C   UNL A   1      43.003  34.258  30.314  1.00  0.00     0.037 A 
BRANCH  50  64
ATOM     64  C   UNL A   1      46.647  29.615  28.496  1.00  0.00     0.057 A 
ATOM     65  C   UNL A   1      47.426  29.048  29.513  1.00  0.00     0.134 A 
ATOM     66  C   UNL A   1      47.199  29.658  27.210  1.00  0.00     0.134 A 
ATOM     67  F   UNL A   1      46.962  28.985  30.771  1.00  0.00    -0.206 F 
ATOM     68  C   UNL A   1      48.711  28.561  29.264  1.00  0.00     0.040 A 
ATOM     69  C   UNL A   1      48.471  29.148  26.943  1.00  0.00     0.040 A 
ATOM     70  F   UNL A   1      46.506  30.184  26.188  1.00  0.00    -0.206 F 
ATOM     71  C   UNL A   1      49.233  28.601  27.973  1.00  0.00     0.006 A 
ENDBRANCH  50  64
BRANCH  51  72
ATOM     72  C   UNL A   1      37.253  32.387  30.442  1.00  0.00     0.057 A 
ATOM     73  C   UNL A   1      36.481  33.050  29.478  1.00  0.00     0.134 A 
ATOM     74  C   UNL A   1      36.678  32.193  31.702  1.00  0.00     0.134 A 
ATOM     75  F   UNL A   1      36.981  33.282  28.256  1.00  0.00    -0.206 F 
ATOM     76  C   UNL A   1      35.204  33.534  29.769  1.00  0.00     0.040 A 
ATOM     77  C   UNL A   1      35.391  32.644  31.997  1.00  0.00     0.040 A 
ATOM     78  F   UNL A   1      37.361  31.558  32.668  1.00  0.00    -0.206 F 
ATOM     79  C   UNL A   1      34.655  33.328  31.032  1.00  0.00     0.006 A 
ENDBRANCH  51  72
BRANCH  63  80
ATOM     80  C   UNL A   1      43.371  35.669  30.678  1.00  0.00     0.057 A 
ATOM     81  C   UNL A   1      43.477  36.682  29.717  1.00  0.00     0.134 A 
ATOM     82  C   UNL A   1      43.634  36.015  32.010  1.00  0.00     0.134 A 
ATOM     83  F   UNL A   1      43.250  36.417  28.421  1.00  0.00    -0.206 F 
ATOM     84  C   UNL A   1      43.877  37.975  30.058  1.00  0.00     0.040 A 
ATOM     85  C   UNL A   1      44.000  37.313  32.370  1.00  0.00     0.040 A 
ATOM     86  F   UNL A   1      43.540  35.098  32.986  1.00  0.00    -0.206 F 
ATOM     87  C   UNL A   1      44.136  38.294  31.390  1.00  0.00     0.006 A 
ENDBRANCH  63  80
ENDBRANCH  37  38
ENDBRANCH  29  32
ENDBRANCH  27  28
ENDBRANCH  26  27
ENDBRANCH  25  26
ENDBRANCH   1  25
TORSDOF 17
ENDMDL
MODEL 3
REMARK VINA RESULT:     -10.3      0.967      6.327
REMARK SMILES O=C(COc1ccc2c(c1)CCC2)N[C@@H](CO)C(=O)NCCCCNC(=O)c1ccc(-c2c3nc(c(-c4c(F)cccc4F)c4ccc([nH]4)c(-c4c(F)cccc4F)c4nc(c(-c5c(F)cccc5F)c5ccc2[nH]5)C=C4)C=C3)cc1
REMARK SMILES IDX 21 1 20 2 18 3 19 4 15 6 14 7 1 8 2 9 3 11 4 12 5 13 6 14
REMARK SMILES IDX 10 15 7 16 9 17 8 18 11 19 13 20 12 21 16 22 17 23 22 25
REMARK SMILES IDX 23 26 24 27 25 28 26 29 27 31 28 32 29 33 81 34 30 35 80 36
REMARK SMILES IDX 31 37 32 38 33 39 74 40 34 41 79 42 73 43 75 44 35 45 78 46
REMARK SMILES IDX 72 47 71 48 36 50 62 51 45 52 61 53 46 54 49 55 60 56 76 57
REMARK SMILES IDX 47 58 48 59 59 61 77 62 50 63 37 64 38 65 43 66 39 67 40 68
REMARK SMILES IDX 42 69 44 70 41 71 63 72 64 73 69 74 65 75 66 76 68 77 70 78
REMARK SMILES IDX 67 79 51 80 52 81 57 82 53 83 54 84 56 85 58 86 55 87
REMARK H PARENT 20 5 14 10 17 24 25 30 75 49 49 60
REMARK Flexibility Score: inf
ROOT
ATOM      1  C   UNL A   1      32.939  36.051  29.115  1.00  0.00     0.116 C 
ENDROOT
BRANCH   1   2
ATOM      2  N   UNL A   1      33.133  37.065  30.133  1.00  0.00    -0.354 N 
ATOM      3  C   UNL A   1      33.083  36.972  31.494  1.00  0.00     0.244 C 
ATOM      4  O   UNL A   1      33.510  37.933  32.142  1.00  0.00    -0.273 OA
ATOM      5  H   UNL A   1      33.332  37.965  29.788  1.00  0.00     0.163 HD
BRANCH   3   6
ATOM      6  C   UNL A   1      32.575  35.708  32.211  1.00  0.00     0.197 C 
BRANCH   6   7
ATOM      7  N   UNL A   1      33.511  35.297  33.257  1.00  0.00    -0.339 N 
ATOM      8  O   UNL A   1      33.825  33.162  32.487  1.00  0.00    -0.271 OA
ATOM      9  C   UNL A   1      34.185  34.097  33.195  1.00  0.00     0.258 C 
ATOM     10  H   UNL A   1      33.663  35.893  34.026  1.00  0.00     0.164 HD
BRANCH   9  11
ATOM     11  C   UNL A   1      35.430  34.041  34.089  1.00  0.00     0.329 C 
BRANCH  11  12
ATOM     12  O   UNL A   1      36.355  33.000  33.762  1.00  0.00    -0.484 OA
BRANCH  12  13
ATOM     13  C   UNL A   1      37.577  33.459  33.336  1.00  0.00     0.120 A 
ATOM     14  C   UNL A   1      38.661  33.621  34.214  1.00  0.00     0.047 A 
ATOM     15  C   UNL A   1      37.748  33.654  31.962  1.00  0.00     0.050 A 
ATOM     16  C   UNL A   1      39.919  34.000  33.740  1.00  0.00     0.008 A 
ATOM     17  C   UNL A   1      39.003  34.024  31.499  1.00  0.00    -0.041 A 
ATOM     18  C   UNL A   1      40.076  34.191  32.380  1.00  0.00    -0.045 A 
ATOM     19  C   UNL A   1      39.428  34.330  30.095  1.00  0.00     0.036 C 
ATOM     20  C   UNL A   1      41.316  34.608  31.653  1.00  0.00     0.036 C 
ATOM     21  C   UNL A   1      40.957  34.215  30.214  1.00  0.00     0.010 C 
ENDBRANCH  12  13
ENDBRANCH  11  12
ENDBRANCH   9  11
ENDBRANCH   6   7
BRANCH   6  22
ATOM     22  C   UNL A   1      31.107  35.828  32.638  1.00  0.00     0.191 C 
BRANCH  22  23
ATOM     23  O   UNL A   1      30.869  36.827  33.626  1.00  0.00    -0.394 OA
ATOM     24  H   UNL A   1      31.648  37.400  33.703  1.00  0.00     0.210 HD
ENDBRANCH  22  23
ENDBRANCH   6  22
ENDBRANCH   3   6
ENDBRANCH   1   2
BRANCH   1  25
ATOM     25  C   UNL A   1      34.080  35.040  29.087  1.00  0.00     0.023 C 
BRANCH  25  26
ATOM     26  C   UNL A   1      33.639  33.580  29.013  1.00  0.00     0.023 C 
BRANCH  26  27
ATOM     27  C   UNL A   1      34.697  32.607  28.502  1.00  0.00     0.116 C 
BRANCH  27  28
ATOM     28  N   UNL A   1      34.128  31.424  27.876  1.00  0.00    -0.352 N 
ATOM     29  C   UNL A   1      34.704  30.204  27.628  1.00  0.00     0.251 C 
ATOM     30  H   UNL A   1      33.192  31.512  27.586  1.00  0.00     0.163 HD
ATOM     31  O   UNL A   1      34.103  29.370  26.953  1.00  0.00    -0.269 OA
BRANCH  29  32
ATOM     32  C   UNL A   1      36.056  29.900  28.141  1.00  0.00     0.039 A 
ATOM     33  C   UNL A   1      36.177  29.355  29.422  1.00  0.00     0.014 A 
ATOM     34  C   UNL A   1      37.198  30.144  27.375  1.00  0.00     0.014 A 
ATOM     35  C   UNL A   1      37.438  29.001  29.905  1.00  0.00     0.010 A 
ATOM     36  C   UNL A   1      38.443  29.704  27.820  1.00  0.00     0.010 A 
ATOM     37  C   UNL A   1      38.578  29.136  29.094  1.00  0.00    -0.014 A 
BRANCH  37  38
ATOM     38  C   UNL A   1      39.903  28.667  29.577  1.00  0.00     0.031 A 
ATOM     39  C   UNL A   1      40.577  27.478  28.949  1.00  0.00     0.074 A 
ATOM     40  C   UNL A   1      40.495  29.313  30.602  1.00  0.00     0.049 A 
ATOM     41  N   UNL A   1      41.757  26.970  29.202  1.00  0.00    -0.248 NA
ATOM     42  C   UNL A   1      39.820  26.743  27.923  1.00  0.00     0.031 C 
ATOM     43  C   UNL A   1      39.915  30.437  31.342  1.00  0.00     0.029 A 
ATOM     44  N   UNL A   1      41.720  29.128  31.192  1.00  0.00    -0.354 N 
ATOM     45  C   UNL A   1      41.879  25.860  28.376  1.00  0.00     0.074 A 
ATOM     46  C   UNL A   1      40.632  25.730  27.656  1.00  0.00     0.031 C 
ATOM     47  C   UNL A   1      40.805  30.876  32.246  1.00  0.00     0.029 A 
ATOM     48  C   UNL A   1      42.002  30.045  32.177  1.00  0.00     0.049 A 
ATOM     49  H   UNL A   1      42.340  28.409  30.933  1.00  0.00     0.167 HD
ATOM     50  C   UNL A   1      42.944  25.038  28.212  1.00  0.00     0.037 A 
ATOM     51  C   UNL A   1      43.105  30.204  32.931  1.00  0.00     0.037 A 
ATOM     52  C   UNL A   1      44.194  25.184  28.911  1.00  0.00     0.049 A 
ATOM     53  C   UNL A   1      44.274  29.283  32.717  1.00  0.00     0.074 A 
ATOM     54  C   UNL A   1      45.357  24.450  28.759  1.00  0.00     0.029 A 
ATOM     55  N   UNL A   1      44.440  26.122  29.904  1.00  0.00    -0.354 N 
ATOM     56  N   UNL A   1      44.412  28.302  31.857  1.00  0.00    -0.248 NA
ATOM     57  C   UNL A   1      45.448  29.501  33.573  1.00  0.00     0.031 C 
ATOM     58  C   UNL A   1      46.289  24.905  29.699  1.00  0.00     0.029 A 
ATOM     59  C   UNL A   1      45.726  25.964  30.393  1.00  0.00     0.049 A 
ATOM     60  H   UNL A   1      43.796  26.799  30.213  1.00  0.00     0.167 HD
ATOM     61  C   UNL A   1      45.697  27.808  32.048  1.00  0.00     0.074 A 
ATOM     62  C   UNL A   1      46.306  28.618  33.084  1.00  0.00     0.031 C 
ATOM     63  C   UNL A   1      46.318  26.775  31.426  1.00  0.00     0.037 A 
BRANCH  50  64
ATOM     64  C   UNL A   1      42.809  23.904  27.234  1.00  0.00     0.057 A 
ATOM     65  C   UNL A   1      43.196  24.028  25.894  1.00  0.00     0.134 A 
ATOM     66  C   UNL A   1      42.337  22.653  27.654  1.00  0.00     0.134 A 
ATOM     67  F   UNL A   1      43.646  25.202  25.422  1.00  0.00    -0.206 F 
ATOM     68  C   UNL A   1      43.101  22.958  25.002  1.00  0.00     0.040 A 
ATOM     69  C   UNL A   1      42.265  21.568  26.780  1.00  0.00     0.040 A 
ATOM     70  F   UNL A   1      41.953  22.462  28.925  1.00  0.00    -0.206 F 
ATOM     71  C   UNL A   1      42.644  21.720  25.447  1.00  0.00     0.006 A 
ENDBRANCH  50  64
BRANCH  51  72
ATOM     72  C   UNL A   1      43.182  31.297  33.936  1.00  0.00     0.057 A 
ATOM     73  C   UNL A   1      42.738  31.102  35.250  1.00  0.00     0.134 A 
ATOM     74  C   UNL A   1      43.657  32.569  33.601  1.00  0.00     0.134 A 
ATOM     75  F   UNL A   1      42.254  29.910  35.629  1.00  0.00    -0.206 F 
ATOM     76  C   UNL A   1      42.729  32.142  36.182  1.00  0.00     0.040 A 
ATOM     77  C   UNL A   1      43.684  33.609  34.531  1.00  0.00     0.040 A 
ATOM     78  F   UNL A   1      44.106  32.821  32.362  1.00  0.00    -0.206 F 
ATOM     79  C   UNL A   1      43.206  33.399  35.824  1.00  0.00     0.006 A 
ENDBRANCH  51  72
BRANCH  63  80
ATOM     80  C   UNL A   1      47.738  26.493  31.832  1.00  0.00     0.057 A 
ATOM     81  C   UNL A   1      48.827  27.116  31.208  1.00  0.00     0.134 A 
ATOM     82  C   UNL A   1      48.018  25.577  32.854  1.00  0.00     0.134 A 
ATOM     83  F   UNL A   1      48.630  27.995  30.214  1.00  0.00    -0.206 F 
ATOM     84  C   UNL A   1      50.143  26.803  31.553  1.00  0.00     0.040 A 
ATOM     85  C   UNL A   1      49.328  25.282  33.232  1.00  0.00     0.040 A 
ATOM     86  F   UNL A   1      47.023  24.953  33.503  1.00  0.00    -0.206 F 
ATOM     87  C   UNL A   1      50.396  25.885  32.570  1.00  0.00     0.006 A 
ENDBRANCH  63  80
ENDBRANCH  37  38
ENDBRANCH  29  32
ENDBRANCH  27  28
ENDBRANCH  26  27
ENDBRANCH  25  26
ENDBRANCH   1  25
TORSDOF 17
ENDMDL
