MODEL 1
REMARK VINA RESULT:     -12.2      0.000      0.000
REMARK SMILES CC1=C2C(=O)N(C[C@H]3CCCO3)C(=O)N=C2S[C@@H]1C(=O)NCCCCNC(=O)c1ccc(-c2c3nc(c(-c4c(F)cccc4F)c4ccc([nH]4)c(-c4c(F)cccc4F)c4nc(c(-c5c(F)cccc5F)c5ccc2[nH]5)C=C4)C=C3)cc1
REMARK SMILES IDX 23 1 22 2 21 3 19 4 20 5 18 7 1 8 2 9 3 10 4 11 16 12 17 13
REMARK SMILES IDX 5 14 6 15 15 16 13 17 14 18 7 19 8 20 9 21 12 22 10 23 11 24
REMARK SMILES IDX 24 25 25 26 26 27 27 28 28 30 29 31 30 32 82 33 31 34 81 35
REMARK SMILES IDX 32 36 33 37 34 38 75 39 35 40 80 41 74 42 76 43 36 44 79 45
REMARK SMILES IDX 73 46 72 47 37 49 63 50 46 51 62 52 47 53 50 54 61 55 77 56
REMARK SMILES IDX 48 57 49 58 60 60 78 61 51 62 38 63 39 64 44 65 40 66 41 67
REMARK SMILES IDX 43 68 45 69 42 70 64 71 65 72 70 73 66 74 67 75 69 76 71 77
REMARK SMILES IDX 68 78 52 79 53 80 58 81 54 82 55 83 57 84 59 85 56 86
REMARK H PARENT 21 6 26 29 76 48 50 59
REMARK Flexibility Score: inf
ROOT
ATOM      1  C   UNL A   1      36.106  21.616  25.061  1.00  0.00     0.023 C 
ENDROOT
BRANCH   1   2
ATOM      2  C   UNL A   1      35.084  21.370  26.165  1.00  0.00     0.116 C 
BRANCH   2   3
ATOM      3  N   UNL A   1      34.093  20.385  25.775  1.00  0.00    -0.355 N 
ATOM      4  C   UNL A   1      32.793  20.524  25.385  1.00  0.00     0.237 C 
ATOM      5  O   UNL A   1      32.180  19.485  25.114  1.00  0.00    -0.273 OA
ATOM      6  H   UNL A   1      34.414  19.456  25.794  1.00  0.00     0.163 HD
BRANCH   4   7
ATOM      7  C   UNL A   1      32.106  21.886  25.209  1.00  0.00     0.169 C 
ATOM      8  C   UNL A   1      32.593  22.083  22.680  1.00  0.00     0.042 C 
ATOM      9  C   UNL A   1      32.624  22.686  24.048  1.00  0.00    -0.035 C 
ATOM     10  C   UNL A   1      33.064  23.916  24.351  1.00  0.00     0.073 C 
ATOM     11  C   UNL A   1      33.714  24.907  23.503  1.00  0.00     0.264 C 
ATOM     12  C   UNL A   1      32.902  24.279  25.744  1.00  0.00     0.116 C 
ATOM     13  S   UNL A   1      32.297  22.947  26.684  1.00  0.00    -0.087 SA
ATOM     14  O   UNL A   1      34.382  24.564  22.537  1.00  0.00    -0.268 OA
ATOM     15  N   UNL A   1      33.563  26.183  23.987  1.00  0.00    -0.256 N 
ATOM     16  N   UNL A   1      33.175  25.429  26.236  1.00  0.00    -0.186 NA
ATOM     17  C   UNL A   1      33.536  26.437  25.367  1.00  0.00     0.351 C 
ATOM     18  O   UNL A   1      33.813  27.549  25.809  1.00  0.00    -0.246 OA
BRANCH  15  19
ATOM     19  C   UNL A   1      33.399  27.317  23.076  1.00  0.00     0.163 C 
BRANCH  19  20
ATOM     20  C   UNL A   1      32.028  27.639  22.447  1.00  0.00     0.138 C 
ATOM     21  C   UNL A   1      30.820  26.854  22.949  1.00  0.00     0.036 C 
ATOM     22  O   UNL A   1      31.720  29.008  22.830  1.00  0.00    -0.376 OA
ATOM     23  C   UNL A   1      30.435  27.564  24.215  1.00  0.00     0.031 C 
ATOM     24  C   UNL A   1      30.731  29.004  23.874  1.00  0.00     0.160 C 
ENDBRANCH  19  20
ENDBRANCH  15  19
ENDBRANCH   4   7
ENDBRANCH   2   3
ENDBRANCH   1   2
BRANCH   1  25
ATOM     25  C   UNL A   1      37.168  20.523  24.937  1.00  0.00     0.023 C 
BRANCH  25  26
ATOM     26  C   UNL A   1      38.509  20.843  25.590  1.00  0.00     0.116 C 
BRANCH  26  27
ATOM     27  N   UNL A   1      39.453  19.737  25.550  1.00  0.00    -0.352 N 
ATOM     28  C   UNL A   1      40.770  19.722  25.938  1.00  0.00     0.251 C 
ATOM     29  H   UNL A   1      39.101  18.888  25.198  1.00  0.00     0.163 HD
ATOM     30  O   UNL A   1      41.465  18.729  25.750  1.00  0.00    -0.269 OA
BRANCH  28  31
ATOM     31  C   UNL A   1      41.357  20.933  26.547  1.00  0.00     0.039 A 
ATOM     32  C   UNL A   1      41.934  21.893  25.710  1.00  0.00     0.014 A 
ATOM     33  C   UNL A   1      41.299  21.138  27.927  1.00  0.00     0.014 A 
ATOM     34  C   UNL A   1      42.386  23.096  26.253  1.00  0.00     0.010 A 
ATOM     35  C   UNL A   1      41.696  22.361  28.458  1.00  0.00     0.010 A 
ATOM     36  C   UNL A   1      42.234  23.354  27.625  1.00  0.00    -0.014 A 
BRANCH  36  37
ATOM     37  C   UNL A   1      42.614  24.664  28.206  1.00  0.00     0.031 A 
ATOM     38  C   UNL A   1      41.572  25.726  28.417  1.00  0.00     0.074 A 
ATOM     39  C   UNL A   1      43.911  24.925  28.462  1.00  0.00     0.049 A 
ATOM     40  N   UNL A   1      41.725  26.961  28.821  1.00  0.00    -0.248 NA
ATOM     41  C   UNL A   1      40.181  25.359  28.110  1.00  0.00     0.031 C 
ATOM     42  C   UNL A   1      45.022  23.997  28.244  1.00  0.00     0.029 A 
ATOM     43  N   UNL A   1      44.514  26.058  28.945  1.00  0.00    -0.354 N 
ATOM     44  C   UNL A   1      40.457  27.526  28.791  1.00  0.00     0.074 A 
ATOM     45  C   UNL A   1      39.551  26.510  28.300  1.00  0.00     0.031 C 
ATOM     46  C   UNL A   1      46.171  24.595  28.601  1.00  0.00     0.029 A 
ATOM     47  C   UNL A   1      45.881  25.954  29.044  1.00  0.00     0.049 A 
ATOM     48  H   UNL A   1      44.017  26.869  29.196  1.00  0.00     0.167 HD
ATOM     49  C   UNL A   1      40.080  28.773  29.157  1.00  0.00     0.037 A 
ATOM     50  C   UNL A   1      46.797  26.858  29.441  1.00  0.00     0.037 A 
ATOM     51  C   UNL A   1      40.973  29.767  29.690  1.00  0.00     0.049 A 
ATOM     52  C   UNL A   1      46.345  28.224  29.876  1.00  0.00     0.074 A 
ATOM     53  C   UNL A   1      40.669  31.031  30.165  1.00  0.00     0.029 A 
ATOM     54  N   UNL A   1      42.342  29.607  29.823  1.00  0.00    -0.354 N 
ATOM     55  N   UNL A   1      45.133  28.719  29.910  1.00  0.00    -0.248 NA
ATOM     56  C   UNL A   1      47.388  29.153  30.334  1.00  0.00     0.031 C 
ATOM     57  C   UNL A   1      41.861  31.647  30.561  1.00  0.00     0.029 A 
ATOM     58  C   UNL A   1      42.901  30.754  30.360  1.00  0.00     0.049 A 
ATOM     59  H   UNL A   1      42.844  28.798  29.572  1.00  0.00     0.167 HD
ATOM     60  C   UNL A   1      45.262  30.005  30.414  1.00  0.00     0.074 A 
ATOM     61  C   UNL A   1      46.671  30.211  30.684  1.00  0.00     0.031 C 
ATOM     62  C   UNL A   1      44.302  30.935  30.633  1.00  0.00     0.037 A 
BRANCH  49  63
ATOM     63  C   UNL A   1      38.634  29.133  29.008  1.00  0.00     0.057 A 
ATOM     64  C   UNL A   1      37.741  29.051  30.083  1.00  0.00     0.134 A 
ATOM     65  C   UNL A   1      38.141  29.618  27.790  1.00  0.00     0.134 A 
ATOM     66  F   UNL A   1      38.149  28.583  31.272  1.00  0.00    -0.206 F 
ATOM     67  C   UNL A   1      36.403  29.425  29.949  1.00  0.00     0.040 A 
ATOM     68  C   UNL A   1      36.810  30.014  27.649  1.00  0.00     0.040 A 
ATOM     69  F   UNL A   1      38.946  29.723  26.723  1.00  0.00    -0.206 F 
ATOM     70  C   UNL A   1      35.936  29.917  28.731  1.00  0.00     0.006 A 
ENDBRANCH  49  63
BRANCH  50  71
ATOM     71  C   UNL A   1      48.236  26.500  29.462  1.00  0.00     0.057 A 
ATOM     72  C   UNL A   1      49.065  26.783  28.370  1.00  0.00     0.134 A 
ATOM     73  C   UNL A   1      48.810  25.847  30.559  1.00  0.00     0.134 A 
ATOM     74  F   UNL A   1      48.565  27.388  27.283  1.00  0.00    -0.206 F 
ATOM     75  C   UNL A   1      50.409  26.410  28.359  1.00  0.00     0.040 A 
ATOM     76  C   UNL A   1      50.159  25.488  30.570  1.00  0.00     0.040 A 
ATOM     77  F   UNL A   1      48.069  25.555  31.637  1.00  0.00    -0.206 F 
ATOM     78  C   UNL A   1      50.960  25.763  29.463  1.00  0.00     0.006 A 
ENDBRANCH  50  71
BRANCH  62  79
ATOM     79  C   UNL A   1      44.738  32.243  31.221  1.00  0.00     0.057 A 
ATOM     80  C   UNL A   1      45.086  33.331  30.413  1.00  0.00     0.134 A 
ATOM     81  C   UNL A   1      44.769  32.426  32.608  1.00  0.00     0.134 A 
ATOM     82  F   UNL A   1      45.088  33.213  29.076  1.00  0.00    -0.206 F 
ATOM     83  C   UNL A   1      45.470  34.554  30.966  1.00  0.00     0.040 A 
ATOM     84  C   UNL A   1      45.130  33.649  33.173  1.00  0.00     0.040 A 
ATOM     85  F   UNL A   1      44.438  31.422  33.435  1.00  0.00    -0.206 F 
ATOM     86  C   UNL A   1      45.485  34.716  32.350  1.00  0.00     0.006 A 
ENDBRANCH  62  79
ENDBRANCH  36  37
ENDBRANCH  28  31
ENDBRANCH  26  27
ENDBRANCH  25  26
ENDBRANCH   1  25
TORSDOF 13
ENDMDL
MODEL 2
REMARK VINA RESULT:     -12.1      1.152      6.306
REMARK SMILES CC1=C2C(=O)N(C[C@H]3CCCO3)C(=O)N=C2S[C@@H]1C(=O)NCCCCNC(=O)c1ccc(-c2c3nc(c(-c4c(F)cccc4F)c4ccc([nH]4)c(-c4c(F)cccc4F)c4nc(c(-c5c(F)cccc5F)c5ccc2[nH]5)C=C4)C=C3)cc1
REMARK SMILES IDX 23 1 22 2 21 3 19 4 20 5 18 7 1 8 2 9 3 10 4 11 16 12 17 13
REMARK SMILES IDX 5 14 6 15 15 16 13 17 14 18 7 19 8 20 9 21 12 22 10 23 11 24
REMARK SMILES IDX 24 25 25 26 26 27 27 28 28 30 29 31 30 32 82 33 31 34 81 35
REMARK SMILES IDX 32 36 33 37 34 38 75 39 35 40 80 41 74 42 76 43 36 44 79 45
REMARK SMILES IDX 73 46 72 47 37 49 63 50 46 51 62 52 47 53 50 54 61 55 77 56
REMARK SMILES IDX 48 57 49 58 60 60 78 61 51 62 38 63 39 64 44 65 40 66 41 67
REMARK SMILES IDX 43 68 45 69 42 70 64 71 65 72 70 73 66 74 67 75 69 76 71 77
REMARK SMILES IDX 68 78 52 79 53 80 58 81 54 82 55 83 57 84 59 85 56 86
REMARK H PARENT 21 6 26 29 76 48 50 59
REMARK Flexibility Score: inf
ROOT
ATOM      1  C   UNL A   1      36.810  21.159  24.636  1.00  0.00     0.023 C 
ENDROOT
BRANCH   1   2
ATOM      2  C   UNL A   1      35.631  21.269  25.596  1.00  0.00     0.116 C 
BRANCH   2   3
ATOM      3  N   UNL A   1      34.372  20.967  24.942  1.00  0.00    -0.355 N 
ATOM      4  C   UNL A   1      33.504  21.761  24.252  1.00  0.00     0.237 C 
ATOM      5  O   UNL A   1      32.488  21.218  23.804  1.00  0.00    -0.273 OA
ATOM      6  H   UNL A   1      34.096  20.025  25.007  1.00  0.00     0.163 HD
BRANCH   4   7
ATOM      7  C   UNL A   1      33.769  23.245  23.962  1.00  0.00     0.169 C 
ATOM      8  C   UNL A   1      33.288  24.057  26.367  1.00  0.00     0.042 C 
ATOM      9  C   UNL A   1      33.061  24.187  24.894  1.00  0.00    -0.035 C 
ATOM     10  C   UNL A   1      32.276  25.099  24.302  1.00  0.00     0.073 C 
ATOM     11  C   UNL A   1      31.381  26.084  24.896  1.00  0.00     0.264 C 
ATOM     12  C   UNL A   1      32.302  25.054  22.854  1.00  0.00     0.116 C 
ATOM     13  S   UNL A   1      33.252  23.718  22.274  1.00  0.00    -0.087 SA
ATOM     14  O   UNL A   1      30.859  25.880  25.983  1.00  0.00    -0.268 OA
ATOM     15  N   UNL A   1      31.147  27.145  24.057  1.00  0.00    -0.256 N 
ATOM     16  N   UNL A   1      31.699  25.882  22.087  1.00  0.00    -0.186 NA
ATOM     17  C   UNL A   1      31.075  26.967  22.666  1.00  0.00     0.351 C 
ATOM     18  O   UNL A   1      30.479  27.774  21.958  1.00  0.00    -0.246 OA
BRANCH  15  19
ATOM     19  C   UNL A   1      30.989  28.500  24.586  1.00  0.00     0.163 C 
BRANCH  19  20
ATOM     20  C   UNL A   1      32.217  29.391  24.866  1.00  0.00     0.138 C 
ATOM     21  C   UNL A   1      32.346  29.995  26.261  1.00  0.00     0.036 C 
ATOM     22  O   UNL A   1      33.378  28.521  24.770  1.00  0.00    -0.376 OA
ATOM     23  C   UNL A   1      32.935  28.881  27.078  1.00  0.00     0.031 C 
ATOM     24  C   UNL A   1      33.863  28.219  26.090  1.00  0.00     0.160 C 
ENDBRANCH  19  20
ENDBRANCH  15  19
ENDBRANCH   4   7
ENDBRANCH   2   3
ENDBRANCH   1   2
BRANCH   1  25
ATOM     25  C   UNL A   1      37.777  20.019  24.961  1.00  0.00     0.023 C 
BRANCH  25  26
ATOM     26  C   UNL A   1      39.022  20.426  25.742  1.00  0.00     0.116 C 
BRANCH  26  27
ATOM     27  N   UNL A   1      40.059  19.405  25.755  1.00  0.00    -0.352 N 
ATOM     28  C   UNL A   1      41.379  19.531  26.109  1.00  0.00     0.251 C 
ATOM     29  H   UNL A   1      39.775  18.506  25.471  1.00  0.00     0.163 HD
ATOM     30  O   UNL A   1      42.154  18.590  25.973  1.00  0.00    -0.269 OA
BRANCH  28  31
ATOM     31  C   UNL A   1      41.869  20.828  26.617  1.00  0.00     0.039 A 
ATOM     32  C   UNL A   1      42.325  21.779  25.700  1.00  0.00     0.014 A 
ATOM     33  C   UNL A   1      41.838  21.117  27.983  1.00  0.00     0.014 A 
ATOM     34  C   UNL A   1      42.680  23.052  26.148  1.00  0.00     0.010 A 
ATOM     35  C   UNL A   1      42.136  22.404  28.420  1.00  0.00     0.010 A 
ATOM     36  C   UNL A   1      42.550  23.385  27.506  1.00  0.00    -0.014 A 
BRANCH  36  37
ATOM     37  C   UNL A   1      42.824  24.760  27.989  1.00  0.00     0.031 A 
ATOM     38  C   UNL A   1      44.215  25.153  28.396  1.00  0.00     0.074 A 
ATOM     39  C   UNL A   1      41.802  25.626  28.140  1.00  0.00     0.049 A 
ATOM     40  N   UNL A   1      44.632  26.272  28.931  1.00  0.00    -0.248 NA
ATOM     41  C   UNL A   1      45.271  24.147  28.201  1.00  0.00     0.031 C 
ATOM     42  C   UNL A   1      40.398  25.344  27.834  1.00  0.00     0.029 A 
ATOM     43  N   UNL A   1      41.787  26.915  28.607  1.00  0.00    -0.354 N 
ATOM     44  C   UNL A   1      45.990  26.097  29.159  1.00  0.00     0.074 A 
ATOM     45  C   UNL A   1      46.322  24.753  28.737  1.00  0.00     0.031 C 
ATOM     46  C   UNL A   1      39.660  26.431  28.113  1.00  0.00     0.029 A 
ATOM     47  C   UNL A   1      40.532  27.474  28.642  1.00  0.00     0.049 A 
ATOM     48  H   UNL A   1      42.598  27.396  28.890  1.00  0.00     0.167 HD
ATOM     49  C   UNL A   1      46.883  26.982  29.661  1.00  0.00     0.037 A 
ATOM     50  C   UNL A   1      40.130  28.688  29.063  1.00  0.00     0.037 A 
ATOM     51  C   UNL A   1      46.563  28.333  30.037  1.00  0.00     0.049 A 
ATOM     52  C   UNL A   1      41.150  29.663  29.581  1.00  0.00     0.074 A 
ATOM     53  C   UNL A   1      47.416  29.329  30.478  1.00  0.00     0.029 A 
ATOM     54  N   UNL A   1      45.289  28.877  30.011  1.00  0.00    -0.354 N 
ATOM     55  N   UNL A   1      42.442  29.507  29.724  1.00  0.00    -0.248 NA
ATOM     56  C   UNL A   1      40.655  30.986  29.989  1.00  0.00     0.031 C 
ATOM     57  C   UNL A   1      46.653  30.471  30.745  1.00  0.00     0.029 A 
ATOM     58  C   UNL A   1      45.330  30.193  30.442  1.00  0.00     0.049 A 
ATOM     59  H   UNL A   1      44.475  28.400  29.729  1.00  0.00     0.167 HD
ATOM     60  C   UNL A   1      42.919  30.714  30.215  1.00  0.00     0.074 A 
ATOM     61  C   UNL A   1      41.778  31.599  30.334  1.00  0.00     0.031 C 
ATOM     62  C   UNL A   1      44.187  31.061  30.541  1.00  0.00     0.037 A 
BRANCH  49  63
ATOM     63  C   UNL A   1      48.300  26.523  29.820  1.00  0.00     0.057 A 
ATOM     64  C   UNL A   1      48.725  25.831  30.961  1.00  0.00     0.134 A 
ATOM     65  C   UNL A   1      49.235  26.726  28.798  1.00  0.00     0.134 A 
ATOM     66  F   UNL A   1      47.879  25.616  31.980  1.00  0.00    -0.206 F 
ATOM     67  C   UNL A   1      50.036  25.371  31.088  1.00  0.00     0.040 A 
ATOM     68  C   UNL A   1      50.544  26.252  28.904  1.00  0.00     0.040 A 
ATOM     69  F   UNL A   1      48.890  27.378  27.678  1.00  0.00    -0.206 F 
ATOM     70  C   UNL A   1      50.948  25.574  30.053  1.00  0.00     0.006 A 
ENDBRANCH  49  63
BRANCH  50  71
ATOM     71  C   UNL A   1      38.697  29.062  28.999  1.00  0.00     0.057 A 
ATOM     72  C   UNL A   1      38.133  29.553  27.815  1.00  0.00     0.134 A 
ATOM     73  C   UNL A   1      37.864  28.961  30.120  1.00  0.00     0.134 A 
ATOM     74  F   UNL A   1      38.887  29.690  26.715  1.00  0.00    -0.206 F 
ATOM     75  C   UNL A   1      36.797  29.951  27.754  1.00  0.00     0.040 A 
ATOM     76  C   UNL A   1      36.521  29.335  30.066  1.00  0.00     0.040 A 
ATOM     77  F   UNL A   1      38.345  28.492  31.280  1.00  0.00    -0.206 F 
ATOM     78  C   UNL A   1      35.986  29.840  28.882  1.00  0.00     0.006 A 
ENDBRANCH  50  71
BRANCH  62  79
ATOM     79  C   UNL A   1      44.411  32.461  31.023  1.00  0.00     0.057 A 
ATOM     80  C   UNL A   1      44.652  33.515  30.133  1.00  0.00     0.134 A 
ATOM     81  C   UNL A   1      44.345  32.765  32.388  1.00  0.00     0.134 A 
ATOM     82  F   UNL A   1      44.740  33.284  28.814  1.00  0.00    -0.206 F 
ATOM     83  C   UNL A   1      44.839  34.821  30.587  1.00  0.00     0.040 A 
ATOM     84  C   UNL A   1      44.509  34.070  32.852  1.00  0.00     0.040 A 
ATOM     85  F   UNL A   1      44.110  31.799  33.290  1.00  0.00    -0.206 F 
ATOM     86  C   UNL A   1      44.760  35.101  31.950  1.00  0.00     0.006 A 
ENDBRANCH  62  79
ENDBRANCH  36  37
ENDBRANCH  28  31
ENDBRANCH  26  27
ENDBRANCH  25  26
ENDBRANCH   1  25
TORSDOF 13
ENDMDL
MODEL 3
REMARK VINA RESULT:     -12.0      2.139      7.478
REMARK SMILES CC1=C2C(=O)N(C[C@H]3CCCO3)C(=O)N=C2S[C@@H]1C(=O)NCCCCNC(=O)c1ccc(-c2c3nc(c(-c4c(F)cccc4F)c4ccc([nH]4)c(-c4c(F)cccc4F)c4nc(c(-c5c(F)cccc5F)c5ccc2[nH]5)C=C4)C=C3)cc1
REMARK SMILES IDX 23 1 22 2 21 3 19 4 20 5 18 7 1 8 2 9 3 10 4 11 16 12 17 13
REMARK SMILES IDX 5 14 6 15 15 16 13 17 14 18 7 19 8 20 9 21 12 22 10 23 11 24
REMARK SMILES IDX 24 25 25 26 26 27 27 28 28 30 29 31 30 32 82 33 31 34 81 35
REMARK SMILES IDX 32 36 33 37 34 38 75 39 35 40 80 41 74 42 76 43 36 44 79 45
REMARK SMILES IDX 73 46 72 47 37 49 63 50 46 51 62 52 47 53 50 54 61 55 77 56
REMARK SMILES IDX 48 57 49 58 60 60 78 61 51 62 38 63 39 64 44 65 40 66 41 67
REMARK SMILES IDX 43 68 45 69 42 70 64 71 65 72 70 73 66 74 67 75 69 76 71 77
REMARK SMILES IDX 68 78 52 79 53 80 58 81 54 82 55 83 57 84 59 85 56 86
REMARK H PARENT 21 6 26 29 76 48 50 59
REMARK Flexibility Score: inf
ROOT
ATOM      1  C   UNL A   1      31.774  29.366  25.996  1.00  0.00     0.023 C 
ENDROOT
BRANCH   1   2
ATOM      2  C   UNL A   1      32.322  29.336  24.574  1.00  0.00     0.116 C 
BRANCH   2   3
ATOM      3  N   UNL A   1      31.261  29.370  23.585  1.00  0.00    -0.355 N 
ATOM      4  C   UNL A   1      30.772  28.403  22.758  1.00  0.00     0.237 C 
ATOM      5  O   UNL A   1      29.850  28.730  22.001  1.00  0.00    -0.273 OA
ATOM      6  H   UNL A   1      30.817  30.244  23.496  1.00  0.00     0.163 HD
BRANCH   4   7
ATOM      7  C   UNL A   1      31.262  26.948  22.779  1.00  0.00     0.169 C 
ATOM      8  C   UNL A   1      29.556  26.139  24.543  1.00  0.00     0.042 C 
ATOM      9  C   UNL A   1      30.970  26.223  24.063  1.00  0.00    -0.035 C 
ATOM     10  C   UNL A   1      32.036  25.685  24.673  1.00  0.00     0.073 C 
ATOM     11  C   UNL A   1      32.130  25.013  25.962  1.00  0.00     0.264 C 
ATOM     12  C   UNL A   1      33.280  25.845  23.947  1.00  0.00     0.116 C 
ATOM     13  S   UNL A   1      33.068  26.827  22.528  1.00  0.00    -0.087 SA
ATOM     14  O   UNL A   1      31.355  25.285  26.869  1.00  0.00    -0.268 OA
ATOM     15  N   UNL A   1      33.212  24.171  26.031  1.00  0.00    -0.256 N 
ATOM     16  N   UNL A   1      34.402  25.341  24.300  1.00  0.00    -0.186 NA
ATOM     17  C   UNL A   1      34.416  24.484  25.380  1.00  0.00     0.351 C 
ATOM     18  O   UNL A   1      35.479  23.991  25.750  1.00  0.00    -0.246 OA
BRANCH  15  19
ATOM     19  C   UNL A   1      33.136  22.908  26.766  1.00  0.00     0.163 C 
BRANCH  19  20
ATOM     20  C   UNL A   1      32.481  21.661  26.136  1.00  0.00     0.138 C 
ATOM     21  C   UNL A   1      32.160  21.710  24.646  1.00  0.00     0.036 C 
ATOM     22  O   UNL A   1      33.467  20.596  26.231  1.00  0.00    -0.376 OA
ATOM     23  C   UNL A   1      33.471  21.386  23.989  1.00  0.00     0.031 C 
ATOM     24  C   UNL A   1      34.062  20.376  24.941  1.00  0.00     0.160 C 
ENDBRANCH  19  20
ENDBRANCH  15  19
ENDBRANCH   4   7
ENDBRANCH   2   3
ENDBRANCH   1   2
BRANCH   1  25
ATOM     25  C   UNL A   1      32.511  28.445  26.970  1.00  0.00     0.023 C 
BRANCH  25  26
ATOM     26  C   UNL A   1      33.900  28.918  27.386  1.00  0.00     0.116 C 
BRANCH  26  27
ATOM     27  N   UNL A   1      33.904  30.237  28.001  1.00  0.00    -0.352 N 
ATOM     28  C   UNL A   1      34.932  30.876  28.649  1.00  0.00     0.251 C 
ATOM     29  H   UNL A   1      33.057  30.736  27.945  1.00  0.00     0.163 HD
ATOM     30  O   UNL A   1      34.748  31.955  29.201  1.00  0.00    -0.269 OA
BRANCH  28  31
ATOM     31  C   UNL A   1      36.258  30.228  28.712  1.00  0.00     0.039 A 
ATOM     32  C   UNL A   1      37.078  30.268  27.580  1.00  0.00     0.014 A 
ATOM     33  C   UNL A   1      36.703  29.626  29.890  1.00  0.00     0.014 A 
ATOM     34  C   UNL A   1      38.378  29.767  27.655  1.00  0.00     0.010 A 
ATOM     35  C   UNL A   1      38.019  29.182  29.981  1.00  0.00     0.010 A 
ATOM     36  C   UNL A   1      38.870  29.257  28.868  1.00  0.00    -0.014 A 
BRANCH  36  37
ATOM     37  C   UNL A   1      40.280  28.814  28.998  1.00  0.00     0.031 A 
ATOM     38  C   UNL A   1      41.330  29.773  29.482  1.00  0.00     0.074 A 
ATOM     39  C   UNL A   1      40.625  27.574  28.599  1.00  0.00     0.049 A 
ATOM     40  N   UNL A   1      42.624  29.602  29.570  1.00  0.00    -0.248 NA
ATOM     41  C   UNL A   1      40.868  31.108  29.896  1.00  0.00     0.031 C 
ATOM     42  C   UNL A   1      39.706  26.571  28.057  1.00  0.00     0.029 A 
ATOM     43  N   UNL A   1      41.848  26.955  28.571  1.00  0.00    -0.354 N 
ATOM     44  C   UNL A   1      43.133  30.812  30.024  1.00  0.00     0.074 A 
ATOM     45  C   UNL A   1      42.014  31.719  30.161  1.00  0.00     0.031 C 
ATOM     46  C   UNL A   1      40.397  25.458  27.760  1.00  0.00     0.029 A 
ATOM     47  C   UNL A   1      41.807  25.679  28.062  1.00  0.00     0.049 A 
ATOM     48  H   UNL A   1      42.677  27.382  28.886  1.00  0.00     0.167 HD
ATOM     49  C   UNL A   1      44.416  31.131  30.315  1.00  0.00     0.037 A 
ATOM     50  C   UNL A   1      42.799  24.791  27.854  1.00  0.00     0.037 A 
ATOM     51  C   UNL A   1      45.521  30.215  30.224  1.00  0.00     0.049 A 
ATOM     52  C   UNL A   1      44.208  25.161  28.222  1.00  0.00     0.074 A 
ATOM     53  C   UNL A   1      46.843  30.424  30.575  1.00  0.00     0.029 A 
ATOM     54  N   UNL A   1      45.432  28.916  29.751  1.00  0.00    -0.354 N 
ATOM     55  N   UNL A   1      44.663  26.285  28.716  1.00  0.00    -0.248 NA
ATOM     56  C   UNL A   1      45.240  24.137  28.007  1.00  0.00     0.031 C 
ATOM     57  C   UNL A   1      47.561  29.257  30.289  1.00  0.00     0.029 A 
ATOM     58  C   UNL A   1      46.678  28.314  29.788  1.00  0.00     0.049 A 
ATOM     59  H   UNL A   1      44.605  28.485  29.435  1.00  0.00     0.167 HD
ATOM     60  C   UNL A   1      46.026  26.097  28.896  1.00  0.00     0.074 A 
ATOM     61  C   UNL A   1      46.324  24.746  28.467  1.00  0.00     0.031 C 
ATOM     62  C   UNL A   1      46.951  26.965  29.370  1.00  0.00     0.037 A 
BRANCH  49  63
ATOM     63  C   UNL A   1      44.695  32.529  30.776  1.00  0.00     0.057 A 
ATOM     64  C   UNL A   1      44.670  32.875  32.132  1.00  0.00     0.134 A 
ATOM     65  C   UNL A   1      45.047  33.526  29.857  1.00  0.00     0.134 A 
ATOM     66  F   UNL A   1      44.328  31.967  33.059  1.00  0.00    -0.206 F 
ATOM     67  C   UNL A   1      44.970  34.170  32.559  1.00  0.00     0.040 A 
ATOM     68  C   UNL A   1      45.369  34.819  30.274  1.00  0.00     0.040 A 
ATOM     69  F   UNL A   1      45.093  33.258  28.544  1.00  0.00    -0.206 F 
ATOM     70  C   UNL A   1      45.329  35.144  31.629  1.00  0.00     0.006 A 
ENDBRANCH  49  63
BRANCH  50  71
ATOM     71  C   UNL A   1      42.495  23.456  27.284  1.00  0.00     0.057 A 
ATOM     72  C   UNL A   1      42.101  22.394  28.106  1.00  0.00     0.134 A 
ATOM     73  C   UNL A   1      42.616  23.203  25.912  1.00  0.00     0.134 A 
ATOM     74  F   UNL A   1      41.989  22.573  29.430  1.00  0.00    -0.206 F 
ATOM     75  C   UNL A   1      41.857  21.122  27.588  1.00  0.00     0.040 A 
ATOM     76  C   UNL A   1      42.354  21.941  25.378  1.00  0.00     0.040 A 
ATOM     77  F   UNL A   1      42.984  24.182  25.073  1.00  0.00    -0.206 F 
ATOM     78  C   UNL A   1      41.981  20.894  26.219  1.00  0.00     0.006 A 
ENDBRANCH  50  71
BRANCH  62  79
ATOM     79  C   UNL A   1      48.361  26.469  29.482  1.00  0.00     0.057 A 
ATOM     80  C   UNL A   1      49.273  26.605  28.429  1.00  0.00     0.134 A 
ATOM     81  C   UNL A   1      48.820  25.887  30.670  1.00  0.00     0.134 A 
ATOM     82  F   UNL A   1      48.888  27.143  27.261  1.00  0.00    -0.206 F 
ATOM     83  C   UNL A   1      50.591  26.161  28.547  1.00  0.00     0.040 A 
ATOM     84  C   UNL A   1      50.140  25.460  30.807  1.00  0.00     0.040 A 
ATOM     85  F   UNL A   1      47.995  25.737  31.717  1.00  0.00    -0.206 F 
ATOM     86  C   UNL A   1      51.028  25.593  29.742  1.00  0.00     0.006 A 
ENDBRANCH  62  79
ENDBRANCH  36  37
ENDBRANCH  28  31
ENDBRANCH  26  27
ENDBRANCH  25  26
ENDBRANCH   1  25
TORSDOF 13
ENDMDL
