MODEL 1
REMARK VINA RESULT:     -10.0      0.000      0.000
REMARK SMILES C[C@@H]1C[C@H]([NH3+])C[N@@H+](CCC(=O)NCCCCNC(=O)c2ccc(-c3c4nc(c(-c5c(F)cccc5F)c5ccc([nH]5)c(-c5c(F)cccc5F)c5nc(c(-c6c(F)cccc6F)c6ccc3[nH]6)C=C5)C=C4)cc2)C1
REMARK SMILES IDX 14 1 13 2 12 3 10 4 11 5 9 7 8 8 7 9 1 10 2 11 3 12 74 13
REMARK SMILES IDX 4 14 6 15 5 17 15 21 16 22 17 23 18 24 19 26 20 27 21 28
REMARK SMILES IDX 73 29 22 30 72 31 23 32 24 33 25 34 66 35 26 36 71 37 65 38
REMARK SMILES IDX 67 39 27 40 70 41 64 42 63 43 28 45 54 46 37 47 53 48 38 49
REMARK SMILES IDX 41 50 52 51 68 52 39 53 40 54 51 56 69 57 42 58 29 59 30 60
REMARK SMILES IDX 35 61 31 62 32 63 34 64 36 65 33 66 55 67 56 68 61 69 57 70
REMARK SMILES IDX 58 71 60 72 62 73 59 74 43 75 44 76 49 77 45 78 46 79 48 80
REMARK SMILES IDX 50 81 47 82
REMARK H PARENT 12 6 7 16 5 18 5 19 5 20 17 25 67 44 41 55
REMARK Flexibility Score: inf
ROOT
ATOM      1  C   UNL A   1      41.867  20.039  27.339  1.00  0.00     0.023 C 
ENDROOT
BRANCH   1   2
ATOM      2  C   UNL A   1      42.311  19.561  25.959  1.00  0.00     0.116 C 
BRANCH   2   3
ATOM      3  N   UNL A   1      43.574  18.855  26.070  1.00  0.00    -0.356 N 
ATOM      4  C   UNL A   1      44.670  18.900  25.260  1.00  0.00     0.225 C 
ATOM      5  O   UNL A   1      45.504  17.999  25.358  1.00  0.00    -0.275 OA
ATOM      6  H   UNL A   1      43.651  18.255  26.847  1.00  0.00     0.163 HD
BRANCH   4   7
ATOM      7  C   UNL A   1      44.886  20.071  24.326  1.00  0.00     0.161 C 
BRANCH   7   8
ATOM      8  C   UNL A   1      45.615  21.271  24.964  1.00  0.00     0.272 C 
BRANCH   8   9
ATOM      9  N   UNL A   1      44.827  22.453  25.376  1.00  0.00    -0.329 N 
ATOM     10  C   UNL A   1      42.926  23.971  28.140  1.00  0.00     0.014 C 
ATOM     11  C   UNL A   1      44.305  23.908  27.478  1.00  0.00     0.047 C 
ATOM     12  C   UNL A   1      44.541  25.126  26.576  1.00  0.00     0.080 C 
ATOM     13  C   UNL A   1      44.593  22.531  26.819  1.00  0.00     0.265 C 
ATOM     14  C   UNL A   1      44.262  24.878  25.097  1.00  0.00     0.237 C 
ATOM     15  C   UNL A   1      45.127  23.684  24.655  1.00  0.00     0.327 C 
ATOM     16  H   UNL A   1      43.881  22.292  25.030  1.00  0.00     0.348 HD
BRANCH  14  17
ATOM     17  N   UNL A   1      42.834  24.658  24.852  1.00  0.00    -0.350 N 
ATOM     18  H   UNL A   1      42.659  23.660  24.737  1.00  0.00     0.344 HD
ATOM     19  H   UNL A   1      42.555  25.152  24.005  1.00  0.00     0.344 HD
ATOM     20  H   UNL A   1      42.295  25.009  25.644  1.00  0.00     0.344 HD
ENDBRANCH  14  17
ENDBRANCH   8   9
ENDBRANCH   7   8
ENDBRANCH   4   7
ENDBRANCH   2   3
ENDBRANCH   1   2
BRANCH   1  21
ATOM     21  C   UNL A   1      40.788  21.109  27.367  1.00  0.00     0.023 C 
BRANCH  21  22
ATOM     22  C   UNL A   1      40.733  21.981  26.123  1.00  0.00     0.116 C 
BRANCH  22  23
ATOM     23  N   UNL A   1      39.394  22.451  25.778  1.00  0.00    -0.352 N 
ATOM     24  C   UNL A   1      38.697  23.592  26.114  1.00  0.00     0.251 C 
ATOM     25  H   UNL A   1      38.893  21.836  25.195  1.00  0.00     0.163 HD
ATOM     26  O   UNL A   1      37.522  23.708  25.771  1.00  0.00    -0.269 OA
BRANCH  24  27
ATOM     27  C   UNL A   1      39.334  24.661  26.910  1.00  0.00     0.039 A 
ATOM     28  C   UNL A   1      40.088  25.652  26.276  1.00  0.00     0.014 A 
ATOM     29  C   UNL A   1      39.162  24.709  28.289  1.00  0.00     0.014 A 
ATOM     30  C   UNL A   1      40.547  26.751  27.010  1.00  0.00     0.010 A 
ATOM     31  C   UNL A   1      39.459  25.873  28.975  1.00  0.00     0.010 A 
ATOM     32  C   UNL A   1      40.168  26.908  28.352  1.00  0.00    -0.014 A 
BRANCH  32  33
ATOM     33  C   UNL A   1      40.497  28.119  29.149  1.00  0.00     0.031 A 
ATOM     34  C   UNL A   1      41.792  28.177  29.920  1.00  0.00     0.074 A 
ATOM     35  C   UNL A   1      39.581  29.096  29.298  1.00  0.00     0.049 A 
ATOM     36  N   UNL A   1      42.175  29.028  30.836  1.00  0.00    -0.248 NA
ATOM     37  C   UNL A   1      42.750  27.084  29.682  1.00  0.00     0.031 C 
ATOM     38  C   UNL A   1      38.250  29.118  28.688  1.00  0.00     0.029 A 
ATOM     39  N   UNL A   1      39.624  30.252  30.036  1.00  0.00    -0.354 N 
ATOM     40  C   UNL A   1      43.381  28.537  31.321  1.00  0.00     0.074 A 
ATOM     41  C   UNL A   1      43.624  27.277  30.656  1.00  0.00     0.031 C 
ATOM     42  C   UNL A   1      37.617  30.246  29.049  1.00  0.00     0.029 A 
ATOM     43  C   UNL A   1      38.476  31.003  29.951  1.00  0.00     0.049 A 
ATOM     44  H   UNL A   1      40.403  30.519  30.575  1.00  0.00     0.167 HD
ATOM     45  C   UNL A   1      44.231  29.099  32.214  1.00  0.00     0.037 A 
ATOM     46  C   UNL A   1      38.152  32.170  30.538  1.00  0.00     0.037 A 
ATOM     47  C   UNL A   1      44.023  30.392  32.806  1.00  0.00     0.049 A 
ATOM     48  C   UNL A   1      39.150  32.832  31.445  1.00  0.00     0.074 A 
ATOM     49  C   UNL A   1      44.866  31.111  33.634  1.00  0.00     0.029 A 
ATOM     50  N   UNL A   1      42.890  31.170  32.612  1.00  0.00    -0.354 N 
ATOM     51  N   UNL A   1      40.321  32.394  31.840  1.00  0.00    -0.248 NA
ATOM     52  C   UNL A   1      38.789  34.152  31.977  1.00  0.00     0.031 C 
ATOM     53  C   UNL A   1      44.231  32.313  33.963  1.00  0.00     0.029 A 
ATOM     54  C   UNL A   1      43.009  32.360  33.311  1.00  0.00     0.049 A 
ATOM     55  H   UNL A   1      42.117  30.914  32.060  1.00  0.00     0.167 HD
ATOM     56  C   UNL A   1      40.846  33.388  32.653  1.00  0.00     0.074 A 
ATOM     57  C   UNL A   1      39.871  34.461  32.679  1.00  0.00     0.031 C 
ATOM     58  C   UNL A   1      42.025  33.413  33.320  1.00  0.00     0.037 A 
BRANCH  45  59
ATOM     59  C   UNL A   1      45.464  28.318  32.576  1.00  0.00     0.057 A 
ATOM     60  C   UNL A   1      46.662  28.444  31.857  1.00  0.00     0.134 A 
ATOM     61  C   UNL A   1      45.448  27.411  33.643  1.00  0.00     0.134 A 
ATOM     62  F   UNL A   1      46.743  29.286  30.814  1.00  0.00    -0.206 F 
ATOM     63  C   UNL A   1      47.779  27.660  32.150  1.00  0.00     0.040 A 
ATOM     64  C   UNL A   1      46.571  26.646  33.969  1.00  0.00     0.040 A 
ATOM     65  F   UNL A   1      44.341  27.244  34.381  1.00  0.00    -0.206 F 
ATOM     66  C   UNL A   1      47.736  26.760  33.211  1.00  0.00     0.006 A 
ENDBRANCH  45  59
BRANCH  46  67
ATOM     67  C   UNL A   1      36.842  32.800  30.242  1.00  0.00     0.057 A 
ATOM     68  C   UNL A   1      36.669  33.599  29.106  1.00  0.00     0.134 A 
ATOM     69  C   UNL A   1      35.724  32.589  31.057  1.00  0.00     0.134 A 
ATOM     70  F   UNL A   1      37.708  33.847  28.293  1.00  0.00    -0.206 F 
ATOM     71  C   UNL A   1      35.436  34.173  28.794  1.00  0.00     0.040 A 
ATOM     72  C   UNL A   1      34.479  33.138  30.746  1.00  0.00     0.040 A 
ATOM     73  F   UNL A   1      35.820  31.821  32.153  1.00  0.00    -0.206 F 
ATOM     74  C   UNL A   1      34.333  33.936  29.613  1.00  0.00     0.006 A 
ENDBRANCH  46  67
BRANCH  58  75
ATOM     75  C   UNL A   1      42.335  34.646  34.113  1.00  0.00     0.057 A 
ATOM     76  C   UNL A   1      42.076  34.721  35.487  1.00  0.00     0.134 A 
ATOM     77  C   UNL A   1      42.941  35.751  33.504  1.00  0.00     0.134 A 
ATOM     78  F   UNL A   1      41.486  33.699  36.125  1.00  0.00    -0.206 F 
ATOM     79  C   UNL A   1      42.394  35.861  36.225  1.00  0.00     0.040 A 
ATOM     80  C   UNL A   1      43.285  36.887  34.236  1.00  0.00     0.040 A 
ATOM     81  F   UNL A   1      43.223  35.738  32.192  1.00  0.00    -0.206 F 
ATOM     82  C   UNL A   1      43.007  36.947  35.600  1.00  0.00     0.006 A 
ENDBRANCH  58  75
ENDBRANCH  32  33
ENDBRANCH  24  27
ENDBRANCH  22  23
ENDBRANCH  21  22
ENDBRANCH   1  21
TORSDOF 14
ENDMDL
MODEL 2
REMARK VINA RESULT:      -9.9      5.162     10.642
REMARK SMILES C[C@@H]1C[C@H]([NH3+])C[N@@H+](CCC(=O)NCCCCNC(=O)c2ccc(-c3c4nc(c(-c5c(F)cccc5F)c5ccc([nH]5)c(-c5c(F)cccc5F)c5nc(c(-c6c(F)cccc6F)c6ccc3[nH]6)C=C5)C=C4)cc2)C1
REMARK SMILES IDX 14 1 13 2 12 3 10 4 11 5 9 7 8 8 7 9 1 10 2 11 3 12 74 13
REMARK SMILES IDX 4 14 6 15 5 17 15 21 16 22 17 23 18 24 19 26 20 27 21 28
REMARK SMILES IDX 73 29 22 30 72 31 23 32 24 33 25 34 66 35 26 36 71 37 65 38
REMARK SMILES IDX 67 39 27 40 70 41 64 42 63 43 28 45 54 46 37 47 53 48 38 49
REMARK SMILES IDX 41 50 52 51 68 52 39 53 40 54 51 56 69 57 42 58 29 59 30 60
REMARK SMILES IDX 35 61 31 62 32 63 34 64 36 65 33 66 55 67 56 68 61 69 57 70
REMARK SMILES IDX 58 71 60 72 62 73 59 74 43 75 44 76 49 77 45 78 46 79 48 80
REMARK SMILES IDX 50 81 47 82
REMARK H PARENT 12 6 7 16 5 18 5 19 5 20 17 25 67 44 41 55
REMARK Flexibility Score: inf
ROOT
ATOM      1  C   UNL A   1      34.355  33.068  29.140  1.00  0.00     0.023 C 
ENDROOT
BRANCH   1   2
ATOM      2  C   UNL A   1      34.909  32.217  28.000  1.00  0.00     0.116 C 
BRANCH   2   3
ATOM      3  N   UNL A   1      34.504  30.836  28.181  1.00  0.00    -0.356 N 
ATOM      4  C   UNL A   1      33.583  30.102  27.493  1.00  0.00     0.225 C 
ATOM      5  O   UNL A   1      33.172  29.059  28.003  1.00  0.00    -0.275 OA
ATOM      6  H   UNL A   1      34.963  30.357  28.908  1.00  0.00     0.163 HD
BRANCH   4   7
ATOM      7  C   UNL A   1      33.147  30.523  26.107  1.00  0.00     0.161 C 
BRANCH   7   8
ATOM      8  C   UNL A   1      31.628  30.432  25.859  1.00  0.00     0.272 C 
BRANCH   8   9
ATOM      9  N   UNL A   1      31.141  29.878  24.577  1.00  0.00    -0.329 N 
ATOM     10  C   UNL A   1      31.028  26.861  22.468  1.00  0.00     0.014 C 
ATOM     11  C   UNL A   1      30.266  27.652  23.535  1.00  0.00     0.047 C 
ATOM     12  C   UNL A   1      29.151  28.497  22.903  1.00  0.00     0.080 C 
ATOM     13  C   UNL A   1      31.207  28.417  24.504  1.00  0.00     0.265 C 
ATOM     14  C   UNL A   1      29.526  29.955  22.663  1.00  0.00     0.237 C 
ATOM     15  C   UNL A   1      29.977  30.548  24.011  1.00  0.00     0.327 C 
ATOM     16  H   UNL A   1      31.835  30.143  23.878  1.00  0.00     0.348 HD
BRANCH  14  17
ATOM     17  N   UNL A   1      30.552  30.079  21.624  1.00  0.00    -0.350 N 
ATOM     18  H   UNL A   1      30.400  29.368  20.909  1.00  0.00     0.344 HD
ATOM     19  H   UNL A   1      31.475  29.950  22.040  1.00  0.00     0.344 HD
ATOM     20  H   UNL A   1      30.496  31.005  21.200  1.00  0.00     0.344 HD
ENDBRANCH  14  17
ENDBRANCH   8   9
ENDBRANCH   7   8
ENDBRANCH   4   7
ENDBRANCH   2   3
ENDBRANCH   1   2
BRANCH   1  21
ATOM     21  C   UNL A   1      33.278  34.074  28.768  1.00  0.00     0.023 C 
BRANCH  21  22
ATOM     22  C   UNL A   1      33.581  35.505  29.183  1.00  0.00     0.116 C 
BRANCH  22  23
ATOM     23  N   UNL A   1      32.703  36.026  30.228  1.00  0.00    -0.352 N 
ATOM     24  C   UNL A   1      32.704  35.877  31.598  1.00  0.00     0.251 C 
ATOM     25  H   UNL A   1      31.971  36.591  29.889  1.00  0.00     0.163 HD
ATOM     26  O   UNL A   1      31.779  36.344  32.259  1.00  0.00    -0.269 OA
BRANCH  24  27
ATOM     27  C   UNL A   1      33.784  35.133  32.278  1.00  0.00     0.039 A 
ATOM     28  C   UNL A   1      33.551  33.839  32.753  1.00  0.00     0.014 A 
ATOM     29  C   UNL A   1      35.046  35.698  32.420  1.00  0.00     0.014 A 
ATOM     30  C   UNL A   1      34.617  33.078  33.244  1.00  0.00     0.010 A 
ATOM     31  C   UNL A   1      36.125  34.890  32.735  1.00  0.00     0.010 A 
ATOM     32  C   UNL A   1      35.929  33.572  33.165  1.00  0.00    -0.014 A 
BRANCH  32  33
ATOM     33  C   UNL A   1      37.121  32.763  33.531  1.00  0.00     0.031 A 
ATOM     34  C   UNL A   1      37.842  33.039  34.827  1.00  0.00     0.074 A 
ATOM     35  C   UNL A   1      37.640  31.889  32.645  1.00  0.00     0.049 A 
ATOM     36  N   UNL A   1      39.008  32.610  35.236  1.00  0.00    -0.248 NA
ATOM     37  C   UNL A   1      37.198  33.988  35.751  1.00  0.00     0.031 C 
ATOM     38  C   UNL A   1      37.099  31.599  31.316  1.00  0.00     0.029 A 
ATOM     39  N   UNL A   1      38.760  31.101  32.724  1.00  0.00    -0.354 N 
ATOM     40  C   UNL A   1      39.258  33.283  36.426  1.00  0.00     0.074 A 
ATOM     41  C   UNL A   1      38.161  34.204  36.630  1.00  0.00     0.031 C 
ATOM     42  C   UNL A   1      37.868  30.675  30.718  1.00  0.00     0.029 A 
ATOM     43  C   UNL A   1      38.979  30.341  31.600  1.00  0.00     0.049 A 
ATOM     44  H   UNL A   1      39.352  31.082  33.511  1.00  0.00     0.167 HD
ATOM     45  C   UNL A   1      40.287  33.126  37.293  1.00  0.00     0.037 A 
ATOM     46  C   UNL A   1      39.968  29.475  31.313  1.00  0.00     0.037 A 
ATOM     47  C   UNL A   1      41.327  32.148  37.124  1.00  0.00     0.049 A 
ATOM     48  C   UNL A   1      41.047  29.235  32.329  1.00  0.00     0.074 A 
ATOM     49  C   UNL A   1      42.356  31.822  37.989  1.00  0.00     0.029 A 
ATOM     50  N   UNL A   1      41.455  31.322  36.016  1.00  0.00    -0.354 N 
ATOM     51  N   UNL A   1      41.233  29.824  33.486  1.00  0.00    -0.248 NA
ATOM     52  C   UNL A   1      42.043  28.206  32.009  1.00  0.00     0.031 C 
ATOM     53  C   UNL A   1      43.123  30.816  37.391  1.00  0.00     0.029 A 
ATOM     54  C   UNL A   1      42.551  30.490  36.172  1.00  0.00     0.049 A 
ATOM     55  H   UNL A   1      40.856  31.328  35.235  1.00  0.00     0.167 HD
ATOM     56  C   UNL A   1      42.356  29.227  34.041  1.00  0.00     0.074 A 
ATOM     57  C   UNL A   1      42.798  28.217  33.100  1.00  0.00     0.031 C 
ATOM     58  C   UNL A   1      42.970  29.492  35.221  1.00  0.00     0.037 A 
BRANCH  45  59
ATOM     59  C   UNL A   1      40.312  34.021  38.500  1.00  0.00     0.057 A 
ATOM     60  C   UNL A   1      39.631  33.694  39.682  1.00  0.00     0.134 A 
ATOM     61  C   UNL A   1      41.007  35.237  38.475  1.00  0.00     0.134 A 
ATOM     62  F   UNL A   1      38.933  32.551  39.771  1.00  0.00    -0.206 F 
ATOM     63  C   UNL A   1      39.595  34.566  40.772  1.00  0.00     0.040 A 
ATOM     64  C   UNL A   1      41.008  36.101  39.573  1.00  0.00     0.040 A 
ATOM     65  F   UNL A   1      41.688  35.611  37.383  1.00  0.00    -0.206 F 
ATOM     66  C   UNL A   1      40.288  35.772  40.720  1.00  0.00     0.006 A 
ENDBRANCH  45  59
BRANCH  46  67
ATOM     67  C   UNL A   1      39.947  28.742  30.022  1.00  0.00     0.057 A 
ATOM     68  C   UNL A   1      40.662  29.215  28.916  1.00  0.00     0.134 A 
ATOM     69  C   UNL A   1      39.252  27.536  29.873  1.00  0.00     0.134 A 
ATOM     70  F   UNL A   1      41.337  30.372  28.995  1.00  0.00    -0.206 F 
ATOM     71  C   UNL A   1      40.680  28.523  27.705  1.00  0.00     0.040 A 
ATOM     72  C   UNL A   1      39.279  26.822  28.674  1.00  0.00     0.040 A 
ATOM     73  F   UNL A   1      38.560  27.022  30.901  1.00  0.00    -0.206 F 
ATOM     74  C   UNL A   1      39.992  27.316  27.584  1.00  0.00     0.006 A 
ENDBRANCH  46  67
BRANCH  58  75
ATOM     75  C   UNL A   1      44.167  28.661  35.569  1.00  0.00     0.057 A 
ATOM     76  C   UNL A   1      44.050  27.470  36.296  1.00  0.00     0.134 A 
ATOM     77  C   UNL A   1      45.444  29.033  35.131  1.00  0.00     0.134 A 
ATOM     78  F   UNL A   1      42.854  27.067  36.753  1.00  0.00    -0.206 F 
ATOM     79  C   UNL A   1      45.166  26.686  36.591  1.00  0.00     0.040 A 
ATOM     80  C   UNL A   1      46.563  28.245  35.400  1.00  0.00     0.040 A 
ATOM     81  F   UNL A   1      45.621  30.158  34.422  1.00  0.00    -0.206 F 
ATOM     82  C   UNL A   1      46.426  27.071  36.137  1.00  0.00     0.006 A 
ENDBRANCH  58  75
ENDBRANCH  32  33
ENDBRANCH  24  27
ENDBRANCH  22  23
ENDBRANCH  21  22
ENDBRANCH   1  21
TORSDOF 14
ENDMDL
MODEL 3
REMARK VINA RESULT:      -9.7      5.170      9.740
REMARK SMILES C[C@@H]1C[C@H]([NH3+])C[N@@H+](CCC(=O)NCCCCNC(=O)c2ccc(-c3c4nc(c(-c5c(F)cccc5F)c5ccc([nH]5)c(-c5c(F)cccc5F)c5nc(c(-c6c(F)cccc6F)c6ccc3[nH]6)C=C5)C=C4)cc2)C1
REMARK SMILES IDX 14 1 13 2 12 3 10 4 11 5 9 7 8 8 7 9 1 10 2 11 3 12 74 13
REMARK SMILES IDX 4 14 6 15 5 17 15 21 16 22 17 23 18 24 19 26 20 27 21 28
REMARK SMILES IDX 73 29 22 30 72 31 23 32 24 33 25 34 66 35 26 36 71 37 65 38
REMARK SMILES IDX 67 39 27 40 70 41 64 42 63 43 28 45 54 46 37 47 53 48 38 49
REMARK SMILES IDX 41 50 52 51 68 52 39 53 40 54 51 56 69 57 42 58 29 59 30 60
REMARK SMILES IDX 35 61 31 62 32 63 34 64 36 65 33 66 55 67 56 68 61 69 57 70
REMARK SMILES IDX 58 71 60 72 62 73 59 74 43 75 44 76 49 77 45 78 46 79 48 80
REMARK SMILES IDX 50 81 47 82
REMARK H PARENT 12 6 7 16 5 18 5 19 5 20 17 25 67 44 41 55
REMARK Flexibility Score: inf
ROOT
ATOM      1  C   UNL A   1      32.295  27.880  26.861  1.00  0.00     0.023 C 
ENDROOT
BRANCH   1   2
ATOM      2  C   UNL A   1      31.435  26.727  26.349  1.00  0.00     0.116 C 
BRANCH   2   3
ATOM      3  N   UNL A   1      31.893  26.325  25.032  1.00  0.00    -0.356 N 
ATOM      4  C   UNL A   1      31.351  26.579  23.806  1.00  0.00     0.225 C 
ATOM      5  O   UNL A   1      31.718  25.891  22.854  1.00  0.00    -0.275 OA
ATOM      6  H   UNL A   1      32.719  25.790  25.022  1.00  0.00     0.163 HD
BRANCH   4   7
ATOM      7  C   UNL A   1      30.387  27.730  23.618  1.00  0.00     0.161 C 
BRANCH   7   8
ATOM      8  C   UNL A   1      31.011  28.990  22.987  1.00  0.00     0.272 C 
BRANCH   8   9
ATOM      9  N   UNL A   1      30.161  30.181  22.768  1.00  0.00    -0.329 N 
ATOM     10  C   UNL A   1      28.035  31.938  20.329  1.00  0.00     0.014 C 
ATOM     11  C   UNL A   1      28.019  30.934  21.483  1.00  0.00     0.047 C 
ATOM     12  C   UNL A   1      27.585  31.605  22.793  1.00  0.00     0.080 C 
ATOM     13  C   UNL A   1      29.323  30.096  21.571  1.00  0.00     0.265 C 
ATOM     14  C   UNL A   1      28.738  32.021  23.700  1.00  0.00     0.237 C 
ATOM     15  C   UNL A   1      29.589  30.767  23.974  1.00  0.00     0.327 C 
ATOM     16  H   UNL A   1      30.799  30.935  22.511  1.00  0.00     0.348 HD
BRANCH  14  17
ATOM     17  N   UNL A   1      29.518  33.110  23.107  1.00  0.00    -0.350 N 
ATOM     18  H   UNL A   1      29.739  32.882  22.138  1.00  0.00     0.344 HD
ATOM     19  H   UNL A   1      30.383  33.234  23.633  1.00  0.00     0.344 HD
ATOM     20  H   UNL A   1      28.975  33.973  23.138  1.00  0.00     0.344 HD
ENDBRANCH  14  17
ENDBRANCH   8   9
ENDBRANCH   7   8
ENDBRANCH   4   7
ENDBRANCH   2   3
ENDBRANCH   1   2
BRANCH   1  21
ATOM     21  C   UNL A   1      31.673  29.265  26.795  1.00  0.00     0.023 C 
BRANCH  21  22
ATOM     22  C   UNL A   1      32.546  30.318  26.131  1.00  0.00     0.116 C 
BRANCH  22  23
ATOM     23  N   UNL A   1      32.339  31.674  26.633  1.00  0.00    -0.352 N 
ATOM     24  C   UNL A   1      33.101  32.488  27.444  1.00  0.00     0.251 C 
ATOM     25  H   UNL A   1      31.495  32.085  26.336  1.00  0.00     0.163 HD
ATOM     26  O   UNL A   1      32.650  33.571  27.810  1.00  0.00    -0.269 OA
BRANCH  24  27
ATOM     27  C   UNL A   1      34.437  32.060  27.905  1.00  0.00     0.039 A 
ATOM     28  C   UNL A   1      35.475  32.990  28.003  1.00  0.00     0.014 A 
ATOM     29  C   UNL A   1      34.664  30.739  28.275  1.00  0.00     0.014 A 
ATOM     30  C   UNL A   1      36.686  32.618  28.596  1.00  0.00     0.010 A 
ATOM     31  C   UNL A   1      35.787  30.421  29.018  1.00  0.00     0.010 A 
ATOM     32  C   UNL A   1      36.823  31.349  29.180  1.00  0.00    -0.014 A 
BRANCH  32  33
ATOM     33  C   UNL A   1      38.026  30.940  29.953  1.00  0.00     0.031 A 
ATOM     34  C   UNL A   1      39.021  29.990  29.336  1.00  0.00     0.074 A 
ATOM     35  C   UNL A   1      38.150  31.299  31.246  1.00  0.00     0.049 A 
ATOM     36  N   UNL A   1      40.010  29.343  29.898  1.00  0.00    -0.248 NA
ATOM     37  C   UNL A   1      38.830  29.667  27.912  1.00  0.00     0.031 C 
ATOM     38  C   UNL A   1      37.207  32.133  31.994  1.00  0.00     0.029 A 
ATOM     39  N   UNL A   1      39.114  30.982  32.169  1.00  0.00    -0.354 N 
ATOM     40  C   UNL A   1      40.509  28.497  28.915  1.00  0.00     0.074 A 
ATOM     41  C   UNL A   1      39.668  28.656  27.750  1.00  0.00     0.031 C 
ATOM     42  C   UNL A   1      37.655  32.289  33.250  1.00  0.00     0.029 A 
ATOM     43  C   UNL A   1      38.890  31.530  33.409  1.00  0.00     0.049 A 
ATOM     44  H   UNL A   1      39.892  30.416  31.963  1.00  0.00     0.167 HD
ATOM     45  C   UNL A   1      41.593  27.685  28.962  1.00  0.00     0.037 A 
ATOM     46  C   UNL A   1      39.600  31.429  34.548  1.00  0.00     0.037 A 
ATOM     47  C   UNL A   1      42.473  27.598  30.095  1.00  0.00     0.049 A 
ATOM     48  C   UNL A   1      40.857  30.607  34.554  1.00  0.00     0.074 A 
ATOM     49  C   UNL A   1      43.660  26.898  30.216  1.00  0.00     0.029 A 
ATOM     50  N   UNL A   1      42.267  28.252  31.301  1.00  0.00    -0.354 N 
ATOM     51  N   UNL A   1      41.362  29.869  33.595  1.00  0.00    -0.248 NA
ATOM     52  C   UNL A   1      41.648  30.614  35.790  1.00  0.00     0.031 C 
ATOM     53  C   UNL A   1      44.159  27.108  31.507  1.00  0.00     0.029 A 
ATOM     54  C   UNL A   1      43.302  27.968  32.176  1.00  0.00     0.049 A 
ATOM     55  H   UNL A   1      41.498  28.832  31.504  1.00  0.00     0.167 HD
ATOM     56  C   UNL A   1      42.538  29.336  34.103  1.00  0.00     0.074 A 
ATOM     57  C   UNL A   1      42.679  29.851  35.451  1.00  0.00     0.031 C 
ATOM     58  C   UNL A   1      43.420  28.494  33.512  1.00  0.00     0.037 A 
BRANCH  45  59
ATOM     59  C   UNL A   1      41.884  26.855  27.743  1.00  0.00     0.057 A 
ATOM     60  C   UNL A   1      42.661  27.340  26.680  1.00  0.00     0.134 A 
ATOM     61  C   UNL A   1      41.361  25.561  27.618  1.00  0.00     0.134 A 
ATOM     62  F   UNL A   1      43.181  28.576  26.728  1.00  0.00    -0.206 F 
ATOM     63  C   UNL A   1      42.862  26.592  25.519  1.00  0.00     0.040 A 
ATOM     64  C   UNL A   1      41.586  24.789  26.476  1.00  0.00     0.040 A 
ATOM     65  F   UNL A   1      40.617  25.027  28.598  1.00  0.00    -0.206 F 
ATOM     66  C   UNL A   1      42.326  25.311  25.416  1.00  0.00     0.006 A 
ENDBRANCH  45  59
BRANCH  46  67
ATOM     67  C   UNL A   1      39.154  32.165  35.757  1.00  0.00     0.057 A 
ATOM     68  C   UNL A   1      39.557  33.486  35.983  1.00  0.00     0.134 A 
ATOM     69  C   UNL A   1      38.285  31.587  36.691  1.00  0.00     0.134 A 
ATOM     70  F   UNL A   1      40.400  34.088  35.130  1.00  0.00    -0.206 F 
ATOM     71  C   UNL A   1      39.122  34.204  37.097  1.00  0.00     0.040 A 
ATOM     72  C   UNL A   1      37.824  32.301  37.798  1.00  0.00     0.040 A 
ATOM     73  F   UNL A   1      37.850  30.330  36.523  1.00  0.00    -0.206 F 
ATOM     74  C   UNL A   1      38.245  33.614  38.006  1.00  0.00     0.006 A 
ENDBRANCH  46  67
BRANCH  58  75
ATOM     75  C   UNL A   1      44.626  28.098  34.310  1.00  0.00     0.057 A 
ATOM     76  C   UNL A   1      45.798  28.864  34.301  1.00  0.00     0.134 A 
ATOM     77  C   UNL A   1      44.597  26.965  35.131  1.00  0.00     0.134 A 
ATOM     78  F   UNL A   1      45.891  29.955  33.525  1.00  0.00    -0.206 F 
ATOM     79  C   UNL A   1      46.906  28.506  35.068  1.00  0.00     0.040 A 
ATOM     80  C   UNL A   1      45.689  26.610  35.921  1.00  0.00     0.040 A 
ATOM     81  F   UNL A   1      43.499  26.194  35.191  1.00  0.00    -0.206 F 
ATOM     82  C   UNL A   1      46.851  27.378  35.886  1.00  0.00     0.006 A 
ENDBRANCH  58  75
ENDBRANCH  32  33
ENDBRANCH  24  27
ENDBRANCH  22  23
ENDBRANCH  21  22
ENDBRANCH   1  21
TORSDOF 14
ENDMDL
