MODEL 1
REMARK VINA RESULT:     -12.3      0.000      0.000
REMARK SMILES C[C@@H](NC(=O)CNC(=O)N1CC(=O)Nc2ccccc21)C(=O)NCCCCNC(=O)c1ccc(-c2c3nc(c(-c4c(F)cccc4F)c4ccc([nH]4)c(-c4c(F)cccc4F)c4nc(c(-c5c(F)cccc5F)c5ccc2[nH]5)C=C4)C=C3)cc1
REMARK SMILES IDX 24 1 23 2 21 3 22 4 2 6 1 7 3 8 4 9 5 11 6 12 7 13 8 14 9 16
REMARK SMILES IDX 10 17 11 18 20 19 12 20 15 21 19 22 13 23 14 24 16 25 18 26
REMARK SMILES IDX 17 28 25 29 26 30 27 31 28 32 29 33 30 35 31 36 32 37 84 38
REMARK SMILES IDX 33 39 83 40 34 41 35 42 36 43 77 44 37 45 82 46 76 47 78 48
REMARK SMILES IDX 38 49 81 50 75 51 74 52 39 54 65 55 48 56 64 57 49 58 52 59
REMARK SMILES IDX 63 60 79 61 50 62 51 63 62 65 80 66 53 67 40 68 41 69 46 70
REMARK SMILES IDX 42 71 43 72 45 73 47 74 44 75 66 76 67 77 72 78 68 79 69 80
REMARK SMILES IDX 71 81 73 82 70 83 54 84 55 85 60 86 56 87 57 88 59 89 61 90
REMARK SMILES IDX 58 91
REMARK H PARENT 23 5 3 10 7 15 14 27 28 34 78 53 52 64
REMARK Flexibility Score: inf
ROOT
ATOM      1  C   UNL A   1      35.898  21.243  25.138  1.00  0.00     0.116 C 
ENDROOT
BRANCH   1   2
ATOM      2  N   UNL A   1      35.499  21.500  26.507  1.00  0.00    -0.354 N 
ATOM      3  C   UNL A   1      34.263  21.769  27.008  1.00  0.00     0.242 C 
ATOM      4  O   UNL A   1      34.186  22.234  28.148  1.00  0.00    -0.273 OA
ATOM      5  H   UNL A   1      36.228  21.476  27.169  1.00  0.00     0.163 HD
BRANCH   3   6
ATOM      6  C   UNL A   1      32.995  21.686  26.140  1.00  0.00     0.168 C 
ATOM      7  C   UNL A   1      32.860  20.237  25.678  1.00  0.00     0.041 C 
BRANCH   6   8
ATOM      8  N   UNL A   1      31.764  22.151  26.774  1.00  0.00    -0.343 N 
ATOM      9  C   UNL A   1      30.959  23.194  26.411  1.00  0.00     0.240 C 
ATOM     10  H   UNL A   1      31.475  21.646  27.569  1.00  0.00     0.164 HD
ATOM     11  O   UNL A   1      29.973  23.433  27.111  1.00  0.00    -0.273 OA
BRANCH   9  12
ATOM     12  C   UNL A   1      31.373  24.137  25.277  1.00  0.00     0.218 C 
BRANCH  12  13
ATOM     13  N   UNL A   1      30.200  24.665  24.589  1.00  0.00    -0.329 N 
ATOM     14  C   UNL A   1      29.980  25.966  24.210  1.00  0.00     0.322 C 
ATOM     15  H   UNL A   1      29.489  24.019  24.372  1.00  0.00     0.165 HD
ATOM     16  O   UNL A   1      28.819  26.353  24.128  1.00  0.00    -0.248 OA
BRANCH  14  17
ATOM     17  N   UNL A   1      31.104  26.738  24.012  1.00  0.00    -0.283 N 
ATOM     18  C   UNL A   1      31.679  26.892  22.679  1.00  0.00     0.227 C 
ATOM     19  C   UNL A   1      31.789  27.408  25.068  1.00  0.00     0.070 A 
ATOM     20  C   UNL A   1      33.182  26.684  22.665  1.00  0.00     0.244 C 
ATOM     21  C   UNL A   1      33.188  27.548  24.944  1.00  0.00     0.065 A 
ATOM     22  C   UNL A   1      31.178  27.797  26.261  1.00  0.00     0.028 A 
ATOM     23  O   UNL A   1      33.793  26.314  21.665  1.00  0.00    -0.273 OA
ATOM     24  N   UNL A   1      33.849  27.111  23.784  1.00  0.00    -0.323 N 
ATOM     25  C   UNL A   1      33.956  28.026  26.007  1.00  0.00     0.028 A 
ATOM     26  C   UNL A   1      31.948  28.300  27.316  1.00  0.00     0.002 A 
ATOM     27  H   UNL A   1      34.833  27.110  23.775  1.00  0.00     0.170 HD
ATOM     28  C   UNL A   1      33.334  28.400  27.195  1.00  0.00     0.002 A 
ENDBRANCH  14  17
ENDBRANCH  12  13
ENDBRANCH   9  12
ENDBRANCH   6   8
ENDBRANCH   3   6
ENDBRANCH   1   2
BRANCH   1  29
ATOM     29  C   UNL A   1      36.406  19.816  24.951  1.00  0.00     0.023 C 
BRANCH  29  30
ATOM     30  C   UNL A   1      37.892  19.712  24.594  1.00  0.00     0.023 C 
BRANCH  30  31
ATOM     31  C   UNL A   1      38.855  20.113  25.710  1.00  0.00     0.116 C 
BRANCH  31  32
ATOM     32  N   UNL A   1      40.012  19.233  25.784  1.00  0.00    -0.352 N 
ATOM     33  C   UNL A   1      41.322  19.522  26.068  1.00  0.00     0.251 C 
ATOM     34  H   UNL A   1      39.826  18.283  25.600  1.00  0.00     0.163 HD
ATOM     35  O   UNL A   1      42.193  18.675  25.871  1.00  0.00    -0.269 OA
BRANCH  33  36
ATOM     36  C   UNL A   1      41.700  20.847  26.600  1.00  0.00     0.039 A 
ATOM     37  C   UNL A   1      42.175  21.818  25.713  1.00  0.00     0.014 A 
ATOM     38  C   UNL A   1      41.629  21.124  27.968  1.00  0.00     0.014 A 
ATOM     39  C   UNL A   1      42.523  23.084  26.191  1.00  0.00     0.010 A 
ATOM     40  C   UNL A   1      41.915  22.406  28.434  1.00  0.00     0.010 A 
ATOM     41  C   UNL A   1      42.369  23.397  27.551  1.00  0.00    -0.014 A 
BRANCH  41  42
ATOM     42  C   UNL A   1      42.680  24.758  28.060  1.00  0.00     0.031 A 
ATOM     43  C   UNL A   1      44.090  25.129  28.430  1.00  0.00     0.074 A 
ATOM     44  C   UNL A   1      41.683  25.646  28.237  1.00  0.00     0.049 A 
ATOM     45  N   UNL A   1      44.545  26.251  28.926  1.00  0.00    -0.248 NA
ATOM     46  C   UNL A   1      45.120  24.097  28.234  1.00  0.00     0.031 C 
ATOM     47  C   UNL A   1      40.268  25.395  27.958  1.00  0.00     0.029 A 
ATOM     48  N   UNL A   1      41.707  26.937  28.701  1.00  0.00    -0.354 N 
ATOM     49  C   UNL A   1      45.908  26.056  29.116  1.00  0.00     0.074 A 
ATOM     50  C   UNL A   1      46.197  24.694  28.722  1.00  0.00     0.031 C 
ATOM     51  C   UNL A   1      39.563  26.504  28.234  1.00  0.00     0.029 A 
ATOM     52  C   UNL A   1      40.469  27.531  28.741  1.00  0.00     0.049 A 
ATOM     53  H   UNL A   1      42.533  27.395  28.978  1.00  0.00     0.167 HD
ATOM     54  C   UNL A   1      46.836  26.938  29.558  1.00  0.00     0.037 A 
ATOM     55  C   UNL A   1      40.103  28.761  29.147  1.00  0.00     0.037 A 
ATOM     56  C   UNL A   1      46.553  28.301  29.926  1.00  0.00     0.049 A 
ATOM     57  C   UNL A   1      41.152  29.719  29.639  1.00  0.00     0.074 A 
ATOM     58  C   UNL A   1      47.438  29.288  30.321  1.00  0.00     0.029 A 
ATOM     59  N   UNL A   1      45.287  28.867  29.944  1.00  0.00    -0.354 N 
ATOM     60  N   UNL A   1      42.448  29.543  29.745  1.00  0.00    -0.248 NA
ATOM     61  C   UNL A   1      40.690  31.046  30.066  1.00  0.00     0.031 C 
ATOM     62  C   UNL A   1      46.703  30.440  30.622  1.00  0.00     0.029 A 
ATOM     63  C   UNL A   1      45.366  30.183  30.369  1.00  0.00     0.049 A 
ATOM     64  H   UNL A   1      44.456  28.402  29.693  1.00  0.00     0.167 HD
ATOM     65  C   UNL A   1      42.956  30.745  30.221  1.00  0.00     0.074 A 
ATOM     66  C   UNL A   1      41.832  31.645  30.372  1.00  0.00     0.031 C 
ATOM     67  C   UNL A   1      44.240  31.072  30.507  1.00  0.00     0.037 A 
BRANCH  54  68
ATOM     68  C   UNL A   1      48.252  26.455  29.667  1.00  0.00     0.057 A 
ATOM     69  C   UNL A   1      49.172  26.621  28.623  1.00  0.00     0.134 A 
ATOM     70  C   UNL A   1      48.715  25.852  30.845  1.00  0.00     0.134 A 
ATOM     71  F   UNL A   1      48.792  27.182  27.465  1.00  0.00    -0.206 F 
ATOM     72  C   UNL A   1      50.494  26.184  28.737  1.00  0.00     0.040 A 
ATOM     73  C   UNL A   1      50.039  25.435  30.980  1.00  0.00     0.040 A 
ATOM     74  F   UNL A   1      47.888  25.669  31.885  1.00  0.00    -0.206 F 
ATOM     75  C   UNL A   1      50.932  25.595  29.921  1.00  0.00     0.006 A 
ENDBRANCH  54  68
BRANCH  55  76
ATOM     76  C   UNL A   1      38.678  29.173  29.082  1.00  0.00     0.057 A 
ATOM     77  C   UNL A   1      37.854  29.098  30.211  1.00  0.00     0.134 A 
ATOM     78  C   UNL A   1      38.103  29.637  27.894  1.00  0.00     0.134 A 
ATOM     79  F   UNL A   1      38.343  28.641  31.373  1.00  0.00    -0.206 F 
ATOM     80  C   UNL A   1      36.506  29.453  30.157  1.00  0.00     0.040 A 
ATOM     81  C   UNL A   1      36.763  30.019  27.831  1.00  0.00     0.040 A 
ATOM     82  F   UNL A   1      38.841  29.737  26.778  1.00  0.00    -0.206 F 
ATOM     83  C   UNL A   1      35.959  29.920  28.965  1.00  0.00     0.006 A 
ENDBRANCH  55  76
BRANCH  67  84
ATOM     84  C   UNL A   1      44.503  32.472  30.978  1.00  0.00     0.057 A 
ATOM     85  C   UNL A   1      44.514  32.805  32.337  1.00  0.00     0.134 A 
ATOM     86  C   UNL A   1      44.785  33.491  30.059  1.00  0.00     0.134 A 
ATOM     87  F   UNL A   1      44.239  31.878  33.266  1.00  0.00    -0.206 F 
ATOM     88  C   UNL A   1      44.775  34.108  32.766  1.00  0.00     0.040 A 
ATOM     89  C   UNL A   1      45.073  34.790  30.476  1.00  0.00     0.040 A 
ATOM     90  F   UNL A   1      44.798  33.237  28.741  1.00  0.00    -0.206 F 
ATOM     91  C   UNL A   1      45.063  35.103  31.834  1.00  0.00     0.006 A 
ENDBRANCH  67  84
ENDBRANCH  41  42
ENDBRANCH  33  36
ENDBRANCH  31  32
ENDBRANCH  30  31
ENDBRANCH  29  30
ENDBRANCH   1  29
TORSDOF 15
ENDMDL
MODEL 2
REMARK VINA RESULT:     -12.3      3.278      8.740
REMARK SMILES C[C@@H](NC(=O)CNC(=O)N1CC(=O)Nc2ccccc21)C(=O)NCCCCNC(=O)c1ccc(-c2c3nc(c(-c4c(F)cccc4F)c4ccc([nH]4)c(-c4c(F)cccc4F)c4nc(c(-c5c(F)cccc5F)c5ccc2[nH]5)C=C4)C=C3)cc1
REMARK SMILES IDX 24 1 23 2 21 3 22 4 2 6 1 7 3 8 4 9 5 11 6 12 7 13 8 14 9 16
REMARK SMILES IDX 10 17 11 18 20 19 12 20 15 21 19 22 13 23 14 24 16 25 18 26
REMARK SMILES IDX 17 28 25 29 26 30 27 31 28 32 29 33 30 35 31 36 32 37 84 38
REMARK SMILES IDX 33 39 83 40 34 41 35 42 36 43 77 44 37 45 82 46 76 47 78 48
REMARK SMILES IDX 38 49 81 50 75 51 74 52 39 54 65 55 48 56 64 57 49 58 52 59
REMARK SMILES IDX 63 60 79 61 50 62 51 63 62 65 80 66 53 67 40 68 41 69 46 70
REMARK SMILES IDX 42 71 43 72 45 73 47 74 44 75 66 76 67 77 72 78 68 79 69 80
REMARK SMILES IDX 71 81 73 82 70 83 54 84 55 85 60 86 56 87 57 88 59 89 61 90
REMARK SMILES IDX 58 91
REMARK H PARENT 23 5 3 10 7 15 14 27 28 34 78 53 52 64
REMARK Flexibility Score: inf
ROOT
ATOM      1  C   UNL A   1      32.039  29.632  25.515  1.00  0.00     0.116 C 
ENDROOT
BRANCH   1   2
ATOM      2  N   UNL A   1      33.121  29.718  24.556  1.00  0.00    -0.354 N 
ATOM      3  C   UNL A   1      33.304  29.026  23.398  1.00  0.00     0.242 C 
ATOM      4  O   UNL A   1      34.423  29.047  22.878  1.00  0.00    -0.273 OA
ATOM      5  H   UNL A   1      33.824  30.373  24.772  1.00  0.00     0.163 HD
BRANCH   3   6
ATOM      6  C   UNL A   1      32.227  28.086  22.831  1.00  0.00     0.168 C 
ATOM      7  C   UNL A   1      31.069  28.962  22.356  1.00  0.00     0.041 C 
BRANCH   6   8
ATOM      8  N   UNL A   1      32.670  27.183  21.771  1.00  0.00    -0.343 N 
ATOM      9  C   UNL A   1      32.606  25.818  21.731  1.00  0.00     0.240 C 
ATOM     10  H   UNL A   1      33.067  27.615  20.981  1.00  0.00     0.164 HD
ATOM     11  O   UNL A   1      33.070  25.248  20.742  1.00  0.00    -0.273 OA
BRANCH   9  12
ATOM     12  C   UNL A   1      32.136  25.027  22.955  1.00  0.00     0.218 C 
BRANCH  12  13
ATOM     13  N   UNL A   1      31.701  23.689  22.569  1.00  0.00    -0.329 N 
ATOM     14  C   UNL A   1      32.198  22.494  23.025  1.00  0.00     0.322 C 
ATOM     15  H   UNL A   1      30.970  23.636  21.910  1.00  0.00     0.165 HD
ATOM     16  O   UNL A   1      32.124  21.519  22.286  1.00  0.00    -0.248 OA
BRANCH  14  17
ATOM     17  N   UNL A   1      32.795  22.521  24.268  1.00  0.00    -0.283 N 
ATOM     18  C   UNL A   1      32.006  22.320  25.480  1.00  0.00     0.227 C 
ATOM     19  C   UNL A   1      34.186  22.764  24.463  1.00  0.00     0.070 A 
ATOM     20  C   UNL A   1      32.304  23.355  26.548  1.00  0.00     0.244 C 
ATOM     21  C   UNL A   1      34.564  23.446  25.640  1.00  0.00     0.065 A 
ATOM     22  C   UNL A   1      35.160  22.496  23.499  1.00  0.00     0.028 A 
ATOM     23  O   UNL A   1      31.491  23.671  27.413  1.00  0.00    -0.273 OA
ATOM     24  N   UNL A   1      33.603  23.789  26.605  1.00  0.00    -0.323 N 
ATOM     25  C   UNL A   1      35.876  23.884  25.823  1.00  0.00     0.028 A 
ATOM     26  C   UNL A   1      36.481  22.915  23.697  1.00  0.00     0.002 A 
ATOM     27  H   UNL A   1      33.873  24.367  27.354  1.00  0.00     0.170 HD
ATOM     28  C   UNL A   1      36.835  23.619  24.848  1.00  0.00     0.002 A 
ENDBRANCH  14  17
ENDBRANCH  12  13
ENDBRANCH   9  12
ENDBRANCH   6   8
ENDBRANCH   3   6
ENDBRANCH   1   2
BRANCH   1  29
ATOM     29  C   UNL A   1      31.087  30.819  25.410  1.00  0.00     0.023 C 
BRANCH  29  30
ATOM     30  C   UNL A   1      31.096  31.750  26.626  1.00  0.00     0.023 C 
BRANCH  30  31
ATOM     31  C   UNL A   1      32.449  32.379  26.950  1.00  0.00     0.116 C 
BRANCH  31  32
ATOM     32  N   UNL A   1      32.319  33.733  27.470  1.00  0.00    -0.352 N 
ATOM     33  C   UNL A   1      33.079  34.397  28.398  1.00  0.00     0.251 C 
ATOM     34  H   UNL A   1      31.568  34.251  27.099  1.00  0.00     0.163 HD
ATOM     35  O   UNL A   1      32.682  35.464  28.865  1.00  0.00    -0.269 OA
BRANCH  33  36
ATOM     36  C   UNL A   1      34.370  33.838  28.851  1.00  0.00     0.039 A 
ATOM     37  C   UNL A   1      34.405  33.104  30.040  1.00  0.00     0.014 A 
ATOM     38  C   UNL A   1      35.547  34.066  28.135  1.00  0.00     0.014 A 
ATOM     39  C   UNL A   1      35.610  32.551  30.481  1.00  0.00     0.010 A 
ATOM     40  C   UNL A   1      36.736  33.462  28.540  1.00  0.00     0.010 A 
ATOM     41  C   UNL A   1      36.780  32.701  29.719  1.00  0.00    -0.014 A 
BRANCH  41  42
ATOM     42  C   UNL A   1      38.055  32.069  30.145  1.00  0.00     0.031 A 
ATOM     43  C   UNL A   1      38.954  32.760  31.134  1.00  0.00     0.074 A 
ATOM     44  C   UNL A   1      38.427  30.892  29.606  1.00  0.00     0.049 A 
ATOM     45  N   UNL A   1      40.120  32.382  31.593  1.00  0.00    -0.248 NA
ATOM     46  C   UNL A   1      38.493  34.054  31.658  1.00  0.00     0.031 C 
ATOM     47  C   UNL A   1      37.665  30.142  28.606  1.00  0.00     0.029 A 
ATOM     48  N   UNL A   1      39.545  30.125  29.818  1.00  0.00    -0.354 N 
ATOM     49  C   UNL A   1      40.537  33.395  32.447  1.00  0.00     0.074 A 
ATOM     50  C   UNL A   1      39.520  34.424  32.408  1.00  0.00     0.031 C 
ATOM     51  C   UNL A   1      38.326  29.011  28.309  1.00  0.00     0.029 A 
ATOM     52  C   UNL A   1      39.572  28.973  29.069  1.00  0.00     0.049 A 
ATOM     53  H   UNL A   1      40.259  30.375  30.447  1.00  0.00     0.167 HD
ATOM     54  C   UNL A   1      41.655  33.454  33.210  1.00  0.00     0.037 A 
ATOM     55  C   UNL A   1      40.498  28.000  28.998  1.00  0.00     0.037 A 
ATOM     56  C   UNL A   1      42.654  32.419  33.268  1.00  0.00     0.049 A 
ATOM     57  C   UNL A   1      41.733  28.092  29.850  1.00  0.00     0.074 A 
ATOM     58  C   UNL A   1      43.787  32.360  34.061  1.00  0.00     0.029 A 
ATOM     59  N   UNL A   1      42.640  31.264  32.501  1.00  0.00    -0.354 N 
ATOM     60  N   UNL A   1      42.079  29.023  30.707  1.00  0.00    -0.248 NA
ATOM     61  C   UNL A   1      42.706  26.997  29.729  1.00  0.00     0.031 C 
ATOM     62  C   UNL A   1      44.482  31.189  33.743  1.00  0.00     0.029 A 
ATOM     63  C   UNL A   1      43.759  30.497  32.785  1.00  0.00     0.049 A 
ATOM     64  H   UNL A   1      41.941  31.025  31.852  1.00  0.00     0.167 HD
ATOM     65  C   UNL A   1      43.291  28.611  31.247  1.00  0.00     0.074 A 
ATOM     66  C   UNL A   1      43.615  27.342  30.630  1.00  0.00     0.031 C 
ATOM     67  C   UNL A   1      44.065  29.231  32.170  1.00  0.00     0.037 A 
BRANCH  54  68
ATOM     68  C   UNL A   1      41.856  34.682  34.049  1.00  0.00     0.057 A 
ATOM     69  C   UNL A   1      42.509  35.817  33.552  1.00  0.00     0.134 A 
ATOM     70  C   UNL A   1      41.355  34.746  35.356  1.00  0.00     0.134 A 
ATOM     71  F   UNL A   1      43.021  35.819  32.311  1.00  0.00    -0.206 F 
ATOM     72  C   UNL A   1      42.678  36.963  34.332  1.00  0.00     0.040 A 
ATOM     73  C   UNL A   1      41.494  35.894  36.136  1.00  0.00     0.040 A 
ATOM     74  F   UNL A   1      40.713  33.696  35.891  1.00  0.00    -0.206 F 
ATOM     75  C   UNL A   1      42.163  37.006  35.626  1.00  0.00     0.006 A 
ENDBRANCH  54  68
BRANCH  55  76
ATOM     76  C   UNL A   1      40.286  26.834  28.103  1.00  0.00     0.057 A 
ATOM     77  C   UNL A   1      39.522  25.737  28.518  1.00  0.00     0.134 A 
ATOM     78  C   UNL A   1      40.846  26.783  26.822  1.00  0.00     0.134 A 
ATOM     79  F   UNL A   1      38.976  25.720  29.743  1.00  0.00    -0.206 F 
ATOM     80  C   UNL A   1      39.339  24.622  27.699  1.00  0.00     0.040 A 
ATOM     81  C   UNL A   1      40.651  25.686  25.983  1.00  0.00     0.040 A 
ATOM     82  F   UNL A   1      41.585  27.805  26.364  1.00  0.00    -0.206 F 
ATOM     83  C   UNL A   1      39.900  24.598  26.424  1.00  0.00     0.006 A 
ENDBRANCH  55  76
BRANCH  67  84
ATOM     84  C   UNL A   1      45.321  28.528  32.596  1.00  0.00     0.057 A 
ATOM     85  C   UNL A   1      45.317  27.555  33.603  1.00  0.00     0.134 A 
ATOM     86  C   UNL A   1      46.540  28.803  31.965  1.00  0.00     0.134 A 
ATOM     87  F   UNL A   1      44.184  27.256  34.255  1.00  0.00    -0.206 F 
ATOM     88  C   UNL A   1      46.488  26.895  33.982  1.00  0.00     0.040 A 
ATOM     89  C   UNL A   1      47.711  28.132  32.317  1.00  0.00     0.040 A 
ATOM     90  F   UNL A   1      46.611  29.719  30.987  1.00  0.00    -0.206 F 
ATOM     91  C   UNL A   1      47.688  27.179  33.333  1.00  0.00     0.006 A 
ENDBRANCH  67  84
ENDBRANCH  41  42
ENDBRANCH  33  36
ENDBRANCH  31  32
ENDBRANCH  30  31
ENDBRANCH  29  30
ENDBRANCH   1  29
TORSDOF 15
ENDMDL
MODEL 3
REMARK VINA RESULT:     -12.3      0.752      6.162
REMARK SMILES C[C@@H](NC(=O)CNC(=O)N1CC(=O)Nc2ccccc21)C(=O)NCCCCNC(=O)c1ccc(-c2c3nc(c(-c4c(F)cccc4F)c4ccc([nH]4)c(-c4c(F)cccc4F)c4nc(c(-c5c(F)cccc5F)c5ccc2[nH]5)C=C4)C=C3)cc1
REMARK SMILES IDX 24 1 23 2 21 3 22 4 2 6 1 7 3 8 4 9 5 11 6 12 7 13 8 14 9 16
REMARK SMILES IDX 10 17 11 18 20 19 12 20 15 21 19 22 13 23 14 24 16 25 18 26
REMARK SMILES IDX 17 28 25 29 26 30 27 31 28 32 29 33 30 35 31 36 32 37 84 38
REMARK SMILES IDX 33 39 83 40 34 41 35 42 36 43 77 44 37 45 82 46 76 47 78 48
REMARK SMILES IDX 38 49 81 50 75 51 74 52 39 54 65 55 48 56 64 57 49 58 52 59
REMARK SMILES IDX 63 60 79 61 50 62 51 63 62 65 80 66 53 67 40 68 41 69 46 70
REMARK SMILES IDX 42 71 43 72 45 73 47 74 44 75 66 76 67 77 72 78 68 79 69 80
REMARK SMILES IDX 71 81 73 82 70 83 54 84 55 85 60 86 56 87 57 88 59 89 61 90
REMARK SMILES IDX 58 91
REMARK H PARENT 23 5 3 10 7 15 14 27 28 34 78 53 52 64
REMARK Flexibility Score: inf
ROOT
ATOM      1  C   UNL A   1      35.498  20.955  25.627  1.00  0.00     0.116 C 
ENDROOT
BRANCH   1   2
ATOM      2  N   UNL A   1      34.465  19.958  25.432  1.00  0.00    -0.354 N 
ATOM      3  C   UNL A   1      33.122  20.126  25.287  1.00  0.00     0.242 C 
ATOM      4  O   UNL A   1      32.396  19.137  25.416  1.00  0.00    -0.273 OA
ATOM      5  H   UNL A   1      34.781  19.026  25.399  1.00  0.00     0.163 HD
BRANCH   3   6
ATOM      6  C   UNL A   1      32.484  21.519  25.154  1.00  0.00     0.168 C 
ATOM      7  C   UNL A   1      31.916  21.621  23.739  1.00  0.00     0.041 C 
BRANCH   6   8
ATOM      8  N   UNL A   1      31.467  21.846  26.151  1.00  0.00    -0.343 N 
ATOM      9  C   UNL A   1      30.822  23.034  26.352  1.00  0.00     0.240 C 
ATOM     10  H   UNL A   1      31.213  21.114  26.758  1.00  0.00     0.164 HD
ATOM     11  O   UNL A   1      30.013  23.101  27.279  1.00  0.00    -0.273 OA
BRANCH   9  12
ATOM     12  C   UNL A   1      31.229  24.283  25.564  1.00  0.00     0.218 C 
BRANCH  12  13
ATOM     13  N   UNL A   1      30.104  24.793  24.787  1.00  0.00    -0.329 N 
ATOM     14  C   UNL A   1      29.946  26.066  24.299  1.00  0.00     0.322 C 
ATOM     15  H   UNL A   1      29.379  24.155  24.591  1.00  0.00     0.165 HD
ATOM     16  O   UNL A   1      28.804  26.483  24.138  1.00  0.00    -0.248 OA
BRANCH  14  17
ATOM     17  N   UNL A   1      31.104  26.783  24.091  1.00  0.00    -0.283 N 
ATOM     18  C   UNL A   1      31.705  26.861  22.763  1.00  0.00     0.227 C 
ATOM     19  C   UNL A   1      31.800  27.466  25.131  1.00  0.00     0.070 A 
ATOM     20  C   UNL A   1      33.199  26.592  22.782  1.00  0.00     0.244 C 
ATOM     21  C   UNL A   1      33.206  27.543  25.026  1.00  0.00     0.065 A 
ATOM     22  C   UNL A   1      31.187  27.926  26.298  1.00  0.00     0.028 A 
ATOM     23  O   UNL A   1      33.809  26.158  21.808  1.00  0.00    -0.273 OA
ATOM     24  N   UNL A   1      33.865  27.035  23.895  1.00  0.00    -0.323 N 
ATOM     25  C   UNL A   1      33.977  28.031  26.082  1.00  0.00     0.028 A 
ATOM     26  C   UNL A   1      31.962  28.438  27.346  1.00  0.00     0.002 A 
ATOM     27  H   UNL A   1      34.848  26.993  23.902  1.00  0.00     0.170 HD
ATOM     28  C   UNL A   1      33.352  28.477  27.244  1.00  0.00     0.002 A 
ENDBRANCH  14  17
ENDBRANCH  12  13
ENDBRANCH   9  12
ENDBRANCH   6   8
ENDBRANCH   3   6
ENDBRANCH   1   2
BRANCH   1  29
ATOM     29  C   UNL A   1      36.603  20.843  24.581  1.00  0.00     0.023 C 
BRANCH  29  30
ATOM     30  C   UNL A   1      37.688  19.813  24.911  1.00  0.00     0.023 C 
BRANCH  30  31
ATOM     31  C   UNL A   1      38.857  20.345  25.738  1.00  0.00     0.116 C 
BRANCH  31  32
ATOM     32  N   UNL A   1      39.965  19.402  25.799  1.00  0.00    -0.352 N 
ATOM     33  C   UNL A   1      41.290  19.618  26.074  1.00  0.00     0.251 C 
ATOM     34  H   UNL A   1      39.725  18.465  25.614  1.00  0.00     0.163 HD
ATOM     35  O   UNL A   1      42.112  18.726  25.866  1.00  0.00    -0.269 OA
BRANCH  33  36
ATOM     36  C   UNL A   1      41.745  20.919  26.607  1.00  0.00     0.039 A 
ATOM     37  C   UNL A   1      42.180  21.899  25.711  1.00  0.00     0.014 A 
ATOM     38  C   UNL A   1      41.784  21.161  27.982  1.00  0.00     0.014 A 
ATOM     39  C   UNL A   1      42.599  23.142  26.190  1.00  0.00     0.010 A 
ATOM     40  C   UNL A   1      42.141  22.423  28.457  1.00  0.00     0.010 A 
ATOM     41  C   UNL A   1      42.555  23.424  27.565  1.00  0.00    -0.014 A 
BRANCH  41  42
ATOM     42  C   UNL A   1      42.942  24.762  28.083  1.00  0.00     0.031 A 
ATOM     43  C   UNL A   1      41.896  25.815  28.329  1.00  0.00     0.074 A 
ATOM     44  C   UNL A   1      44.243  25.047  28.286  1.00  0.00     0.049 A 
ATOM     45  N   UNL A   1      42.046  27.049  28.740  1.00  0.00    -0.248 NA
ATOM     46  C   UNL A   1      40.500  25.438  28.060  1.00  0.00     0.031 C 
ATOM     47  C   UNL A   1      45.357  24.129  28.044  1.00  0.00     0.029 A 
ATOM     48  N   UNL A   1      44.848  26.194  28.734  1.00  0.00    -0.354 N 
ATOM     49  C   UNL A   1      40.771  27.598  28.764  1.00  0.00     0.074 A 
ATOM     50  C   UNL A   1      39.863  26.578  28.285  1.00  0.00     0.031 C 
ATOM     51  C   UNL A   1      46.507  24.740  28.368  1.00  0.00     0.029 A 
ATOM     52  C   UNL A   1      46.217  26.102  28.807  1.00  0.00     0.049 A 
ATOM     53  H   UNL A   1      44.349  27.006  28.980  1.00  0.00     0.167 HD
ATOM     54  C   UNL A   1      40.388  28.833  29.168  1.00  0.00     0.037 A 
ATOM     55  C   UNL A   1      47.134  27.013  29.180  1.00  0.00     0.037 A 
ATOM     56  C   UNL A   1      41.287  29.839  29.669  1.00  0.00     0.049 A 
ATOM     57  C   UNL A   1      46.683  28.379  29.618  1.00  0.00     0.074 A 
ATOM     58  C   UNL A   1      40.984  31.096  30.164  1.00  0.00     0.029 A 
ATOM     59  N   UNL A   1      42.666  29.704  29.736  1.00  0.00    -0.354 N 
ATOM     60  N   UNL A   1      45.467  28.860  29.704  1.00  0.00    -0.248 NA
ATOM     61  C   UNL A   1      47.733  29.327  30.015  1.00  0.00     0.031 C 
ATOM     62  C   UNL A   1      42.183  31.738  30.491  1.00  0.00     0.029 A 
ATOM     63  C   UNL A   1      43.229  30.864  30.242  1.00  0.00     0.049 A 
ATOM     64  H   UNL A   1      43.168  28.903  29.464  1.00  0.00     0.167 HD
ATOM     65  C   UNL A   1      45.603  30.154  30.191  1.00  0.00     0.074 A 
ATOM     66  C   UNL A   1      47.019  30.378  30.393  1.00  0.00     0.031 C 
ATOM     67  C   UNL A   1      44.640  31.072  30.446  1.00  0.00     0.037 A 
BRANCH  54  68
ATOM     68  C   UNL A   1      38.927  29.165  29.087  1.00  0.00     0.057 A 
ATOM     69  C   UNL A   1      38.321  29.545  27.883  1.00  0.00     0.134 A 
ATOM     70  C   UNL A   1      38.106  29.064  30.218  1.00  0.00     0.134 A 
ATOM     71  F   UNL A   1      39.052  29.671  26.764  1.00  0.00    -0.206 F 
ATOM     72  C   UNL A   1      36.957  29.836  27.810  1.00  0.00     0.040 A 
ATOM     73  C   UNL A   1      36.737  29.327  30.154  1.00  0.00     0.040 A 
ATOM     74  F   UNL A   1      38.621  28.698  31.402  1.00  0.00    -0.206 F 
ATOM     75  C   UNL A   1      36.160  29.721  28.947  1.00  0.00     0.006 A 
ENDBRANCH  54  68
BRANCH  55  76
ATOM     76  C   UNL A   1      48.576  26.659  29.182  1.00  0.00     0.057 A 
ATOM     77  C   UNL A   1      49.387  26.935  28.075  1.00  0.00     0.134 A 
ATOM     78  C   UNL A   1      49.174  26.028  30.279  1.00  0.00     0.134 A 
ATOM     79  F   UNL A   1      48.866  27.520  26.987  1.00  0.00    -0.206 F 
ATOM     80  C   UNL A   1      50.736  26.581  28.051  1.00  0.00     0.040 A 
ATOM     81  C   UNL A   1      50.527  25.690  30.279  1.00  0.00     0.040 A 
ATOM     82  F   UNL A   1      48.451  25.740  31.372  1.00  0.00    -0.206 F 
ATOM     83  C   UNL A   1      51.311  25.961  29.158  1.00  0.00     0.006 A 
ENDBRANCH  55  76
BRANCH  67  84
ATOM     84  C   UNL A   1      45.082  32.392  31.007  1.00  0.00     0.057 A 
ATOM     85  C   UNL A   1      45.381  33.483  30.183  1.00  0.00     0.134 A 
ATOM     86  C   UNL A   1      45.174  32.582  32.392  1.00  0.00     0.134 A 
ATOM     87  F   UNL A   1      45.325  33.361  28.848  1.00  0.00    -0.206 F 
ATOM     88  C   UNL A   1      45.776  34.712  30.715  1.00  0.00     0.040 A 
ATOM     89  C   UNL A   1      45.542  33.811  32.937  1.00  0.00     0.040 A 
ATOM     90  F   UNL A   1      44.893  31.579  33.239  1.00  0.00    -0.206 F 
ATOM     91  C   UNL A   1      45.851  34.880  32.097  1.00  0.00     0.006 A 
ENDBRANCH  67  84
ENDBRANCH  41  42
ENDBRANCH  33  36
ENDBRANCH  31  32
ENDBRANCH  30  31
ENDBRANCH  29  30
ENDBRANCH   1  29
TORSDOF 15
ENDMDL
