MODEL 1
REMARK VINA RESULT:     -13.2      0.000      0.000
REMARK SMILES Cc1ccc([C@H](C)NC(=O)[C@H]2[C@@H]3CC[C@@H](C3)[C@@H]2C(=O)NCCCCNC(=O)c2ccc(-c3c4nc(c(-c5c(F)cccc5F)c5ccc([nH]5)c(-c5c(F)cccc5F)c5nc(c(-c6c(F)cccc6F)c6ccc3[nH]6)C=C5)C=C4)cc2)cc1
REMARK SMILES IDX 22 1 21 2 20 3 18 4 19 5 17 7 11 8 12 9 13 10 16 11 15 12
REMARK SMILES IDX 14 13 9 14 8 15 10 17 6 18 7 19 5 20 1 21 2 22 3 23 83 24
REMARK SMILES IDX 4 25 82 26 23 27 24 28 25 29 26 30 27 32 28 33 29 34 81 35
REMARK SMILES IDX 30 36 80 37 31 38 32 39 33 40 74 41 34 42 79 43 73 44 75 45
REMARK SMILES IDX 35 46 78 47 72 48 71 49 36 51 62 52 45 53 61 54 46 55 49 56
REMARK SMILES IDX 60 57 76 58 47 59 48 60 59 62 77 63 50 64 37 65 38 66 43 67
REMARK SMILES IDX 39 68 40 69 42 70 44 71 41 72 63 73 64 74 69 75 65 76 66 77
REMARK SMILES IDX 68 78 70 79 67 80 51 81 52 82 57 83 53 84 54 85 56 86 58 87
REMARK SMILES IDX 55 88
REMARK H PARENT 20 6 8 16 25 31 75 50 49 61
REMARK Flexibility Score: inf
ROOT
ATOM      1  C   UNL A   1      32.798  30.067  27.058  1.00  0.00     0.023 C 
ENDROOT
BRANCH   1   2
ATOM      2  C   UNL A   1      33.714  29.017  26.403  1.00  0.00     0.116 C 
BRANCH   2   3
ATOM      3  N   UNL A   1      33.937  29.271  24.990  1.00  0.00    -0.356 N 
ATOM      4  C   UNL A   1      33.643  28.584  23.859  1.00  0.00     0.224 C 
ATOM      5  O   UNL A   1      33.987  29.124  22.801  1.00  0.00    -0.275 OA
ATOM      6  H   UNL A   1      34.402  30.121  24.817  1.00  0.00     0.163 HD
BRANCH   4   7
ATOM      7  C   UNL A   1      32.809  27.303  23.829  1.00  0.00     0.094 C 
ATOM      8  C   UNL A   1      32.368  26.706  22.492  1.00  0.00     0.094 C 
ATOM      9  C   UNL A   1      30.829  26.587  22.609  1.00  0.00     0.002 C 
ATOM     10  C   UNL A   1      30.237  28.010  22.501  1.00  0.00     0.005 C 
ATOM     11  C   UNL A   1      30.608  26.301  24.086  1.00  0.00     0.009 C 
ATOM     12  C   UNL A   1      31.429  27.512  24.538  1.00  0.00     0.002 C 
ATOM     13  C   UNL A   1      30.630  28.641  23.846  1.00  0.00     0.005 C 
BRANCH   8  14
ATOM     14  C   UNL A   1      33.048  25.437  21.979  1.00  0.00     0.224 C 
ATOM     15  N   UNL A   1      33.480  24.389  22.713  1.00  0.00    -0.349 N 
ATOM     16  H   UNL A   1      33.957  23.724  22.167  1.00  0.00     0.164 HD
ATOM     17  O   UNL A   1      33.228  25.335  20.756  1.00  0.00    -0.275 OA
BRANCH  15  18
ATOM     18  C   UNL A   1      33.415  24.003  24.119  1.00  0.00     0.109 C 
ATOM     19  C   UNL A   1      32.257  23.024  24.332  1.00  0.00     0.036 C 
BRANCH  18  20
ATOM     20  C   UNL A   1      34.726  23.415  24.616  1.00  0.00    -0.026 A 
ATOM     21  C   UNL A   1      38.573  21.757  25.708  1.00  0.00     0.044 C 
ATOM     22  C   UNL A   1      37.231  22.329  25.361  1.00  0.00    -0.051 A 
ATOM     23  C   UNL A   1      36.326  21.573  24.612  1.00  0.00     0.004 A 
ATOM     24  C   UNL A   1      36.866  23.619  25.760  1.00  0.00     0.004 A 
ATOM     25  C   UNL A   1      35.092  22.112  24.238  1.00  0.00     0.006 A 
ATOM     26  C   UNL A   1      35.625  24.155  25.396  1.00  0.00     0.006 A 
ENDBRANCH  18  20
ENDBRANCH  15  18
ENDBRANCH   8  14
ENDBRANCH   4   7
ENDBRANCH   2   3
ENDBRANCH   1   2
BRANCH   1  27
ATOM     27  C   UNL A   1      33.519  31.298  27.618  1.00  0.00     0.023 C 
BRANCH  27  28
ATOM     28  C   UNL A   1      35.022  31.108  27.749  1.00  0.00     0.116 C 
BRANCH  28  29
ATOM     29  N   UNL A   1      35.606  31.666  28.963  1.00  0.00    -0.352 N 
ATOM     30  C   UNL A   1      36.575  31.118  29.797  1.00  0.00     0.251 C 
ATOM     31  H   UNL A   1      35.268  32.552  29.227  1.00  0.00     0.163 HD
ATOM     32  O   UNL A   1      36.937  31.698  30.795  1.00  0.00    -0.269 OA
BRANCH  30  33
ATOM     33  C   UNL A   1      37.251  29.866  29.363  1.00  0.00     0.039 A 
ATOM     34  C   UNL A   1      37.517  28.903  30.342  1.00  0.00     0.014 A 
ATOM     35  C   UNL A   1      37.821  29.762  28.098  1.00  0.00     0.014 A 
ATOM     36  C   UNL A   1      38.558  28.001  30.137  1.00  0.00     0.010 A 
ATOM     37  C   UNL A   1      38.918  28.939  27.932  1.00  0.00     0.010 A 
ATOM     38  C   UNL A   1      39.330  28.109  28.978  1.00  0.00    -0.014 A 
BRANCH  38  39
ATOM     39  C   UNL A   1      40.643  27.487  28.851  1.00  0.00     0.031 A 
ATOM     40  C   UNL A   1      40.769  26.052  28.538  1.00  0.00     0.074 A 
ATOM     41  C   UNL A   1      41.764  28.225  29.019  1.00  0.00     0.049 A 
ATOM     42  N   UNL A   1      41.714  25.297  28.993  1.00  0.00    -0.248 NA
ATOM     43  C   UNL A   1      39.812  25.345  27.691  1.00  0.00     0.031 C 
ATOM     44  C   UNL A   1      43.141  27.806  28.771  1.00  0.00     0.029 A 
ATOM     45  N   UNL A   1      41.885  29.461  29.668  1.00  0.00    -0.354 N 
ATOM     46  C   UNL A   1      41.649  24.111  28.307  1.00  0.00     0.074 A 
ATOM     47  C   UNL A   1      40.413  24.159  27.559  1.00  0.00     0.031 C 
ATOM     48  C   UNL A   1      43.963  28.581  29.496  1.00  0.00     0.029 A 
ATOM     49  C   UNL A   1      43.136  29.445  30.320  1.00  0.00     0.049 A 
ATOM     50  H   UNL A   1      41.228  30.194  29.667  1.00  0.00     0.167 HD
ATOM     51  C   UNL A   1      42.706  23.253  28.304  1.00  0.00     0.037 A 
ATOM     52  C   UNL A   1      43.230  29.573  31.674  1.00  0.00     0.037 A 
ATOM     53  C   UNL A   1      43.824  23.742  29.096  1.00  0.00     0.049 A 
ATOM     54  C   UNL A   1      43.849  28.379  32.363  1.00  0.00     0.074 A 
ATOM     55  C   UNL A   1      44.974  24.435  28.757  1.00  0.00     0.029 A 
ATOM     56  N   UNL A   1      43.697  23.851  30.477  1.00  0.00    -0.354 N 
ATOM     57  N   UNL A   1      44.050  27.228  31.785  1.00  0.00    -0.248 NA
ATOM     58  C   UNL A   1      44.240  28.371  33.772  1.00  0.00     0.031 C 
ATOM     59  C   UNL A   1      45.494  25.033  29.929  1.00  0.00     0.029 A 
ATOM     60  C   UNL A   1      44.677  24.681  30.989  1.00  0.00     0.049 A 
ATOM     61  H   UNL A   1      43.006  23.401  31.015  1.00  0.00     0.167 HD
ATOM     62  C   UNL A   1      44.511  26.328  32.709  1.00  0.00     0.074 A 
ATOM     63  C   UNL A   1      44.650  27.099  33.930  1.00  0.00     0.031 C 
ATOM     64  C   UNL A   1      44.718  25.015  32.403  1.00  0.00     0.037 A 
BRANCH  51  65
ATOM     65  C   UNL A   1      42.763  22.149  27.288  1.00  0.00     0.057 A 
ATOM     66  C   UNL A   1      41.964  21.000  27.397  1.00  0.00     0.134 A 
ATOM     67  C   UNL A   1      43.682  22.148  26.224  1.00  0.00     0.134 A 
ATOM     68  F   UNL A   1      41.018  20.888  28.336  1.00  0.00    -0.206 F 
ATOM     69  C   UNL A   1      42.132  19.888  26.564  1.00  0.00     0.040 A 
ATOM     70  C   UNL A   1      43.890  21.026  25.412  1.00  0.00     0.040 A 
ATOM     71  F   UNL A   1      44.432  23.231  25.965  1.00  0.00    -0.206 F 
ATOM     72  C   UNL A   1      43.120  19.884  25.589  1.00  0.00     0.006 A 
ENDBRANCH  51  65
BRANCH  52  73
ATOM     73  C   UNL A   1      42.178  30.447  32.252  1.00  0.00     0.057 A 
ATOM     74  C   UNL A   1      42.345  31.841  32.163  1.00  0.00     0.134 A 
ATOM     75  C   UNL A   1      40.893  29.975  32.530  1.00  0.00     0.134 A 
ATOM     76  F   UNL A   1      43.558  32.356  31.904  1.00  0.00    -0.206 F 
ATOM     77  C   UNL A   1      41.263  32.720  32.225  1.00  0.00     0.040 A 
ATOM     78  C   UNL A   1      39.802  30.848  32.609  1.00  0.00     0.040 A 
ATOM     79  F   UNL A   1      40.653  28.659  32.615  1.00  0.00    -0.206 F 
ATOM     80  C   UNL A   1      39.979  32.218  32.415  1.00  0.00     0.006 A 
ENDBRANCH  52  73
BRANCH  64  81
ATOM     81  C   UNL A   1      45.066  23.946  33.399  1.00  0.00     0.057 A 
ATOM     82  C   UNL A   1      44.167  22.963  33.836  1.00  0.00     0.134 A 
ATOM     83  C   UNL A   1      46.393  23.804  33.856  1.00  0.00     0.134 A 
ATOM     84  F   UNL A   1      42.902  22.930  33.393  1.00  0.00    -0.206 F 
ATOM     85  C   UNL A   1      44.547  21.941  34.714  1.00  0.00     0.040 A 
ATOM     86  C   UNL A   1      46.794  22.762  34.696  1.00  0.00     0.040 A 
ATOM     87  F   UNL A   1      47.354  24.666  33.490  1.00  0.00    -0.206 F 
ATOM     88  C   UNL A   1      45.866  21.833  35.140  1.00  0.00     0.006 A 
ENDBRANCH  64  81
ENDBRANCH  38  39
ENDBRANCH  30  33
ENDBRANCH  28  29
ENDBRANCH  27  28
ENDBRANCH   1  27
TORSDOF 14
ENDMDL
MODEL 2
REMARK VINA RESULT:     -13.1      1.059      1.585
REMARK SMILES Cc1ccc([C@H](C)NC(=O)[C@H]2[C@@H]3CC[C@@H](C3)[C@@H]2C(=O)NCCCCNC(=O)c2ccc(-c3c4nc(c(-c5c(F)cccc5F)c5ccc([nH]5)c(-c5c(F)cccc5F)c5nc(c(-c6c(F)cccc6F)c6ccc3[nH]6)C=C5)C=C4)cc2)cc1
REMARK SMILES IDX 22 1 21 2 20 3 18 4 19 5 17 7 11 8 12 9 13 10 16 11 15 12
REMARK SMILES IDX 14 13 9 14 8 15 10 17 6 18 7 19 5 20 1 21 2 22 3 23 83 24
REMARK SMILES IDX 4 25 82 26 23 27 24 28 25 29 26 30 27 32 28 33 29 34 81 35
REMARK SMILES IDX 30 36 80 37 31 38 32 39 33 40 74 41 34 42 79 43 73 44 75 45
REMARK SMILES IDX 35 46 78 47 72 48 71 49 36 51 62 52 45 53 61 54 46 55 49 56
REMARK SMILES IDX 60 57 76 58 47 59 48 60 59 62 77 63 50 64 37 65 38 66 43 67
REMARK SMILES IDX 39 68 40 69 42 70 44 71 41 72 63 73 64 74 69 75 65 76 66 77
REMARK SMILES IDX 68 78 70 79 67 80 51 81 52 82 57 83 53 84 54 85 56 86 58 87
REMARK SMILES IDX 55 88
REMARK H PARENT 20 6 8 16 25 31 75 50 49 61
REMARK Flexibility Score: inf
ROOT
ATOM      1  C   UNL A   1      32.965  29.029  27.102  1.00  0.00     0.023 C 
ENDROOT
BRANCH   1   2
ATOM      2  C   UNL A   1      34.038  28.319  26.255  1.00  0.00     0.116 C 
BRANCH   2   3
ATOM      3  N   UNL A   1      34.096  28.816  24.891  1.00  0.00    -0.356 N 
ATOM      4  C   UNL A   1      33.667  28.331  23.700  1.00  0.00     0.224 C 
ATOM      5  O   UNL A   1      33.889  29.051  22.719  1.00  0.00    -0.275 OA
ATOM      6  H   UNL A   1      34.543  29.690  24.815  1.00  0.00     0.163 HD
BRANCH   4   7
ATOM      7  C   UNL A   1      32.826  27.063  23.546  1.00  0.00     0.094 C 
ATOM      8  C   UNL A   1      32.229  26.700  22.186  1.00  0.00     0.094 C 
ATOM      9  C   UNL A   1      30.714  26.542  22.458  1.00  0.00     0.002 C 
ATOM     10  C   UNL A   1      30.123  27.954  22.667  1.00  0.00     0.005 C 
ATOM     11  C   UNL A   1      30.664  26.003  23.879  1.00  0.00     0.009 C 
ATOM     12  C   UNL A   1      31.540  27.129  24.435  1.00  0.00     0.002 C 
ATOM     13  C   UNL A   1      30.673  28.349  24.046  1.00  0.00     0.005 C 
BRANCH   8  14
ATOM     14  C   UNL A   1      32.837  25.547  21.387  1.00  0.00     0.224 C 
ATOM     15  N   UNL A   1      33.226  24.344  21.858  1.00  0.00    -0.349 N 
ATOM     16  H   UNL A   1      33.660  23.796  21.166  1.00  0.00     0.164 HD
ATOM     17  O   UNL A   1      32.993  25.714  20.167  1.00  0.00    -0.275 OA
BRANCH  15  18
ATOM     18  C   UNL A   1      33.162  23.656  23.144  1.00  0.00     0.109 C 
ATOM     19  C   UNL A   1      32.652  22.227  22.939  1.00  0.00     0.036 C 
BRANCH  18  20
ATOM     20  C   UNL A   1      34.498  23.662  23.867  1.00  0.00    -0.026 A 
ATOM     21  C   UNL A   1      38.175  23.448  26.144  1.00  0.00     0.044 C 
ATOM     22  C   UNL A   1      36.915  23.544  25.335  1.00  0.00    -0.051 A 
ATOM     23  C   UNL A   1      35.786  24.161  25.879  1.00  0.00     0.004 A 
ATOM     24  C   UNL A   1      36.839  23.012  24.044  1.00  0.00     0.004 A 
ATOM     25  C   UNL A   1      34.591  24.212  25.157  1.00  0.00     0.006 A 
ATOM     26  C   UNL A   1      35.646  23.075  23.315  1.00  0.00     0.006 A 
ENDBRANCH  18  20
ENDBRANCH  15  18
ENDBRANCH   8  14
ENDBRANCH   4   7
ENDBRANCH   2   3
ENDBRANCH   1   2
BRANCH   1  27
ATOM     27  C   UNL A   1      33.285  30.483  27.466  1.00  0.00     0.023 C 
BRANCH  27  28
ATOM     28  C   UNL A   1      34.771  30.745  27.654  1.00  0.00     0.116 C 
BRANCH  28  29
ATOM     29  N   UNL A   1      35.133  31.310  28.948  1.00  0.00    -0.352 N 
ATOM     30  C   UNL A   1      36.106  30.882  29.846  1.00  0.00     0.251 C 
ATOM     31  H   UNL A   1      34.619  32.103  29.224  1.00  0.00     0.163 HD
ATOM     32  O   UNL A   1      36.267  31.444  30.904  1.00  0.00    -0.269 OA
BRANCH  30  33
ATOM     33  C   UNL A   1      37.033  29.800  29.417  1.00  0.00     0.039 A 
ATOM     34  C   UNL A   1      37.351  28.812  30.354  1.00  0.00     0.014 A 
ATOM     35  C   UNL A   1      37.749  29.901  28.227  1.00  0.00     0.014 A 
ATOM     36  C   UNL A   1      38.549  28.114  30.220  1.00  0.00     0.010 A 
ATOM     37  C   UNL A   1      38.984  29.287  28.144  1.00  0.00     0.010 A 
ATOM     38  C   UNL A   1      39.414  28.447  29.175  1.00  0.00    -0.014 A 
BRANCH  38  39
ATOM     39  C   UNL A   1      40.821  28.063  29.171  1.00  0.00     0.031 A 
ATOM     40  C   UNL A   1      41.250  26.786  28.570  1.00  0.00     0.074 A 
ATOM     41  C   UNL A   1      41.751  28.878  29.719  1.00  0.00     0.049 A 
ATOM     42  N   UNL A   1      42.232  26.076  29.018  1.00  0.00    -0.248 NA
ATOM     43  C   UNL A   1      40.581  26.197  27.414  1.00  0.00     0.031 C 
ATOM     44  C   UNL A   1      43.202  28.728  29.657  1.00  0.00     0.029 A 
ATOM     45  N   UNL A   1      41.545  29.911  30.642  1.00  0.00    -0.354 N 
ATOM     46  C   UNL A   1      42.490  25.108  28.082  1.00  0.00     0.074 A 
ATOM     47  C   UNL A   1      41.398  25.177  27.137  1.00  0.00     0.031 C 
ATOM     48  C   UNL A   1      43.747  29.395  30.686  1.00  0.00     0.029 A 
ATOM     49  C   UNL A   1      42.660  29.900  31.506  1.00  0.00     0.049 A 
ATOM     50  H   UNL A   1      40.775  30.524  30.679  1.00  0.00     0.167 HD
ATOM     51  C   UNL A   1      43.671  24.430  28.092  1.00  0.00     0.037 A 
ATOM     52  C   UNL A   1      42.515  29.688  32.845  1.00  0.00     0.037 A 
ATOM     53  C   UNL A   1      44.545  24.847  29.177  1.00  0.00     0.049 A 
ATOM     54  C   UNL A   1      43.223  28.453  33.352  1.00  0.00     0.074 A 
ATOM     55  C   UNL A   1      45.590  25.753  29.237  1.00  0.00     0.029 A 
ATOM     56  N   UNL A   1      44.184  24.581  30.495  1.00  0.00    -0.354 N 
ATOM     57  N   UNL A   1      43.716  27.526  32.579  1.00  0.00    -0.248 NA
ATOM     58  C   UNL A   1      43.383  28.137  34.771  1.00  0.00     0.031 C 
ATOM     59  C   UNL A   1      45.803  26.096  30.594  1.00  0.00     0.029 A 
ATOM     60  C   UNL A   1      44.907  25.378  31.364  1.00  0.00     0.049 A 
ATOM     61  H   UNL A   1      43.510  23.919  30.770  1.00  0.00     0.167 HD
ATOM     62  C   UNL A   1      44.179  26.491  33.346  1.00  0.00     0.074 A 
ATOM     63  C   UNL A   1      43.984  26.936  34.713  1.00  0.00     0.031 C 
ATOM     64  C   UNL A   1      44.665  25.340  32.797  1.00  0.00     0.037 A 
BRANCH  51  65
ATOM     65  C   UNL A   1      44.084  23.642  26.883  1.00  0.00     0.057 A 
ATOM     66  C   UNL A   1      44.878  24.202  25.869  1.00  0.00     0.134 A 
ATOM     67  C   UNL A   1      43.630  22.334  26.641  1.00  0.00     0.134 A 
ATOM     68  F   UNL A   1      45.414  25.422  25.990  1.00  0.00    -0.206 F 
ATOM     69  C   UNL A   1      45.123  23.544  24.658  1.00  0.00     0.040 A 
ATOM     70  C   UNL A   1      43.830  21.682  25.417  1.00  0.00     0.040 A 
ATOM     71  F   UNL A   1      42.943  21.662  27.579  1.00  0.00    -0.206 F 
ATOM     72  C   UNL A   1      44.571  22.295  24.414  1.00  0.00     0.006 A 
ENDBRANCH  51  65
BRANCH  52  73
ATOM     73  C   UNL A   1      41.246  30.234  33.389  1.00  0.00     0.057 A 
ATOM     74  C   UNL A   1      41.145  31.624  33.581  1.00  0.00     0.134 A 
ATOM     75  C   UNL A   1      40.054  29.505  33.361  1.00  0.00     0.134 A 
ATOM     76  F   UNL A   1      42.256  32.378  33.623  1.00  0.00    -0.206 F 
ATOM     77  C   UNL A   1      39.912  32.276  33.620  1.00  0.00     0.040 A 
ATOM     78  C   UNL A   1      38.812  30.148  33.414  1.00  0.00     0.040 A 
ATOM     79  F   UNL A   1      40.070  28.179  33.166  1.00  0.00    -0.206 F 
ATOM     80  C   UNL A   1      38.739  31.538  33.501  1.00  0.00     0.006 A 
ENDBRANCH  52  73
BRANCH  64  81
ATOM     81  C   UNL A   1      45.038  24.110  33.573  1.00  0.00     0.057 A 
ATOM     82  C   UNL A   1      44.196  23.000  33.730  1.00  0.00     0.134 A 
ATOM     83  C   UNL A   1      46.343  23.960  34.084  1.00  0.00     0.134 A 
ATOM     84  F   UNL A   1      42.965  22.980  33.199  1.00  0.00    -0.206 F 
ATOM     85  C   UNL A   1      44.604  21.842  34.402  1.00  0.00     0.040 A 
ATOM     86  C   UNL A   1      46.777  22.792  34.717  1.00  0.00     0.040 A 
ATOM     87  F   UNL A   1      47.254  24.940  33.976  1.00  0.00    -0.206 F 
ATOM     88  C   UNL A   1      45.901  21.732  34.891  1.00  0.00     0.006 A 
ENDBRANCH  64  81
ENDBRANCH  38  39
ENDBRANCH  30  33
ENDBRANCH  28  29
ENDBRANCH  27  28
ENDBRANCH   1  27
TORSDOF 14
ENDMDL
MODEL 3
REMARK VINA RESULT:     -13.1      3.670      9.362
REMARK SMILES Cc1ccc([C@H](C)NC(=O)[C@H]2[C@@H]3CC[C@@H](C3)[C@@H]2C(=O)NCCCCNC(=O)c2ccc(-c3c4nc(c(-c5c(F)cccc5F)c5ccc([nH]5)c(-c5c(F)cccc5F)c5nc(c(-c6c(F)cccc6F)c6ccc3[nH]6)C=C5)C=C4)cc2)cc1
REMARK SMILES IDX 22 1 21 2 20 3 18 4 19 5 17 7 11 8 12 9 13 10 16 11 15 12
REMARK SMILES IDX 14 13 9 14 8 15 10 17 6 18 7 19 5 20 1 21 2 22 3 23 83 24
REMARK SMILES IDX 4 25 82 26 23 27 24 28 25 29 26 30 27 32 28 33 29 34 81 35
REMARK SMILES IDX 30 36 80 37 31 38 32 39 33 40 74 41 34 42 79 43 73 44 75 45
REMARK SMILES IDX 35 46 78 47 72 48 71 49 36 51 62 52 45 53 61 54 46 55 49 56
REMARK SMILES IDX 60 57 76 58 47 59 48 60 59 62 77 63 50 64 37 65 38 66 43 67
REMARK SMILES IDX 39 68 40 69 42 70 44 71 41 72 63 73 64 74 69 75 65 76 66 77
REMARK SMILES IDX 68 78 70 79 67 80 51 81 52 82 57 83 53 84 54 85 56 86 58 87
REMARK SMILES IDX 55 88
REMARK H PARENT 20 6 8 16 25 31 75 50 49 61
REMARK Flexibility Score: inf
ROOT
ATOM      1  C   UNL A   1      37.684  21.753  25.000  1.00  0.00     0.023 C 
ENDROOT
BRANCH   1   2
ATOM      2  C   UNL A   1      36.712  22.808  25.562  1.00  0.00     0.116 C 
BRANCH   2   3
ATOM      3  N   UNL A   1      35.888  22.293  26.642  1.00  0.00    -0.356 N 
ATOM      4  C   UNL A   1      34.557  22.321  26.898  1.00  0.00     0.224 C 
ATOM      5  O   UNL A   1      34.202  21.758  27.940  1.00  0.00    -0.275 OA
ATOM      6  H   UNL A   1      36.407  21.826  27.337  1.00  0.00     0.163 HD
BRANCH   4   7
ATOM      7  C   UNL A   1      33.510  22.862  25.925  1.00  0.00     0.094 C 
ATOM      8  C   UNL A   1      32.026  22.579  26.159  1.00  0.00     0.094 C 
ATOM      9  C   UNL A   1      31.544  21.923  24.843  1.00  0.00     0.002 C 
ATOM     10  C   UNL A   1      32.111  20.487  24.796  1.00  0.00     0.005 C 
ATOM     11  C   UNL A   1      32.398  22.597  23.779  1.00  0.00     0.009 C 
ATOM     12  C   UNL A   1      33.711  22.265  24.492  1.00  0.00     0.002 C 
ATOM     13  C   UNL A   1      33.606  20.722  24.528  1.00  0.00     0.005 C 
BRANCH   8  14
ATOM     14  C   UNL A   1      31.120  23.704  26.657  1.00  0.00     0.224 C 
ATOM     15  N   UNL A   1      31.209  25.017  26.355  1.00  0.00    -0.349 N 
ATOM     16  H   UNL A   1      30.560  25.559  26.859  1.00  0.00     0.164 HD
ATOM     17  O   UNL A   1      30.189  23.398  27.418  1.00  0.00    -0.275 OA
BRANCH  15  18
ATOM     18  C   UNL A   1      32.033  25.830  25.467  1.00  0.00     0.109 C 
ATOM     19  C   UNL A   1      31.298  26.052  24.142  1.00  0.00     0.036 C 
BRANCH  18  20
ATOM     20  C   UNL A   1      32.431  27.153  26.101  1.00  0.00    -0.026 A 
ATOM     21  C   UNL A   1      33.673  31.022  27.597  1.00  0.00     0.044 C 
ATOM     22  C   UNL A   1      33.233  29.673  27.109  1.00  0.00    -0.051 A 
ATOM     23  C   UNL A   1      34.187  28.723  26.737  1.00  0.00     0.004 A 
ATOM     24  C   UNL A   1      31.877  29.347  27.001  1.00  0.00     0.004 A 
ATOM     25  C   UNL A   1      33.791  27.482  26.232  1.00  0.00     0.006 A 
ATOM     26  C   UNL A   1      31.480  28.099  26.508  1.00  0.00     0.006 A 
ENDBRANCH  18  20
ENDBRANCH  15  18
ENDBRANCH   8  14
ENDBRANCH   4   7
ENDBRANCH   2   3
ENDBRANCH   1   2
BRANCH   1  27
ATOM     27  C   UNL A   1      39.017  21.639  25.747  1.00  0.00     0.023 C 
BRANCH  27  28
ATOM     28  C   UNL A   1      39.393  22.900  26.509  1.00  0.00     0.116 C 
BRANCH  28  29
ATOM     29  N   UNL A   1      40.810  23.239  26.470  1.00  0.00    -0.352 N 
ATOM     30  C   UNL A   1      41.412  24.487  26.603  1.00  0.00     0.251 C 
ATOM     31  H   UNL A   1      41.423  22.483  26.329  1.00  0.00     0.163 HD
ATOM     32  O   UNL A   1      42.612  24.610  26.515  1.00  0.00    -0.269 OA
BRANCH  30  33
ATOM     33  C   UNL A   1      40.559  25.643  26.988  1.00  0.00     0.039 A 
ATOM     34  C   UNL A   1      40.787  26.859  26.337  1.00  0.00     0.014 A 
ATOM     35  C   UNL A   1      39.748  25.589  28.118  1.00  0.00     0.014 A 
ATOM     36  C   UNL A   1      40.429  28.044  26.974  1.00  0.00     0.010 A 
ATOM     37  C   UNL A   1      39.483  26.761  28.799  1.00  0.00     0.010 A 
ATOM     38  C   UNL A   1      39.886  27.986  28.260  1.00  0.00    -0.014 A 
BRANCH  38  39
ATOM     39  C   UNL A   1      39.840  29.144  29.144  1.00  0.00     0.031 A 
ATOM     40  C   UNL A   1      38.784  30.163  28.994  1.00  0.00     0.074 A 
ATOM     41  C   UNL A   1      40.767  29.297  30.117  1.00  0.00     0.049 A 
ATOM     42  N   UNL A   1      38.963  31.422  29.221  1.00  0.00    -0.248 NA
ATOM     43  C   UNL A   1      37.432  29.835  28.548  1.00  0.00     0.031 C 
ATOM     44  C   UNL A   1      40.774  30.298  31.180  1.00  0.00     0.029 A 
ATOM     45  N   UNL A   1      42.025  28.687  30.201  1.00  0.00    -0.354 N 
ATOM     46  C   UNL A   1      37.726  32.014  29.216  1.00  0.00     0.074 A 
ATOM     47  C   UNL A   1      36.813  31.006  28.726  1.00  0.00     0.031 C 
ATOM     48  C   UNL A   1      42.034  30.454  31.614  1.00  0.00     0.029 A 
ATOM     49  C   UNL A   1      42.893  29.644  30.767  1.00  0.00     0.049 A 
ATOM     50  H   UNL A   1      42.257  27.771  29.922  1.00  0.00     0.167 HD
ATOM     51  C   UNL A   1      37.544  33.247  29.763  1.00  0.00     0.037 A 
ATOM     52  C   UNL A   1      43.988  30.094  30.091  1.00  0.00     0.037 A 
ATOM     53  C   UNL A   1      38.775  33.807  30.298  1.00  0.00     0.049 A 
ATOM     54  C   UNL A   1      43.968  31.577  29.806  1.00  0.00     0.074 A 
ATOM     55  C   UNL A   1      39.315  33.825  31.573  1.00  0.00     0.029 A 
ATOM     56  N   UNL A   1      39.809  34.155  29.433  1.00  0.00    -0.354 N 
ATOM     57  N   UNL A   1      42.916  32.333  29.950  1.00  0.00    -0.248 NA
ATOM     58  C   UNL A   1      45.117  32.316  29.283  1.00  0.00     0.031 C 
ATOM     59  C   UNL A   1      40.699  34.103  31.466  1.00  0.00     0.029 A 
ATOM     60  C   UNL A   1      40.998  34.283  30.128  1.00  0.00     0.049 A 
ATOM     61  H   UNL A   1      39.708  34.290  28.463  1.00  0.00     0.167 HD
ATOM     62  C   UNL A   1      43.194  33.595  29.495  1.00  0.00     0.074 A 
ATOM     63  C   UNL A   1      44.595  33.546  29.123  1.00  0.00     0.031 C 
ATOM     64  C   UNL A   1      42.245  34.573  29.438  1.00  0.00     0.037 A 
BRANCH  51  65
ATOM     65  C   UNL A   1      36.155  33.727  30.067  1.00  0.00     0.057 A 
ATOM     66  C   UNL A   1      35.294  34.191  29.058  1.00  0.00     0.134 A 
ATOM     67  C   UNL A   1      35.662  33.836  31.378  1.00  0.00     0.134 A 
ATOM     68  F   UNL A   1      35.618  34.105  27.763  1.00  0.00    -0.206 F 
ATOM     69  C   UNL A   1      34.069  34.805  29.341  1.00  0.00     0.040 A 
ATOM     70  C   UNL A   1      34.459  34.488  31.678  1.00  0.00     0.040 A 
ATOM     71  F   UNL A   1      36.356  33.339  32.415  1.00  0.00    -0.206 F 
ATOM     72  C   UNL A   1      33.662  34.987  30.656  1.00  0.00     0.006 A 
ENDBRANCH  51  65
BRANCH  52  73
ATOM     73  C   UNL A   1      44.601  29.061  29.219  1.00  0.00     0.057 A 
ATOM     74  C   UNL A   1      45.431  28.092  29.813  1.00  0.00     0.134 A 
ATOM     75  C   UNL A   1      44.107  28.781  27.943  1.00  0.00     0.134 A 
ATOM     76  F   UNL A   1      45.942  28.306  31.037  1.00  0.00    -0.206 F 
ATOM     77  C   UNL A   1      45.660  26.851  29.218  1.00  0.00     0.040 A 
ATOM     78  C   UNL A   1      44.342  27.545  27.330  1.00  0.00     0.040 A 
ATOM     79  F   UNL A   1      43.297  29.648  27.319  1.00  0.00    -0.206 F 
ATOM     80  C   UNL A   1      45.084  26.561  27.985  1.00  0.00     0.006 A 
ENDBRANCH  52  73
BRANCH  64  81
ATOM     81  C   UNL A   1      42.438  35.921  28.806  1.00  0.00     0.057 A 
ATOM     82  C   UNL A   1      41.888  36.290  27.571  1.00  0.00     0.134 A 
ATOM     83  C   UNL A   1      43.095  36.950  29.511  1.00  0.00     0.134 A 
ATOM     84  F   UNL A   1      41.153  35.430  26.851  1.00  0.00    -0.206 F 
ATOM     85  C   UNL A   1      42.031  37.580  27.045  1.00  0.00     0.040 A 
ATOM     86  C   UNL A   1      43.206  38.252  29.017  1.00  0.00     0.040 A 
ATOM     87  F   UNL A   1      43.643  36.732  30.717  1.00  0.00    -0.206 F 
ATOM     88  C   UNL A   1      42.686  38.568  27.772  1.00  0.00     0.006 A 
ENDBRANCH  64  81
ENDBRANCH  38  39
ENDBRANCH  30  33
ENDBRANCH  28  29
ENDBRANCH  27  28
ENDBRANCH   1  27
TORSDOF 14
ENDMDL
