MODEL 1
REMARK VINA RESULT:     -11.8      0.000      0.000
REMARK SMILES O=C(NCCCCNC(=O)c1cn(-c2ncnc3ccccc23)cn1)c1ccc(-c2c3nc(c(-c4c(F)cccc4F)c4ccc([nH]4)c(-c4c(F)cccc4F)c4nc(c(-c5c(F)cccc5F)c5ccc2[nH]5)C=C4)C=C3)cc1
REMARK SMILES IDX 5 1 4 2 3 3 1 4 2 5 26 7 27 8 79 9 28 10 78 11 29 12 30 13
REMARK SMILES IDX 31 14 72 15 32 16 77 17 71 18 73 19 33 20 76 21 70 22 69 23
REMARK SMILES IDX 34 25 60 26 43 27 59 28 44 29 47 30 58 31 74 32 45 33 46 34
REMARK SMILES IDX 57 36 75 37 48 38 35 39 36 40 41 41 37 42 38 43 40 44 42 45
REMARK SMILES IDX 39 46 61 47 62 48 67 49 63 50 64 51 66 52 68 53 65 54 49 55
REMARK SMILES IDX 50 56 55 57 51 58 52 59 54 60 56 61 53 62 6 63 7 64 8 65
REMARK SMILES IDX 9 66 10 68 11 69 12 70 25 71 13 72 24 73 14 74 15 75 23 76
REMARK SMILES IDX 16 77 18 78 22 79 17 80 19 81 21 82 20 83
REMARK H PARENT 3 6 73 24 47 35 8 67
REMARK Flexibility Score: inf
ROOT
ATOM      1  C   UNL A   1      35.080  34.610  28.666  1.00  0.00     0.023 C 
ENDROOT
BRANCH   1   2
ATOM      2  C   UNL A   1      34.453  33.373  29.304  1.00  0.00     0.116 C 
BRANCH   2   3
ATOM      3  N   UNL A   1      34.090  32.330  28.368  1.00  0.00    -0.352 N 
ATOM      4  O   UNL A   1      33.939  30.412  27.285  1.00  0.00    -0.269 OA
ATOM      5  C   UNL A   1      34.641  31.135  27.997  1.00  0.00     0.251 C 
ATOM      6  H   UNL A   1      33.254  32.527  27.887  1.00  0.00     0.163 HD
BRANCH   5   7
ATOM      7  C   UNL A   1      36.025  30.690  28.316  1.00  0.00     0.039 A 
ATOM      8  C   UNL A   1      37.063  31.498  28.782  1.00  0.00     0.014 A 
ATOM      9  C   UNL A   1      36.281  29.322  28.106  1.00  0.00     0.014 A 
ATOM     10  C   UNL A   1      38.345  30.970  28.945  1.00  0.00     0.010 A 
ATOM     11  C   UNL A   1      37.552  28.788  28.275  1.00  0.00     0.010 A 
ATOM     12  C   UNL A   1      38.594  29.624  28.662  1.00  0.00    -0.014 A 
BRANCH  12  13
ATOM     13  C   UNL A   1      39.908  29.067  28.986  1.00  0.00     0.031 A 
ATOM     14  C   UNL A   1      40.206  29.054  30.452  1.00  0.00     0.074 A 
ATOM     15  C   UNL A   1      40.709  28.458  28.084  1.00  0.00     0.049 A 
ATOM     16  N   UNL A   1      41.191  29.615  31.075  1.00  0.00    -0.248 NA
ATOM     17  C   UNL A   1      39.214  28.434  31.350  1.00  0.00     0.031 C 
ATOM     18  C   UNL A   1      40.413  28.147  26.684  1.00  0.00     0.029 A 
ATOM     19  N   UNL A   1      41.941  27.896  28.258  1.00  0.00    -0.354 N 
ATOM     20  C   UNL A   1      41.048  29.265  32.417  1.00  0.00     0.074 A 
ATOM     21  C   UNL A   1      39.746  28.669  32.549  1.00  0.00     0.031 C 
ATOM     22  C   UNL A   1      41.327  27.267  26.213  1.00  0.00     0.029 A 
ATOM     23  C   UNL A   1      42.345  27.051  27.227  1.00  0.00     0.049 A 
ATOM     24  H   UNL A   1      42.500  28.073  29.049  1.00  0.00     0.167 HD
ATOM     25  C   UNL A   1      42.103  29.290  33.277  1.00  0.00     0.037 A 
ATOM     26  C   UNL A   1      43.407  26.201  27.231  1.00  0.00     0.037 A 
ATOM     27  C   UNL A   1      43.162  30.127  32.779  1.00  0.00     0.049 A 
ATOM     28  C   UNL A   1      44.321  26.630  28.315  1.00  0.00     0.074 A 
ATOM     29  C   UNL A   1      43.275  31.466  32.463  1.00  0.00     0.029 A 
ATOM     30  N   UNL A   1      44.238  29.513  32.190  1.00  0.00    -0.354 N 
ATOM     31  N   UNL A   1      45.012  27.733  28.289  1.00  0.00    -0.248 NA
ATOM     32  C   UNL A   1      44.112  26.050  29.633  1.00  0.00     0.031 C 
ATOM     33  C   UNL A   1      44.103  31.500  31.304  1.00  0.00     0.029 A 
ATOM     34  C   UNL A   1      44.506  30.192  31.030  1.00  0.00     0.049 A 
ATOM     35  H   UNL A   1      44.726  28.732  32.535  1.00  0.00     0.167 HD
ATOM     36  C   UNL A   1      44.932  28.221  29.583  1.00  0.00     0.074 A 
ATOM     37  C   UNL A   1      44.429  27.106  30.384  1.00  0.00     0.031 C 
ATOM     38  C   UNL A   1      45.006  29.560  29.834  1.00  0.00     0.037 A 
BRANCH  25  39
ATOM     39  C   UNL A   1      42.330  28.270  34.368  1.00  0.00     0.057 A 
ATOM     40  C   UNL A   1      42.661  26.947  34.018  1.00  0.00     0.134 A 
ATOM     41  C   UNL A   1      41.940  28.452  35.710  1.00  0.00     0.134 A 
ATOM     42  F   UNL A   1      43.031  26.636  32.767  1.00  0.00    -0.206 F 
ATOM     43  C   UNL A   1      42.536  25.879  34.916  1.00  0.00     0.040 A 
ATOM     44  C   UNL A   1      41.860  27.401  36.627  1.00  0.00     0.040 A 
ATOM     45  F   UNL A   1      41.516  29.631  36.182  1.00  0.00    -0.206 F 
ATOM     46  C   UNL A   1      42.126  26.103  36.224  1.00  0.00     0.006 A 
ENDBRANCH  25  39
BRANCH  26  47
ATOM     47  C   UNL A   1      43.549  24.866  26.596  1.00  0.00     0.057 A 
ATOM     48  C   UNL A   1      42.731  23.786  26.972  1.00  0.00     0.134 A 
ATOM     49  C   UNL A   1      44.273  24.698  25.404  1.00  0.00     0.134 A 
ATOM     50  F   UNL A   1      41.963  23.862  28.067  1.00  0.00    -0.206 F 
ATOM     51  C   UNL A   1      42.624  22.622  26.195  1.00  0.00     0.040 A 
ATOM     52  C   UNL A   1      44.178  23.541  24.622  1.00  0.00     0.040 A 
ATOM     53  F   UNL A   1      45.025  25.691  24.908  1.00  0.00    -0.206 F 
ATOM     54  C   UNL A   1      43.340  22.502  25.009  1.00  0.00     0.006 A 
ENDBRANCH  26  47
BRANCH  38  55
ATOM     55  C   UNL A   1      45.421  30.468  28.709  1.00  0.00     0.057 A 
ATOM     56  C   UNL A   1      44.539  31.009  27.761  1.00  0.00     0.134 A 
ATOM     57  C   UNL A   1      46.741  30.929  28.678  1.00  0.00     0.134 A 
ATOM     58  F   UNL A   1      43.235  30.705  27.768  1.00  0.00    -0.206 F 
ATOM     59  C   UNL A   1      44.964  31.936  26.801  1.00  0.00     0.040 A 
ATOM     60  C   UNL A   1      47.170  31.880  27.750  1.00  0.00     0.040 A 
ATOM     61  F   UNL A   1      47.629  30.497  29.587  1.00  0.00    -0.206 F 
ATOM     62  C   UNL A   1      46.284  32.379  26.800  1.00  0.00     0.006 A 
ENDBRANCH  38  55
ENDBRANCH  12  13
ENDBRANCH   5   7
ENDBRANCH   2   3
ENDBRANCH   1   2
BRANCH   1  63
ATOM     63  C   UNL A   1      34.197  35.865  28.664  1.00  0.00     0.023 C 
BRANCH  63  64
ATOM     64  C   UNL A   1      32.902  35.772  29.472  1.00  0.00     0.116 C 
BRANCH  64  65
ATOM     65  N   UNL A   1      32.818  36.786  30.511  1.00  0.00    -0.351 N 
ATOM     66  C   UNL A   1      33.129  36.690  31.847  1.00  0.00     0.271 C 
ATOM     67  H   UNL A   1      32.494  37.667  30.215  1.00  0.00     0.163 HD
ATOM     68  O   UNL A   1      32.841  37.638  32.586  1.00  0.00    -0.267 OA
BRANCH  66  69
ATOM     69  C   UNL A   1      33.807  35.494  32.337  1.00  0.00     0.146 A 
ATOM     70  C   UNL A   1      35.164  35.348  32.562  1.00  0.00     0.128 A 
ATOM     71  N   UNL A   1      33.156  34.318  32.654  1.00  0.00    -0.231 NA
ATOM     72  N   UNL A   1      35.345  34.055  32.997  1.00  0.00    -0.289 N 
ATOM     73  C   UNL A   1      34.102  33.469  32.987  1.00  0.00     0.206 A 
BRANCH  72  74
ATOM     74  C   UNL A   1      36.565  33.397  33.289  1.00  0.00     0.149 A 
ATOM     75  N   UNL A   1      36.575  32.696  34.447  1.00  0.00    -0.218 NA
ATOM     76  C   UNL A   1      37.655  33.458  32.399  1.00  0.00     0.044 A 
ATOM     77  C   UNL A   1      37.661  31.950  34.662  1.00  0.00     0.224 A 
ATOM     78  C   UNL A   1      38.737  32.646  32.769  1.00  0.00     0.076 A 
ATOM     79  C   UNL A   1      37.790  34.294  31.251  1.00  0.00     0.014 A 
ATOM     80  N   UNL A   1      38.733  31.881  33.867  1.00  0.00    -0.236 NA
ATOM     81  C   UNL A   1      39.881  32.652  31.980  1.00  0.00     0.029 A 
ATOM     82  C   UNL A   1      38.950  34.288  30.483  1.00  0.00     0.001 A 
ATOM     83  C   UNL A   1      39.999  33.459  30.846  1.00  0.00     0.002 A 
ENDBRANCH  72  74
ENDBRANCH  66  69
ENDBRANCH  64  65
ENDBRANCH  63  64
ENDBRANCH   1  63
TORSDOF 12
ENDMDL
MODEL 2
REMARK VINA RESULT:     -11.6      0.356      1.353
REMARK SMILES O=C(NCCCCNC(=O)c1cn(-c2ncnc3ccccc23)cn1)c1ccc(-c2c3nc(c(-c4c(F)cccc4F)c4ccc([nH]4)c(-c4c(F)cccc4F)c4nc(c(-c5c(F)cccc5F)c5ccc2[nH]5)C=C4)C=C3)cc1
REMARK SMILES IDX 5 1 4 2 3 3 1 4 2 5 26 7 27 8 79 9 28 10 78 11 29 12 30 13
REMARK SMILES IDX 31 14 72 15 32 16 77 17 71 18 73 19 33 20 76 21 70 22 69 23
REMARK SMILES IDX 34 25 60 26 43 27 59 28 44 29 47 30 58 31 74 32 45 33 46 34
REMARK SMILES IDX 57 36 75 37 48 38 35 39 36 40 41 41 37 42 38 43 40 44 42 45
REMARK SMILES IDX 39 46 61 47 62 48 67 49 63 50 64 51 66 52 68 53 65 54 49 55
REMARK SMILES IDX 50 56 55 57 51 58 52 59 54 60 56 61 53 62 6 63 7 64 8 65
REMARK SMILES IDX 9 66 10 68 11 69 12 70 25 71 13 72 24 73 14 74 15 75 23 76
REMARK SMILES IDX 16 77 18 78 22 79 17 80 19 81 21 82 20 83
REMARK H PARENT 3 6 73 24 47 35 8 67
REMARK Flexibility Score: inf
ROOT
ATOM      1  C   UNL A   1      35.112  34.665  28.764  1.00  0.00     0.023 C 
ENDROOT
BRANCH   1   2
ATOM      2  C   UNL A   1      34.458  33.417  29.351  1.00  0.00     0.116 C 
BRANCH   2   3
ATOM      3  N   UNL A   1      34.086  32.415  28.373  1.00  0.00    -0.352 N 
ATOM      4  O   UNL A   1      33.918  30.544  27.215  1.00  0.00    -0.269 OA
ATOM      5  C   UNL A   1      34.626  31.231  27.956  1.00  0.00     0.251 C 
ATOM      6  H   UNL A   1      33.252  32.640  27.900  1.00  0.00     0.163 HD
BRANCH   5   7
ATOM      7  C   UNL A   1      36.005  30.760  28.258  1.00  0.00     0.039 A 
ATOM      8  C   UNL A   1      37.052  31.540  28.750  1.00  0.00     0.014 A 
ATOM      9  C   UNL A   1      36.245  29.397  28.001  1.00  0.00     0.014 A 
ATOM     10  C   UNL A   1      38.328  30.993  28.893  1.00  0.00     0.010 A 
ATOM     11  C   UNL A   1      37.511  28.844  28.150  1.00  0.00     0.010 A 
ATOM     12  C   UNL A   1      38.563  29.655  28.564  1.00  0.00    -0.014 A 
BRANCH  12  13
ATOM     13  C   UNL A   1      39.871  29.073  28.868  1.00  0.00     0.031 A 
ATOM     14  C   UNL A   1      40.134  28.925  30.333  1.00  0.00     0.074 A 
ATOM     15  C   UNL A   1      40.696  28.551  27.933  1.00  0.00     0.049 A 
ATOM     16  N   UNL A   1      41.101  29.429  31.028  1.00  0.00    -0.248 NA
ATOM     17  C   UNL A   1      39.123  28.224  31.146  1.00  0.00     0.031 C 
ATOM     18  C   UNL A   1      40.434  28.370  26.503  1.00  0.00     0.029 A 
ATOM     19  N   UNL A   1      41.926  27.978  28.085  1.00  0.00    -0.354 N 
ATOM     20  C   UNL A   1      40.927  28.956  32.329  1.00  0.00     0.074 A 
ATOM     21  C   UNL A   1      39.625  28.349  32.374  1.00  0.00     0.031 C 
ATOM     22  C   UNL A   1      41.363  27.538  25.976  1.00  0.00     0.029 A 
ATOM     23  C   UNL A   1      42.357  27.232  26.991  1.00  0.00     0.049 A 
ATOM     24  H   UNL A   1      42.464  28.082  28.902  1.00  0.00     0.167 HD
ATOM     25  C   UNL A   1      41.961  28.905  33.213  1.00  0.00     0.037 A 
ATOM     26  C   UNL A   1      43.423  26.387  26.942  1.00  0.00     0.037 A 
ATOM     27  C   UNL A   1      43.029  29.785  32.820  1.00  0.00     0.049 A 
ATOM     28  C   UNL A   1      44.308  26.716  28.083  1.00  0.00     0.074 A 
ATOM     29  C   UNL A   1      43.144  31.149  32.631  1.00  0.00     0.029 A 
ATOM     30  N   UNL A   1      44.120  29.231  32.203  1.00  0.00    -0.354 N 
ATOM     31  N   UNL A   1      44.995  27.819  28.175  1.00  0.00    -0.248 NA
ATOM     32  C   UNL A   1      44.070  26.017  29.336  1.00  0.00     0.031 C 
ATOM     33  C   UNL A   1      43.999  31.290  31.501  1.00  0.00     0.029 A 
ATOM     34  C   UNL A   1      44.413  30.014  31.118  1.00  0.00     0.049 A 
ATOM     35  H   UNL A   1      44.604  28.422  32.487  1.00  0.00     0.167 HD
ATOM     36  C   UNL A   1      44.882  28.185  29.507  1.00  0.00     0.074 A 
ATOM     37  C   UNL A   1      44.365  27.000  30.189  1.00  0.00     0.031 C 
ATOM     38  C   UNL A   1      44.945  29.496  29.881  1.00  0.00     0.037 A 
BRANCH  25  39
ATOM     39  C   UNL A   1      42.166  27.789  34.211  1.00  0.00     0.057 A 
ATOM     40  C   UNL A   1      41.848  28.006  35.565  1.00  0.00     0.134 A 
ATOM     41  C   UNL A   1      42.938  26.637  33.957  1.00  0.00     0.134 A 
ATOM     42  F   UNL A   1      41.133  29.076  35.942  1.00  0.00    -0.206 F 
ATOM     43  C   UNL A   1      42.329  27.182  36.591  1.00  0.00     0.040 A 
ATOM     44  C   UNL A   1      43.381  25.781  34.968  1.00  0.00     0.040 A 
ATOM     45  F   UNL A   1      43.392  26.332  32.735  1.00  0.00    -0.206 F 
ATOM     46  C   UNL A   1      43.106  26.070  36.295  1.00  0.00     0.006 A 
ENDBRANCH  25  39
BRANCH  26  47
ATOM     47  C   UNL A   1      43.585  25.116  26.190  1.00  0.00     0.057 A 
ATOM     48  C   UNL A   1      44.667  24.916  25.316  1.00  0.00     0.134 A 
ATOM     49  C   UNL A   1      42.860  23.965  26.539  1.00  0.00     0.134 A 
ATOM     50  F   UNL A   1      45.452  25.942  24.957  1.00  0.00    -0.206 F 
ATOM     51  C   UNL A   1      45.019  23.644  24.838  1.00  0.00     0.040 A 
ATOM     52  C   UNL A   1      43.198  22.691  26.067  1.00  0.00     0.040 A 
ATOM     53  F   UNL A   1      41.856  24.024  27.426  1.00  0.00    -0.206 F 
ATOM     54  C   UNL A   1      44.290  22.524  25.224  1.00  0.00     0.006 A 
ENDBRANCH  26  47
BRANCH  38  55
ATOM     55  C   UNL A   1      45.383  30.504  28.854  1.00  0.00     0.057 A 
ATOM     56  C   UNL A   1      44.522  31.128  27.938  1.00  0.00     0.134 A 
ATOM     57  C   UNL A   1      46.702  30.968  28.898  1.00  0.00     0.134 A 
ATOM     58  F   UNL A   1      43.219  30.822  27.886  1.00  0.00    -0.206 F 
ATOM     59  C   UNL A   1      44.966  32.139  27.079  1.00  0.00     0.040 A 
ATOM     60  C   UNL A   1      47.149  32.002  28.073  1.00  0.00     0.040 A 
ATOM     61  F   UNL A   1      47.569  30.457  29.786  1.00  0.00    -0.206 F 
ATOM     62  C   UNL A   1      46.283  32.584  27.151  1.00  0.00     0.006 A 
ENDBRANCH  38  55
ENDBRANCH  12  13
ENDBRANCH   5   7
ENDBRANCH   2   3
ENDBRANCH   1   2
BRANCH   1  63
ATOM     63  C   UNL A   1      34.174  35.862  28.561  1.00  0.00     0.023 C 
BRANCH  63  64
ATOM     64  C   UNL A   1      32.906  35.871  29.416  1.00  0.00     0.116 C 
BRANCH  64  65
ATOM     65  N   UNL A   1      32.910  36.930  30.412  1.00  0.00    -0.351 N 
ATOM     66  C   UNL A   1      33.241  36.869  31.745  1.00  0.00     0.271 C 
ATOM     67  H   UNL A   1      32.639  37.817  30.084  1.00  0.00     0.163 HD
ATOM     68  O   UNL A   1      33.031  37.864  32.447  1.00  0.00    -0.267 OA
BRANCH  66  69
ATOM     69  C   UNL A   1      33.849  35.652  32.274  1.00  0.00     0.146 A 
ATOM     70  C   UNL A   1      35.193  35.441  32.525  1.00  0.00     0.128 A 
ATOM     71  N   UNL A   1      33.133  34.520  32.607  1.00  0.00    -0.231 NA
ATOM     72  N   UNL A   1      35.299  34.152  32.992  1.00  0.00    -0.289 N 
ATOM     73  C   UNL A   1      34.028  33.631  32.976  1.00  0.00     0.206 A 
BRANCH  72  74
ATOM     74  C   UNL A   1      36.479  33.439  33.319  1.00  0.00     0.149 A 
ATOM     75  N   UNL A   1      36.427  32.748  34.483  1.00  0.00    -0.218 NA
ATOM     76  C   UNL A   1      37.593  33.442  32.457  1.00  0.00     0.044 A 
ATOM     77  C   UNL A   1      37.470  31.953  34.730  1.00  0.00     0.224 A 
ATOM     78  C   UNL A   1      38.625  32.582  32.860  1.00  0.00     0.076 A 
ATOM     79  C   UNL A   1      37.796  34.261  31.307  1.00  0.00     0.014 A 
ATOM     80  N   UNL A   1      38.558  31.827  33.963  1.00  0.00    -0.236 NA
ATOM     81  C   UNL A   1      39.787  32.528  32.100  1.00  0.00     0.029 A 
ATOM     82  C   UNL A   1      38.974  34.195  30.569  1.00  0.00     0.001 A 
ATOM     83  C   UNL A   1      39.972  33.319  30.965  1.00  0.00     0.002 A 
ENDBRANCH  72  74
ENDBRANCH  66  69
ENDBRANCH  64  65
ENDBRANCH  63  64
ENDBRANCH   1  63
TORSDOF 12
ENDMDL
MODEL 3
REMARK VINA RESULT:     -10.8      3.766      9.612
REMARK SMILES O=C(NCCCCNC(=O)c1cn(-c2ncnc3ccccc23)cn1)c1ccc(-c2c3nc(c(-c4c(F)cccc4F)c4ccc([nH]4)c(-c4c(F)cccc4F)c4nc(c(-c5c(F)cccc5F)c5ccc2[nH]5)C=C4)C=C3)cc1
REMARK SMILES IDX 5 1 4 2 3 3 1 4 2 5 26 7 27 8 79 9 28 10 78 11 29 12 30 13
REMARK SMILES IDX 31 14 72 15 32 16 77 17 71 18 73 19 33 20 76 21 70 22 69 23
REMARK SMILES IDX 34 25 60 26 43 27 59 28 44 29 47 30 58 31 74 32 45 33 46 34
REMARK SMILES IDX 57 36 75 37 48 38 35 39 36 40 41 41 37 42 38 43 40 44 42 45
REMARK SMILES IDX 39 46 61 47 62 48 67 49 63 50 64 51 66 52 68 53 65 54 49 55
REMARK SMILES IDX 50 56 55 57 51 58 52 59 54 60 56 61 53 62 6 63 7 64 8 65
REMARK SMILES IDX 9 66 10 68 11 69 12 70 25 71 13 72 24 73 14 74 15 75 23 76
REMARK SMILES IDX 16 77 18 78 22 79 17 80 19 81 21 82 20 83
REMARK H PARENT 3 6 73 24 47 35 8 67
REMARK Flexibility Score: inf
ROOT
ATOM      1  C   UNL A   1      38.669  22.138  26.028  1.00  0.00     0.023 C 
ENDROOT
BRANCH   1   2
ATOM      2  C   UNL A   1      40.037  21.793  26.609  1.00  0.00     0.116 C 
BRANCH   2   3
ATOM      3  N   UNL A   1      41.158  22.161  25.769  1.00  0.00    -0.352 N 
ATOM      4  O   UNL A   1      43.023  23.053  24.993  1.00  0.00    -0.269 OA
ATOM      5  C   UNL A   1      42.084  23.167  25.785  1.00  0.00     0.251 C 
ATOM      6  H   UNL A   1      41.282  21.544  25.011  1.00  0.00     0.163 HD
BRANCH   5   7
ATOM      7  C   UNL A   1      41.998  24.401  26.612  1.00  0.00     0.039 A 
ATOM      8  C   UNL A   1      42.564  24.588  27.874  1.00  0.00     0.014 A 
ATOM      9  C   UNL A   1      41.259  25.456  26.044  1.00  0.00     0.014 A 
ATOM     10  C   UNL A   1      42.320  25.763  28.586  1.00  0.00     0.010 A 
ATOM     11  C   UNL A   1      41.020  26.632  26.744  1.00  0.00     0.010 A 
ATOM     12  C   UNL A   1      41.523  26.771  28.033  1.00  0.00    -0.014 A 
BRANCH  12  13
ATOM     13  C   UNL A   1      41.412  28.048  28.738  1.00  0.00     0.031 A 
ATOM     14  C   UNL A   1      42.515  29.005  28.420  1.00  0.00     0.074 A 
ATOM     15  C   UNL A   1      40.334  28.411  29.468  1.00  0.00     0.049 A 
ATOM     16  N   UNL A   1      43.358  29.557  29.232  1.00  0.00    -0.248 NA
ATOM     17  C   UNL A   1      42.789  29.291  26.999  1.00  0.00     0.031 C 
ATOM     18  C   UNL A   1      39.067  27.690  29.621  1.00  0.00     0.029 A 
ATOM     19  N   UNL A   1      40.104  29.565  30.161  1.00  0.00    -0.354 N 
ATOM     20  C   UNL A   1      44.147  30.403  28.452  1.00  0.00     0.074 A 
ATOM     21  C   UNL A   1      43.854  30.089  27.080  1.00  0.00     0.031 C 
ATOM     22  C   UNL A   1      38.140  28.515  30.161  1.00  0.00     0.029 A 
ATOM     23  C   UNL A   1      38.773  29.776  30.512  1.00  0.00     0.049 A 
ATOM     24  H   UNL A   1      40.821  30.197  30.394  1.00  0.00     0.167 HD
ATOM     25  C   UNL A   1      44.820  31.453  28.998  1.00  0.00     0.037 A 
ATOM     26  C   UNL A   1      38.225  30.920  31.006  1.00  0.00     0.037 A 
ATOM     27  C   UNL A   1      44.991  31.284  30.416  1.00  0.00     0.049 A 
ATOM     28  C   UNL A   1      39.331  31.757  31.527  1.00  0.00     0.074 A 
ATOM     29  C   UNL A   1      45.625  30.351  31.214  1.00  0.00     0.029 A 
ATOM     30  N   UNL A   1      44.148  31.974  31.249  1.00  0.00    -0.354 N 
ATOM     31  N   UNL A   1      40.033  31.459  32.583  1.00  0.00    -0.248 NA
ATOM     32  C   UNL A   1      39.951  32.694  30.603  1.00  0.00     0.031 C 
ATOM     33  C   UNL A   1      44.770  30.195  32.343  1.00  0.00     0.029 A 
ATOM     34  C   UNL A   1      43.712  31.094  32.204  1.00  0.00     0.049 A 
ATOM     35  H   UNL A   1      43.903  32.924  31.175  1.00  0.00     0.167 HD
ATOM     36  C   UNL A   1      41.332  31.796  32.240  1.00  0.00     0.074 A 
ATOM     37  C   UNL A   1      41.210  32.621  31.038  1.00  0.00     0.031 C 
ATOM     38  C   UNL A   1      42.395  31.141  32.790  1.00  0.00     0.037 A 
BRANCH  25  39
ATOM     39  C   UNL A   1      44.983  32.795  28.323  1.00  0.00     0.057 A 
ATOM     40  C   UNL A   1      43.852  33.606  28.116  1.00  0.00     0.134 A 
ATOM     41  C   UNL A   1      46.133  33.180  27.603  1.00  0.00     0.134 A 
ATOM     42  F   UNL A   1      42.689  33.337  28.728  1.00  0.00    -0.206 F 
ATOM     43  C   UNL A   1      43.846  34.669  27.203  1.00  0.00     0.040 A 
ATOM     44  C   UNL A   1      46.151  34.269  26.728  1.00  0.00     0.040 A 
ATOM     45  F   UNL A   1      47.266  32.468  27.626  1.00  0.00    -0.206 F 
ATOM     46  C   UNL A   1      44.996  34.998  26.499  1.00  0.00     0.006 A 
ENDBRANCH  25  39
BRANCH  26  47
ATOM     47  C   UNL A   1      36.874  31.493  30.779  1.00  0.00     0.057 A 
ATOM     48  C   UNL A   1      35.995  31.739  31.847  1.00  0.00     0.134 A 
ATOM     49  C   UNL A   1      36.531  32.091  29.555  1.00  0.00     0.134 A 
ATOM     50  F   UNL A   1      36.255  31.254  33.069  1.00  0.00    -0.206 F 
ATOM     51  C   UNL A   1      34.858  32.551  31.710  1.00  0.00     0.040 A 
ATOM     52  C   UNL A   1      35.399  32.899  29.404  1.00  0.00     0.040 A 
ATOM     53  F   UNL A   1      37.336  31.988  28.488  1.00  0.00    -0.206 F 
ATOM     54  C   UNL A   1      34.564  33.145  30.487  1.00  0.00     0.006 A 
ENDBRANCH  26  47
BRANCH  38  55
ATOM     55  C   UNL A   1      42.135  30.223  33.952  1.00  0.00     0.057 A 
ATOM     56  C   UNL A   1      41.797  28.865  33.829  1.00  0.00     0.134 A 
ATOM     57  C   UNL A   1      42.383  30.697  35.244  1.00  0.00     0.134 A 
ATOM     58  F   UNL A   1      41.634  28.293  32.630  1.00  0.00    -0.206 F 
ATOM     59  C   UNL A   1      41.674  28.032  34.947  1.00  0.00     0.040 A 
ATOM     60  C   UNL A   1      42.299  29.867  36.364  1.00  0.00     0.040 A 
ATOM     61  F   UNL A   1      42.763  31.970  35.435  1.00  0.00    -0.206 F 
ATOM     62  C   UNL A   1      41.933  28.532  36.219  1.00  0.00     0.006 A 
ENDBRANCH  38  55
ENDBRANCH  12  13
ENDBRANCH   5   7
ENDBRANCH   2   3
ENDBRANCH   1   2
BRANCH   1  63
ATOM     63  C   UNL A   1      38.202  23.581  26.263  1.00  0.00     0.023 C 
BRANCH  63  64
ATOM     64  C   UNL A   1      36.767  23.897  25.837  1.00  0.00     0.116 C 
BRANCH  64  65
ATOM     65  N   UNL A   1      36.479  23.464  24.480  1.00  0.00    -0.351 N 
ATOM     66  C   UNL A   1      35.331  23.623  23.741  1.00  0.00     0.271 C 
ATOM     67  H   UNL A   1      37.212  22.990  24.024  1.00  0.00     0.163 HD
ATOM     68  O   UNL A   1      35.248  23.043  22.653  1.00  0.00    -0.267 OA
BRANCH  66  69
ATOM     69  C   UNL A   1      34.270  24.487  24.251  1.00  0.00     0.146 A 
ATOM     70  C   UNL A   1      34.066  25.819  23.936  1.00  0.00     0.128 A 
ATOM     71  N   UNL A   1      33.298  24.066  25.137  1.00  0.00    -0.231 NA
ATOM     72  N   UNL A   1      32.970  26.222  24.664  1.00  0.00    -0.289 N 
ATOM     73  C   UNL A   1      32.579  25.134  25.404  1.00  0.00     0.206 A 
BRANCH  72  74
ATOM     74  C   UNL A   1      32.409  27.520  24.744  1.00  0.00     0.149 A 
ATOM     75  N   UNL A   1      31.394  27.760  23.880  1.00  0.00    -0.218 NA
ATOM     76  C   UNL A   1      32.872  28.456  25.690  1.00  0.00     0.044 A 
ATOM     77  C   UNL A   1      30.756  28.921  24.044  1.00  0.00     0.224 A 
ATOM     78  C   UNL A   1      32.123  29.641  25.728  1.00  0.00     0.076 A 
ATOM     79  C   UNL A   1      34.028  28.350  26.517  1.00  0.00     0.014 A 
ATOM     80  N   UNL A   1      31.065  29.863  24.940  1.00  0.00    -0.236 NA
ATOM     81  C   UNL A   1      32.510  30.649  26.604  1.00  0.00     0.029 A 
ATOM     82  C   UNL A   1      34.399  29.378  27.378  1.00  0.00     0.001 A 
ATOM     83  C   UNL A   1      33.633  30.532  27.426  1.00  0.00     0.002 A 
ENDBRANCH  72  74
ENDBRANCH  66  69
ENDBRANCH  64  65
ENDBRANCH  63  64
ENDBRANCH   1  63
TORSDOF 12
ENDMDL
