MODEL 1
REMARK VINA RESULT:     -12.8      0.000      0.000
REMARK SMILES O=C(Nc1ccccc1)N[C@H]1C[C@@H](C(=O)NCCCCNC(=O)c2ccc(-c3c4nc(c(-c5c(F)cccc5F)c5ccc([nH]5)c(-c5c(F)cccc5F)c5nc(c(-c6c(F)cccc6F)c6ccc3[nH]6)C=C5)C=C4)cc2)Nc2cc(Cl)cc(Cl)c21
REMARK SMILES IDX 18 1 17 2 16 3 14 4 15 5 13 7 11 8 12 9 86 10 79 11 84 12
REMARK SMILES IDX 78 13 80 14 83 15 85 16 81 18 82 19 10 20 1 21 2 22 3 23
REMARK SMILES IDX 4 26 5 27 9 28 6 29 8 30 7 31 19 32 20 33 21 34 22 35 23 37
REMARK SMILES IDX 24 38 25 39 77 40 26 41 76 42 27 43 28 44 29 45 70 46 30 47
REMARK SMILES IDX 75 48 69 49 71 50 31 51 74 52 68 53 67 54 32 56 58 57 41 58
REMARK SMILES IDX 57 59 42 60 45 61 56 62 72 63 43 64 44 65 55 67 73 68 46 69
REMARK SMILES IDX 33 70 34 71 39 72 35 73 36 74 38 75 40 76 37 77 59 78 60 79
REMARK SMILES IDX 65 80 61 81 62 82 64 83 66 84 63 85 47 86 48 87 53 88 49 89
REMARK SMILES IDX 50 90 52 91 54 92 51 93
REMARK H PARENT 16 6 78 17 3 24 10 25 21 36 71 55 45 66
REMARK Flexibility Score: inf
ROOT
ATOM      1  C   UNL A   1      34.221  33.790  28.229  1.00  0.00     0.023 C 
ENDROOT
BRANCH   1   2
ATOM      2  C   UNL A   1      33.613  32.405  27.999  1.00  0.00     0.116 C 
BRANCH   2   3
ATOM      3  N   UNL A   1      34.638  31.414  27.785  1.00  0.00    -0.354 N 
ATOM      4  C   UNL A   1      34.557  30.106  27.447  1.00  0.00     0.242 C 
ATOM      5  O   UNL A   1      35.632  29.483  27.493  1.00  0.00    -0.273 OA
ATOM      6  H   UNL A   1      35.557  31.747  27.907  1.00  0.00     0.163 HD
BRANCH   4   7
ATOM      7  C   UNL A   1      33.278  29.365  26.951  1.00  0.00     0.171 C 
ATOM      8  C   UNL A   1      32.027  27.096  26.675  1.00  0.00     0.120 C 
ATOM      9  C   UNL A   1      32.756  28.085  27.606  1.00  0.00     0.065 C 
ATOM     10  C   UNL A   1      31.550  27.701  25.377  1.00  0.00     0.016 A 
ATOM     11  C   UNL A   1      32.322  28.734  24.828  1.00  0.00     0.043 A 
ATOM     12  C   UNL A   1      30.436  27.227  24.668  1.00  0.00     0.049 A 
ATOM     13  N   UNL A   1      33.448  29.158  25.509  1.00  0.00    -0.373 N 
ATOM     14  C   UNL A   1      31.912  29.366  23.656  1.00  0.00     0.046 A 
ATOM     15  C   UNL A   1      30.037  27.849  23.486  1.00  0.00     0.041 A 
ATOM     16  Cl  UNL A   1      29.528  25.855  25.192  1.00  0.00    -0.084 Cl
ATOM     17  H   UNL A   1      34.309  29.309  25.055  1.00  0.00     0.161 HD
ATOM     18  C   UNL A   1      30.761  28.934  23.003  1.00  0.00     0.044 A 
ATOM     19  Cl  UNL A   1      30.224  29.755  21.589  1.00  0.00    -0.084 Cl
BRANCH   8  20
ATOM     20  N   UNL A   1      32.828  25.911  26.381  1.00  0.00    -0.331 N 
ATOM     21  O   UNL A   1      31.328  24.440  27.251  1.00  0.00    -0.248 OA
ATOM     22  C   UNL A   1      32.303  24.664  26.535  1.00  0.00     0.319 C 
ATOM     23  N   UNL A   1      32.752  23.692  25.695  1.00  0.00    -0.308 N 
ATOM     24  H   UNL A   1      32.137  22.930  25.602  1.00  0.00     0.171 HD
ATOM     25  H   UNL A   1      33.756  26.015  26.068  1.00  0.00     0.166 HD
BRANCH  23  26
ATOM     26  C   UNL A   1      33.924  23.569  24.936  1.00  0.00     0.042 A 
ATOM     27  C   UNL A   1      33.780  23.348  23.561  1.00  0.00     0.026 A 
ATOM     28  C   UNL A   1      35.201  23.557  25.501  1.00  0.00     0.026 A 
ATOM     29  C   UNL A   1      34.899  23.155  22.751  1.00  0.00     0.002 A 
ATOM     30  C   UNL A   1      36.319  23.330  24.693  1.00  0.00     0.002 A 
ATOM     31  C   UNL A   1      36.170  23.138  23.318  1.00  0.00     0.000 A 
ENDBRANCH  23  26
ENDBRANCH   8  20
ENDBRANCH   4   7
ENDBRANCH   2   3
ENDBRANCH   1   2
BRANCH   1  32
ATOM     32  C   UNL A   1      34.332  34.222  29.687  1.00  0.00     0.023 C 
BRANCH  32  33
ATOM     33  C   UNL A   1      35.617  33.819  30.388  1.00  0.00     0.116 C 
BRANCH  33  34
ATOM     34  N   UNL A   1      35.414  33.423  31.774  1.00  0.00    -0.352 N 
ATOM     35  C   UNL A   1      36.025  32.418  32.487  1.00  0.00     0.251 C 
ATOM     36  H   UNL A   1      34.745  33.947  32.270  1.00  0.00     0.163 HD
ATOM     37  O   UNL A   1      35.670  32.155  33.623  1.00  0.00    -0.269 OA
BRANCH  35  38
ATOM     38  C   UNL A   1      37.090  31.632  31.835  1.00  0.00     0.039 A 
ATOM     39  C   UNL A   1      37.045  31.471  30.448  1.00  0.00     0.014 A 
ATOM     40  C   UNL A   1      38.157  31.125  32.581  1.00  0.00     0.014 A 
ATOM     41  C   UNL A   1      38.123  30.873  29.796  1.00  0.00     0.010 A 
ATOM     42  C   UNL A   1      39.259  30.596  31.922  1.00  0.00     0.010 A 
ATOM     43  C   UNL A   1      39.257  30.478  30.525  1.00  0.00    -0.014 A 
BRANCH  43  44
ATOM     44  C   UNL A   1      40.471  29.977  29.838  1.00  0.00     0.031 A 
ATOM     45  C   UNL A   1      41.610  30.909  29.547  1.00  0.00     0.074 A 
ATOM     46  C   UNL A   1      40.504  28.703  29.405  1.00  0.00     0.049 A 
ATOM     47  N   UNL A   1      42.713  30.679  28.883  1.00  0.00    -0.248 NA
ATOM     48  C   UNL A   1      41.481  32.288  30.044  1.00  0.00     0.031 C 
ATOM     49  C   UNL A   1      39.434  27.718  29.584  1.00  0.00     0.029 A 
ATOM     50  N   UNL A   1      41.469  28.020  28.710  1.00  0.00    -0.354 N 
ATOM     51  C   UNL A   1      43.404  31.883  28.874  1.00  0.00     0.074 A 
ATOM     52  C   UNL A   1      42.574  32.853  29.554  1.00  0.00     0.031 C 
ATOM     53  C   UNL A   1      39.810  26.554  29.030  1.00  0.00     0.029 A 
ATOM     54  C   UNL A   1      41.127  26.720  28.425  1.00  0.00     0.049 A 
ATOM     55  H   UNL A   1      42.327  28.423  28.441  1.00  0.00     0.167 HD
ATOM     56  C   UNL A   1      44.629  32.148  28.362  1.00  0.00     0.037 A 
ATOM     57  C   UNL A   1      41.797  25.773  27.741  1.00  0.00     0.037 A 
ATOM     58  C   UNL A   1      45.458  31.174  27.705  1.00  0.00     0.049 A 
ATOM     59  C   UNL A   1      43.147  26.099  27.169  1.00  0.00     0.074 A 
ATOM     60  C   UNL A   1      46.744  31.326  27.215  1.00  0.00     0.029 A 
ATOM     61  N   UNL A   1      45.081  29.866  27.441  1.00  0.00    -0.354 N 
ATOM     62  N   UNL A   1      43.820  27.222  27.230  1.00  0.00    -0.248 NA
ATOM     63  C   UNL A   1      43.830  25.026  26.432  1.00  0.00     0.031 C 
ATOM     64  C   UNL A   1      47.128  30.122  26.616  1.00  0.00     0.029 A 
ATOM     65  C   UNL A   1      46.098  29.208  26.770  1.00  0.00     0.049 A 
ATOM     66  H   UNL A   1      44.218  29.465  27.694  1.00  0.00     0.167 HD
ATOM     67  C   UNL A   1      45.013  26.987  26.559  1.00  0.00     0.074 A 
ATOM     68  C   UNL A   1      44.977  25.610  26.113  1.00  0.00     0.031 C 
ATOM     69  C   UNL A   1      46.044  27.837  26.331  1.00  0.00     0.037 A 
BRANCH  56  70
ATOM     70  C   UNL A   1      45.144  33.549  28.499  1.00  0.00     0.057 A 
ATOM     71  C   UNL A   1      44.881  34.530  27.533  1.00  0.00     0.134 A 
ATOM     72  C   UNL A   1      45.883  33.934  29.624  1.00  0.00     0.134 A 
ATOM     73  F   UNL A   1      44.190  34.223  26.424  1.00  0.00    -0.206 F 
ATOM     74  C   UNL A   1      45.353  35.835  27.670  1.00  0.00     0.040 A 
ATOM     75  C   UNL A   1      46.340  35.243  29.785  1.00  0.00     0.040 A 
ATOM     76  F   UNL A   1      46.168  33.046  30.589  1.00  0.00    -0.206 F 
ATOM     77  C   UNL A   1      46.080  36.196  28.803  1.00  0.00     0.006 A 
ENDBRANCH  56  70
BRANCH  57  78
ATOM     78  C   UNL A   1      41.205  24.423  27.571  1.00  0.00     0.057 A 
ATOM     79  C   UNL A   1      40.158  24.205  26.669  1.00  0.00     0.134 A 
ATOM     80  C   UNL A   1      41.669  23.322  28.302  1.00  0.00     0.134 A 
ATOM     81  F   UNL A   1      39.661  25.225  25.954  1.00  0.00    -0.206 F 
ATOM     82  C   UNL A   1      39.580  22.945  26.512  1.00  0.00     0.040 A 
ATOM     83  C   UNL A   1      41.115  22.052  28.138  1.00  0.00     0.040 A 
ATOM     84  F   UNL A   1      42.675  23.465  29.176  1.00  0.00    -0.206 F 
ATOM     85  C   UNL A   1      40.062  21.862  27.245  1.00  0.00     0.006 A 
ENDBRANCH  57  78
BRANCH  69  86
ATOM     86  C   UNL A   1      47.222  27.294  25.579  1.00  0.00     0.057 A 
ATOM     87  C   UNL A   1      47.370  27.494  24.201  1.00  0.00     0.134 A 
ATOM     88  C   UNL A   1      48.239  26.601  26.247  1.00  0.00     0.134 A 
ATOM     89  F   UNL A   1      46.423  28.138  23.501  1.00  0.00    -0.206 F 
ATOM     90  C   UNL A   1      48.481  27.007  23.510  1.00  0.00     0.040 A 
ATOM     91  C   UNL A   1      49.366  26.131  25.572  1.00  0.00     0.040 A 
ATOM     92  F   UNL A   1      48.160  26.383  27.569  1.00  0.00    -0.206 F 
ATOM     93  C   UNL A   1      49.486  26.330  24.198  1.00  0.00     0.006 A 
ENDBRANCH  69  86
ENDBRANCH  43  44
ENDBRANCH  35  38
ENDBRANCH  33  34
ENDBRANCH  32  33
ENDBRANCH   1  32
TORSDOF 13
ENDMDL
MODEL 2
REMARK VINA RESULT:     -12.7      4.649     10.000
REMARK SMILES O=C(Nc1ccccc1)N[C@H]1C[C@@H](C(=O)NCCCCNC(=O)c2ccc(-c3c4nc(c(-c5c(F)cccc5F)c5ccc([nH]5)c(-c5c(F)cccc5F)c5nc(c(-c6c(F)cccc6F)c6ccc3[nH]6)C=C5)C=C4)cc2)Nc2cc(Cl)cc(Cl)c21
REMARK SMILES IDX 18 1 17 2 16 3 14 4 15 5 13 7 11 8 12 9 86 10 79 11 84 12
REMARK SMILES IDX 78 13 80 14 83 15 85 16 81 18 82 19 10 20 1 21 2 22 3 23
REMARK SMILES IDX 4 26 5 27 9 28 6 29 8 30 7 31 19 32 20 33 21 34 22 35 23 37
REMARK SMILES IDX 24 38 25 39 77 40 26 41 76 42 27 43 28 44 29 45 70 46 30 47
REMARK SMILES IDX 75 48 69 49 71 50 31 51 74 52 68 53 67 54 32 56 58 57 41 58
REMARK SMILES IDX 57 59 42 60 45 61 56 62 72 63 43 64 44 65 55 67 73 68 46 69
REMARK SMILES IDX 33 70 34 71 39 72 35 73 36 74 38 75 40 76 37 77 59 78 60 79
REMARK SMILES IDX 65 80 61 81 62 82 64 83 66 84 63 85 47 86 48 87 53 88 49 89
REMARK SMILES IDX 50 90 52 91 54 92 51 93
REMARK H PARENT 16 6 78 17 3 24 10 25 21 36 71 55 45 66
REMARK Flexibility Score: inf
ROOT
ATOM      1  C   UNL A   1      40.947  21.236  26.797  1.00  0.00     0.023 C 
ENDROOT
BRANCH   1   2
ATOM      2  C   UNL A   1      39.570  21.483  26.178  1.00  0.00     0.116 C 
BRANCH   2   3
ATOM      3  N   UNL A   1      39.040  22.763  26.579  1.00  0.00    -0.354 N 
ATOM      4  C   UNL A   1      37.983  23.474  26.120  1.00  0.00     0.242 C 
ATOM      5  O   UNL A   1      37.884  24.625  26.579  1.00  0.00    -0.273 OA
ATOM      6  H   UNL A   1      39.532  23.195  27.313  1.00  0.00     0.163 HD
BRANCH   4   7
ATOM      7  C   UNL A   1      36.880  22.952  25.149  1.00  0.00     0.171 C 
ATOM      8  C   UNL A   1      34.970  23.546  23.479  1.00  0.00     0.120 C 
ATOM      9  C   UNL A   1      36.442  23.723  23.903  1.00  0.00     0.065 C 
ATOM     10  C   UNL A   1      34.295  22.331  24.070  1.00  0.00     0.016 A 
ATOM     11  C   UNL A   1      34.706  21.925  25.347  1.00  0.00     0.043 A 
ATOM     12  C   UNL A   1      33.238  21.655  23.444  1.00  0.00     0.049 A 
ATOM     13  N   UNL A   1      35.713  22.632  25.978  1.00  0.00    -0.373 N 
ATOM     14  C   UNL A   1      34.155  20.786  25.929  1.00  0.00     0.046 A 
ATOM     15  C   UNL A   1      32.676  20.524  24.035  1.00  0.00     0.041 A 
ATOM     16  Cl  UNL A   1      32.564  22.189  21.945  1.00  0.00    -0.084 Cl
ATOM     17  H   UNL A   1      35.650  22.904  26.923  1.00  0.00     0.161 HD
ATOM     18  C   UNL A   1      33.159  20.079  25.261  1.00  0.00     0.044 A 
ATOM     19  Cl  UNL A   1      32.524  18.638  25.954  1.00  0.00    -0.084 Cl
BRANCH   8  20
ATOM     20  N   UNL A   1      34.159  24.727  23.768  1.00  0.00    -0.331 N 
ATOM     21  O   UNL A   1      33.747  25.216  21.586  1.00  0.00    -0.248 OA
ATOM     22  C   UNL A   1      33.463  25.347  22.775  1.00  0.00     0.319 C 
ATOM     23  N   UNL A   1      32.292  25.949  23.122  1.00  0.00    -0.308 N 
ATOM     24  H   UNL A   1      31.673  26.078  22.368  1.00  0.00     0.171 HD
ATOM     25  H   UNL A   1      34.117  25.076  24.687  1.00  0.00     0.166 HD
BRANCH  23  26
ATOM     26  C   UNL A   1      31.800  26.421  24.346  1.00  0.00     0.042 A 
ATOM     27  C   UNL A   1      32.230  27.686  24.767  1.00  0.00     0.026 A 
ATOM     28  C   UNL A   1      30.998  25.654  25.192  1.00  0.00     0.026 A 
ATOM     29  C   UNL A   1      31.831  28.196  26.003  1.00  0.00     0.002 A 
ATOM     30  C   UNL A   1      30.627  26.153  26.445  1.00  0.00     0.002 A 
ATOM     31  C   UNL A   1      31.035  27.426  26.846  1.00  0.00     0.000 A 
ENDBRANCH  23  26
ENDBRANCH   8  20
ENDBRANCH   4   7
ENDBRANCH   2   3
ENDBRANCH   1   2
BRANCH   1  32
ATOM     32  C   UNL A   1      41.449  22.328  27.734  1.00  0.00     0.023 C 
BRANCH  32  33
ATOM     33  C   UNL A   1      42.557  23.204  27.176  1.00  0.00     0.116 C 
BRANCH  33  34
ATOM     34  N   UNL A   1      42.128  24.025  26.053  1.00  0.00    -0.352 N 
ATOM     35  C   UNL A   1      41.613  25.299  26.056  1.00  0.00     0.251 C 
ATOM     36  H   UNL A   1      42.218  23.608  25.166  1.00  0.00     0.163 HD
ATOM     37  O   UNL A   1      41.213  25.813  25.025  1.00  0.00    -0.269 OA
BRANCH  35  38
ATOM     38  C   UNL A   1      41.511  26.020  27.340  1.00  0.00     0.039 A 
ATOM     39  C   UNL A   1      42.488  26.967  27.652  1.00  0.00     0.014 A 
ATOM     40  C   UNL A   1      40.420  25.809  28.188  1.00  0.00     0.014 A 
ATOM     41  C   UNL A   1      42.324  27.770  28.780  1.00  0.00     0.010 A 
ATOM     42  C   UNL A   1      40.223  26.659  29.269  1.00  0.00     0.010 A 
ATOM     43  C   UNL A   1      41.165  27.655  29.565  1.00  0.00    -0.014 A 
BRANCH  43  44
ATOM     44  C   UNL A   1      40.899  28.594  30.679  1.00  0.00     0.031 A 
ATOM     45  C   UNL A   1      39.823  29.632  30.549  1.00  0.00     0.074 A 
ATOM     46  C   UNL A   1      41.687  28.563  31.771  1.00  0.00     0.049 A 
ATOM     47  N   UNL A   1      39.500  30.592  31.375  1.00  0.00    -0.248 NA
ATOM     48  C   UNL A   1      39.021  29.602  29.315  1.00  0.00     0.031 C 
ATOM     49  C   UNL A   1      42.799  27.634  31.987  1.00  0.00     0.029 A 
ATOM     50  N   UNL A   1      41.685  29.344  32.897  1.00  0.00    -0.354 N 
ATOM     51  C   UNL A   1      38.467  31.286  30.760  1.00  0.00     0.074 A 
ATOM     52  C   UNL A   1      38.251  30.669  29.470  1.00  0.00     0.031 C 
ATOM     53  C   UNL A   1      43.358  27.887  33.181  1.00  0.00     0.029 A 
ATOM     54  C   UNL A   1      42.672  29.018  33.796  1.00  0.00     0.049 A 
ATOM     55  H   UNL A   1      41.037  30.071  33.048  1.00  0.00     0.167 HD
ATOM     56  C   UNL A   1      37.751  32.331  31.238  1.00  0.00     0.037 A 
ATOM     57  C   UNL A   1      42.994  29.578  34.978  1.00  0.00     0.037 A 
ATOM     58  C   UNL A   1      37.958  32.929  32.530  1.00  0.00     0.049 A 
ATOM     59  C   UNL A   1      42.193  30.747  35.478  1.00  0.00     0.074 A 
ATOM     60  C   UNL A   1      37.238  33.944  33.135  1.00  0.00     0.029 A 
ATOM     61  N   UNL A   1      38.962  32.566  33.416  1.00  0.00    -0.354 N 
ATOM     62  N   UNL A   1      41.172  31.348  34.917  1.00  0.00    -0.248 NA
ATOM     63  C   UNL A   1      42.591  31.316  36.772  1.00  0.00     0.031 C 
ATOM     64  C   UNL A   1      37.834  34.226  34.369  1.00  0.00     0.029 A 
ATOM     65  C   UNL A   1      38.899  33.358  34.550  1.00  0.00     0.049 A 
ATOM     66  H   UNL A   1      39.621  31.852  33.260  1.00  0.00     0.167 HD
ATOM     67  C   UNL A   1      40.792  32.352  35.797  1.00  0.00     0.074 A 
ATOM     68  C   UNL A   1      41.683  32.268  36.936  1.00  0.00     0.031 C 
ATOM     69  C   UNL A   1      39.795  33.263  35.673  1.00  0.00     0.037 A 
BRANCH  56  70
ATOM     70  C   UNL A   1      36.675  32.890  30.356  1.00  0.00     0.057 A 
ATOM     71  C   UNL A   1      36.962  33.795  29.326  1.00  0.00     0.134 A 
ATOM     72  C   UNL A   1      35.342  32.494  30.515  1.00  0.00     0.134 A 
ATOM     73  F   UNL A   1      38.217  34.226  29.129  1.00  0.00    -0.206 F 
ATOM     74  C   UNL A   1      35.958  34.304  28.501  1.00  0.00     0.040 A 
ATOM     75  C   UNL A   1      34.332  32.976  29.680  1.00  0.00     0.040 A 
ATOM     76  F   UNL A   1      34.998  31.627  31.480  1.00  0.00    -0.206 F 
ATOM     77  C   UNL A   1      34.639  33.889  28.673  1.00  0.00     0.006 A 
ENDBRANCH  56  70
BRANCH  57  78
ATOM     78  C   UNL A   1      44.118  29.031  35.776  1.00  0.00     0.057 A 
ATOM     79  C   UNL A   1      43.913  27.993  36.692  1.00  0.00     0.134 A 
ATOM     80  C   UNL A   1      45.420  29.530  35.646  1.00  0.00     0.134 A 
ATOM     81  F   UNL A   1      42.684  27.486  36.873  1.00  0.00    -0.206 F 
ATOM     82  C   UNL A   1      44.957  27.481  37.463  1.00  0.00     0.040 A 
ATOM     83  C   UNL A   1      46.479  29.012  36.393  1.00  0.00     0.040 A 
ATOM     84  F   UNL A   1      45.682  30.518  34.779  1.00  0.00    -0.206 F 
ATOM     85  C   UNL A   1      46.247  27.988  37.311  1.00  0.00     0.006 A 
ENDBRANCH  57  78
BRANCH  69  86
ATOM     86  C   UNL A   1      39.609  34.229  36.804  1.00  0.00     0.057 A 
ATOM     87  C   UNL A   1      38.903  33.878  37.961  1.00  0.00     0.134 A 
ATOM     88  C   UNL A   1      40.175  35.509  36.752  1.00  0.00     0.134 A 
ATOM     89  F   UNL A   1      38.324  32.672  38.066  1.00  0.00    -0.206 F 
ATOM     90  C   UNL A   1      38.752  34.774  39.021  1.00  0.00     0.040 A 
ATOM     91  C   UNL A   1      40.052  36.404  37.815  1.00  0.00     0.040 A 
ATOM     92  F   UNL A   1      40.869  35.902  35.673  1.00  0.00    -0.206 F 
ATOM     93  C   UNL A   1      39.335  36.038  38.952  1.00  0.00     0.006 A 
ENDBRANCH  69  86
ENDBRANCH  43  44
ENDBRANCH  35  38
ENDBRANCH  33  34
ENDBRANCH  32  33
ENDBRANCH   1  32
TORSDOF 13
ENDMDL
MODEL 3
REMARK VINA RESULT:     -12.6      3.393      8.749
REMARK SMILES O=C(Nc1ccccc1)N[C@H]1C[C@@H](C(=O)NCCCCNC(=O)c2ccc(-c3c4nc(c(-c5c(F)cccc5F)c5ccc([nH]5)c(-c5c(F)cccc5F)c5nc(c(-c6c(F)cccc6F)c6ccc3[nH]6)C=C5)C=C4)cc2)Nc2cc(Cl)cc(Cl)c21
REMARK SMILES IDX 18 1 17 2 16 3 14 4 15 5 13 7 11 8 12 9 86 10 79 11 84 12
REMARK SMILES IDX 78 13 80 14 83 15 85 16 81 18 82 19 10 20 1 21 2 22 3 23
REMARK SMILES IDX 4 26 5 27 9 28 6 29 8 30 7 31 19 32 20 33 21 34 22 35 23 37
REMARK SMILES IDX 24 38 25 39 77 40 26 41 76 42 27 43 28 44 29 45 70 46 30 47
REMARK SMILES IDX 75 48 69 49 71 50 31 51 74 52 68 53 67 54 32 56 58 57 41 58
REMARK SMILES IDX 57 59 42 60 45 61 56 62 72 63 43 64 44 65 55 67 73 68 46 69
REMARK SMILES IDX 33 70 34 71 39 72 35 73 36 74 38 75 40 76 37 77 59 78 60 79
REMARK SMILES IDX 65 80 61 81 62 82 64 83 66 84 63 85 47 86 48 87 53 88 49 89
REMARK SMILES IDX 50 90 52 91 54 92 51 93
REMARK H PARENT 16 6 78 17 3 24 10 25 21 36 71 55 45 66
REMARK Flexibility Score: inf
ROOT
ATOM      1  C   UNL A   1      41.155  20.955  26.284  1.00  0.00     0.023 C 
ENDROOT
BRANCH   1   2
ATOM      2  C   UNL A   1      39.659  21.156  26.030  1.00  0.00     0.116 C 
BRANCH   2   3
ATOM      3  N   UNL A   1      39.224  22.456  26.478  1.00  0.00    -0.354 N 
ATOM      4  C   UNL A   1      38.201  23.243  26.072  1.00  0.00     0.242 C 
ATOM      5  O   UNL A   1      38.189  24.386  26.561  1.00  0.00    -0.273 OA
ATOM      6  H   UNL A   1      39.767  22.838  27.205  1.00  0.00     0.163 HD
BRANCH   4   7
ATOM      7  C   UNL A   1      37.035  22.815  25.128  1.00  0.00     0.171 C 
ATOM      8  C   UNL A   1      35.097  23.569  23.559  1.00  0.00     0.120 C 
ATOM      9  C   UNL A   1      36.591  23.655  23.929  1.00  0.00     0.065 C 
ATOM     10  C   UNL A   1      34.383  22.368  24.131  1.00  0.00     0.016 A 
ATOM     11  C   UNL A   1      34.820  21.892  25.374  1.00  0.00     0.043 A 
ATOM     12  C   UNL A   1      33.269  21.770  23.523  1.00  0.00     0.049 A 
ATOM     13  N   UNL A   1      35.886  22.522  25.991  1.00  0.00    -0.373 N 
ATOM     14  C   UNL A   1      34.234  20.760  25.935  1.00  0.00     0.046 A 
ATOM     15  C   UNL A   1      32.673  20.647  24.093  1.00  0.00     0.041 A 
ATOM     16  Cl  UNL A   1      32.567  22.395  22.073  1.00  0.00    -0.084 Cl
ATOM     17  H   UNL A   1      35.873  22.760  26.946  1.00  0.00     0.161 HD
ATOM     18  C   UNL A   1      33.178  20.131  25.282  1.00  0.00     0.044 A 
ATOM     19  Cl  UNL A   1      32.496  18.698  25.946  1.00  0.00    -0.084 Cl
BRANCH   8  20
ATOM     20  N   UNL A   1      34.360  24.777  23.923  1.00  0.00    -0.331 N 
ATOM     21  O   UNL A   1      33.936  25.400  21.778  1.00  0.00    -0.248 OA
ATOM     22  C   UNL A   1      33.682  25.485  22.978  1.00  0.00     0.319 C 
ATOM     23  N   UNL A   1      32.554  26.133  23.378  1.00  0.00    -0.308 N 
ATOM     24  H   UNL A   1      31.929  26.335  22.645  1.00  0.00     0.171 HD
ATOM     25  H   UNL A   1      34.354  25.080  24.859  1.00  0.00     0.166 HD
BRANCH  23  26
ATOM     26  C   UNL A   1      32.111  26.568  24.634  1.00  0.00     0.042 A 
ATOM     27  C   UNL A   1      31.092  25.829  25.249  1.00  0.00     0.026 A 
ATOM     28  C   UNL A   1      32.565  27.742  25.239  1.00  0.00     0.026 A 
ATOM     29  C   UNL A   1      30.558  26.235  26.472  1.00  0.00     0.002 A 
ATOM     30  C   UNL A   1      32.005  28.165  26.449  1.00  0.00     0.002 A 
ATOM     31  C   UNL A   1      31.010  27.409  27.069  1.00  0.00     0.000 A 
ENDBRANCH  23  26
ENDBRANCH   8  20
ENDBRANCH   4   7
ENDBRANCH   2   3
ENDBRANCH   1   2
BRANCH   1  32
ATOM     32  C   UNL A   1      41.647  19.515  26.191  1.00  0.00     0.023 C 
BRANCH  32  33
ATOM     33  C   UNL A   1      43.151  19.334  26.294  1.00  0.00     0.116 C 
BRANCH  33  34
ATOM     34  N   UNL A   1      43.758  18.868  25.057  1.00  0.00    -0.352 N 
ATOM     35  C   UNL A   1      44.574  19.545  24.181  1.00  0.00     0.251 C 
ATOM     36  H   UNL A   1      43.556  17.936  24.812  1.00  0.00     0.163 HD
ATOM     37  O   UNL A   1      44.925  19.032  23.132  1.00  0.00    -0.269 OA
BRANCH  35  38
ATOM     38  C   UNL A   1      44.980  20.924  24.513  1.00  0.00     0.039 A 
ATOM     39  C   UNL A   1      44.587  21.958  23.661  1.00  0.00     0.014 A 
ATOM     40  C   UNL A   1      45.680  21.194  25.692  1.00  0.00     0.014 A 
ATOM     41  C   UNL A   1      44.820  23.279  24.040  1.00  0.00     0.010 A 
ATOM     42  C   UNL A   1      45.847  22.511  26.100  1.00  0.00     0.010 A 
ATOM     43  C   UNL A   1      45.406  23.563  25.285  1.00  0.00    -0.014 A 
BRANCH  43  44
ATOM     44  C   UNL A   1      45.530  24.957  25.772  1.00  0.00     0.031 A 
ATOM     45  C   UNL A   1      46.866  25.640  25.769  1.00  0.00     0.074 A 
ATOM     46  C   UNL A   1      44.451  25.572  26.293  1.00  0.00     0.049 A 
ATOM     47  N   UNL A   1      47.189  26.819  26.232  1.00  0.00    -0.248 NA
ATOM     48  C   UNL A   1      47.992  24.888  25.194  1.00  0.00     0.031 C 
ATOM     49  C   UNL A   1      43.111  24.989  26.398  1.00  0.00     0.029 A 
ATOM     50  N   UNL A   1      44.314  26.817  26.849  1.00  0.00    -0.354 N 
ATOM     51  C   UNL A   1      48.554  26.947  26.014  1.00  0.00     0.074 A 
ATOM     52  C   UNL A   1      49.008  25.707  25.424  1.00  0.00     0.031 C 
ATOM     53  C   UNL A   1      42.285  25.882  26.965  1.00  0.00     0.029 A 
ATOM     54  C   UNL A   1      43.043  27.084  27.298  1.00  0.00     0.049 A 
ATOM     55  H   UNL A   1      45.057  27.461  26.920  1.00  0.00     0.167 HD
ATOM     56  C   UNL A   1      49.352  28.012  26.266  1.00  0.00     0.037 A 
ATOM     57  C   UNL A   1      42.548  28.171  27.920  1.00  0.00     0.037 A 
ATOM     58  C   UNL A   1      48.892  29.250  26.834  1.00  0.00     0.049 A 
ATOM     59  C   UNL A   1      43.459  29.332  28.202  1.00  0.00     0.074 A 
ATOM     60  C   UNL A   1      49.607  30.413  27.061  1.00  0.00     0.029 A 
ATOM     61  N   UNL A   1      47.596  29.486  27.269  1.00  0.00    -0.354 N 
ATOM     62  N   UNL A   1      44.733  29.467  27.925  1.00  0.00    -0.248 NA
ATOM     63  C   UNL A   1      42.864  30.490  28.883  1.00  0.00     0.031 C 
ATOM     64  C   UNL A   1      48.754  31.337  27.674  1.00  0.00     0.029 A 
ATOM     65  C   UNL A   1      47.498  30.765  27.790  1.00  0.00     0.049 A 
ATOM     66  H   UNL A   1      46.856  28.839  27.215  1.00  0.00     0.167 HD
ATOM     67  C   UNL A   1      45.089  30.730  28.379  1.00  0.00     0.074 A 
ATOM     68  C   UNL A   1      43.892  31.326  28.935  1.00  0.00     0.031 C 
ATOM     69  C   UNL A   1      46.298  31.341  28.341  1.00  0.00     0.037 A 
BRANCH  56  70
ATOM     70  C   UNL A   1      50.805  27.880  25.922  1.00  0.00     0.057 A 
ATOM     71  C   UNL A   1      51.766  27.560  26.889  1.00  0.00     0.134 A 
ATOM     72  C   UNL A   1      51.246  28.041  24.602  1.00  0.00     0.134 A 
ATOM     73  F   UNL A   1      51.412  27.407  28.174  1.00  0.00    -0.206 F 
ATOM     74  C   UNL A   1      53.116  27.428  26.563  1.00  0.00     0.040 A 
ATOM     75  C   UNL A   1      52.590  27.886  24.258  1.00  0.00     0.040 A 
ATOM     76  F   UNL A   1      50.378  28.345  23.625  1.00  0.00    -0.206 F 
ATOM     77  C   UNL A   1      53.530  27.585  25.241  1.00  0.00     0.006 A 
ENDBRANCH  56  70
BRANCH  57  78
ATOM     78  C   UNL A   1      41.117  28.218  28.307  1.00  0.00     0.057 A 
ATOM     79  C   UNL A   1      40.156  28.757  27.444  1.00  0.00     0.134 A 
ATOM     80  C   UNL A   1      40.675  27.729  29.542  1.00  0.00     0.134 A 
ATOM     81  F   UNL A   1      40.522  29.256  26.255  1.00  0.00    -0.206 F 
ATOM     82  C   UNL A   1      38.809  28.824  27.802  1.00  0.00     0.040 A 
ATOM     83  C   UNL A   1      39.328  27.769  29.904  1.00  0.00     0.040 A 
ATOM     84  F   UNL A   1      41.546  27.193  30.409  1.00  0.00    -0.206 F 
ATOM     85  C   UNL A   1      38.391  28.325  29.034  1.00  0.00     0.006 A 
ENDBRANCH  57  78
BRANCH  69  86
ATOM     86  C   UNL A   1      46.381  32.729  28.902  1.00  0.00     0.057 A 
ATOM     87  C   UNL A   1      46.124  33.857  28.113  1.00  0.00     0.134 A 
ATOM     88  C   UNL A   1      46.680  32.937  30.254  1.00  0.00     0.134 A 
ATOM     89  F   UNL A   1      45.846  33.724  26.807  1.00  0.00    -0.206 F 
ATOM     90  C   UNL A   1      46.178  35.145  28.646  1.00  0.00     0.040 A 
ATOM     91  C   UNL A   1      46.713  34.219  30.804  1.00  0.00     0.040 A 
ATOM     92  F   UNL A   1      46.929  31.897  31.064  1.00  0.00    -0.206 F 
ATOM     93  C   UNL A   1      46.466  35.328  29.997  1.00  0.00     0.006 A 
ENDBRANCH  69  86
ENDBRANCH  43  44
ENDBRANCH  35  38
ENDBRANCH  33  34
ENDBRANCH  32  33
ENDBRANCH   1  32
TORSDOF 13
ENDMDL
