MODEL 1
REMARK VINA RESULT:     -11.8      0.000      0.000
REMARK SMILES Cc1cscc1C(=O)N[C@H](C(=O)NCCCCNC(=O)c1ccc(-c2c3nc(c(-c4c(F)cccc4F)c4ccc([nH]4)c(-c4c(F)cccc4F)c4nc(c(-c5c(F)cccc5F)c5ccc2[nH]5)C=C4)C=C3)cc1)c1ccccc1
REMARK SMILES IDX 15 1 14 2 13 3 11 4 12 5 10 7 9 8 7 9 8 10 6 12 1 13 2 14
REMARK SMILES IDX 3 15 4 16 5 17 75 18 76 19 80 20 77 21 79 22 78 23 16 24
REMARK SMILES IDX 17 25 18 26 19 27 20 29 21 30 22 31 74 32 23 33 73 34 24 35
REMARK SMILES IDX 25 36 26 37 67 38 27 39 72 40 66 41 68 42 28 43 71 44 65 45
REMARK SMILES IDX 64 46 29 48 55 49 38 50 54 51 39 52 42 53 53 54 69 55 40 56
REMARK SMILES IDX 41 57 52 59 70 60 43 61 30 62 31 63 36 64 32 65 33 66 35 67
REMARK SMILES IDX 37 68 34 69 56 70 57 71 62 72 58 73 59 74 61 75 63 76 60 77
REMARK SMILES IDX 44 78 45 79 50 80 46 81 47 82 49 83 51 84 48 85
REMARK H PARENT 13 6 9 11 18 28 68 47 42 58
REMARK Flexibility Score: inf
ROOT
ATOM      1  C   UNL A   1      31.776  30.795  25.813  1.00  0.00     0.023 C 
ENDROOT
BRANCH   1   2
ATOM      2  C   UNL A   1      32.973  29.988  26.323  1.00  0.00     0.116 C 
BRANCH   2   3
ATOM      3  N   UNL A   1      32.575  29.161  27.439  1.00  0.00    -0.354 N 
ATOM      4  C   UNL A   1      31.823  28.019  27.429  1.00  0.00     0.247 C 
ATOM      5  O   UNL A   1      31.126  27.864  28.428  1.00  0.00    -0.272 OA
ATOM      6  H   UNL A   1      32.888  29.459  28.323  1.00  0.00     0.163 HD
BRANCH   4   7
ATOM      7  C   UNL A   1      32.074  26.949  26.358  1.00  0.00     0.202 C 
BRANCH   7   8
ATOM      8  N   UNL A   1      31.672  25.649  26.867  1.00  0.00    -0.336 N 
ATOM      9  C   UNL A   1      31.799  24.333  26.555  1.00  0.00     0.253 C 
ATOM     10  O   UNL A   1      31.366  23.624  27.476  1.00  0.00    -0.269 OA
ATOM     11  H   UNL A   1      31.144  25.755  27.692  1.00  0.00     0.165 HD
BRANCH   9  12
ATOM     12  C   UNL A   1      32.278  23.680  25.313  1.00  0.00     0.053 A 
ATOM     13  C   UNL A   1      30.583  23.783  23.181  1.00  0.00     0.046 C 
ATOM     14  C   UNL A   1      31.832  23.440  23.931  1.00  0.00    -0.028 A 
ATOM     15  C   UNL A   1      32.809  22.773  23.196  1.00  0.00     0.069 A 
ATOM     16  S   UNL A   1      34.233  22.461  24.046  1.00  0.00    -0.151 S 
ATOM     17  C   UNL A   1      33.583  23.183  25.430  1.00  0.00     0.079 A 
ENDBRANCH   9  12
ENDBRANCH   7   8
BRANCH   7  18
ATOM     18  C   UNL A   1      31.698  27.174  24.901  1.00  0.00    -0.016 A 
ATOM     19  C   UNL A   1      32.671  27.067  23.894  1.00  0.00     0.006 A 
ATOM     20  C   UNL A   1      30.361  27.342  24.487  1.00  0.00     0.006 A 
ATOM     21  C   UNL A   1      32.319  27.150  22.540  1.00  0.00     0.000 A 
ATOM     22  C   UNL A   1      30.016  27.479  23.143  1.00  0.00     0.000 A 
ATOM     23  C   UNL A   1      30.994  27.373  22.167  1.00  0.00     0.000 A 
ENDBRANCH   7  18
ENDBRANCH   4   7
ENDBRANCH   2   3
ENDBRANCH   1   2
BRANCH   1  24
ATOM     24  C   UNL A   1      31.431  32.044  26.637  1.00  0.00     0.023 C 
BRANCH  24  25
ATOM     25  C   UNL A   1      32.610  32.787  27.257  1.00  0.00     0.116 C 
BRANCH  25  26
ATOM     26  N   UNL A   1      32.297  34.157  27.625  1.00  0.00    -0.352 N 
ATOM     27  C   UNL A   1      32.935  34.982  28.512  1.00  0.00     0.251 C 
ATOM     28  H   UNL A   1      31.515  34.546  27.172  1.00  0.00     0.163 HD
ATOM     29  O   UNL A   1      32.492  36.105  28.737  1.00  0.00    -0.269 OA
BRANCH  27  30
ATOM     30  C   UNL A   1      34.125  34.498  29.234  1.00  0.00     0.039 A 
ATOM     31  C   UNL A   1      33.938  33.905  30.484  1.00  0.00     0.014 A 
ATOM     32  C   UNL A   1      35.404  34.599  28.677  1.00  0.00     0.014 A 
ATOM     33  C   UNL A   1      35.031  33.358  31.156  1.00  0.00     0.010 A 
ATOM     34  C   UNL A   1      36.481  33.998  29.320  1.00  0.00     0.010 A 
ATOM     35  C   UNL A   1      36.303  33.373  30.564  1.00  0.00    -0.014 A 
BRANCH  35  36
ATOM     36  C   UNL A   1      37.456  32.732  31.241  1.00  0.00     0.031 A 
ATOM     37  C   UNL A   1      38.125  31.539  30.623  1.00  0.00     0.074 A 
ATOM     38  C   UNL A   1      37.867  33.202  32.434  1.00  0.00     0.049 A 
ATOM     39  N   UNL A   1      39.122  30.824  31.076  1.00  0.00    -0.248 NA
ATOM     40  C   UNL A   1      37.587  31.072  29.335  1.00  0.00     0.031 C 
ATOM     41  C   UNL A   1      37.263  34.326  33.154  1.00  0.00     0.029 A 
ATOM     42  N   UNL A   1      38.886  32.791  33.255  1.00  0.00    -0.354 N 
ATOM     43  C   UNL A   1      39.322  29.818  30.139  1.00  0.00     0.074 A 
ATOM     44  C   UNL A   1      38.311  29.984  29.117  1.00  0.00     0.031 C 
ATOM     45  C   UNL A   1      37.936  34.527  34.299  1.00  0.00     0.029 A 
ATOM     46  C   UNL A   1      38.995  33.528  34.409  1.00  0.00     0.049 A 
ATOM     47  H   UNL A   1      39.481  32.037  33.038  1.00  0.00     0.167 HD
ATOM     48  C   UNL A   1      40.276  28.858  30.122  1.00  0.00     0.037 A 
ATOM     49  C   UNL A   1      39.851  33.408  35.441  1.00  0.00     0.037 A 
ATOM     50  C   UNL A   1      41.292  28.715  31.130  1.00  0.00     0.049 A 
ATOM     51  C   UNL A   1      40.902  32.333  35.397  1.00  0.00     0.074 A 
ATOM     52  C   UNL A   1      42.343  27.816  31.174  1.00  0.00     0.029 A 
ATOM     53  N   UNL A   1      41.382  29.491  32.276  1.00  0.00    -0.354 N 
ATOM     54  N   UNL A   1      41.127  31.436  34.468  1.00  0.00    -0.248 NA
ATOM     55  C   UNL A   1      41.821  32.258  36.541  1.00  0.00     0.031 C 
ATOM     56  C   UNL A   1      43.042  28.018  32.368  1.00  0.00     0.029 A 
ATOM     57  C   UNL A   1      42.456  29.076  33.045  1.00  0.00     0.049 A 
ATOM     58  H   UNL A   1      40.771  30.227  32.509  1.00  0.00     0.167 HD
ATOM     59  C   UNL A   1      42.227  30.709  34.900  1.00  0.00     0.074 A 
ATOM     60  C   UNL A   1      42.633  31.279  36.168  1.00  0.00     0.031 C 
ATOM     61  C   UNL A   1      42.848  29.662  34.302  1.00  0.00     0.037 A 
BRANCH  48  62
ATOM     62  C   UNL A   1      40.262  27.890  28.975  1.00  0.00     0.057 A 
ATOM     63  C   UNL A   1      39.526  26.698  29.021  1.00  0.00     0.134 A 
ATOM     64  C   UNL A   1      40.971  28.165  27.800  1.00  0.00     0.134 A 
ATOM     65  F   UNL A   1      38.836  26.368  30.123  1.00  0.00    -0.206 F 
ATOM     66  C   UNL A   1      39.516  25.804  27.950  1.00  0.00     0.040 A 
ATOM     67  C   UNL A   1      40.947  27.291  26.711  1.00  0.00     0.040 A 
ATOM     68  F   UNL A   1      41.694  29.290  27.686  1.00  0.00    -0.206 F 
ATOM     69  C   UNL A   1      40.224  26.104  26.787  1.00  0.00     0.006 A 
ENDBRANCH  48  62
BRANCH  49  70
ATOM     70  C   UNL A   1      39.766  34.342  36.592  1.00  0.00     0.057 A 
ATOM     71  C   UNL A   1      40.371  35.603  36.546  1.00  0.00     0.134 A 
ATOM     72  C   UNL A   1      39.086  33.996  37.766  1.00  0.00     0.134 A 
ATOM     73  F   UNL A   1      41.050  35.987  35.455  1.00  0.00    -0.206 F 
ATOM     74  C   UNL A   1      40.322  36.478  37.633  1.00  0.00     0.040 A 
ATOM     75  C   UNL A   1      39.008  34.870  38.851  1.00  0.00     0.040 A 
ATOM     76  F   UNL A   1      38.477  32.805  37.871  1.00  0.00    -0.206 F 
ATOM     77  C   UNL A   1      39.635  36.113  38.788  1.00  0.00     0.006 A 
ENDBRANCH  49  70
BRANCH  61  78
ATOM     78  C   UNL A   1      44.047  29.089  34.995  1.00  0.00     0.057 A 
ATOM     79  C   UNL A   1      45.342  29.559  34.742  1.00  0.00     0.134 A 
ATOM     80  C   UNL A   1      43.900  28.083  35.959  1.00  0.00     0.134 A 
ATOM     81  F   UNL A   1      45.552  30.512  33.821  1.00  0.00    -0.206 F 
ATOM     82  C   UNL A   1      46.450  29.034  35.408  1.00  0.00     0.040 A 
ATOM     83  C   UNL A   1      44.996  27.569  36.650  1.00  0.00     0.040 A 
ATOM     84  F   UNL A   1      42.685  27.595  36.254  1.00  0.00    -0.206 F 
ATOM     85  C   UNL A   1      46.278  28.040  36.371  1.00  0.00     0.006 A 
ENDBRANCH  61  78
ENDBRANCH  35  36
ENDBRANCH  27  30
ENDBRANCH  25  26
ENDBRANCH  24  25
ENDBRANCH   1  24
TORSDOF 14
ENDMDL
MODEL 2
REMARK VINA RESULT:     -11.7      0.707      6.406
REMARK SMILES Cc1cscc1C(=O)N[C@H](C(=O)NCCCCNC(=O)c1ccc(-c2c3nc(c(-c4c(F)cccc4F)c4ccc([nH]4)c(-c4c(F)cccc4F)c4nc(c(-c5c(F)cccc5F)c5ccc2[nH]5)C=C4)C=C3)cc1)c1ccccc1
REMARK SMILES IDX 15 1 14 2 13 3 11 4 12 5 10 7 9 8 7 9 8 10 6 12 1 13 2 14
REMARK SMILES IDX 3 15 4 16 5 17 75 18 76 19 80 20 77 21 79 22 78 23 16 24
REMARK SMILES IDX 17 25 18 26 19 27 20 29 21 30 22 31 74 32 23 33 73 34 24 35
REMARK SMILES IDX 25 36 26 37 67 38 27 39 72 40 66 41 68 42 28 43 71 44 65 45
REMARK SMILES IDX 64 46 29 48 55 49 38 50 54 51 39 52 42 53 53 54 69 55 40 56
REMARK SMILES IDX 41 57 52 59 70 60 43 61 30 62 31 63 36 64 32 65 33 66 35 67
REMARK SMILES IDX 37 68 34 69 56 70 57 71 62 72 58 73 59 74 61 75 63 76 60 77
REMARK SMILES IDX 44 78 45 79 50 80 46 81 47 82 49 83 51 84 48 85
REMARK H PARENT 13 6 9 11 18 28 68 47 42 58
REMARK Flexibility Score: inf
ROOT
ATOM      1  C   UNL A   1      31.630  30.755  25.756  1.00  0.00     0.023 C 
ENDROOT
BRANCH   1   2
ATOM      2  C   UNL A   1      32.852  29.980  26.255  1.00  0.00     0.116 C 
BRANCH   2   3
ATOM      3  N   UNL A   1      32.492  29.160  27.389  1.00  0.00    -0.354 N 
ATOM      4  C   UNL A   1      31.763  28.004  27.408  1.00  0.00     0.247 C 
ATOM      5  O   UNL A   1      31.087  27.847  28.421  1.00  0.00    -0.272 OA
ATOM      6  H   UNL A   1      32.814  29.477  28.263  1.00  0.00     0.163 HD
BRANCH   4   7
ATOM      7  C   UNL A   1      32.016  26.925  26.346  1.00  0.00     0.202 C 
BRANCH   7   8
ATOM      8  N   UNL A   1      31.668  25.622  26.886  1.00  0.00    -0.336 N 
ATOM      9  C   UNL A   1      31.801  24.306  26.575  1.00  0.00     0.253 C 
ATOM     10  O   UNL A   1      31.436  23.596  27.524  1.00  0.00    -0.269 OA
ATOM     11  H   UNL A   1      31.188  25.724  27.739  1.00  0.00     0.165 HD
BRANCH   9  12
ATOM     12  C   UNL A   1      32.219  23.652  25.311  1.00  0.00     0.053 A 
ATOM     13  C   UNL A   1      30.518  23.939  23.201  1.00  0.00     0.046 C 
ATOM     14  C   UNL A   1      31.744  23.483  23.928  1.00  0.00    -0.028 A 
ATOM     15  C   UNL A   1      32.662  22.766  23.166  1.00  0.00     0.069 A 
ATOM     16  S   UNL A   1      34.067  22.326  23.992  1.00  0.00    -0.151 S 
ATOM     17  C   UNL A   1      33.484  23.057  25.401  1.00  0.00     0.079 A 
ENDBRANCH   9  12
ENDBRANCH   7   8
BRANCH   7  18
ATOM     18  C   UNL A   1      31.593  27.115  24.897  1.00  0.00    -0.016 A 
ATOM     19  C   UNL A   1      30.258  27.418  24.584  1.00  0.00     0.006 A 
ATOM     20  C   UNL A   1      32.524  27.151  23.840  1.00  0.00     0.006 A 
ATOM     21  C   UNL A   1      29.876  27.717  23.269  1.00  0.00     0.000 A 
ATOM     22  C   UNL A   1      32.138  27.396  22.523  1.00  0.00     0.000 A 
ATOM     23  C   UNL A   1      30.813  27.689  22.237  1.00  0.00     0.000 A 
ENDBRANCH   7  18
ENDBRANCH   4   7
ENDBRANCH   2   3
ENDBRANCH   1   2
BRANCH   1  24
ATOM     24  C   UNL A   1      31.345  32.073  26.492  1.00  0.00     0.023 C 
BRANCH  24  25
ATOM     25  C   UNL A   1      32.542  32.740  27.163  1.00  0.00     0.116 C 
BRANCH  25  26
ATOM     26  N   UNL A   1      32.264  34.089  27.623  1.00  0.00    -0.352 N 
ATOM     27  C   UNL A   1      32.961  34.862  28.513  1.00  0.00     0.251 C 
ATOM     28  H   UNL A   1      31.459  34.508  27.239  1.00  0.00     0.163 HD
ATOM     29  O   UNL A   1      32.542  35.973  28.825  1.00  0.00    -0.269 OA
BRANCH  27  30
ATOM     30  C   UNL A   1      34.187  34.331  29.136  1.00  0.00     0.039 A 
ATOM     31  C   UNL A   1      34.055  33.556  30.290  1.00  0.00     0.014 A 
ATOM     32  C   UNL A   1      35.446  34.568  28.577  1.00  0.00     0.014 A 
ATOM     33  C   UNL A   1      35.185  32.967  30.856  1.00  0.00     0.010 A 
ATOM     34  C   UNL A   1      36.563  33.929  29.106  1.00  0.00     0.010 A 
ATOM     35  C   UNL A   1      36.441  33.123  30.249  1.00  0.00    -0.014 A 
BRANCH  35  36
ATOM     36  C   UNL A   1      37.635  32.443  30.805  1.00  0.00     0.031 A 
ATOM     37  C   UNL A   1      38.267  32.947  32.071  1.00  0.00     0.074 A 
ATOM     38  C   UNL A   1      38.173  31.402  30.142  1.00  0.00     0.049 A 
ATOM     39  N   UNL A   1      39.330  32.509  32.694  1.00  0.00    -0.248 NA
ATOM     40  C   UNL A   1      37.633  34.112  32.709  1.00  0.00     0.031 C 
ATOM     41  C   UNL A   1      37.673  30.855  28.878  1.00  0.00     0.029 A 
ATOM     42  N   UNL A   1      39.260  30.619  30.435  1.00  0.00    -0.354 N 
ATOM     43  C   UNL A   1      39.501  33.349  33.786  1.00  0.00     0.074 A 
ATOM     44  C   UNL A   1      38.462  34.354  33.714  1.00  0.00     0.031 C 
ATOM     45  C   UNL A   1      38.440  29.814  28.516  1.00  0.00     0.029 A 
ATOM     46  C   UNL A   1      39.502  29.641  29.502  1.00  0.00     0.049 A 
ATOM     47  H   UNL A   1      39.816  30.749  31.238  1.00  0.00     0.167 HD
ATOM     48  C   UNL A   1      40.426  33.276  34.771  1.00  0.00     0.037 A 
ATOM     49  C   UNL A   1      40.475  28.711  29.449  1.00  0.00     0.037 A 
ATOM     50  C   UNL A   1      41.440  32.260  34.849  1.00  0.00     0.049 A 
ATOM     51  C   UNL A   1      41.490  28.651  30.556  1.00  0.00     0.074 A 
ATOM     52  C   UNL A   1      42.386  32.058  35.839  1.00  0.00     0.029 A 
ATOM     53  N   UNL A   1      41.645  31.274  33.894  1.00  0.00    -0.354 N 
ATOM     54  N   UNL A   1      41.594  29.406  31.623  1.00  0.00    -0.248 NA
ATOM     55  C   UNL A   1      42.518  27.606  30.455  1.00  0.00     0.031 C 
ATOM     56  C   UNL A   1      43.191  30.978  35.462  1.00  0.00     0.029 A 
ATOM     57  C   UNL A   1      42.715  30.476  34.261  1.00  0.00     0.049 A 
ATOM     58  H   UNL A   1      41.108  31.160  33.077  1.00  0.00     0.167 HD
ATOM     59  C   UNL A   1      42.679  28.912  32.334  1.00  0.00     0.074 A 
ATOM     60  C   UNL A   1      43.191  27.783  31.584  1.00  0.00     0.031 C 
ATOM     61  C   UNL A   1      43.206  29.352  33.504  1.00  0.00     0.037 A 
BRANCH  48  62
ATOM     62  C   UNL A   1      40.379  34.325  35.844  1.00  0.00     0.057 A 
ATOM     63  C   UNL A   1      41.058  35.544  35.717  1.00  0.00     0.134 A 
ATOM     64  C   UNL A   1      39.624  34.126  37.006  1.00  0.00     0.134 A 
ATOM     65  F   UNL A   1      41.811  35.793  34.635  1.00  0.00    -0.206 F 
ATOM     66  C   UNL A   1      41.008  36.516  36.717  1.00  0.00     0.040 A 
ATOM     67  C   UNL A   1      39.543  35.101  38.001  1.00  0.00     0.040 A 
ATOM     68  F   UNL A   1      38.945  32.983  37.190  1.00  0.00    -0.206 F 
ATOM     69  C   UNL A   1      40.243  36.298  37.861  1.00  0.00     0.006 A 
ENDBRANCH  48  62
BRANCH  49  70
ATOM     70  C   UNL A   1      40.524  27.750  28.319  1.00  0.00     0.057 A 
ATOM     71  C   UNL A   1      39.890  26.504  28.401  1.00  0.00     0.134 A 
ATOM     72  C   UNL A   1      41.209  28.047  27.134  1.00  0.00     0.134 A 
ATOM     73  F   UNL A   1      39.231  26.155  29.515  1.00  0.00    -0.206 F 
ATOM     74  C   UNL A   1      39.954  25.581  27.356  1.00  0.00     0.040 A 
ATOM     75  C   UNL A   1      41.259  27.143  26.072  1.00  0.00     0.040 A 
ATOM     76  F   UNL A   1      41.830  29.227  26.988  1.00  0.00    -0.206 F 
ATOM     77  C   UNL A   1      40.637  25.901  26.186  1.00  0.00     0.006 A 
ENDBRANCH  49  70
BRANCH  61  78
ATOM     78  C   UNL A   1      44.374  28.593  34.058  1.00  0.00     0.057 A 
ATOM     79  C   UNL A   1      44.204  27.474  34.883  1.00  0.00     0.134 A 
ATOM     80  C   UNL A   1      45.685  28.961  33.727  1.00  0.00     0.134 A 
ATOM     81  F   UNL A   1      42.975  27.078  35.248  1.00  0.00    -0.206 F 
ATOM     82  C   UNL A   1      45.297  26.762  35.377  1.00  0.00     0.040 A 
ATOM     83  C   UNL A   1      46.784  28.241  34.193  1.00  0.00     0.040 A 
ATOM     84  F   UNL A   1      45.915  30.019  32.934  1.00  0.00    -0.206 F 
ATOM     85  C   UNL A   1      46.593  27.141  35.025  1.00  0.00     0.006 A 
ENDBRANCH  61  78
ENDBRANCH  35  36
ENDBRANCH  27  30
ENDBRANCH  25  26
ENDBRANCH  24  25
ENDBRANCH   1  24
TORSDOF 14
ENDMDL
MODEL 3
REMARK VINA RESULT:     -11.5      5.391      9.643
REMARK SMILES Cc1cscc1C(=O)N[C@H](C(=O)NCCCCNC(=O)c1ccc(-c2c3nc(c(-c4c(F)cccc4F)c4ccc([nH]4)c(-c4c(F)cccc4F)c4nc(c(-c5c(F)cccc5F)c5ccc2[nH]5)C=C4)C=C3)cc1)c1ccccc1
REMARK SMILES IDX 15 1 14 2 13 3 11 4 12 5 10 7 9 8 7 9 8 10 6 12 1 13 2 14
REMARK SMILES IDX 3 15 4 16 5 17 75 18 76 19 80 20 77 21 79 22 78 23 16 24
REMARK SMILES IDX 17 25 18 26 19 27 20 29 21 30 22 31 74 32 23 33 73 34 24 35
REMARK SMILES IDX 25 36 26 37 67 38 27 39 72 40 66 41 68 42 28 43 71 44 65 45
REMARK SMILES IDX 64 46 29 48 55 49 38 50 54 51 39 52 42 53 53 54 69 55 40 56
REMARK SMILES IDX 41 57 52 59 70 60 43 61 30 62 31 63 36 64 32 65 33 66 35 67
REMARK SMILES IDX 37 68 34 69 56 70 57 71 62 72 58 73 59 74 61 75 63 76 60 77
REMARK SMILES IDX 44 78 45 79 50 80 46 81 47 82 49 83 51 84 48 85
REMARK H PARENT 13 6 9 11 18 28 68 47 42 58
REMARK Flexibility Score: inf
ROOT
ATOM      1  C   UNL A   1      36.694  20.413  25.190  1.00  0.00     0.023 C 
ENDROOT
BRANCH   1   2
ATOM      2  C   UNL A   1      36.926  21.867  25.607  1.00  0.00     0.116 C 
BRANCH   2   3
ATOM      3  N   UNL A   1      37.213  22.677  24.446  1.00  0.00    -0.354 N 
ATOM      4  C   UNL A   1      36.345  23.156  23.504  1.00  0.00     0.247 C 
ATOM      5  O   UNL A   1      36.822  23.247  22.376  1.00  0.00    -0.272 OA
ATOM      6  H   UNL A   1      38.159  22.916  24.316  1.00  0.00     0.163 HD
BRANCH   4   7
ATOM      7  C   UNL A   1      34.999  23.751  23.939  1.00  0.00     0.202 C 
BRANCH   7   8
ATOM      8  N   UNL A   1      34.499  24.632  22.897  1.00  0.00    -0.336 N 
ATOM      9  C   UNL A   1      33.532  25.568  22.714  1.00  0.00     0.253 C 
ATOM     10  O   UNL A   1      33.678  26.134  21.619  1.00  0.00    -0.269 OA
ATOM     11  H   UNL A   1      35.019  24.512  22.071  1.00  0.00     0.165 HD
BRANCH   9  12
ATOM     12  C   UNL A   1      32.362  25.924  23.554  1.00  0.00     0.053 A 
ATOM     13  C   UNL A   1      30.278  24.168  23.497  1.00  0.00     0.046 C 
ATOM     14  C   UNL A   1      31.037  25.391  23.908  1.00  0.00    -0.028 A 
ATOM     15  C   UNL A   1      30.398  26.209  24.837  1.00  0.00     0.069 A 
ATOM     16  S   UNL A   1      31.306  27.541  25.336  1.00  0.00    -0.151 S 
ATOM     17  C   UNL A   1      32.570  27.084  24.310  1.00  0.00     0.079 A 
ENDBRANCH   9  12
ENDBRANCH   7   8
BRANCH   7  18
ATOM     18  C   UNL A   1      33.918  22.894  24.582  1.00  0.00    -0.016 A 
ATOM     19  C   UNL A   1      33.395  23.239  25.839  1.00  0.00     0.006 A 
ATOM     20  C   UNL A   1      33.296  21.831  23.898  1.00  0.00     0.006 A 
ATOM     21  C   UNL A   1      32.317  22.534  26.389  1.00  0.00     0.000 A 
ATOM     22  C   UNL A   1      32.258  21.093  24.467  1.00  0.00     0.000 A 
ATOM     23  C   UNL A   1      31.761  21.451  25.710  1.00  0.00     0.000 A 
ENDBRANCH   7  18
ENDBRANCH   4   7
ENDBRANCH   2   3
ENDBRANCH   1   2
BRANCH   1  24
ATOM     24  C   UNL A   1      37.969  19.585  24.965  1.00  0.00     0.023 C 
BRANCH  24  25
ATOM     25  C   UNL A   1      39.192  20.003  25.775  1.00  0.00     0.116 C 
BRANCH  25  26
ATOM     26  N   UNL A   1      40.259  19.017  25.753  1.00  0.00    -0.352 N 
ATOM     27  C   UNL A   1      41.592  19.179  26.019  1.00  0.00     0.251 C 
ATOM     28  H   UNL A   1      39.983  18.103  25.513  1.00  0.00     0.163 HD
ATOM     29  O   UNL A   1      42.364  18.231  25.898  1.00  0.00    -0.269 OA
BRANCH  27  30
ATOM     30  C   UNL A   1      42.105  20.507  26.398  1.00  0.00     0.039 A 
ATOM     31  C   UNL A   1      42.456  21.393  25.376  1.00  0.00     0.014 A 
ATOM     32  C   UNL A   1      42.213  20.888  27.739  1.00  0.00     0.014 A 
ATOM     33  C   UNL A   1      42.862  22.687  25.697  1.00  0.00     0.010 A 
ATOM     34  C   UNL A   1      42.559  22.198  28.054  1.00  0.00     0.010 A 
ATOM     35  C   UNL A   1      42.885  23.108  27.036  1.00  0.00    -0.014 A 
BRANCH  35  36
ATOM     36  C   UNL A   1      43.250  24.503  27.380  1.00  0.00     0.031 A 
ATOM     37  C   UNL A   1      44.686  24.940  27.332  1.00  0.00     0.074 A 
ATOM     38  C   UNL A   1      42.290  25.359  27.778  1.00  0.00     0.049 A 
ATOM     39  N   UNL A   1      45.206  26.103  27.627  1.00  0.00    -0.248 NA
ATOM     40  C   UNL A   1      45.672  23.928  26.920  1.00  0.00     0.031 C 
ATOM     41  C   UNL A   1      40.868  25.033  27.909  1.00  0.00     0.029 A 
ATOM     42  N   UNL A   1      42.364  26.677  28.151  1.00  0.00    -0.354 N 
ATOM     43  C   UNL A   1      46.575  25.960  27.450  1.00  0.00     0.074 A 
ATOM     44  C   UNL A   1      46.813  24.584  27.071  1.00  0.00     0.031 C 
ATOM     45  C   UNL A   1      40.202  26.128  28.312  1.00  0.00     0.029 A 
ATOM     46  C   UNL A   1      41.152  27.220  28.500  1.00  0.00     0.049 A 
ATOM     47  H   UNL A   1      43.208  27.184  28.169  1.00  0.00     0.167 HD
ATOM     48  C   UNL A   1      47.544  26.898  27.571  1.00  0.00     0.037 A 
ATOM     49  C   UNL A   1      40.844  28.459  28.927  1.00  0.00     0.037 A 
ATOM     50  C   UNL A   1      47.298  28.269  27.925  1.00  0.00     0.049 A 
ATOM     51  C   UNL A   1      41.939  29.482  29.053  1.00  0.00     0.074 A 
ATOM     52  C   UNL A   1      48.201  29.314  28.013  1.00  0.00     0.029 A 
ATOM     53  N   UNL A   1      46.054  28.788  28.255  1.00  0.00    -0.354 N 
ATOM     54  N   UNL A   1      43.220  29.353  28.808  1.00  0.00    -0.248 NA
ATOM     55  C   UNL A   1      41.544  30.822  29.505  1.00  0.00     0.031 C 
ATOM     56  C   UNL A   1      47.512  30.454  28.440  1.00  0.00     0.029 A 
ATOM     57  C   UNL A   1      46.170  30.131  28.570  1.00  0.00     0.049 A 
ATOM     58  H   UNL A   1      45.213  28.276  28.265  1.00  0.00     0.167 HD
ATOM     59  C   UNL A   1      43.781  30.600  29.051  1.00  0.00     0.074 A 
ATOM     60  C   UNL A   1      42.696  31.475  29.448  1.00  0.00     0.031 C 
ATOM     61  C   UNL A   1      45.077  30.988  28.956  1.00  0.00     0.037 A 
BRANCH  48  62
ATOM     62  C   UNL A   1      48.960  26.467  27.317  1.00  0.00     0.057 A 
ATOM     63  C   UNL A   1      49.780  25.978  28.342  1.00  0.00     0.134 A 
ATOM     64  C   UNL A   1      49.500  26.515  26.026  1.00  0.00     0.134 A 
ATOM     65  F   UNL A   1      49.328  25.919  29.604  1.00  0.00    -0.206 F 
ATOM     66  C   UNL A   1      51.095  25.577  28.097  1.00  0.00     0.040 A 
ATOM     67  C   UNL A   1      50.804  26.091  25.764  1.00  0.00     0.040 A 
ATOM     68  F   UNL A   1      48.768  26.968  24.997  1.00  0.00    -0.206 F 
ATOM     69  C   UNL A   1      51.607  25.627  26.803  1.00  0.00     0.006 A 
ENDBRANCH  48  62
BRANCH  49  70
ATOM     70  C   UNL A   1      39.437  28.808  29.246  1.00  0.00     0.057 A 
ATOM     71  C   UNL A   1      38.585  29.341  28.272  1.00  0.00     0.134 A 
ATOM     72  C   UNL A   1      38.911  28.625  30.531  1.00  0.00     0.134 A 
ATOM     73  F   UNL A   1      39.034  29.555  27.027  1.00  0.00    -0.206 F 
ATOM     74  C   UNL A   1      37.269  29.700  28.568  1.00  0.00     0.040 A 
ATOM     75  C   UNL A   1      37.589  28.955  30.834  1.00  0.00     0.040 A 
ATOM     76  F   UNL A   1      39.672  28.109  31.507  1.00  0.00    -0.206 F 
ATOM     77  C   UNL A   1      36.767  29.503  29.852  1.00  0.00     0.006 A 
ENDBRANCH  49  70
BRANCH  61  78
ATOM     78  C   UNL A   1      45.386  32.424  29.252  1.00  0.00     0.057 A 
ATOM     79  C   UNL A   1      45.320  33.414  28.263  1.00  0.00     0.134 A 
ATOM     80  C   UNL A   1      45.713  32.828  30.554  1.00  0.00     0.134 A 
ATOM     81  F   UNL A   1      45.026  33.091  26.995  1.00  0.00    -0.206 F 
ATOM     82  C   UNL A   1      45.590  34.752  28.554  1.00  0.00     0.040 A 
ATOM     83  C   UNL A   1      45.958  34.166  30.862  1.00  0.00     0.040 A 
ATOM     84  F   UNL A   1      45.784  31.930  31.548  1.00  0.00    -0.206 F 
ATOM     85  C   UNL A   1      45.903  35.132  29.859  1.00  0.00     0.006 A 
ENDBRANCH  61  78
ENDBRANCH  35  36
ENDBRANCH  27  30
ENDBRANCH  25  26
ENDBRANCH  24  25
ENDBRANCH   1  24
TORSDOF 14
ENDMDL
