MODEL 1
REMARK VINA RESULT:     -10.0      0.000      0.000
REMARK SMILES O=C(NCCCCNC(=O)C1(Cc2ccncc2)Cc2ccccc2C1)c1ccc(-c2c3nc(c(-c4c(F)cccc4F)c4ccc([nH]4)c(-c4c(F)cccc4F)c4nc(c(-c5c(F)cccc5F)c5ccc2[nH]5)C=C4)C=C3)cc1
REMARK SMILES IDX 5 1 4 2 3 3 1 4 2 5 27 7 28 8 80 9 29 10 79 11 30 12 31 13
REMARK SMILES IDX 32 14 73 15 33 16 78 17 72 18 74 19 34 20 77 21 71 22 70 23
REMARK SMILES IDX 35 25 61 26 44 27 60 28 45 29 48 30 59 31 75 32 46 33 47 34
REMARK SMILES IDX 58 36 76 37 49 38 36 39 37 40 42 41 38 42 39 43 41 44 43 45
REMARK SMILES IDX 40 46 62 47 63 48 68 49 64 50 65 51 67 52 69 53 66 54 50 55
REMARK SMILES IDX 51 56 56 57 52 58 53 59 55 60 57 61 54 62 6 63 7 64 8 65
REMARK SMILES IDX 9 66 10 68 11 69 19 70 26 71 20 72 25 73 21 74 24 75 22 76
REMARK SMILES IDX 23 77 12 78 13 79 14 80 18 81 15 82 17 83 16 84
REMARK H PARENT 3 6 74 24 48 35 8 67
REMARK Flexibility Score: inf
ROOT
ATOM      1  C   UNL A   1      47.984  25.588  32.661  1.00  0.00     0.023 C 
ENDROOT
BRANCH   1   2
ATOM      2  C   UNL A   1      47.790  24.610  33.804  1.00  0.00     0.116 C 
BRANCH   2   3
ATOM      3  N   UNL A   1      48.080  25.215  35.097  1.00  0.00    -0.352 N 
ATOM      4  O   UNL A   1      47.935  26.757  36.734  1.00  0.00    -0.269 OA
ATOM      5  C   UNL A   1      47.474  26.288  35.706  1.00  0.00     0.251 C 
ATOM      6  H   UNL A   1      48.812  24.797  35.605  1.00  0.00     0.163 HD
BRANCH   5   7
ATOM      7  C   UNL A   1      46.271  26.881  35.087  1.00  0.00     0.039 A 
ATOM      8  C   UNL A   1      46.348  28.108  34.426  1.00  0.00     0.014 A 
ATOM      9  C   UNL A   1      45.057  26.192  35.166  1.00  0.00     0.014 A 
ATOM     10  C   UNL A   1      45.193  28.707  33.952  1.00  0.00     0.010 A 
ATOM     11  C   UNL A   1      43.910  26.752  34.601  1.00  0.00     0.010 A 
ATOM     12  C   UNL A   1      43.971  28.019  34.002  1.00  0.00    -0.014 A 
BRANCH  12  13
ATOM     13  C   UNL A   1      42.799  28.605  33.316  1.00  0.00     0.031 A 
ATOM     14  C   UNL A   1      41.890  29.572  34.014  1.00  0.00     0.074 A 
ATOM     15  C   UNL A   1      42.595  28.270  32.028  1.00  0.00     0.049 A 
ATOM     16  N   UNL A   1      40.827  30.176  33.550  1.00  0.00    -0.248 NA
ATOM     17  C   UNL A   1      42.207  29.898  35.413  1.00  0.00     0.031 C 
ATOM     18  C   UNL A   1      43.424  27.334  31.262  1.00  0.00     0.029 A 
ATOM     19  N   UNL A   1      41.655  28.691  31.127  1.00  0.00    -0.354 N 
ATOM     20  C   UNL A   1      40.335  30.938  34.601  1.00  0.00     0.074 A 
ATOM     21  C   UNL A   1      41.207  30.708  35.733  1.00  0.00     0.031 C 
ATOM     22  C   UNL A   1      42.996  27.301  29.995  1.00  0.00     0.029 A 
ATOM     23  C   UNL A   1      41.819  28.151  29.875  1.00  0.00     0.049 A 
ATOM     24  H   UNL A   1      40.932  29.320  31.353  1.00  0.00     0.167 HD
ATOM     25  C   UNL A   1      39.253  31.753  34.611  1.00  0.00     0.037 A 
ATOM     26  C   UNL A   1      41.091  28.308  28.756  1.00  0.00     0.037 A 
ATOM     27  C   UNL A   1      38.402  31.977  33.470  1.00  0.00     0.049 A 
ATOM     28  C   UNL A   1      39.889  29.201  28.805  1.00  0.00     0.074 A 
ATOM     29  C   UNL A   1      37.287  32.790  33.370  1.00  0.00     0.029 A 
ATOM     30  N   UNL A   1      38.575  31.381  32.228  1.00  0.00    -0.354 N 
ATOM     31  N   UNL A   1      39.435  29.916  29.806  1.00  0.00    -0.248 NA
ATOM     32  C   UNL A   1      39.090  29.299  27.578  1.00  0.00     0.031 C 
ATOM     33  C   UNL A   1      36.766  32.659  32.077  1.00  0.00     0.029 A 
ATOM     34  C   UNL A   1      37.579  31.797  31.360  1.00  0.00     0.049 A 
ATOM     35  H   UNL A   1      39.300  30.755  31.998  1.00  0.00     0.167 HD
ATOM     36  C   UNL A   1      38.300  30.553  29.331  1.00  0.00     0.074 A 
ATOM     37  C   UNL A   1      38.151  30.160  27.943  1.00  0.00     0.031 C 
ATOM     38  C   UNL A   1      37.452  31.384  29.984  1.00  0.00     0.037 A 
BRANCH  25  39
ATOM     39  C   UNL A   1      38.916  32.445  35.900  1.00  0.00     0.057 A 
ATOM     40  C   UNL A   1      39.318  33.761  36.162  1.00  0.00     0.134 A 
ATOM     41  C   UNL A   1      38.147  31.798  36.876  1.00  0.00     0.134 A 
ATOM     42  F   UNL A   1      40.068  34.431  35.275  1.00  0.00    -0.206 F 
ATOM     43  C   UNL A   1      38.982  34.402  37.356  1.00  0.00     0.040 A 
ATOM     44  C   UNL A   1      37.786  32.437  38.064  1.00  0.00     0.040 A 
ATOM     45  F   UNL A   1      37.726  30.538  36.688  1.00  0.00    -0.206 F 
ATOM     46  C   UNL A   1      38.208  33.742  38.309  1.00  0.00     0.006 A 
ENDBRANCH  25  39
BRANCH  26  47
ATOM     47  C   UNL A   1      41.482  27.597  27.517  1.00  0.00     0.057 A 
ATOM     48  C   UNL A   1      41.170  26.247  27.329  1.00  0.00     0.134 A 
ATOM     49  C   UNL A   1      42.145  28.258  26.475  1.00  0.00     0.134 A 
ATOM     50  F   UNL A   1      40.547  25.557  28.296  1.00  0.00    -0.206 F 
ATOM     51  C   UNL A   1      41.507  25.577  26.151  1.00  0.00     0.040 A 
ATOM     52  C   UNL A   1      42.464  27.610  25.282  1.00  0.00     0.040 A 
ATOM     53  F   UNL A   1      42.462  29.557  26.590  1.00  0.00    -0.206 F 
ATOM     54  C   UNL A   1      42.148  26.262  25.119  1.00  0.00     0.006 A 
ENDBRANCH  26  47
BRANCH  38  55
ATOM     55  C   UNL A   1      36.304  31.929  29.192  1.00  0.00     0.057 A 
ATOM     56  C   UNL A   1      35.201  31.134  28.857  1.00  0.00     0.134 A 
ATOM     57  C   UNL A   1      36.296  33.265  28.774  1.00  0.00     0.134 A 
ATOM     58  F   UNL A   1      35.160  29.842  29.214  1.00  0.00    -0.206 F 
ATOM     59  C   UNL A   1      34.137  31.645  28.113  1.00  0.00     0.040 A 
ATOM     60  C   UNL A   1      35.227  33.793  28.051  1.00  0.00     0.040 A 
ATOM     61  F   UNL A   1      37.322  34.077  29.068  1.00  0.00    -0.206 F 
ATOM     62  C   UNL A   1      34.146  32.981  27.713  1.00  0.00     0.006 A 
ENDBRANCH  38  55
ENDBRANCH  12  13
ENDBRANCH   5   7
ENDBRANCH   2   3
ENDBRANCH   1   2
BRANCH   1  63
ATOM     63  C   UNL A   1      46.785  25.646  31.715  1.00  0.00     0.023 C 
BRANCH  63  64
ATOM     64  C   UNL A   1      46.996  26.443  30.425  1.00  0.00     0.116 C 
BRANCH  64  65
ATOM     65  N   UNL A   1      47.639  25.683  29.370  1.00  0.00    -0.356 N 
ATOM     66  C   UNL A   1      47.180  24.915  28.349  1.00  0.00     0.227 C 
ATOM     67  H   UNL A   1      48.622  25.736  29.400  1.00  0.00     0.163 HD
ATOM     68  O   UNL A   1      48.058  24.371  27.670  1.00  0.00    -0.274 OA
BRANCH  66  69
ATOM     69  C   UNL A   1      45.695  24.739  28.003  1.00  0.00     0.061 C 
ATOM     70  C   UNL A   1      45.576  23.610  26.927  1.00  0.00     0.053 C 
ATOM     71  C   UNL A   1      44.905  24.142  29.216  1.00  0.00     0.053 C 
ATOM     72  C   UNL A   1      44.219  23.041  27.221  1.00  0.00    -0.044 A 
ATOM     73  C   UNL A   1      43.818  23.382  28.517  1.00  0.00    -0.044 A 
ATOM     74  C   UNL A   1      43.390  22.312  26.389  1.00  0.00     0.004 A 
ATOM     75  C   UNL A   1      42.562  23.054  28.992  1.00  0.00     0.004 A 
ATOM     76  C   UNL A   1      42.118  21.974  26.859  1.00  0.00     0.000 A 
ATOM     77  C   UNL A   1      41.701  22.355  28.144  1.00  0.00     0.000 A 
BRANCH  69  78
ATOM     78  C   UNL A   1      44.955  26.024  27.532  1.00  0.00     0.053 C 
BRANCH  78  79
ATOM     79  C   UNL A   1      45.638  27.026  26.620  1.00  0.00    -0.044 A 
ATOM     80  C   UNL A   1      45.989  26.789  25.289  1.00  0.00     0.024 A 
ATOM     81  C   UNL A   1      45.840  28.321  27.123  1.00  0.00     0.024 A 
ATOM     82  C   UNL A   1      46.473  27.842  24.525  1.00  0.00     0.111 A 
ATOM     83  C   UNL A   1      46.332  29.306  26.281  1.00  0.00     0.111 A 
ATOM     84  N   UNL A   1      46.643  29.097  24.987  1.00  0.00    -0.265 NA
ENDBRANCH  78  79
ENDBRANCH  69  78
ENDBRANCH  66  69
ENDBRANCH  64  65
ENDBRANCH  63  64
ENDBRANCH   1  63
TORSDOF 13
ENDMDL
MODEL 2
REMARK VINA RESULT:     -10.0      4.779     10.634
REMARK SMILES O=C(NCCCCNC(=O)C1(Cc2ccncc2)Cc2ccccc2C1)c1ccc(-c2c3nc(c(-c4c(F)cccc4F)c4ccc([nH]4)c(-c4c(F)cccc4F)c4nc(c(-c5c(F)cccc5F)c5ccc2[nH]5)C=C4)C=C3)cc1
REMARK SMILES IDX 5 1 4 2 3 3 1 4 2 5 27 7 28 8 80 9 29 10 79 11 30 12 31 13
REMARK SMILES IDX 32 14 73 15 33 16 78 17 72 18 74 19 34 20 77 21 71 22 70 23
REMARK SMILES IDX 35 25 61 26 44 27 60 28 45 29 48 30 59 31 75 32 46 33 47 34
REMARK SMILES IDX 58 36 76 37 49 38 36 39 37 40 42 41 38 42 39 43 41 44 43 45
REMARK SMILES IDX 40 46 62 47 63 48 68 49 64 50 65 51 67 52 69 53 66 54 50 55
REMARK SMILES IDX 51 56 56 57 52 58 53 59 55 60 57 61 54 62 6 63 7 64 8 65
REMARK SMILES IDX 9 66 10 68 11 69 19 70 26 71 20 72 25 73 21 74 24 75 22 76
REMARK SMILES IDX 23 77 12 78 13 79 14 80 18 81 15 82 17 83 16 84
REMARK H PARENT 3 6 74 24 48 35 8 67
REMARK Flexibility Score: inf
ROOT
ATOM      1  C   UNL A   1      35.580  23.302  25.889  1.00  0.00     0.023 C 
ENDROOT
BRANCH   1   2
ATOM      2  C   UNL A   1      36.905  23.839  25.381  1.00  0.00     0.116 C 
BRANCH   2   3
ATOM      3  N   UNL A   1      37.973  22.856  25.494  1.00  0.00    -0.352 N 
ATOM      4  O   UNL A   1      40.044  22.102  25.965  1.00  0.00    -0.269 OA
ATOM      5  C   UNL A   1      39.208  22.983  26.083  1.00  0.00     0.251 C 
ATOM      6  H   UNL A   1      37.784  21.977  25.093  1.00  0.00     0.163 HD
BRANCH   5   7
ATOM      7  C   UNL A   1      39.520  24.213  26.841  1.00  0.00     0.039 A 
ATOM      8  C   UNL A   1      39.108  24.349  28.168  1.00  0.00     0.014 A 
ATOM      9  C   UNL A   1      40.241  25.232  26.213  1.00  0.00     0.014 A 
ATOM     10  C   UNL A   1      39.306  25.550  28.829  1.00  0.00     0.010 A 
ATOM     11  C   UNL A   1      40.525  26.406  26.913  1.00  0.00     0.010 A 
ATOM     12  C   UNL A   1      40.047  26.575  28.221  1.00  0.00    -0.014 A 
BRANCH  12  13
ATOM     13  C   UNL A   1      40.403  27.765  29.024  1.00  0.00     0.031 A 
ATOM     14  C   UNL A   1      41.757  27.907  29.650  1.00  0.00     0.074 A 
ATOM     15  C   UNL A   1      39.479  28.738  29.145  1.00  0.00     0.049 A 
ATOM     16  N   UNL A   1      42.224  28.889  30.377  1.00  0.00    -0.248 NA
ATOM     17  C   UNL A   1      42.709  26.806  29.442  1.00  0.00     0.031 C 
ATOM     18  C   UNL A   1      38.129  28.690  28.574  1.00  0.00     0.029 A 
ATOM     19  N   UNL A   1      39.535  29.962  29.756  1.00  0.00    -0.354 N 
ATOM     20  C   UNL A   1      43.514  28.520  30.731  1.00  0.00     0.074 A 
ATOM     21  C   UNL A   1      43.752  27.214  30.152  1.00  0.00     0.031 C 
ATOM     22  C   UNL A   1      37.510  29.854  28.807  1.00  0.00     0.029 A 
ATOM     23  C   UNL A   1      38.386  30.699  29.606  1.00  0.00     0.049 A 
ATOM     24  H   UNL A   1      40.322  30.282  30.253  1.00  0.00     0.167 HD
ATOM     25  C   UNL A   1      44.412  29.213  31.471  1.00  0.00     0.037 A 
ATOM     26  C   UNL A   1      38.066  31.917  30.076  1.00  0.00     0.037 A 
ATOM     27  C   UNL A   1      44.159  30.516  32.031  1.00  0.00     0.049 A 
ATOM     28  C   UNL A   1      39.074  32.649  30.909  1.00  0.00     0.074 A 
ATOM     29  C   UNL A   1      45.003  31.310  32.788  1.00  0.00     0.029 A 
ATOM     30  N   UNL A   1      42.969  31.217  31.892  1.00  0.00    -0.354 N 
ATOM     31  N   UNL A   1      40.290  32.288  31.236  1.00  0.00    -0.248 NA
ATOM     32  C   UNL A   1      38.661  33.950  31.449  1.00  0.00     0.031 C 
ATOM     33  C   UNL A   1      44.311  32.476  33.136  1.00  0.00     0.029 A 
ATOM     34  C   UNL A   1      43.051  32.427  32.562  1.00  0.00     0.049 A 
ATOM     35  H   UNL A   1      42.183  30.901  31.391  1.00  0.00     0.167 HD
ATOM     36  C   UNL A   1      40.794  33.316  32.017  1.00  0.00     0.074 A 
ATOM     37  C   UNL A   1      39.757  34.328  32.092  1.00  0.00     0.031 C 
ATOM     38  C   UNL A   1      42.001  33.413  32.624  1.00  0.00     0.037 A 
BRANCH  25  39
ATOM     39  C   UNL A   1      45.740  28.567  31.737  1.00  0.00     0.057 A 
ATOM     40  C   UNL A   1      46.853  28.794  30.918  1.00  0.00     0.134 A 
ATOM     41  C   UNL A   1      45.918  27.734  32.850  1.00  0.00     0.134 A 
ATOM     42  F   UNL A   1      46.747  29.570  29.828  1.00  0.00    -0.206 F 
ATOM     43  C   UNL A   1      48.090  28.204  31.186  1.00  0.00     0.040 A 
ATOM     44  C   UNL A   1      47.155  27.156  33.141  1.00  0.00     0.040 A 
ATOM     45  F   UNL A   1      44.894  27.477  33.679  1.00  0.00    -0.206 F 
ATOM     46  C   UNL A   1      48.245  27.387  32.304  1.00  0.00     0.006 A 
ENDBRANCH  25  39
BRANCH  26  47
ATOM     47  C   UNL A   1      36.737  32.496  29.773  1.00  0.00     0.057 A 
ATOM     48  C   UNL A   1      35.618  32.185  30.551  1.00  0.00     0.134 A 
ATOM     49  C   UNL A   1      36.561  33.405  28.721  1.00  0.00     0.134 A 
ATOM     50  F   UNL A   1      35.721  31.312  31.563  1.00  0.00    -0.206 F 
ATOM     51  C   UNL A   1      34.368  32.752  30.292  1.00  0.00     0.040 A 
ATOM     52  C   UNL A   1      35.325  34.000  28.467  1.00  0.00     0.040 A 
ATOM     53  F   UNL A   1      37.599  33.753  27.946  1.00  0.00    -0.206 F 
ATOM     54  C   UNL A   1      34.222  33.670  29.252  1.00  0.00     0.006 A 
ENDBRANCH  26  47
BRANCH  38  55
ATOM     55  C   UNL A   1      42.260  34.665  33.404  1.00  0.00     0.057 A 
ATOM     56  C   UNL A   1      42.854  35.787  32.812  1.00  0.00     0.134 A 
ATOM     57  C   UNL A   1      41.899  34.753  34.753  1.00  0.00     0.134 A 
ATOM     58  F   UNL A   1      43.238  35.756  31.527  1.00  0.00    -0.206 F 
ATOM     59  C   UNL A   1      43.100  36.949  33.544  1.00  0.00     0.040 A 
ATOM     60  C   UNL A   1      42.119  35.918  35.488  1.00  0.00     0.040 A 
ATOM     61  F   UNL A   1      41.324  33.713  35.374  1.00  0.00    -0.206 F 
ATOM     62  C   UNL A   1      42.726  37.018  34.885  1.00  0.00     0.006 A 
ENDBRANCH  38  55
ENDBRANCH  12  13
ENDBRANCH   5   7
ENDBRANCH   2   3
ENDBRANCH   1   2
BRANCH   1  63
ATOM     63  C   UNL A   1      34.685  22.767  24.771  1.00  0.00     0.023 C 
BRANCH  63  64
ATOM     64  C   UNL A   1      33.542  23.689  24.340  1.00  0.00     0.116 C 
BRANCH  64  65
ATOM     65  N   UNL A   1      32.477  23.793  25.320  1.00  0.00    -0.356 N 
ATOM     66  C   UNL A   1      31.905  24.830  25.984  1.00  0.00     0.227 C 
ATOM     67  H   UNL A   1      32.082  22.921  25.553  1.00  0.00     0.163 HD
ATOM     68  O   UNL A   1      31.036  24.510  26.802  1.00  0.00    -0.274 OA
BRANCH  66  69
ATOM     69  C   UNL A   1      32.254  26.305  25.740  1.00  0.00     0.061 C 
ATOM     70  C   UNL A   1      31.407  27.174  26.726  1.00  0.00     0.053 C 
ATOM     71  C   UNL A   1      33.723  26.614  26.185  1.00  0.00     0.053 C 
ATOM     72  C   UNL A   1      32.296  28.364  26.937  1.00  0.00    -0.044 A 
ATOM     73  C   UNL A   1      33.615  28.055  26.586  1.00  0.00    -0.044 A 
ATOM     74  C   UNL A   1      31.954  29.632  27.368  1.00  0.00     0.004 A 
ATOM     75  C   UNL A   1      34.609  29.015  26.602  1.00  0.00     0.004 A 
ATOM     76  C   UNL A   1      32.951  30.611  27.389  1.00  0.00     0.000 A 
ATOM     77  C   UNL A   1      34.265  30.309  26.994  1.00  0.00     0.000 A 
BRANCH  69  78
ATOM     78  C   UNL A   1      32.078  26.808  24.278  1.00  0.00     0.053 C 
BRANCH  78  79
ATOM     79  C   UNL A   1      30.899  27.680  23.891  1.00  0.00    -0.044 A 
ATOM     80  C   UNL A   1      30.972  29.042  23.592  1.00  0.00     0.024 A 
ATOM     81  C   UNL A   1      29.657  27.047  23.725  1.00  0.00     0.024 A 
ATOM     82  C   UNL A   1      29.841  29.686  23.108  1.00  0.00     0.111 A 
ATOM     83  C   UNL A   1      28.583  27.776  23.238  1.00  0.00     0.111 A 
ATOM     84  N   UNL A   1      28.651  29.082  22.915  1.00  0.00    -0.265 NA
ENDBRANCH  78  79
ENDBRANCH  69  78
ENDBRANCH  66  69
ENDBRANCH  64  65
ENDBRANCH  63  64
ENDBRANCH   1  63
TORSDOF 13
ENDMDL
MODEL 3
REMARK VINA RESULT:     -10.0      5.481     11.873
REMARK SMILES O=C(NCCCCNC(=O)C1(Cc2ccncc2)Cc2ccccc2C1)c1ccc(-c2c3nc(c(-c4c(F)cccc4F)c4ccc([nH]4)c(-c4c(F)cccc4F)c4nc(c(-c5c(F)cccc5F)c5ccc2[nH]5)C=C4)C=C3)cc1
REMARK SMILES IDX 5 1 4 2 3 3 1 4 2 5 27 7 28 8 80 9 29 10 79 11 30 12 31 13
REMARK SMILES IDX 32 14 73 15 33 16 78 17 72 18 74 19 34 20 77 21 71 22 70 23
REMARK SMILES IDX 35 25 61 26 44 27 60 28 45 29 48 30 59 31 75 32 46 33 47 34
REMARK SMILES IDX 58 36 76 37 49 38 36 39 37 40 42 41 38 42 39 43 41 44 43 45
REMARK SMILES IDX 40 46 62 47 63 48 68 49 64 50 65 51 67 52 69 53 66 54 50 55
REMARK SMILES IDX 51 56 56 57 52 58 53 59 55 60 57 61 54 62 6 63 7 64 8 65
REMARK SMILES IDX 9 66 10 68 11 69 19 70 26 71 20 72 25 73 21 74 24 75 22 76
REMARK SMILES IDX 23 77 12 78 13 79 14 80 18 81 15 82 17 83 16 84
REMARK H PARENT 3 6 74 24 48 35 8 67
REMARK Flexibility Score: inf
ROOT
ATOM      1  C   UNL A   1      33.607  28.383  25.640  1.00  0.00     0.023 C 
ENDROOT
BRANCH   1   2
ATOM      2  C   UNL A   1      33.925  28.497  27.119  1.00  0.00     0.116 C 
BRANCH   2   3
ATOM      3  N   UNL A   1      33.787  29.863  27.604  1.00  0.00    -0.352 N 
ATOM      4  O   UNL A   1      34.374  31.721  28.736  1.00  0.00    -0.269 OA
ATOM      5  C   UNL A   1      34.701  30.641  28.274  1.00  0.00     0.251 C 
ATOM      6  H   UNL A   1      32.918  30.290  27.428  1.00  0.00     0.163 HD
BRANCH   5   7
ATOM      7  C   UNL A   1      36.080  30.139  28.448  1.00  0.00     0.039 A 
ATOM      8  C   UNL A   1      37.019  30.283  27.425  1.00  0.00     0.014 A 
ATOM      9  C   UNL A   1      36.433  29.528  29.655  1.00  0.00     0.014 A 
ATOM     10  C   UNL A   1      38.273  29.708  27.557  1.00  0.00     0.010 A 
ATOM     11  C   UNL A   1      37.727  29.034  29.824  1.00  0.00     0.010 A 
ATOM     12  C   UNL A   1      38.650  29.110  28.770  1.00  0.00    -0.014 A 
BRANCH  12  13
ATOM     13  C   UNL A   1      40.054  28.679  28.941  1.00  0.00     0.031 A 
ATOM     14  C   UNL A   1      40.512  27.322  28.499  1.00  0.00     0.074 A 
ATOM     15  C   UNL A   1      40.919  29.561  29.475  1.00  0.00     0.049 A 
ATOM     16  N   UNL A   1      41.707  26.797  28.575  1.00  0.00    -0.248 NA
ATOM     17  C   UNL A   1      39.500  26.436  27.902  1.00  0.00     0.031 C 
ATOM     18  C   UNL A   1      40.568  30.907  29.940  1.00  0.00     0.029 A 
ATOM     19  N   UNL A   1      42.269  29.479  29.693  1.00  0.00    -0.354 N 
ATOM     20  C   UNL A   1      41.592  25.514  28.056  1.00  0.00     0.074 A 
ATOM     21  C   UNL A   1      40.204  25.334  27.683  1.00  0.00     0.031 C 
ATOM     22  C   UNL A   1      41.679  31.544  30.327  1.00  0.00     0.029 A 
ATOM     23  C   UNL A   1      42.808  30.632  30.211  1.00  0.00     0.049 A 
ATOM     24  H   UNL A   1      42.800  28.675  29.497  1.00  0.00     0.167 HD
ATOM     25  C   UNL A   1      42.561  24.580  27.907  1.00  0.00     0.037 A 
ATOM     26  C   UNL A   1      44.071  30.916  30.572  1.00  0.00     0.037 A 
ATOM     27  C   UNL A   1      43.939  24.782  28.276  1.00  0.00     0.049 A 
ATOM     28  C   UNL A   1      45.116  29.853  30.414  1.00  0.00     0.074 A 
ATOM     29  C   UNL A   1      45.003  23.905  28.159  1.00  0.00     0.029 A 
ATOM     30  N   UNL A   1      44.443  25.948  28.836  1.00  0.00    -0.354 N 
ATOM     31  N   UNL A   1      44.993  28.645  29.922  1.00  0.00    -0.248 NA
ATOM     32  C   UNL A   1      46.469  30.187  30.873  1.00  0.00     0.031 C 
ATOM     33  C   UNL A   1      46.142  24.528  28.679  1.00  0.00     0.029 A 
ATOM     34  C   UNL A   1      45.799  25.808  29.083  1.00  0.00     0.049 A 
ATOM     35  H   UNL A   1      43.913  26.757  29.028  1.00  0.00     0.167 HD
ATOM     36  C   UNL A   1      46.251  28.072  30.006  1.00  0.00     0.074 A 
ATOM     37  C   UNL A   1      47.130  29.078  30.574  1.00  0.00     0.031 C 
ATOM     38  C   UNL A   1      46.646  26.824  29.654  1.00  0.00     0.037 A 
BRANCH  25  39
ATOM     39  C   UNL A   1      42.160  23.248  27.344  1.00  0.00     0.057 A 
ATOM     40  C   UNL A   1      42.297  22.947  25.982  1.00  0.00     0.134 A 
ATOM     41  C   UNL A   1      41.666  22.238  28.181  1.00  0.00     0.134 A 
ATOM     42  F   UNL A   1      42.751  23.874  25.125  1.00  0.00    -0.206 F 
ATOM     43  C   UNL A   1      41.941  21.697  25.471  1.00  0.00     0.040 A 
ATOM     44  C   UNL A   1      41.327  20.978  27.685  1.00  0.00     0.040 A 
ATOM     45  F   UNL A   1      41.514  22.458  29.495  1.00  0.00    -0.206 F 
ATOM     46  C   UNL A   1      41.460  20.706  26.325  1.00  0.00     0.006 A 
ENDBRANCH  25  39
BRANCH  26  47
ATOM     47  C   UNL A   1      44.397  32.253  31.119  1.00  0.00     0.057 A 
ATOM     48  C   UNL A   1      44.717  33.321  30.276  1.00  0.00     0.134 A 
ATOM     49  C   UNL A   1      44.359  32.506  32.497  1.00  0.00     0.134 A 
ATOM     50  F   UNL A   1      44.781  33.138  28.949  1.00  0.00    -0.206 F 
ATOM     51  C   UNL A   1      44.994  34.593  30.781  1.00  0.00     0.040 A 
ATOM     52  C   UNL A   1      44.607  33.777  33.015  1.00  0.00     0.040 A 
ATOM     53  F   UNL A   1      44.047  31.525  33.357  1.00  0.00    -0.206 F 
ATOM     54  C   UNL A   1      44.930  34.825  32.155  1.00  0.00     0.006 A 
ENDBRANCH  26  47
BRANCH  38  55
ATOM     55  C   UNL A   1      48.093  26.496  29.860  1.00  0.00     0.057 A 
ATOM     56  C   UNL A   1      48.549  25.903  31.044  1.00  0.00     0.134 A 
ATOM     57  C   UNL A   1      49.034  26.761  28.858  1.00  0.00     0.134 A 
ATOM     58  F   UNL A   1      47.697  25.643  32.047  1.00  0.00    -0.206 F 
ATOM     59  C   UNL A   1      49.899  25.605  31.234  1.00  0.00     0.040 A 
ATOM     60  C   UNL A   1      50.382  26.446  29.027  1.00  0.00     0.040 A 
ATOM     61  F   UNL A   1      48.657  27.324  27.700  1.00  0.00    -0.206 F 
ATOM     62  C   UNL A   1      50.819  25.871  30.220  1.00  0.00     0.006 A 
ENDBRANCH  38  55
ENDBRANCH  12  13
ENDBRANCH   5   7
ENDBRANCH   2   3
ENDBRANCH   1   2
BRANCH   1  63
ATOM     63  C   UNL A   1      32.178  27.911  25.372  1.00  0.00     0.023 C 
BRANCH  63  64
ATOM     64  C   UNL A   1      32.023  26.424  25.041  1.00  0.00     0.116 C 
BRANCH  64  65
ATOM     65  N   UNL A   1      32.510  26.067  23.721  1.00  0.00    -0.356 N 
ATOM     66  C   UNL A   1      33.430  25.180  23.265  1.00  0.00     0.227 C 
ATOM     67  H   UNL A   1      32.077  26.580  23.000  1.00  0.00     0.163 HD
ATOM     68  O   UNL A   1      33.614  25.200  22.043  1.00  0.00    -0.274 OA
BRANCH  66  69
ATOM     69  C   UNL A   1      34.181  24.182  24.158  1.00  0.00     0.061 C 
ATOM     70  C   UNL A   1      35.095  23.303  23.243  1.00  0.00     0.053 C 
ATOM     71  C   UNL A   1      35.217  24.918  25.073  1.00  0.00     0.053 C 
ATOM     72  C   UNL A   1      36.228  22.963  24.167  1.00  0.00    -0.044 A 
ATOM     73  C   UNL A   1      36.270  23.864  25.237  1.00  0.00    -0.044 A 
ATOM     74  C   UNL A   1      37.124  21.914  24.085  1.00  0.00     0.004 A 
ATOM     75  C   UNL A   1      37.168  23.706  26.276  1.00  0.00     0.004 A 
ATOM     76  C   UNL A   1      38.037  21.745  25.129  1.00  0.00     0.000 A 
ATOM     77  C   UNL A   1      38.048  22.625  26.224  1.00  0.00     0.000 A 
BRANCH  69  78
ATOM     78  C   UNL A   1      33.290  23.285  25.065  1.00  0.00     0.053 C 
BRANCH  78  79
ATOM     79  C   UNL A   1      32.978  21.852  24.678  1.00  0.00    -0.044 A 
ATOM     80  C   UNL A   1      32.333  21.461  23.502  1.00  0.00     0.024 A 
ATOM     81  C   UNL A   1      33.464  20.837  25.517  1.00  0.00     0.024 A 
ATOM     82  C   UNL A   1      32.244  20.108  23.202  1.00  0.00     0.111 A 
ATOM     83  C   UNL A   1      33.325  19.513  25.133  1.00  0.00     0.111 A 
ATOM     84  N   UNL A   1      32.734  19.126  23.986  1.00  0.00    -0.265 NA
ENDBRANCH  78  79
ENDBRANCH  69  78
ENDBRANCH  66  69
ENDBRANCH  64  65
ENDBRANCH  63  64
ENDBRANCH   1  63
TORSDOF 13
ENDMDL
