MODEL 1
REMARK VINA RESULT:     -13.3      0.000      0.000
REMARK SMILES Cn1cc(S(=O)(=O)N2CCC(C(=O)NCCCCNC(=O)c3ccc(-c4c5nc(c(-c6c(F)cccc6F)c6ccc([nH]6)c(-c6c(F)cccc6F)c6nc(c(-c7c(F)cccc7F)c7ccc4[nH]7)C=C6)C=C5)cc3)CC2)cc1C(=O)N1CCCCC1
REMARK SMILES IDX 16 1 15 2 14 3 12 4 13 5 11 7 8 8 9 9 77 10 10 11 76 12 5 13
REMARK SMILES IDX 6 14 7 15 4 16 1 17 2 18 3 19 79 20 78 21 80 22 81 23 82 24
REMARK SMILES IDX 83 25 87 26 84 27 86 28 85 29 17 30 18 31 19 32 20 33 21 35
REMARK SMILES IDX 22 36 23 37 75 38 24 39 74 40 25 41 26 42 27 43 68 44 28 45
REMARK SMILES IDX 73 46 67 47 69 48 29 49 72 50 66 51 65 52 30 54 56 55 39 56
REMARK SMILES IDX 55 57 40 58 43 59 54 60 70 61 41 62 42 63 53 65 71 66 44 67
REMARK SMILES IDX 31 68 32 69 37 70 33 71 34 72 36 73 38 74 35 75 57 76 58 77
REMARK SMILES IDX 63 78 59 79 60 80 62 81 64 82 61 83 45 84 46 85 51 86 47 87
REMARK SMILES IDX 48 88 50 89 52 90 49 91
REMARK H PARENT 14 6 19 34 69 53 43 64
REMARK Flexibility Score: inf
ROOT
ATOM      1  C   UNL A   1      31.779  30.391  26.769  1.00  0.00     0.023 C 
ENDROOT
BRANCH   1   2
ATOM      2  C   UNL A   1      31.826  29.656  25.433  1.00  0.00     0.116 C 
BRANCH   2   3
ATOM      3  N   UNL A   1      30.793  30.118  24.524  1.00  0.00    -0.356 N 
ATOM      4  C   UNL A   1      30.458  29.710  23.271  1.00  0.00     0.223 C 
ATOM      5  O   UNL A   1      29.531  30.296  22.707  1.00  0.00    -0.275 OA
ATOM      6  H   UNL A   1      30.239  30.852  24.875  1.00  0.00     0.163 HD
BRANCH   4   7
ATOM      7  C   UNL A   1      31.168  28.557  22.581  1.00  0.00     0.081 C 
ATOM      8  N   UNL A   1      32.595  26.066  22.663  1.00  0.00    -0.198 NA
ATOM      9  C   UNL A   1      33.338  27.296  22.289  1.00  0.00     0.103 C 
ATOM     10  C   UNL A   1      31.184  26.052  22.220  1.00  0.00     0.103 C 
ATOM     11  C   UNL A   1      32.664  28.514  22.898  1.00  0.00     0.030 C 
ATOM     12  C   UNL A   1      30.437  27.232  22.818  1.00  0.00     0.030 C 
BRANCH   8  13
ATOM     13  S   UNL A   1      33.448  24.602  22.443  1.00  0.00     0.244 S 
ATOM     14  O   UNL A   1      34.791  24.760  22.961  1.00  0.00    -0.207 OA
ATOM     15  O   UNL A   1      33.202  24.135  21.097  1.00  0.00    -0.207 OA
BRANCH  13  16
ATOM     16  C   UNL A   1      32.765  23.356  23.435  1.00  0.00     0.101 A 
ATOM     17  C   UNL A   1      30.621  22.269  26.126  1.00  0.00     0.150 C 
ATOM     18  N   UNL A   1      31.549  22.364  25.020  1.00  0.00    -0.345 N 
ATOM     19  C   UNL A   1      31.654  23.493  24.240  1.00  0.00     0.107 A 
ATOM     20  C   UNL A   1      32.554  21.472  24.695  1.00  0.00     0.108 A 
ATOM     21  C   UNL A   1      33.273  22.059  23.663  1.00  0.00     0.055 A 
BRANCH  20  22
ATOM     22  C   UNL A   1      32.977  20.275  25.404  1.00  0.00     0.270 C 
ATOM     23  O   UNL A   1      33.573  20.379  26.477  1.00  0.00    -0.267 OA
ATOM     24  N   UNL A   1      32.666  19.026  24.884  1.00  0.00    -0.337 N 
ATOM     25  C   UNL A   1      32.572  17.899  25.805  1.00  0.00     0.120 C 
ATOM     26  C   UNL A   1      32.536  18.719  23.461  1.00  0.00     0.120 C 
ATOM     27  C   UNL A   1      33.529  16.777  25.428  1.00  0.00     0.022 C 
ATOM     28  C   UNL A   1      33.479  17.585  23.053  1.00  0.00     0.022 C 
ATOM     29  C   UNL A   1      33.328  16.372  23.970  1.00  0.00     0.004 C 
ENDBRANCH  20  22
ENDBRANCH  13  16
ENDBRANCH   8  13
ENDBRANCH   4   7
ENDBRANCH   2   3
ENDBRANCH   1   2
BRANCH   1  30
ATOM     30  C   UNL A   1      31.650  31.911  26.656  1.00  0.00     0.023 C 
BRANCH  30  31
ATOM     31  C   UNL A   1      32.760  32.707  27.332  1.00  0.00     0.116 C 
BRANCH  31  32
ATOM     32  N   UNL A   1      32.385  34.079  27.638  1.00  0.00    -0.352 N 
ATOM     33  C   UNL A   1      32.963  34.945  28.534  1.00  0.00     0.251 C 
ATOM     34  H   UNL A   1      31.614  34.434  27.137  1.00  0.00     0.163 HD
ATOM     35  O   UNL A   1      32.474  36.049  28.741  1.00  0.00    -0.269 OA
BRANCH  33  36
ATOM     36  C   UNL A   1      34.160  34.512  29.280  1.00  0.00     0.039 A 
ATOM     37  C   UNL A   1      33.989  33.924  30.536  1.00  0.00     0.014 A 
ATOM     38  C   UNL A   1      35.435  34.643  28.724  1.00  0.00     0.014 A 
ATOM     39  C   UNL A   1      35.094  33.400  31.206  1.00  0.00     0.010 A 
ATOM     40  C   UNL A   1      36.526  34.067  29.364  1.00  0.00     0.010 A 
ATOM     41  C   UNL A   1      36.364  33.435  30.606  1.00  0.00    -0.014 A 
BRANCH  41  42
ATOM     42  C   UNL A   1      37.536  32.809  31.260  1.00  0.00     0.031 A 
ATOM     43  C   UNL A   1      38.202  31.621  30.631  1.00  0.00     0.074 A 
ATOM     44  C   UNL A   1      37.949  33.263  32.459  1.00  0.00     0.049 A 
ATOM     45  N   UNL A   1      39.180  30.883  31.089  1.00  0.00    -0.248 NA
ATOM     46  C   UNL A   1      37.679  31.187  29.325  1.00  0.00     0.031 C 
ATOM     47  C   UNL A   1      37.350  34.377  33.196  1.00  0.00     0.029 A 
ATOM     48  N   UNL A   1      38.964  32.832  33.273  1.00  0.00    -0.354 N 
ATOM     49  C   UNL A   1      39.372  29.885  30.144  1.00  0.00     0.074 A 
ATOM     50  C   UNL A   1      38.387  30.091  29.103  1.00  0.00     0.031 C 
ATOM     51  C   UNL A   1      38.022  34.554  34.346  1.00  0.00     0.029 A 
ATOM     52  C   UNL A   1      39.077  33.550  34.437  1.00  0.00     0.049 A 
ATOM     53  H   UNL A   1      39.556  32.079  33.044  1.00  0.00     0.167 HD
ATOM     54  C   UNL A   1      40.298  28.898  30.135  1.00  0.00     0.037 A 
ATOM     55  C   UNL A   1      39.936  33.411  35.465  1.00  0.00     0.037 A 
ATOM     56  C   UNL A   1      41.303  28.719  31.148  1.00  0.00     0.049 A 
ATOM     57  C   UNL A   1      40.975  32.328  35.417  1.00  0.00     0.074 A 
ATOM     58  C   UNL A   1      42.330  27.794  31.192  1.00  0.00     0.029 A 
ATOM     59  N   UNL A   1      41.407  29.489  32.296  1.00  0.00    -0.354 N 
ATOM     60  N   UNL A   1      41.183  31.427  34.489  1.00  0.00    -0.248 NA
ATOM     61  C   UNL A   1      41.899  32.247  36.557  1.00  0.00     0.031 C 
ATOM     62  C   UNL A   1      43.044  27.989  32.379  1.00  0.00     0.029 A 
ATOM     63  C   UNL A   1      42.475  29.053  33.061  1.00  0.00     0.049 A 
ATOM     64  H   UNL A   1      40.810  30.235  32.533  1.00  0.00     0.167 HD
ATOM     65  C   UNL A   1      42.272  30.683  34.921  1.00  0.00     0.074 A 
ATOM     66  C   UNL A   1      42.687  31.245  36.190  1.00  0.00     0.031 C 
ATOM     67  C   UNL A   1      42.874  29.629  34.319  1.00  0.00     0.037 A 
BRANCH  54  68
ATOM     68  C   UNL A   1      40.262  27.939  28.984  1.00  0.00     0.057 A 
ATOM     69  C   UNL A   1      39.520  26.752  29.038  1.00  0.00     0.134 A 
ATOM     70  C   UNL A   1      40.968  28.210  27.806  1.00  0.00     0.134 A 
ATOM     71  F   UNL A   1      38.837  26.430  30.146  1.00  0.00    -0.206 F 
ATOM     72  C   UNL A   1      39.503  25.854  27.971  1.00  0.00     0.040 A 
ATOM     73  C   UNL A   1      40.942  27.330  26.723  1.00  0.00     0.040 A 
ATOM     74  F   UNL A   1      41.697  29.330  27.690  1.00  0.00    -0.206 F 
ATOM     75  C   UNL A   1      40.212  26.145  26.807  1.00  0.00     0.006 A 
ENDBRANCH  54  68
BRANCH  55  76
ATOM     76  C   UNL A   1      39.870  34.348  36.611  1.00  0.00     0.057 A 
ATOM     77  C   UNL A   1      40.531  35.580  36.567  1.00  0.00     0.134 A 
ATOM     78  C   UNL A   1      39.143  34.041  37.766  1.00  0.00     0.134 A 
ATOM     79  F   UNL A   1      41.255  35.918  35.491  1.00  0.00    -0.206 F 
ATOM     80  C   UNL A   1      40.480  36.474  37.637  1.00  0.00     0.040 A 
ATOM     81  C   UNL A   1      39.071  34.933  38.839  1.00  0.00     0.040 A 
ATOM     82  F   UNL A   1      38.486  32.877  37.864  1.00  0.00    -0.206 F 
ATOM     83  C   UNL A   1      39.745  36.152  38.776  1.00  0.00     0.006 A 
ENDBRANCH  55  76
BRANCH  67  84
ATOM     84  C   UNL A   1      44.059  29.034  35.016  1.00  0.00     0.057 A 
ATOM     85  C   UNL A   1      43.921  27.979  35.925  1.00  0.00     0.134 A 
ATOM     86  C   UNL A   1      45.352  29.498  34.746  1.00  0.00     0.134 A 
ATOM     87  F   UNL A   1      42.706  27.502  36.235  1.00  0.00    -0.206 F 
ATOM     88  C   UNL A   1      45.030  27.414  36.555  1.00  0.00     0.040 A 
ATOM     89  C   UNL A   1      46.470  28.928  35.356  1.00  0.00     0.040 A 
ATOM     90  F   UNL A   1      45.549  30.503  33.880  1.00  0.00    -0.206 F 
ATOM     91  C   UNL A   1      46.310  27.885  36.266  1.00  0.00     0.006 A 
ENDBRANCH  67  84
ENDBRANCH  41  42
ENDBRANCH  33  36
ENDBRANCH  31  32
ENDBRANCH  30  31
ENDBRANCH   1  30
TORSDOF 14
ENDMDL
MODEL 2
REMARK VINA RESULT:     -13.1      2.418      8.406
REMARK SMILES Cn1cc(S(=O)(=O)N2CCC(C(=O)NCCCCNC(=O)c3ccc(-c4c5nc(c(-c6c(F)cccc6F)c6ccc([nH]6)c(-c6c(F)cccc6F)c6nc(c(-c7c(F)cccc7F)c7ccc4[nH]7)C=C6)C=C5)cc3)CC2)cc1C(=O)N1CCCCC1
REMARK SMILES IDX 16 1 15 2 14 3 12 4 13 5 11 7 8 8 9 9 77 10 10 11 76 12 5 13
REMARK SMILES IDX 6 14 7 15 4 16 1 17 2 18 3 19 79 20 78 21 80 22 81 23 82 24
REMARK SMILES IDX 83 25 87 26 84 27 86 28 85 29 17 30 18 31 19 32 20 33 21 35
REMARK SMILES IDX 22 36 23 37 75 38 24 39 74 40 25 41 26 42 27 43 68 44 28 45
REMARK SMILES IDX 73 46 67 47 69 48 29 49 72 50 66 51 65 52 30 54 56 55 39 56
REMARK SMILES IDX 55 57 40 58 43 59 54 60 70 61 41 62 42 63 53 65 71 66 44 67
REMARK SMILES IDX 31 68 32 69 37 70 33 71 34 72 36 73 38 74 35 75 57 76 58 77
REMARK SMILES IDX 63 78 59 79 60 80 62 81 64 82 61 83 45 84 46 85 51 86 47 87
REMARK SMILES IDX 48 88 50 89 52 90 49 91
REMARK H PARENT 14 6 19 34 69 53 43 64
REMARK Flexibility Score: inf
ROOT
ATOM      1  C   UNL A   1      40.039  21.834  26.131  1.00  0.00     0.023 C 
ENDROOT
BRANCH   1   2
ATOM      2  C   UNL A   1      38.566  21.971  25.756  1.00  0.00     0.116 C 
BRANCH   2   3
ATOM      3  N   UNL A   1      37.979  20.693  25.398  1.00  0.00    -0.356 N 
ATOM      4  C   UNL A   1      36.705  20.359  25.059  1.00  0.00     0.223 C 
ATOM      5  O   UNL A   1      36.469  19.173  24.814  1.00  0.00    -0.275 OA
ATOM      6  H   UNL A   1      38.610  19.938  25.402  1.00  0.00     0.163 HD
BRANCH   4   7
ATOM      7  C   UNL A   1      35.599  21.397  24.954  1.00  0.00     0.081 C 
ATOM      8  N   UNL A   1      33.091  22.502  25.811  1.00  0.00    -0.198 NA
ATOM      9  C   UNL A   1      33.152  21.823  24.492  1.00  0.00     0.103 C 
ATOM     10  C   UNL A   1      34.334  23.209  26.186  1.00  0.00     0.103 C 
ATOM     11  C   UNL A   1      34.272  20.796  24.488  1.00  0.00     0.030 C 
ATOM     12  C   UNL A   1      35.497  22.232  26.233  1.00  0.00     0.030 C 
BRANCH   8  13
ATOM     13  S   UNL A   1      31.640  23.346  26.131  1.00  0.00     0.244 S 
ATOM     14  O   UNL A   1      31.585  23.664  27.543  1.00  0.00    -0.207 OA
ATOM     15  O   UNL A   1      30.560  22.655  25.464  1.00  0.00    -0.207 OA
BRANCH  13  16
ATOM     16  C   UNL A   1      31.669  24.897  25.358  1.00  0.00     0.101 A 
ATOM     17  C   UNL A   1      32.877  27.141  22.804  1.00  0.00     0.150 C 
ATOM     18  N   UNL A   1      32.207  26.520  23.927  1.00  0.00    -0.345 N 
ATOM     19  C   UNL A   1      32.172  25.156  24.101  1.00  0.00     0.107 A 
ATOM     20  C   UNL A   1      31.685  27.151  25.040  1.00  0.00     0.108 A 
ATOM     21  C   UNL A   1      31.288  26.141  25.906  1.00  0.00     0.055 A 
BRANCH  20  22
ATOM     22  C   UNL A   1      31.738  28.559  25.401  1.00  0.00     0.270 C 
ATOM     23  O   UNL A   1      31.066  29.377  24.773  1.00  0.00    -0.267 OA
ATOM     24  N   UNL A   1      32.514  28.959  26.481  1.00  0.00    -0.337 N 
ATOM     25  C   UNL A   1      32.150  30.189  27.175  1.00  0.00     0.120 C 
ATOM     26  C   UNL A   1      33.747  28.306  26.914  1.00  0.00     0.120 C 
ATOM     27  C   UNL A   1      33.292  31.194  27.185  1.00  0.00     0.022 C 
ATOM     28  C   UNL A   1      34.914  29.296  26.946  1.00  0.00     0.022 C 
ATOM     29  C   UNL A   1      34.562  30.553  27.739  1.00  0.00     0.004 C 
ENDBRANCH  20  22
ENDBRANCH  13  16
ENDBRANCH   8  13
ENDBRANCH   4   7
ENDBRANCH   2   3
ENDBRANCH   1   2
BRANCH   1  30
ATOM     30  C   UNL A   1      40.386  22.316  27.539  1.00  0.00     0.023 C 
BRANCH  30  31
ATOM     31  C   UNL A   1      41.458  23.398  27.608  1.00  0.00     0.116 C 
BRANCH  31  32
ATOM     32  N   UNL A   1      41.715  24.041  26.329  1.00  0.00    -0.352 N 
ATOM     33  C   UNL A   1      41.612  25.372  26.004  1.00  0.00     0.251 C 
ATOM     34  H   UNL A   1      41.999  23.444  25.599  1.00  0.00     0.163 HD
ATOM     35  O   UNL A   1      41.781  25.749  24.851  1.00  0.00    -0.269 OA
BRANCH  33  36
ATOM     36  C   UNL A   1      41.251  26.341  27.056  1.00  0.00     0.039 A 
ATOM     37  C   UNL A   1      40.243  26.001  27.962  1.00  0.00     0.014 A 
ATOM     38  C   UNL A   1      41.933  27.555  27.174  1.00  0.00     0.014 A 
ATOM     39  C   UNL A   1      39.968  26.849  29.034  1.00  0.00     0.010 A 
ATOM     40  C   UNL A   1      41.700  28.370  28.276  1.00  0.00     0.010 A 
ATOM     41  C   UNL A   1      40.721  28.021  29.218  1.00  0.00    -0.014 A 
BRANCH  41  42
ATOM     42  C   UNL A   1      40.504  28.893  30.396  1.00  0.00     0.031 A 
ATOM     43  C   UNL A   1      39.418  29.928  30.374  1.00  0.00     0.074 A 
ATOM     44  C   UNL A   1      41.336  28.804  31.451  1.00  0.00     0.049 A 
ATOM     45  N   UNL A   1      39.130  30.840  31.265  1.00  0.00    -0.248 NA
ATOM     46  C   UNL A   1      38.563  29.961  29.177  1.00  0.00     0.031 C 
ATOM     47  C   UNL A   1      42.460  27.873  31.567  1.00  0.00     0.029 A 
ATOM     48  N   UNL A   1      41.370  29.517  32.621  1.00  0.00    -0.354 N 
ATOM     49  C   UNL A   1      38.078  31.570  30.729  1.00  0.00     0.074 A 
ATOM     50  C   UNL A   1      37.803  31.018  29.419  1.00  0.00     0.031 C 
ATOM     51  C   UNL A   1      43.062  28.060  32.754  1.00  0.00     0.029 A 
ATOM     52  C   UNL A   1      42.385  29.139  33.465  1.00  0.00     0.049 A 
ATOM     53  H   UNL A   1      40.728  30.232  32.836  1.00  0.00     0.167 HD
ATOM     54  C   UNL A   1      37.392  32.596  31.284  1.00  0.00     0.037 A 
ATOM     55  C   UNL A   1      42.730  29.613  34.677  1.00  0.00     0.037 A 
ATOM     56  C   UNL A   1      37.638  33.118  32.601  1.00  0.00     0.049 A 
ATOM     57  C   UNL A   1      41.933  30.730  35.286  1.00  0.00     0.074 A 
ATOM     58  C   UNL A   1      36.951  34.107  33.281  1.00  0.00     0.029 A 
ATOM     59  N   UNL A   1      38.653  32.685  33.441  1.00  0.00    -0.354 N 
ATOM     60  N   UNL A   1      40.904  31.373  34.791  1.00  0.00    -0.248 NA
ATOM     61  C   UNL A   1      42.344  31.184  36.622  1.00  0.00     0.031 C 
ATOM     62  C   UNL A   1      37.564  34.289  34.526  1.00  0.00     0.029 A 
ATOM     63  C   UNL A   1      38.617  33.394  34.629  1.00  0.00     0.049 A 
ATOM     64  H   UNL A   1      39.303  31.978  33.225  1.00  0.00     0.167 HD
ATOM     65  C   UNL A   1      40.531  32.294  35.761  1.00  0.00     0.074 A 
ATOM     66  C   UNL A   1      41.439  32.119  36.877  1.00  0.00     0.031 C 
ATOM     67  C   UNL A   1      39.526  33.202  35.729  1.00  0.00     0.037 A 
BRANCH  54  68
ATOM     68  C   UNL A   1      36.305  33.216  30.460  1.00  0.00     0.057 A 
ATOM     69  C   UNL A   1      36.590  34.089  29.402  1.00  0.00     0.134 A 
ATOM     70  C   UNL A   1      34.960  32.929  30.720  1.00  0.00     0.134 A 
ATOM     71  F   UNL A   1      37.859  34.415  29.116  1.00  0.00    -0.206 F 
ATOM     72  C   UNL A   1      35.574  34.677  28.648  1.00  0.00     0.040 A 
ATOM     73  C   UNL A   1      33.935  33.494  29.959  1.00  0.00     0.040 A 
ATOM     74  F   UNL A   1      34.620  32.100  31.718  1.00  0.00    -0.206 F 
ATOM     75  C   UNL A   1      34.242  34.375  28.924  1.00  0.00     0.006 A 
ENDBRANCH  54  68
BRANCH  55  76
ATOM     76  C   UNL A   1      43.865  29.005  35.410  1.00  0.00     0.057 A 
ATOM     77  C   UNL A   1      43.656  27.958  36.313  1.00  0.00     0.134 A 
ATOM     78  C   UNL A   1      45.180  29.445  35.219  1.00  0.00     0.134 A 
ATOM     79  F   UNL A   1      42.415  27.507  36.547  1.00  0.00    -0.206 F 
ATOM     80  C   UNL A   1      44.712  27.374  37.012  1.00  0.00     0.040 A 
ATOM     81  C   UNL A   1      46.249  28.859  35.899  1.00  0.00     0.040 A 
ATOM     82  F   UNL A   1      45.443  30.441  34.362  1.00  0.00    -0.206 F 
ATOM     83  C   UNL A   1      46.015  27.823  36.802  1.00  0.00     0.006 A 
ENDBRANCH  55  76
BRANCH  67  84
ATOM     84  C   UNL A   1      39.343  34.056  36.945  1.00  0.00     0.057 A 
ATOM     85  C   UNL A   1      38.679  33.581  38.082  1.00  0.00     0.134 A 
ATOM     86  C   UNL A   1      39.870  35.353  36.992  1.00  0.00     0.134 A 
ATOM     87  F   UNL A   1      38.141  32.352  38.091  1.00  0.00    -0.206 F 
ATOM     88  C   UNL A   1      38.531  34.373  39.221  1.00  0.00     0.040 A 
ATOM     89  C   UNL A   1      39.744  36.147  38.131  1.00  0.00     0.040 A 
ATOM     90  F   UNL A   1      40.521  35.862  35.935  1.00  0.00    -0.206 F 
ATOM     91  C   UNL A   1      39.069  35.659  39.249  1.00  0.00     0.006 A 
ENDBRANCH  67  84
ENDBRANCH  41  42
ENDBRANCH  33  36
ENDBRANCH  31  32
ENDBRANCH  30  31
ENDBRANCH   1  30
TORSDOF 14
ENDMDL
MODEL 3
REMARK VINA RESULT:     -13.0      2.265      6.652
REMARK SMILES Cn1cc(S(=O)(=O)N2CCC(C(=O)NCCCCNC(=O)c3ccc(-c4c5nc(c(-c6c(F)cccc6F)c6ccc([nH]6)c(-c6c(F)cccc6F)c6nc(c(-c7c(F)cccc7F)c7ccc4[nH]7)C=C6)C=C5)cc3)CC2)cc1C(=O)N1CCCCC1
REMARK SMILES IDX 16 1 15 2 14 3 12 4 13 5 11 7 8 8 9 9 77 10 10 11 76 12 5 13
REMARK SMILES IDX 6 14 7 15 4 16 1 17 2 18 3 19 79 20 78 21 80 22 81 23 82 24
REMARK SMILES IDX 83 25 87 26 84 27 86 28 85 29 17 30 18 31 19 32 20 33 21 35
REMARK SMILES IDX 22 36 23 37 75 38 24 39 74 40 25 41 26 42 27 43 68 44 28 45
REMARK SMILES IDX 73 46 67 47 69 48 29 49 72 50 66 51 65 52 30 54 56 55 39 56
REMARK SMILES IDX 55 57 40 58 43 59 54 60 70 61 41 62 42 63 53 65 71 66 44 67
REMARK SMILES IDX 31 68 32 69 37 70 33 71 34 72 36 73 38 74 35 75 57 76 58 77
REMARK SMILES IDX 63 78 59 79 60 80 62 81 64 82 61 83 45 84 46 85 51 86 47 87
REMARK SMILES IDX 48 88 50 89 52 90 49 91
REMARK H PARENT 14 6 19 34 69 53 43 64
REMARK Flexibility Score: inf
ROOT
ATOM      1  C   UNL A   1      33.939  33.408  28.902  1.00  0.00     0.023 C 
ENDROOT
BRANCH   1   2
ATOM      2  C   UNL A   1      33.649  32.245  27.959  1.00  0.00     0.116 C 
BRANCH   2   3
ATOM      3  N   UNL A   1      34.727  31.273  27.951  1.00  0.00    -0.356 N 
ATOM      4  C   UNL A   1      34.780  30.003  27.470  1.00  0.00     0.223 C 
ATOM      5  O   UNL A   1      35.835  29.380  27.612  1.00  0.00    -0.275 OA
ATOM      6  H   UNL A   1      35.562  31.587  28.365  1.00  0.00     0.163 HD
BRANCH   4   7
ATOM      7  C   UNL A   1      33.603  29.360  26.754  1.00  0.00     0.081 C 
ATOM      8  N   UNL A   1      32.100  27.049  25.949  1.00  0.00    -0.198 NA
ATOM      9  C   UNL A   1      32.860  27.796  24.915  1.00  0.00     0.103 C 
ATOM     10  C   UNL A   1      31.557  27.898  27.032  1.00  0.00     0.103 C 
ATOM     11  C   UNL A   1      34.035  28.517  25.553  1.00  0.00     0.030 C 
ATOM     12  C   UNL A   1      32.685  28.629  27.739  1.00  0.00     0.030 C 
BRANCH   8  13
ATOM     13  S   UNL A   1      31.039  25.850  25.353  1.00  0.00     0.244 S 
ATOM     14  O   UNL A   1      30.319  26.385  24.217  1.00  0.00    -0.207 OA
ATOM     15  O   UNL A   1      30.352  25.257  26.479  1.00  0.00    -0.207 OA
BRANCH  13  16
ATOM     16  C   UNL A   1      31.942  24.529  24.688  1.00  0.00     0.101 A 
ATOM     17  C   UNL A   1      32.147  21.480  22.771  1.00  0.00     0.150 C 
ATOM     18  N   UNL A   1      32.408  22.651  23.579  1.00  0.00    -0.345 N 
ATOM     19  C   UNL A   1      31.510  23.688  23.684  1.00  0.00     0.107 A 
ATOM     20  C   UNL A   1      33.447  22.835  24.472  1.00  0.00     0.108 A 
ATOM     21  C   UNL A   1      33.193  24.037  25.118  1.00  0.00     0.055 A 
BRANCH  20  22
ATOM     22  C   UNL A   1      34.480  21.894  24.877  1.00  0.00     0.270 C 
ATOM     23  O   UNL A   1      34.163  20.779  25.291  1.00  0.00    -0.267 OA
ATOM     24  N   UNL A   1      35.816  22.250  24.751  1.00  0.00    -0.337 N 
ATOM     25  C   UNL A   1      36.803  21.186  24.609  1.00  0.00     0.120 C 
ATOM     26  C   UNL A   1      36.335  23.611  24.865  1.00  0.00     0.120 C 
ATOM     27  C   UNL A   1      37.863  21.246  25.699  1.00  0.00     0.022 C 
ATOM     28  C   UNL A   1      37.413  23.702  25.948  1.00  0.00     0.022 C 
ATOM     29  C   UNL A   1      38.491  22.636  25.756  1.00  0.00     0.004 C 
ENDBRANCH  20  22
ENDBRANCH  13  16
ENDBRANCH   8  13
ENDBRANCH   4   7
ENDBRANCH   2   3
ENDBRANCH   1   2
BRANCH   1  30
ATOM     30  C   UNL A   1      33.146  34.682  28.609  1.00  0.00     0.023 C 
BRANCH  30  31
ATOM     31  C   UNL A   1      33.503  35.882  29.477  1.00  0.00     0.116 C 
BRANCH  31  32
ATOM     32  N   UNL A   1      32.515  36.169  30.506  1.00  0.00    -0.352 N 
ATOM     33  C   UNL A   1      32.539  35.823  31.835  1.00  0.00     0.251 C 
ATOM     34  H   UNL A   1      31.725  36.677  30.210  1.00  0.00     0.163 HD
ATOM     35  O   UNL A   1      31.581  36.066  32.561  1.00  0.00    -0.269 OA
BRANCH  33  36
ATOM     36  C   UNL A   1      33.716  35.114  32.372  1.00  0.00     0.039 A 
ATOM     37  C   UNL A   1      33.548  33.817  32.864  1.00  0.00     0.014 A 
ATOM     38  C   UNL A   1      34.980  35.708  32.346  1.00  0.00     0.014 A 
ATOM     39  C   UNL A   1      34.666  33.085  33.264  1.00  0.00     0.010 A 
ATOM     40  C   UNL A   1      36.098  34.957  32.689  1.00  0.00     0.010 A 
ATOM     41  C   UNL A   1      35.951  33.638  33.144  1.00  0.00    -0.014 A 
BRANCH  41  42
ATOM     42  C   UNL A   1      37.158  32.848  33.483  1.00  0.00     0.031 A 
ATOM     43  C   UNL A   1      37.892  33.112  34.764  1.00  0.00     0.074 A 
ATOM     44  C   UNL A   1      37.635  31.951  32.599  1.00  0.00     0.049 A 
ATOM     45  N   UNL A   1      39.012  32.592  35.197  1.00  0.00    -0.248 NA
ATOM     46  C   UNL A   1      37.306  34.117  35.666  1.00  0.00     0.031 C 
ATOM     47  C   UNL A   1      37.039  31.643  31.298  1.00  0.00     0.029 A 
ATOM     48  N   UNL A   1      38.740  31.142  32.660  1.00  0.00    -0.354 N 
ATOM     49  C   UNL A   1      39.276  33.222  36.405  1.00  0.00     0.074 A 
ATOM     50  C   UNL A   1      38.220  34.187  36.621  1.00  0.00     0.031 C 
ATOM     51  C   UNL A   1      37.775  30.698  30.692  1.00  0.00     0.029 A 
ATOM     52  C   UNL A   1      38.906  30.355  31.548  1.00  0.00     0.049 A 
ATOM     53  H   UNL A   1      39.356  31.126  33.429  1.00  0.00     0.167 HD
ATOM     54  C   UNL A   1      40.297  33.002  37.266  1.00  0.00     0.037 A 
ATOM     55  C   UNL A   1      39.866  29.459  31.252  1.00  0.00     0.037 A 
ATOM     56  C   UNL A   1      41.324  32.014  37.072  1.00  0.00     0.049 A 
ATOM     57  C   UNL A   1      40.972  29.210  32.238  1.00  0.00     0.074 A 
ATOM     58  C   UNL A   1      42.360  31.666  37.920  1.00  0.00     0.029 A 
ATOM     59  N   UNL A   1      41.439  31.211  35.947  1.00  0.00    -0.354 N 
ATOM     60  N   UNL A   1      41.178  29.771  33.403  1.00  0.00    -0.248 NA
ATOM     61  C   UNL A   1      41.973  28.200  31.867  1.00  0.00     0.031 C 
ATOM     62  C   UNL A   1      43.116  30.666  37.299  1.00  0.00     0.029 A 
ATOM     63  C   UNL A   1      42.535  30.375  36.075  1.00  0.00     0.049 A 
ATOM     64  H   UNL A   1      40.832  31.232  35.172  1.00  0.00     0.167 HD
ATOM     65  C   UNL A   1      42.320  29.171  33.916  1.00  0.00     0.074 A 
ATOM     66  C   UNL A   1      42.757  28.196  32.937  1.00  0.00     0.031 C 
ATOM     67  C   UNL A   1      42.950  29.408  35.092  1.00  0.00     0.037 A 
BRANCH  54  68
ATOM     68  C   UNL A   1      40.344  33.850  38.500  1.00  0.00     0.057 A 
ATOM     69  C   UNL A   1      39.617  33.517  39.650  1.00  0.00     0.134 A 
ATOM     70  C   UNL A   1      41.133  35.006  38.543  1.00  0.00     0.134 A 
ATOM     71  F   UNL A   1      38.830  32.431  39.664  1.00  0.00    -0.206 F 
ATOM     72  C   UNL A   1      39.650  34.319  40.791  1.00  0.00     0.040 A 
ATOM     73  C   UNL A   1      41.192  35.805  39.687  1.00  0.00     0.040 A 
ATOM     74  F   UNL A   1      41.854  35.380  37.476  1.00  0.00    -0.206 F 
ATOM     75  C   UNL A   1      40.444  35.464  40.812  1.00  0.00     0.006 A 
ENDBRANCH  54  68
BRANCH  55  76
ATOM     76  C   UNL A   1      39.803  28.705  29.978  1.00  0.00     0.057 A 
ATOM     77  C   UNL A   1      40.418  29.199  28.823  1.00  0.00     0.134 A 
ATOM     78  C   UNL A   1      39.141  27.476  29.887  1.00  0.00     0.134 A 
ATOM     79  F   UNL A   1      41.053  30.379  28.849  1.00  0.00    -0.206 F 
ATOM     80  C   UNL A   1      40.368  28.502  27.615  1.00  0.00     0.040 A 
ATOM     81  C   UNL A   1      39.096  26.761  28.689  1.00  0.00     0.040 A 
ATOM     82  F   UNL A   1      38.537  26.951  30.962  1.00  0.00    -0.206 F 
ATOM     83  C   UNL A   1      39.709  27.277  27.547  1.00  0.00     0.006 A 
ENDBRANCH  55  76
BRANCH  67  84
ATOM     84  C   UNL A   1      44.161  28.581  35.392  1.00  0.00     0.057 A 
ATOM     85  C   UNL A   1      44.065  27.352  36.055  1.00  0.00     0.134 A 
ATOM     86  C   UNL A   1      45.432  29.002  34.981  1.00  0.00     0.134 A 
ATOM     87  F   UNL A   1      42.876  26.903  36.485  1.00  0.00    -0.206 F 
ATOM     88  C   UNL A   1      45.195  26.575  36.312  1.00  0.00     0.040 A 
ATOM     89  C   UNL A   1      46.566  28.225  35.217  1.00  0.00     0.040 A 
ATOM     90  F   UNL A   1      45.588  30.169  34.338  1.00  0.00    -0.206 F 
ATOM     91  C   UNL A   1      46.449  27.009  35.888  1.00  0.00     0.006 A 
ENDBRANCH  67  84
ENDBRANCH  41  42
ENDBRANCH  33  36
ENDBRANCH  31  32
ENDBRANCH  30  31
ENDBRANCH   1  30
TORSDOF 14
ENDMDL
