MODEL 1
REMARK VINA RESULT:     -11.6      0.000      0.000
REMARK SMILES CC1(C)[C@H](C(=O)NCCCCNC(=O)c2ccc(-c3c4nc(c(-c5c(F)cccc5F)c5ccc([nH]5)c(-c5c(F)cccc5F)c5nc(c(-c6c(F)cccc6F)c6ccc3[nH]6)C=C5)C=C4)cc2)[C@@H]1c1nc2ccc(F)cc2s1
REMARK SMILES IDX 10 1 9 2 8 3 7 4 5 5 6 6 4 8 1 9 2 10 3 11 69 12 70 13 71 14
REMARK SMILES IDX 79 15 72 16 78 17 73 18 77 19 74 20 75 21 76 22 11 23 12 24
REMARK SMILES IDX 13 25 14 27 15 28 16 29 68 30 17 31 67 32 18 33 19 34 20 35
REMARK SMILES IDX 61 36 21 37 66 38 60 39 62 40 22 41 65 42 59 43 58 44 23 46
REMARK SMILES IDX 49 47 32 48 48 49 33 50 36 51 47 52 63 53 34 54 35 55 46 57
REMARK SMILES IDX 64 58 37 59 24 60 25 61 30 62 26 63 27 64 29 65 31 66 28 67
REMARK SMILES IDX 50 68 51 69 56 70 52 71 53 72 55 73 57 74 54 75 38 76 39 77
REMARK SMILES IDX 44 78 40 79 41 80 43 81 45 82 42 83
REMARK H PARENT 7 7 12 26 62 45 36 56
REMARK Flexibility Score: inf
ROOT
ATOM      1  C   UNL A   1      33.216  28.417  27.311  1.00  0.00     0.023 C 
ENDROOT
BRANCH   1   2
ATOM      2  C   UNL A   1      31.701  28.553  27.230  1.00  0.00     0.023 C 
BRANCH   2   3
ATOM      3  C   UNL A   1      30.998  27.455  26.439  1.00  0.00     0.116 C 
BRANCH   3   4
ATOM      4  N   UNL A   1      31.437  26.134  26.789  1.00  0.00    -0.356 N 
ATOM      5  C   UNL A   1      31.858  25.060  26.056  1.00  0.00     0.224 C 
ATOM      6  O   UNL A   1      32.170  24.070  26.723  1.00  0.00    -0.275 OA
ATOM      7  H   UNL A   1      31.436  25.966  27.760  1.00  0.00     0.163 HD
BRANCH   5   8
ATOM      8  C   UNL A   1      31.973  24.922  24.578  1.00  0.00     0.095 C 
ATOM      9  C   UNL A   1      31.946  26.268  22.381  1.00  0.00     0.013 C 
ATOM     10  C   UNL A   1      32.745  25.812  23.588  1.00  0.00    -0.013 C 
ATOM     11  C   UNL A   1      33.653  26.902  24.090  1.00  0.00     0.013 C 
ATOM     12  C   UNL A   1      33.024  24.320  23.700  1.00  0.00     0.068 C 
BRANCH  12  13
ATOM     13  C   UNL A   1      34.208  23.534  24.231  1.00  0.00     0.098 A 
ATOM     14  N   UNL A   1      35.156  24.189  24.862  1.00  0.00    -0.241 NA
ATOM     15  S   UNL A   1      34.363  21.828  24.251  1.00  0.00    -0.118 S 
ATOM     16  C   UNL A   1      36.191  23.331  25.178  1.00  0.00     0.082 A 
ATOM     17  C   UNL A   1      35.979  21.992  24.839  1.00  0.00     0.057 A 
ATOM     18  C   UNL A   1      37.417  23.703  25.767  1.00  0.00     0.033 A 
ATOM     19  C   UNL A   1      36.977  21.020  25.002  1.00  0.00     0.060 A 
ATOM     20  C   UNL A   1      38.417  22.742  25.943  1.00  0.00     0.041 A 
ATOM     21  C   UNL A   1      38.194  21.431  25.546  1.00  0.00     0.124 A 
ATOM     22  F   UNL A   1      39.178  20.534  25.692  1.00  0.00    -0.207 F 
ENDBRANCH  12  13
ENDBRANCH   5   8
ENDBRANCH   3   4
ENDBRANCH   2   3
ENDBRANCH   1   2
BRANCH   1  23
ATOM     23  C   UNL A   1      34.008  29.646  26.876  1.00  0.00     0.116 C 
BRANCH  23  24
ATOM     24  N   UNL A   1      34.037  30.714  27.867  1.00  0.00    -0.352 N 
ATOM     25  C   UNL A   1      35.031  31.031  28.770  1.00  0.00     0.251 C 
ATOM     26  H   UNL A   1      33.238  31.288  27.897  1.00  0.00     0.163 HD
ATOM     27  O   UNL A   1      34.875  31.921  29.587  1.00  0.00    -0.269 OA
BRANCH  25  28
ATOM     28  C   UNL A   1      36.271  30.227  28.760  1.00  0.00     0.039 A 
ATOM     29  C   UNL A   1      37.083  30.259  27.625  1.00  0.00     0.014 A 
ATOM     30  C   UNL A   1      36.674  29.546  29.911  1.00  0.00     0.014 A 
ATOM     31  C   UNL A   1      38.362  29.704  27.685  1.00  0.00     0.010 A 
ATOM     32  C   UNL A   1      37.973  29.055  29.990  1.00  0.00     0.010 A 
ATOM     33  C   UNL A   1      38.838  29.159  28.889  1.00  0.00    -0.014 A 
BRANCH  33  34
ATOM     34  C   UNL A   1      40.254  28.750  29.052  1.00  0.00     0.031 A 
ATOM     35  C   UNL A   1      41.274  29.736  29.536  1.00  0.00     0.074 A 
ATOM     36  C   UNL A   1      40.637  27.520  28.652  1.00  0.00     0.049 A 
ATOM     37  N   UNL A   1      42.575  29.616  29.600  1.00  0.00    -0.248 NA
ATOM     38  C   UNL A   1      40.765  31.045  29.979  1.00  0.00     0.031 C 
ATOM     39  C   UNL A   1      39.750  26.485  28.119  1.00  0.00     0.029 A 
ATOM     40  N   UNL A   1      41.882  26.943  28.611  1.00  0.00    -0.354 N 
ATOM     41  C   UNL A   1      43.043  30.835  30.068  1.00  0.00     0.074 A 
ATOM     42  C   UNL A   1      41.890  31.695  30.236  1.00  0.00     0.031 C 
ATOM     43  C   UNL A   1      40.475  25.396  27.817  1.00  0.00     0.029 A 
ATOM     44  C   UNL A   1      41.881  25.670  28.094  1.00  0.00     0.049 A 
ATOM     45  H   UNL A   1      42.698  27.397  28.923  1.00  0.00     0.167 HD
ATOM     46  C   UNL A   1      44.316  31.199  30.347  1.00  0.00     0.037 A 
ATOM     47  C   UNL A   1      42.900  24.824  27.851  1.00  0.00     0.037 A 
ATOM     48  C   UNL A   1      45.456  30.333  30.212  1.00  0.00     0.049 A 
ATOM     49  C   UNL A   1      44.306  25.259  28.155  1.00  0.00     0.074 A 
ATOM     50  C   UNL A   1      46.774  30.582  30.554  1.00  0.00     0.029 A 
ATOM     51  N   UNL A   1      45.413  29.050  29.688  1.00  0.00    -0.354 N 
ATOM     52  N   UNL A   1      44.728  26.394  28.654  1.00  0.00    -0.248 NA
ATOM     53  C   UNL A   1      45.376  24.298  27.851  1.00  0.00     0.031 C 
ATOM     54  C   UNL A   1      47.535  29.461  30.206  1.00  0.00     0.029 A 
ATOM     55  C   UNL A   1      46.685  28.503  29.674  1.00  0.00     0.049 A 
ATOM     56  H   UNL A   1      44.599  28.595  29.374  1.00  0.00     0.167 HD
ATOM     57  C   UNL A   1      46.109  26.282  28.737  1.00  0.00     0.074 A 
ATOM     58  C   UNL A   1      46.453  24.962  28.249  1.00  0.00     0.031 C 
ATOM     59  C   UNL A   1      47.010  27.192  29.179  1.00  0.00     0.037 A 
BRANCH  46  60
ATOM     60  C   UNL A   1      44.537  32.597  30.835  1.00  0.00     0.057 A 
ATOM     61  C   UNL A   1      44.788  33.653  29.950  1.00  0.00     0.134 A 
ATOM     62  C   UNL A   1      44.478  32.896  32.202  1.00  0.00     0.134 A 
ATOM     63  F   UNL A   1      44.870  33.428  28.630  1.00  0.00    -0.206 F 
ATOM     64  C   UNL A   1      44.994  34.955  30.409  1.00  0.00     0.040 A 
ATOM     65  C   UNL A   1      44.662  34.197  32.671  1.00  0.00     0.040 A 
ATOM     66  F   UNL A   1      44.240  31.929  33.101  1.00  0.00    -0.206 F 
ATOM     67  C   UNL A   1      44.926  35.230  31.773  1.00  0.00     0.006 A 
ENDBRANCH  46  60
BRANCH  47  68
ATOM     68  C   UNL A   1      42.629  23.478  27.295  1.00  0.00     0.057 A 
ATOM     69  C   UNL A   1      42.692  23.246  25.917  1.00  0.00     0.134 A 
ATOM     70  C   UNL A   1      42.304  22.395  28.120  1.00  0.00     0.134 A 
ATOM     71  F   UNL A   1      42.981  24.251  25.077  1.00  0.00    -0.206 F 
ATOM     72  C   UNL A   1      42.434  21.986  25.376  1.00  0.00     0.040 A 
ATOM     73  C   UNL A   1      42.059  21.125  27.594  1.00  0.00     0.040 A 
ATOM     74  F   UNL A   1      42.231  22.555  29.450  1.00  0.00    -0.206 F 
ATOM     75  C   UNL A   1      42.120  20.920  26.217  1.00  0.00     0.006 A 
ENDBRANCH  47  68
BRANCH  59  76
ATOM     76  C   UNL A   1      48.452  26.788  29.162  1.00  0.00     0.057 A 
ATOM     77  C   UNL A   1      49.011  26.032  30.200  1.00  0.00     0.134 A 
ATOM     78  C   UNL A   1      49.276  27.115  28.078  1.00  0.00     0.134 A 
ATOM     79  F   UNL A   1      48.276  25.701  31.271  1.00  0.00    -0.206 F 
ATOM     80  C   UNL A   1      50.345  25.625  30.165  1.00  0.00     0.040 A 
ATOM     81  C   UNL A   1      50.605  26.698  28.023  1.00  0.00     0.040 A 
ATOM     82  F   UNL A   1      48.795  27.834  27.052  1.00  0.00    -0.206 F 
ATOM     83  C   UNL A   1      51.145  25.951  29.070  1.00  0.00     0.006 A 
ENDBRANCH  59  76
ENDBRANCH  33  34
ENDBRANCH  25  28
ENDBRANCH  23  24
ENDBRANCH   1  23
TORSDOF 12
ENDMDL
MODEL 2
REMARK VINA RESULT:     -11.3      2.497      7.227
REMARK SMILES CC1(C)[C@H](C(=O)NCCCCNC(=O)c2ccc(-c3c4nc(c(-c5c(F)cccc5F)c5ccc([nH]5)c(-c5c(F)cccc5F)c5nc(c(-c6c(F)cccc6F)c6ccc3[nH]6)C=C5)C=C4)cc2)[C@@H]1c1nc2ccc(F)cc2s1
REMARK SMILES IDX 10 1 9 2 8 3 7 4 5 5 6 6 4 8 1 9 2 10 3 11 69 12 70 13 71 14
REMARK SMILES IDX 79 15 72 16 78 17 73 18 77 19 74 20 75 21 76 22 11 23 12 24
REMARK SMILES IDX 13 25 14 27 15 28 16 29 68 30 17 31 67 32 18 33 19 34 20 35
REMARK SMILES IDX 61 36 21 37 66 38 60 39 62 40 22 41 65 42 59 43 58 44 23 46
REMARK SMILES IDX 49 47 32 48 48 49 33 50 36 51 47 52 63 53 34 54 35 55 46 57
REMARK SMILES IDX 64 58 37 59 24 60 25 61 30 62 26 63 27 64 29 65 31 66 28 67
REMARK SMILES IDX 50 68 51 69 56 70 52 71 53 72 55 73 57 74 54 75 38 76 39 77
REMARK SMILES IDX 44 78 40 79 41 80 43 81 45 82 42 83
REMARK H PARENT 7 7 12 26 62 45 36 56
REMARK Flexibility Score: inf
ROOT
ATOM      1  C   UNL A   1      37.349  21.540  24.733  1.00  0.00     0.023 C 
ENDROOT
BRANCH   1   2
ATOM      2  C   UNL A   1      37.006  22.937  24.231  1.00  0.00     0.023 C 
BRANCH   2   3
ATOM      3  C   UNL A   1      35.859  23.620  24.968  1.00  0.00     0.116 C 
BRANCH   3   4
ATOM      4  N   UNL A   1      35.021  24.407  24.108  1.00  0.00    -0.356 N 
ATOM      5  C   UNL A   1      33.705  24.771  24.157  1.00  0.00     0.224 C 
ATOM      6  O   UNL A   1      33.328  25.477  23.218  1.00  0.00    -0.275 OA
ATOM      7  H   UNL A   1      35.492  24.757  23.317  1.00  0.00     0.163 HD
BRANCH   5   8
ATOM      8  C   UNL A   1      32.673  24.421  25.173  1.00  0.00     0.095 C 
ATOM      9  C   UNL A   1      30.267  24.957  25.926  1.00  0.00     0.013 C 
ATOM     10  C   UNL A   1      31.165  24.192  24.969  1.00  0.00    -0.013 C 
ATOM     11  C   UNL A   1      30.580  24.147  23.584  1.00  0.00     0.013 C 
ATOM     12  C   UNL A   1      32.057  23.120  25.579  1.00  0.00     0.068 C 
BRANCH  12  13
ATOM     13  C   UNL A   1      32.537  21.774  25.070  1.00  0.00     0.098 A 
ATOM     14  N   UNL A   1      32.094  21.355  23.906  1.00  0.00    -0.241 NA
ATOM     15  S   UNL A   1      33.751  20.798  25.782  1.00  0.00    -0.118 S 
ATOM     16  C   UNL A   1      32.553  20.076  23.661  1.00  0.00     0.082 A 
ATOM     17  C   UNL A   1      33.415  19.556  24.630  1.00  0.00     0.057 A 
ATOM     18  C   UNL A   1      32.199  19.273  22.556  1.00  0.00     0.033 A 
ATOM     19  C   UNL A   1      33.882  18.234  24.573  1.00  0.00     0.060 A 
ATOM     20  C   UNL A   1      32.664  17.957  22.484  1.00  0.00     0.041 A 
ATOM     21  C   UNL A   1      33.476  17.453  23.490  1.00  0.00     0.124 A 
ATOM     22  F   UNL A   1      33.882  16.179  23.418  1.00  0.00    -0.207 F 
ENDBRANCH  12  13
ENDBRANCH   5   8
ENDBRANCH   3   4
ENDBRANCH   2   3
ENDBRANCH   1   2
BRANCH   1  23
ATOM     23  C   UNL A   1      38.535  21.460  25.690  1.00  0.00     0.116 C 
BRANCH  23  24
ATOM     24  N   UNL A   1      39.291  20.218  25.595  1.00  0.00    -0.352 N 
ATOM     25  C   UNL A   1      40.596  19.968  25.965  1.00  0.00     0.251 C 
ATOM     26  H   UNL A   1      38.804  19.452  25.213  1.00  0.00     0.163 HD
ATOM     27  O   UNL A   1      41.111  18.884  25.757  1.00  0.00    -0.269 OA
BRANCH  25  28
ATOM     28  C   UNL A   1      41.377  21.067  26.571  1.00  0.00     0.039 A 
ATOM     29  C   UNL A   1      41.987  22.001  25.731  1.00  0.00     0.014 A 
ATOM     30  C   UNL A   1      41.400  21.229  27.958  1.00  0.00     0.014 A 
ATOM     31  C   UNL A   1      42.521  23.167  26.280  1.00  0.00     0.010 A 
ATOM     32  C   UNL A   1      41.871  22.422  28.495  1.00  0.00     0.010 A 
ATOM     33  C   UNL A   1      42.406  23.414  27.658  1.00  0.00    -0.014 A 
BRANCH  33  34
ATOM     34  C   UNL A   1      42.772  24.725  28.247  1.00  0.00     0.031 A 
ATOM     35  C   UNL A   1      41.725  25.777  28.456  1.00  0.00     0.074 A 
ATOM     36  C   UNL A   1      44.070  25.003  28.485  1.00  0.00     0.049 A 
ATOM     37  N   UNL A   1      41.870  27.027  28.814  1.00  0.00    -0.248 NA
ATOM     38  C   UNL A   1      40.331  25.379  28.200  1.00  0.00     0.031 C 
ATOM     39  C   UNL A   1      45.189  24.082  28.278  1.00  0.00     0.029 A 
ATOM     40  N   UNL A   1      44.668  26.155  28.931  1.00  0.00    -0.354 N 
ATOM     41  C   UNL A   1      40.594  27.571  28.805  1.00  0.00     0.074 A 
ATOM     42  C   UNL A   1      39.690  26.526  28.370  1.00  0.00     0.031 C 
ATOM     43  C   UNL A   1      46.334  24.699  28.608  1.00  0.00     0.029 A 
ATOM     44  C   UNL A   1      46.037  26.070  29.009  1.00  0.00     0.049 A 
ATOM     45  H   UNL A   1      44.164  26.966  29.173  1.00  0.00     0.167 HD
ATOM     46  C   UNL A   1      40.207  28.823  29.144  1.00  0.00     0.037 A 
ATOM     47  C   UNL A   1      46.953  26.998  29.346  1.00  0.00     0.037 A 
ATOM     48  C   UNL A   1      41.101  29.850  29.608  1.00  0.00     0.049 A 
ATOM     49  C   UNL A   1      46.500  28.384  29.702  1.00  0.00     0.074 A 
ATOM     50  C   UNL A   1      40.793  31.121  30.059  1.00  0.00     0.029 A 
ATOM     51  N   UNL A   1      42.480  29.723  29.676  1.00  0.00    -0.354 N 
ATOM     52  N   UNL A   1      45.283  28.868  29.748  1.00  0.00    -0.248 NA
ATOM     53  C   UNL A   1      47.548  29.357  30.044  1.00  0.00     0.031 C 
ATOM     54  C   UNL A   1      41.989  31.776  30.370  1.00  0.00     0.029 A 
ATOM     55  C   UNL A   1      43.040  30.902  30.139  1.00  0.00     0.049 A 
ATOM     56  H   UNL A   1      42.986  28.914  29.433  1.00  0.00     0.167 HD
ATOM     57  C   UNL A   1      45.416  30.194  30.133  1.00  0.00     0.074 A 
ATOM     58  C   UNL A   1      46.831  30.437  30.323  1.00  0.00     0.031 C 
ATOM     59  C   UNL A   1      44.451  31.127  30.315  1.00  0.00     0.037 A 
BRANCH  46  60
ATOM     60  C   UNL A   1      38.750  29.145  29.030  1.00  0.00     0.057 A 
ATOM     61  C   UNL A   1      37.892  29.070  30.134  1.00  0.00     0.134 A 
ATOM     62  C   UNL A   1      38.201  29.556  27.809  1.00  0.00     0.134 A 
ATOM     63  F   UNL A   1      38.355  28.670  31.328  1.00  0.00    -0.206 F 
ATOM     64  C   UNL A   1      36.534  29.371  30.024  1.00  0.00     0.040 A 
ATOM     65  C   UNL A   1      36.849  29.879  27.690  1.00  0.00     0.040 A 
ATOM     66  F   UNL A   1      38.970  29.649  26.713  1.00  0.00    -0.206 F 
ATOM     67  C   UNL A   1      36.010  29.782  28.799  1.00  0.00     0.006 A 
ENDBRANCH  46  60
BRANCH  47  68
ATOM     68  C   UNL A   1      48.392  26.643  29.368  1.00  0.00     0.057 A 
ATOM     69  C   UNL A   1      49.208  26.895  28.261  1.00  0.00     0.134 A 
ATOM     70  C   UNL A   1      48.984  26.050  30.490  1.00  0.00     0.134 A 
ATOM     71  F   UNL A   1      48.691  27.444  27.152  1.00  0.00    -0.206 F 
ATOM     72  C   UNL A   1      50.564  26.563  28.263  1.00  0.00     0.040 A 
ATOM     73  C   UNL A   1      50.342  25.728  30.511  1.00  0.00     0.040 A 
ATOM     74  F   UNL A   1      48.252  25.788  31.582  1.00  0.00    -0.206 F 
ATOM     75  C   UNL A   1      51.135  25.981  29.393  1.00  0.00     0.006 A 
ENDBRANCH  47  68
BRANCH  59  76
ATOM     76  C   UNL A   1      44.892  32.491  30.747  1.00  0.00     0.057 A 
ATOM     77  C   UNL A   1      45.134  33.509  29.816  1.00  0.00     0.134 A 
ATOM     78  C   UNL A   1      45.030  32.804  32.104  1.00  0.00     0.134 A 
ATOM     79  F   UNL A   1      45.033  33.266  28.501  1.00  0.00    -0.206 F 
ATOM     80  C   UNL A   1      45.510  34.790  30.222  1.00  0.00     0.040 A 
ATOM     81  C   UNL A   1      45.387  34.085  32.523  1.00  0.00     0.040 A 
ATOM     82  F   UNL A   1      44.807  31.871  33.043  1.00  0.00    -0.206 F 
ATOM     83  C   UNL A   1      45.629  35.084  31.581  1.00  0.00     0.006 A 
ENDBRANCH  59  76
ENDBRANCH  33  34
ENDBRANCH  25  28
ENDBRANCH  23  24
ENDBRANCH   1  23
TORSDOF 12
ENDMDL
MODEL 3
REMARK VINA RESULT:     -11.3      3.791      7.265
REMARK SMILES CC1(C)[C@H](C(=O)NCCCCNC(=O)c2ccc(-c3c4nc(c(-c5c(F)cccc5F)c5ccc([nH]5)c(-c5c(F)cccc5F)c5nc(c(-c6c(F)cccc6F)c6ccc3[nH]6)C=C5)C=C4)cc2)[C@@H]1c1nc2ccc(F)cc2s1
REMARK SMILES IDX 10 1 9 2 8 3 7 4 5 5 6 6 4 8 1 9 2 10 3 11 69 12 70 13 71 14
REMARK SMILES IDX 79 15 72 16 78 17 73 18 77 19 74 20 75 21 76 22 11 23 12 24
REMARK SMILES IDX 13 25 14 27 15 28 16 29 68 30 17 31 67 32 18 33 19 34 20 35
REMARK SMILES IDX 61 36 21 37 66 38 60 39 62 40 22 41 65 42 59 43 58 44 23 46
REMARK SMILES IDX 49 47 32 48 48 49 33 50 36 51 47 52 63 53 34 54 35 55 46 57
REMARK SMILES IDX 64 58 37 59 24 60 25 61 30 62 26 63 27 64 29 65 31 66 28 67
REMARK SMILES IDX 50 68 51 69 56 70 52 71 53 72 55 73 57 74 54 75 38 76 39 77
REMARK SMILES IDX 44 78 40 79 41 80 43 81 45 82 42 83
REMARK H PARENT 7 7 12 26 62 45 36 56
REMARK Flexibility Score: inf
ROOT
ATOM      1  C   UNL A   1      31.241  30.451  25.368  1.00  0.00     0.023 C 
ENDROOT
BRANCH   1   2
ATOM      2  C   UNL A   1      31.695  29.265  24.525  1.00  0.00     0.023 C 
BRANCH   2   3
ATOM      3  C   UNL A   1      33.203  29.049  24.479  1.00  0.00     0.116 C 
BRANCH   3   4
ATOM      4  N   UNL A   1      33.578  27.793  23.894  1.00  0.00    -0.356 N 
ATOM      5  C   UNL A   1      33.290  26.492  24.200  1.00  0.00     0.224 C 
ATOM      6  O   UNL A   1      33.800  25.659  23.447  1.00  0.00    -0.275 OA
ATOM      7  H   UNL A   1      34.165  27.887  23.109  1.00  0.00     0.163 HD
BRANCH   5   8
ATOM      8  C   UNL A   1      32.465  25.952  25.317  1.00  0.00     0.095 C 
ATOM      9  C   UNL A   1      30.038  25.446  26.019  1.00  0.00     0.013 C 
ATOM     10  C   UNL A   1      31.264  24.994  25.245  1.00  0.00    -0.013 C 
ATOM     11  C   UNL A   1      30.882  24.343  23.943  1.00  0.00     0.013 C 
ATOM     12  C   UNL A   1      32.503  24.657  26.063  1.00  0.00     0.068 C 
BRANCH  12  13
ATOM     13  C   UNL A   1      33.597  23.622  25.887  1.00  0.00     0.098 A 
ATOM     14  N   UNL A   1      34.842  23.992  26.089  1.00  0.00    -0.241 NA
ATOM     15  S   UNL A   1      33.371  21.945  25.617  1.00  0.00    -0.118 S 
ATOM     16  C   UNL A   1      35.698  22.953  25.783  1.00  0.00     0.082 A 
ATOM     17  C   UNL A   1      35.075  21.758  25.413  1.00  0.00     0.057 A 
ATOM     18  C   UNL A   1      37.107  23.020  25.786  1.00  0.00     0.033 A 
ATOM     19  C   UNL A   1      35.810  20.646  24.975  1.00  0.00     0.060 A 
ATOM     20  C   UNL A   1      37.850  21.917  25.359  1.00  0.00     0.041 A 
ATOM     21  C   UNL A   1      37.200  20.762  24.947  1.00  0.00     0.124 A 
ATOM     22  F   UNL A   1      37.931  19.728  24.510  1.00  0.00    -0.207 F 
ENDBRANCH  12  13
ENDBRANCH   5   8
ENDBRANCH   3   4
ENDBRANCH   2   3
ENDBRANCH   1   2
BRANCH   1  23
ATOM     23  C   UNL A   1      32.172  30.835  26.514  1.00  0.00     0.116 C 
BRANCH  23  24
ATOM     24  N   UNL A   1      32.030  32.217  26.955  1.00  0.00    -0.352 N 
ATOM     25  C   UNL A   1      32.934  33.007  27.635  1.00  0.00     0.251 C 
ATOM     26  H   UNL A   1      31.170  32.646  26.739  1.00  0.00     0.163 HD
ATOM     27  O   UNL A   1      32.638  34.132  27.995  1.00  0.00    -0.269 OA
BRANCH  25  28
ATOM     28  C   UNL A   1      34.256  32.435  27.965  1.00  0.00     0.039 A 
ATOM     29  C   UNL A   1      35.367  33.281  27.995  1.00  0.00     0.014 A 
ATOM     30  C   UNL A   1      34.364  31.097  28.354  1.00  0.00     0.014 A 
ATOM     31  C   UNL A   1      36.566  32.814  28.533  1.00  0.00     0.010 A 
ATOM     32  C   UNL A   1      35.540  30.656  28.951  1.00  0.00     0.010 A 
ATOM     33  C   UNL A   1      36.640  31.520  29.074  1.00  0.00    -0.014 A 
BRANCH  33  34
ATOM     34  C   UNL A   1      37.827  31.061  29.835  1.00  0.00     0.031 A 
ATOM     35  C   UNL A   1      38.782  30.081  29.224  1.00  0.00     0.074 A 
ATOM     36  C   UNL A   1      37.977  31.443  31.120  1.00  0.00     0.049 A 
ATOM     37  N   UNL A   1      39.786  29.451  29.778  1.00  0.00    -0.248 NA
ATOM     38  C   UNL A   1      38.562  29.742  27.809  1.00  0.00     0.031 C 
ATOM     39  C   UNL A   1      37.089  32.354  31.845  1.00  0.00     0.029 A 
ATOM     40  N   UNL A   1      38.921  31.089  32.051  1.00  0.00    -0.354 N 
ATOM     41  C   UNL A   1      40.303  28.626  28.789  1.00  0.00     0.074 A 
ATOM     42  C   UNL A   1      39.480  28.807  27.612  1.00  0.00     0.031 C 
ATOM     43  C   UNL A   1      37.538  32.498  33.102  1.00  0.00     0.029 A 
ATOM     44  C   UNL A   1      38.716  31.658  33.286  1.00  0.00     0.049 A 
ATOM     45  H   UNL A   1      39.673  30.485  31.855  1.00  0.00     0.167 HD
ATOM     46  C   UNL A   1      41.376  27.803  28.853  1.00  0.00     0.037 A 
ATOM     47  C   UNL A   1      39.391  31.505  34.441  1.00  0.00     0.037 A 
ATOM     48  C   UNL A   1      42.213  27.649  30.012  1.00  0.00     0.049 A 
ATOM     49  C   UNL A   1      40.568  30.574  34.489  1.00  0.00     0.074 A 
ATOM     50  C   UNL A   1      43.374  26.908  30.145  1.00  0.00     0.029 A 
ATOM     51  N   UNL A   1      41.975  28.246  31.241  1.00  0.00    -0.354 N 
ATOM     52  N   UNL A   1      41.083  29.845  33.530  1.00  0.00    -0.248 NA
ATOM     53  C   UNL A   1      41.252  30.437  35.783  1.00  0.00     0.031 C 
ATOM     54  C   UNL A   1      43.822  27.029  31.465  1.00  0.00     0.029 A 
ATOM     55  C   UNL A   1      42.954  27.869  32.145  1.00  0.00     0.049 A 
ATOM     56  H   UNL A   1      41.223  28.848  31.440  1.00  0.00     0.167 HD
ATOM     57  C   UNL A   1      42.156  29.173  34.097  1.00  0.00     0.074 A 
ATOM     58  C   UNL A   1      42.227  29.590  35.482  1.00  0.00     0.031 C 
ATOM     59  C   UNL A   1      43.005  28.289  33.521  1.00  0.00     0.037 A 
BRANCH  46  60
ATOM     60  C   UNL A   1      41.707  27.012  27.625  1.00  0.00     0.057 A 
ATOM     61  C   UNL A   1      41.211  25.717  27.430  1.00  0.00     0.134 A 
ATOM     62  C   UNL A   1      42.510  27.558  26.617  1.00  0.00     0.134 A 
ATOM     63  F   UNL A   1      40.447  25.134  28.366  1.00  0.00    -0.206 F 
ATOM     64  C   UNL A   1      41.521  24.983  26.285  1.00  0.00     0.040 A 
ATOM     65  C   UNL A   1      42.811  26.842  25.458  1.00  0.00     0.040 A 
ATOM     66  F   UNL A   1      43.015  28.795  26.743  1.00  0.00    -0.206 F 
ATOM     67  C   UNL A   1      42.320  25.548  25.292  1.00  0.00     0.006 A 
ENDBRANCH  46  60
BRANCH  47  68
ATOM     68  C   UNL A   1      38.971  32.256  35.647  1.00  0.00     0.057 A 
ATOM     69  C   UNL A   1      39.355  33.588  35.832  1.00  0.00     0.134 A 
ATOM     70  C   UNL A   1      38.179  31.666  36.640  1.00  0.00     0.134 A 
ATOM     71  F   UNL A   1      40.130  34.198  34.923  1.00  0.00    -0.206 F 
ATOM     72  C   UNL A   1      38.974  34.308  36.965  1.00  0.00     0.040 A 
ATOM     73  C   UNL A   1      37.777  32.379  37.770  1.00  0.00     0.040 A 
ATOM     74  F   UNL A   1      37.778  30.393  36.517  1.00  0.00    -0.206 F 
ATOM     75  C   UNL A   1      38.178  33.704  37.937  1.00  0.00     0.006 A 
ENDBRANCH  47  68
BRANCH  59  76
ATOM     76  C   UNL A   1      44.089  27.721  34.385  1.00  0.00     0.057 A 
ATOM     77  C   UNL A   1      43.912  26.520  35.083  1.00  0.00     0.134 A 
ATOM     78  C   UNL A   1      45.334  28.354  34.483  1.00  0.00     0.134 A 
ATOM     79  F   UNL A   1      42.737  25.877  35.041  1.00  0.00    -0.206 F 
ATOM     80  C   UNL A   1      44.935  25.974  35.858  1.00  0.00     0.040 A 
ATOM     81  C   UNL A   1      46.370  27.808  35.239  1.00  0.00     0.040 A 
ATOM     82  F   UNL A   1      45.564  29.505  33.832  1.00  0.00    -0.206 F 
ATOM     83  C   UNL A   1      46.172  26.614  35.931  1.00  0.00     0.006 A 
ENDBRANCH  59  76
ENDBRANCH  33  34
ENDBRANCH  25  28
ENDBRANCH  23  24
ENDBRANCH   1  23
TORSDOF 12
ENDMDL
