MODEL 1
REMARK VINA RESULT:     -11.9      0.000      0.000
REMARK SMILES CCOc1cc(C[NH+]2CCC3(CC2)[C@H](C(=O)NCCCCNC(=O)c2ccc(-c4c5nc(c(-c6c(F)cccc6F)c6ccc([nH]6)c(-c6c(F)cccc6F)c6nc(c(-c7c(F)cccc7F)c7ccc4[nH]7)C=C6)C=C5)cc2)CC(=O)N3C)ccc1OC
REMARK SMILES IDX 18 1 17 2 15 3 16 4 14 6 8 7 9 8 13 9 10 11 12 12 11 13
REMARK SMILES IDX 82 14 79 15 80 16 83 17 81 18 7 19 6 20 4 21 5 22 86 23
REMARK SMILES IDX 85 24 84 25 3 26 2 27 1 28 87 29 88 30 19 31 20 32 21 33
REMARK SMILES IDX 22 34 23 35 24 37 25 38 26 39 78 40 27 41 77 42 28 43 29 44
REMARK SMILES IDX 30 45 71 46 31 47 76 48 70 49 72 50 32 51 75 52 69 53 68 54
REMARK SMILES IDX 33 56 59 57 42 58 58 59 43 60 46 61 57 62 73 63 44 64 45 65
REMARK SMILES IDX 56 67 74 68 47 69 34 70 35 71 40 72 36 73 37 74 39 75 41 76
REMARK SMILES IDX 38 77 60 78 61 79 66 80 62 81 63 82 65 83 67 84 64 85 48 86
REMARK SMILES IDX 49 87 54 88 50 89 51 90 53 91 55 92 52 93
REMARK H PARENT 17 5 8 10 22 36 72 55 46 66
REMARK Flexibility Score: inf
ROOT
ATOM      1  C   UNL A   1      34.407  28.747  26.939  1.00  0.00     0.116 C 
ENDROOT
BRANCH   1   2
ATOM      2  N   UNL A   1      33.092  28.204  27.172  1.00  0.00    -0.356 N 
ATOM      3  C   UNL A   1      32.058  27.932  26.345  1.00  0.00     0.226 C 
ATOM      4  O   UNL A   1      31.088  27.389  26.883  1.00  0.00    -0.275 OA
ATOM      5  H   UNL A   1      32.913  27.988  28.115  1.00  0.00     0.163 HD
BRANCH   3   6
ATOM      6  C   UNL A   1      32.024  28.252  24.841  1.00  0.00     0.114 C 
ATOM      7  N   UNL A   1      31.503  24.803  22.422  1.00  0.00    -0.331 N 
ATOM      8  C   UNL A   1      30.697  24.813  23.629  1.00  0.00     0.265 C 
ATOM      9  C   UNL A   1      31.357  26.044  21.683  1.00  0.00     0.265 C 
ATOM     10  H   UNL A   1      31.098  24.084  21.823  1.00  0.00     0.348 HD
ATOM     11  C   UNL A   1      31.030  25.973  24.543  1.00  0.00     0.091 C 
ATOM     12  C   UNL A   1      31.659  27.331  22.460  1.00  0.00     0.091 C 
ATOM     13  C   UNL A   1      31.121  27.382  23.914  1.00  0.00     0.065 C 
ATOM     14  N   UNL A   1      29.921  28.227  23.850  1.00  0.00    -0.339 N 
ATOM     15  C   UNL A   1      31.646  29.694  24.561  1.00  0.00     0.116 C 
ATOM     16  C   UNL A   1      30.252  29.585  24.007  1.00  0.00     0.223 C 
ATOM     17  C   UNL A   1      28.716  27.888  23.126  1.00  0.00     0.147 C 
ATOM     18  O   UNL A   1      29.538  30.540  23.744  1.00  0.00    -0.275 OA
BRANCH   7  19
ATOM     19  C   UNL A   1      32.844  24.196  22.498  1.00  0.00     0.299 C 
BRANCH  19  20
ATOM     20  C   UNL A   1      32.969  22.780  23.038  1.00  0.00     0.010 A 
ATOM     21  C   UNL A   1      33.648  21.249  24.819  1.00  0.00     0.161 A 
ATOM     22  C   UNL A   1      33.799  22.463  24.136  1.00  0.00     0.060 A 
ATOM     23  C   UNL A   1      32.807  20.265  24.277  1.00  0.00     0.160 A 
ATOM     24  C   UNL A   1      32.153  20.495  23.066  1.00  0.00     0.051 A 
ATOM     25  C   UNL A   1      32.203  21.754  22.468  1.00  0.00     0.013 A 
BRANCH  21  26
ATOM     26  O   UNL A   1      34.201  20.931  26.015  1.00  0.00    -0.490 OA
BRANCH  26  27
ATOM     27  C   UNL A   1      34.605  21.843  27.020  1.00  0.00     0.226 C 
ATOM     28  C   UNL A   1      33.316  22.203  27.758  1.00  0.00     0.049 C 
ENDBRANCH  26  27
ENDBRANCH  21  26
BRANCH  23  29
ATOM     29  O   UNL A   1      32.561  19.026  24.823  1.00  0.00    -0.493 OA
ATOM     30  C   UNL A   1      33.241  17.923  24.225  1.00  0.00     0.278 C 
ENDBRANCH  23  29
ENDBRANCH  19  20
ENDBRANCH   7  19
ENDBRANCH   3   6
ENDBRANCH   1   2
BRANCH   1  31
ATOM     31  C   UNL A   1      34.630  30.093  27.626  1.00  0.00     0.023 C 
BRANCH  31  32
ATOM     32  C   UNL A   1      33.954  31.248  26.904  1.00  0.00     0.023 C 
BRANCH  32  33
ATOM     33  C   UNL A   1      32.707  31.719  27.626  1.00  0.00     0.116 C 
BRANCH  33  34
ATOM     34  N   UNL A   1      32.591  33.179  27.608  1.00  0.00    -0.352 N 
ATOM     35  C   UNL A   1      33.277  34.092  28.353  1.00  0.00     0.251 C 
ATOM     36  H   UNL A   1      31.933  33.548  26.976  1.00  0.00     0.163 HD
ATOM     37  O   UNL A   1      32.926  35.263  28.422  1.00  0.00    -0.269 OA
BRANCH  35  38
ATOM     38  C   UNL A   1      34.450  33.602  29.078  1.00  0.00     0.039 A 
ATOM     39  C   UNL A   1      34.273  32.743  30.157  1.00  0.00     0.014 A 
ATOM     40  C   UNL A   1      35.719  33.907  28.573  1.00  0.00     0.014 A 
ATOM     41  C   UNL A   1      35.394  32.150  30.717  1.00  0.00     0.010 A 
ATOM     42  C   UNL A   1      36.813  33.216  29.050  1.00  0.00     0.010 A 
ATOM     43  C   UNL A   1      36.663  32.360  30.147  1.00  0.00    -0.014 A 
BRANCH  43  44
ATOM     44  C   UNL A   1      37.858  31.715  30.719  1.00  0.00     0.031 A 
ATOM     45  C   UNL A   1      38.300  32.080  32.107  1.00  0.00     0.074 A 
ATOM     46  C   UNL A   1      38.546  30.831  29.974  1.00  0.00     0.049 A 
ATOM     47  N   UNL A   1      39.299  31.605  32.803  1.00  0.00    -0.248 NA
ATOM     48  C   UNL A   1      37.544  33.142  32.793  1.00  0.00     0.031 C 
ATOM     49  C   UNL A   1      38.242  30.471  28.587  1.00  0.00     0.029 A 
ATOM     50  N   UNL A   1      39.635  30.065  30.285  1.00  0.00    -0.354 N 
ATOM     51  C   UNL A   1      39.290  32.314  33.996  1.00  0.00     0.074 A 
ATOM     52  C   UNL A   1      38.248  33.307  33.899  1.00  0.00     0.031 C 
ATOM     53  C   UNL A   1      39.089  29.512  28.187  1.00  0.00     0.029 A 
ATOM     54  C   UNL A   1      40.014  29.216  29.275  1.00  0.00     0.049 A 
ATOM     55  H   UNL A   1      40.103  30.117  31.150  1.00  0.00     0.167 HD
ATOM     56  C   UNL A   1      40.058  32.123  35.092  1.00  0.00     0.037 A 
ATOM     57  C   UNL A   1      40.991  28.293  29.246  1.00  0.00     0.037 A 
ATOM     58  C   UNL A   1      41.078  31.113  35.179  1.00  0.00     0.049 A 
ATOM     59  C   UNL A   1      41.822  28.091  30.482  1.00  0.00     0.074 A 
ATOM     60  C   UNL A   1      41.884  30.789  36.254  1.00  0.00     0.029 A 
ATOM     61  N   UNL A   1      41.432  30.264  34.139  1.00  0.00    -0.354 N 
ATOM     62  N   UNL A   1      41.751  28.707  31.639  1.00  0.00    -0.248 NA
ATOM     63  C   UNL A   1      42.858  27.055  30.413  1.00  0.00     0.031 C 
ATOM     64  C   UNL A   1      42.761  29.777  35.849  1.00  0.00     0.029 A 
ATOM     65  C   UNL A   1      42.462  29.430  34.540  1.00  0.00     0.049 A 
ATOM     66  H   UNL A   1      41.013  30.256  33.249  1.00  0.00     0.167 HD
ATOM     67  C   UNL A   1      42.717  28.118  32.443  1.00  0.00     0.074 A 
ATOM     68  C   UNL A   1      43.338  27.078  31.647  1.00  0.00     0.031 C 
ATOM     69  C   UNL A   1      43.066  28.410  33.720  1.00  0.00     0.037 A 
BRANCH  56  70
ATOM     70  C   UNL A   1      39.814  33.021  36.270  1.00  0.00     0.057 A 
ATOM     71  C   UNL A   1      38.872  32.704  37.262  1.00  0.00     0.134 A 
ATOM     72  C   UNL A   1      40.525  34.216  36.418  1.00  0.00     0.134 A 
ATOM     73  F   UNL A   1      38.139  31.583  37.170  1.00  0.00    -0.206 F 
ATOM     74  C   UNL A   1      38.626  33.557  38.338  1.00  0.00     0.040 A 
ATOM     75  C   UNL A   1      40.311  35.063  37.508  1.00  0.00     0.040 A 
ATOM     76  F   UNL A   1      41.437  34.584  35.506  1.00  0.00    -0.206 F 
ATOM     77  C   UNL A   1      39.355  34.738  38.467  1.00  0.00     0.006 A 
ENDBRANCH  56  70
BRANCH  57  78
ATOM     78  C   UNL A   1      41.200  27.467  28.031  1.00  0.00     0.057 A 
ATOM     79  C   UNL A   1      42.064  27.885  27.012  1.00  0.00     0.134 A 
ATOM     80  C   UNL A   1      40.545  26.242  27.858  1.00  0.00     0.134 A 
ATOM     81  F   UNL A   1      42.713  29.054  27.114  1.00  0.00    -0.206 F 
ATOM     82  C   UNL A   1      42.249  27.129  25.854  1.00  0.00     0.040 A 
ATOM     83  C   UNL A   1      40.743  25.462  26.718  1.00  0.00     0.040 A 
ATOM     84  F   UNL A   1      39.716  25.778  28.805  1.00  0.00    -0.206 F 
ATOM     85  C   UNL A   1      41.590  25.910  25.707  1.00  0.00     0.006 A 
ENDBRANCH  57  78
BRANCH  69  86
ATOM     86  C   UNL A   1      44.152  27.573  34.330  1.00  0.00     0.057 A 
ATOM     87  C   UNL A   1      43.883  26.343  34.944  1.00  0.00     0.134 A 
ATOM     88  C   UNL A   1      45.485  28.002  34.298  1.00  0.00     0.134 A 
ATOM     89  F   UNL A   1      42.626  25.880  35.019  1.00  0.00    -0.206 F 
ATOM     90  C   UNL A   1      44.894  25.590  35.542  1.00  0.00     0.040 A 
ATOM     91  C   UNL A   1      46.510  27.242  34.860  1.00  0.00     0.040 A 
ATOM     92  F   UNL A   1      45.814  29.164  33.713  1.00  0.00    -0.206 F 
ATOM     93  C   UNL A   1      46.213  26.038  35.496  1.00  0.00     0.006 A 
ENDBRANCH  69  86
ENDBRANCH  43  44
ENDBRANCH  35  38
ENDBRANCH  33  34
ENDBRANCH  32  33
ENDBRANCH  31  32
ENDBRANCH   1  31
TORSDOF 16
ENDMDL
MODEL 2
REMARK VINA RESULT:     -11.8      1.378      2.304
REMARK SMILES CCOc1cc(C[NH+]2CCC3(CC2)[C@H](C(=O)NCCCCNC(=O)c2ccc(-c4c5nc(c(-c6c(F)cccc6F)c6ccc([nH]6)c(-c6c(F)cccc6F)c6nc(c(-c7c(F)cccc7F)c7ccc4[nH]7)C=C6)C=C5)cc2)CC(=O)N3C)ccc1OC
REMARK SMILES IDX 18 1 17 2 15 3 16 4 14 6 8 7 9 8 13 9 10 11 12 12 11 13
REMARK SMILES IDX 82 14 79 15 80 16 83 17 81 18 7 19 6 20 4 21 5 22 86 23
REMARK SMILES IDX 85 24 84 25 3 26 2 27 1 28 87 29 88 30 19 31 20 32 21 33
REMARK SMILES IDX 22 34 23 35 24 37 25 38 26 39 78 40 27 41 77 42 28 43 29 44
REMARK SMILES IDX 30 45 71 46 31 47 76 48 70 49 72 50 32 51 75 52 69 53 68 54
REMARK SMILES IDX 33 56 59 57 42 58 58 59 43 60 46 61 57 62 73 63 44 64 45 65
REMARK SMILES IDX 56 67 74 68 47 69 34 70 35 71 40 72 36 73 37 74 39 75 41 76
REMARK SMILES IDX 38 77 60 78 61 79 66 80 62 81 63 82 65 83 67 84 64 85 48 86
REMARK SMILES IDX 49 87 54 88 50 89 51 90 53 91 55 92 52 93
REMARK H PARENT 17 5 8 10 22 36 72 55 46 66
REMARK Flexibility Score: inf
ROOT
ATOM      1  C   UNL A   1      31.435  30.190  25.468  1.00  0.00     0.116 C 
ENDROOT
BRANCH   1   2
ATOM      2  N   UNL A   1      32.315  29.502  26.380  1.00  0.00    -0.356 N 
ATOM      3  C   UNL A   1      33.090  28.403  26.245  1.00  0.00     0.226 C 
ATOM      4  O   UNL A   1      33.787  28.131  27.228  1.00  0.00    -0.275 OA
ATOM      5  H   UNL A   1      32.360  29.912  27.274  1.00  0.00     0.163 HD
BRANCH   3   6
ATOM      6  C   UNL A   1      33.145  27.511  24.994  1.00  0.00     0.114 C 
ATOM      7  N   UNL A   1      30.576  24.141  25.245  1.00  0.00    -0.331 N 
ATOM      8  C   UNL A   1      30.006  25.367  25.772  1.00  0.00     0.265 C 
ATOM      9  C   UNL A   1      31.120  24.344  23.915  1.00  0.00     0.265 C 
ATOM     10  H   UNL A   1      29.793  23.501  25.121  1.00  0.00     0.348 HD
ATOM     11  C   UNL A   1      31.005  26.503  25.816  1.00  0.00     0.091 C 
ATOM     12  C   UNL A   1      32.157  25.464  23.774  1.00  0.00     0.091 C 
ATOM     13  C   UNL A   1      31.846  26.773  24.548  1.00  0.00     0.065 C 
ATOM     14  N   UNL A   1      31.348  27.709  23.532  1.00  0.00    -0.339 N 
ATOM     15  C   UNL A   1      33.646  28.253  23.771  1.00  0.00     0.116 C 
ATOM     16  C   UNL A   1      32.410  28.409  22.929  1.00  0.00     0.223 C 
ATOM     17  C   UNL A   1      30.122  27.535  22.786  1.00  0.00     0.147 C 
ATOM     18  O   UNL A   1      32.358  29.050  21.891  1.00  0.00    -0.275 OA
BRANCH   7  19
ATOM     19  C   UNL A   1      31.326  23.279  26.176  1.00  0.00     0.299 C 
BRANCH  19  20
ATOM     20  C   UNL A   1      32.305  22.268  25.599  1.00  0.00     0.010 A 
ATOM     21  C   UNL A   1      34.569  21.356  25.465  1.00  0.00     0.161 A 
ATOM     22  C   UNL A   1      33.704  22.434  25.696  1.00  0.00     0.060 A 
ATOM     23  C   UNL A   1      34.046  20.166  24.936  1.00  0.00     0.160 A 
ATOM     24  C   UNL A   1      32.687  20.077  24.629  1.00  0.00     0.051 A 
ATOM     25  C   UNL A   1      31.816  21.104  24.990  1.00  0.00     0.013 A 
BRANCH  21  26
ATOM     26  O   UNL A   1      35.891  21.317  25.758  1.00  0.00    -0.490 OA
BRANCH  26  27
ATOM     27  C   UNL A   1      36.860  22.282  25.392  1.00  0.00     0.226 C 
ATOM     28  C   UNL A   1      36.934  22.199  23.868  1.00  0.00     0.049 C 
ENDBRANCH  26  27
ENDBRANCH  21  26
BRANCH  23  29
ATOM     29  O   UNL A   1      34.764  19.028  24.650  1.00  0.00    -0.493 OA
ATOM     30  C   UNL A   1      34.004  17.870  24.305  1.00  0.00     0.278 C 
ENDBRANCH  23  29
ENDBRANCH  19  20
ENDBRANCH   7  19
ENDBRANCH   3   6
ENDBRANCH   1   2
BRANCH   1  31
ATOM     31  C   UNL A   1      31.136  31.626  25.891  1.00  0.00     0.023 C 
BRANCH  31  32
ATOM     32  C   UNL A   1      31.625  31.945  27.295  1.00  0.00     0.023 C 
BRANCH  32  33
ATOM     33  C   UNL A   1      32.856  32.831  27.282  1.00  0.00     0.116 C 
BRANCH  33  34
ATOM     34  N   UNL A   1      32.527  34.218  27.616  1.00  0.00    -0.352 N 
ATOM     35  C   UNL A   1      33.023  34.985  28.630  1.00  0.00     0.251 C 
ATOM     36  H   UNL A   1      31.863  34.654  27.034  1.00  0.00     0.163 HD
ATOM     37  O   UNL A   1      32.499  36.043  28.953  1.00  0.00    -0.269 OA
BRANCH  35  38
ATOM     38  C   UNL A   1      34.206  34.475  29.322  1.00  0.00     0.039 A 
ATOM     39  C   UNL A   1      34.044  33.630  30.415  1.00  0.00     0.014 A 
ATOM     40  C   UNL A   1      35.465  34.746  28.775  1.00  0.00     0.014 A 
ATOM     41  C   UNL A   1      35.169  33.016  30.946  1.00  0.00     0.010 A 
ATOM     42  C   UNL A   1      36.558  34.035  29.224  1.00  0.00     0.010 A 
ATOM     43  C   UNL A   1      36.423  33.193  30.334  1.00  0.00    -0.014 A 
BRANCH  43  44
ATOM     44  C   UNL A   1      37.621  32.526  30.875  1.00  0.00     0.031 A 
ATOM     45  C   UNL A   1      38.227  33.024  32.155  1.00  0.00     0.074 A 
ATOM     46  C   UNL A   1      38.164  31.501  30.194  1.00  0.00     0.049 A 
ATOM     47  N   UNL A   1      39.256  32.557  32.813  1.00  0.00    -0.248 NA
ATOM     48  C   UNL A   1      37.624  34.224  32.760  1.00  0.00     0.031 C 
ATOM     49  C   UNL A   1      37.694  30.996  28.901  1.00  0.00     0.029 A 
ATOM     50  N   UNL A   1      39.222  30.690  30.503  1.00  0.00    -0.354 N 
ATOM     51  C   UNL A   1      39.420  33.409  33.897  1.00  0.00     0.074 A 
ATOM     52  C   UNL A   1      38.448  34.467  33.765  1.00  0.00     0.031 C 
ATOM     53  C   UNL A   1      38.426  29.926  28.557  1.00  0.00     0.029 A 
ATOM     54  C   UNL A   1      39.433  29.692  29.585  1.00  0.00     0.049 A 
ATOM     55  H   UNL A   1      39.777  30.811  31.307  1.00  0.00     0.167 HD
ATOM     56  C   UNL A   1      40.280  33.293  34.934  1.00  0.00     0.037 A 
ATOM     57  C   UNL A   1      40.333  28.693  29.589  1.00  0.00     0.037 A 
ATOM     58  C   UNL A   1      41.228  32.219  35.060  1.00  0.00     0.049 A 
ATOM     59  C   UNL A   1      41.269  28.578  30.760  1.00  0.00     0.074 A 
ATOM     60  C   UNL A   1      42.114  31.966  36.090  1.00  0.00     0.029 A 
ATOM     61  N   UNL A   1      41.412  31.220  34.115  1.00  0.00    -0.354 N 
ATOM     62  N   UNL A   1      41.361  29.339  31.826  1.00  0.00    -0.248 NA
ATOM     63  C   UNL A   1      42.215  27.458  30.735  1.00  0.00     0.031 C 
ATOM     64  C   UNL A   1      42.870  30.841  35.745  1.00  0.00     0.029 A 
ATOM     65  C   UNL A   1      42.414  30.358  34.527  1.00  0.00     0.049 A 
ATOM     66  H   UNL A   1      40.905  31.135  33.276  1.00  0.00     0.167 HD
ATOM     67  C   UNL A   1      42.359  28.776  32.609  1.00  0.00     0.074 A 
ATOM     68  C   UNL A   1      42.820  27.595  31.905  1.00  0.00     0.031 C 
ATOM     69  C   UNL A   1      42.857  29.196  33.799  1.00  0.00     0.037 A 
BRANCH  56  70
ATOM     70  C   UNL A   1      40.222  34.349  35.998  1.00  0.00     0.057 A 
ATOM     71  C   UNL A   1      41.016  35.505  35.941  1.00  0.00     0.134 A 
ATOM     72  C   UNL A   1      39.364  34.212  37.096  1.00  0.00     0.134 A 
ATOM     73  F   UNL A   1      41.877  35.690  34.928  1.00  0.00    -0.206 F 
ATOM     74  C   UNL A   1      40.980  36.469  36.949  1.00  0.00     0.040 A 
ATOM     75  C   UNL A   1      39.297  35.185  38.095  1.00  0.00     0.040 A 
ATOM     76  F   UNL A   1      38.580  33.131  37.217  1.00  0.00    -0.206 F 
ATOM     77  C   UNL A   1      40.111  36.313  38.027  1.00  0.00     0.006 A 
ENDBRANCH  56  70
BRANCH  57  78
ATOM     78  C   UNL A   1      40.357  27.707  28.481  1.00  0.00     0.057 A 
ATOM     79  C   UNL A   1      39.648  26.503  28.567  1.00  0.00     0.134 A 
ATOM     80  C   UNL A   1      41.088  27.941  27.310  1.00  0.00     0.134 A 
ATOM     81  F   UNL A   1      38.936  26.216  29.667  1.00  0.00    -0.206 F 
ATOM     82  C   UNL A   1      39.684  25.558  27.542  1.00  0.00     0.040 A 
ATOM     83  C   UNL A   1      41.111  27.016  26.266  1.00  0.00     0.040 A 
ATOM     84  F   UNL A   1      41.778  29.082  27.159  1.00  0.00    -0.206 F 
ATOM     85  C   UNL A   1      40.415  25.815  26.384  1.00  0.00     0.006 A 
ENDBRANCH  57  78
BRANCH  69  86
ATOM     86  C   UNL A   1      43.937  28.353  34.413  1.00  0.00     0.057 A 
ATOM     87  C   UNL A   1      45.295  28.608  34.183  1.00  0.00     0.134 A 
ATOM     88  C   UNL A   1      43.612  27.277  35.248  1.00  0.00     0.134 A 
ATOM     89  F   UNL A   1      45.673  29.617  33.384  1.00  0.00    -0.206 F 
ATOM     90  C   UNL A   1      46.290  27.796  34.728  1.00  0.00     0.040 A 
ATOM     91  C   UNL A   1      44.599  26.479  35.827  1.00  0.00     0.040 A 
ATOM     92  F   UNL A   1      42.330  26.987  35.520  1.00  0.00    -0.206 F 
ATOM     93  C   UNL A   1      45.942  26.731  35.556  1.00  0.00     0.006 A 
ENDBRANCH  69  86
ENDBRANCH  43  44
ENDBRANCH  35  38
ENDBRANCH  33  34
ENDBRANCH  32  33
ENDBRANCH  31  32
ENDBRANCH   1  31
TORSDOF 16
ENDMDL
MODEL 3
REMARK VINA RESULT:     -11.5      4.110      8.900
REMARK SMILES CCOc1cc(C[NH+]2CCC3(CC2)[C@H](C(=O)NCCCCNC(=O)c2ccc(-c4c5nc(c(-c6c(F)cccc6F)c6ccc([nH]6)c(-c6c(F)cccc6F)c6nc(c(-c7c(F)cccc7F)c7ccc4[nH]7)C=C6)C=C5)cc2)CC(=O)N3C)ccc1OC
REMARK SMILES IDX 18 1 17 2 15 3 16 4 14 6 8 7 9 8 13 9 10 11 12 12 11 13
REMARK SMILES IDX 82 14 79 15 80 16 83 17 81 18 7 19 6 20 4 21 5 22 86 23
REMARK SMILES IDX 85 24 84 25 3 26 2 27 1 28 87 29 88 30 19 31 20 32 21 33
REMARK SMILES IDX 22 34 23 35 24 37 25 38 26 39 78 40 27 41 77 42 28 43 29 44
REMARK SMILES IDX 30 45 71 46 31 47 76 48 70 49 72 50 32 51 75 52 69 53 68 54
REMARK SMILES IDX 33 56 59 57 42 58 58 59 43 60 46 61 57 62 73 63 44 64 45 65
REMARK SMILES IDX 56 67 74 68 47 69 34 70 35 71 40 72 36 73 37 74 39 75 41 76
REMARK SMILES IDX 38 77 60 78 61 79 66 80 62 81 63 82 65 83 67 84 64 85 48 86
REMARK SMILES IDX 49 87 54 88 50 89 51 90 53 91 55 92 52 93
REMARK H PARENT 17 5 8 10 22 36 72 55 46 66
REMARK Flexibility Score: inf
ROOT
ATOM      1  C   UNL A   1      37.433  23.789  26.003  1.00  0.00     0.116 C 
ENDROOT
BRANCH   1   2
ATOM      2  N   UNL A   1      36.880  23.589  24.687  1.00  0.00    -0.356 N 
ATOM      3  C   UNL A   1      35.765  22.960  24.253  1.00  0.00     0.226 C 
ATOM      4  O   UNL A   1      35.554  23.048  23.039  1.00  0.00    -0.275 OA
ATOM      5  H   UNL A   1      37.417  23.988  23.966  1.00  0.00     0.163 HD
BRANCH   3   6
ATOM      6  C   UNL A   1      34.793  22.171  25.146  1.00  0.00     0.114 C 
ATOM      7  N   UNL A   1      30.819  23.657  24.989  1.00  0.00    -0.331 N 
ATOM      8  C   UNL A   1      31.498  23.630  23.706  1.00  0.00     0.265 C 
ATOM      9  C   UNL A   1      30.922  22.376  25.664  1.00  0.00     0.265 C 
ATOM     10  H   UNL A   1      29.829  23.771  24.777  1.00  0.00     0.348 HD
ATOM     11  C   UNL A   1      32.959  23.252  23.827  1.00  0.00     0.091 C 
ATOM     12  C   UNL A   1      32.341  21.836  25.874  1.00  0.00     0.091 C 
ATOM     13  C   UNL A   1      33.314  22.012  24.678  1.00  0.00     0.065 C 
ATOM     14  N   UNL A   1      33.381  20.690  24.042  1.00  0.00    -0.339 N 
ATOM     15  C   UNL A   1      35.288  20.771  25.452  1.00  0.00     0.116 C 
ATOM     16  C   UNL A   1      34.379  19.895  24.636  1.00  0.00     0.223 C 
ATOM     17  C   UNL A   1      32.268  20.033  23.394  1.00  0.00     0.147 C 
ATOM     18  O   UNL A   1      34.507  18.686  24.520  1.00  0.00    -0.275 OA
BRANCH   7  19
ATOM     19  C   UNL A   1      30.939  24.880  25.803  1.00  0.00     0.299 C 
BRANCH  19  20
ATOM     20  C   UNL A   1      30.568  26.212  25.169  1.00  0.00     0.010 A 
ATOM     21  C   UNL A   1      31.074  28.565  24.744  1.00  0.00     0.161 A 
ATOM     22  C   UNL A   1      31.181  27.425  25.552  1.00  0.00     0.060 A 
ATOM     23  C   UNL A   1      30.184  28.548  23.659  1.00  0.00     0.160 A 
ATOM     24  C   UNL A   1      29.407  27.415  23.411  1.00  0.00     0.051 A 
ATOM     25  C   UNL A   1      29.621  26.243  24.136  1.00  0.00     0.013 A 
BRANCH  21  26
ATOM     26  O   UNL A   1      31.801  29.702  24.866  1.00  0.00    -0.490 OA
BRANCH  26  27
ATOM     27  C   UNL A   1      31.927  30.494  26.033  1.00  0.00     0.226 C 
ATOM     28  C   UNL A   1      33.322  30.179  26.568  1.00  0.00     0.049 C 
ENDBRANCH  26  27
ENDBRANCH  21  26
BRANCH  23  29
ATOM     29  O   UNL A   1      29.963  29.585  22.782  1.00  0.00    -0.493 OA
ATOM     30  C   UNL A   1      28.721  30.274  22.915  1.00  0.00     0.278 C 
ENDBRANCH  23  29
ENDBRANCH  19  20
ENDBRANCH   7  19
ENDBRANCH   3   6
ENDBRANCH   1   2
BRANCH   1  31
ATOM     31  C   UNL A   1      38.839  23.213  26.157  1.00  0.00     0.023 C 
BRANCH  31  32
ATOM     32  C   UNL A   1      38.840  21.722  26.458  1.00  0.00     0.023 C 
BRANCH  32  33
ATOM     33  C   UNL A   1      39.297  20.901  25.269  1.00  0.00     0.116 C 
BRANCH  33  34
ATOM     34  N   UNL A   1      40.057  19.721  25.686  1.00  0.00    -0.352 N 
ATOM     35  C   UNL A   1      41.326  19.663  26.182  1.00  0.00     0.251 C 
ATOM     36  H   UNL A   1      39.591  18.858  25.598  1.00  0.00     0.163 HD
ATOM     37  O   UNL A   1      41.937  18.605  26.269  1.00  0.00    -0.269 OA
BRANCH  35  38
ATOM     38  C   UNL A   1      41.929  20.930  26.594  1.00  0.00     0.039 A 
ATOM     39  C   UNL A   1      42.374  21.820  25.623  1.00  0.00     0.014 A 
ATOM     40  C   UNL A   1      41.913  21.263  27.953  1.00  0.00     0.014 A 
ATOM     41  C   UNL A   1      42.777  23.085  26.024  1.00  0.00     0.010 A 
ATOM     42  C   UNL A   1      42.192  22.561  28.329  1.00  0.00     0.010 A 
ATOM     43  C   UNL A   1      42.658  23.469  27.372  1.00  0.00    -0.014 A 
BRANCH  43  44
ATOM     44  C   UNL A   1      43.061  24.820  27.805  1.00  0.00     0.031 A 
ATOM     45  C   UNL A   1      42.006  25.849  28.086  1.00  0.00     0.074 A 
ATOM     46  C   UNL A   1      44.370  25.109  27.913  1.00  0.00     0.049 A 
ATOM     47  N   UNL A   1      42.148  27.078  28.508  1.00  0.00    -0.248 NA
ATOM     48  C   UNL A   1      40.607  25.464  27.827  1.00  0.00     0.031 C 
ATOM     49  C   UNL A   1      45.471  24.200  27.585  1.00  0.00     0.029 A 
ATOM     50  N   UNL A   1      44.995  26.247  28.342  1.00  0.00    -0.354 N 
ATOM     51  C   UNL A   1      40.865  27.605  28.557  1.00  0.00     0.074 A 
ATOM     52  C   UNL A   1      39.967  26.600  28.040  1.00  0.00     0.031 C 
ATOM     53  C   UNL A   1      46.635  24.797  27.880  1.00  0.00     0.029 A 
ATOM     54  C   UNL A   1      46.363  26.139  28.385  1.00  0.00     0.049 A 
ATOM     55  H   UNL A   1      44.511  27.066  28.597  1.00  0.00     0.167 HD
ATOM     56  C   UNL A   1      40.468  28.808  29.030  1.00  0.00     0.037 A 
ATOM     57  C   UNL A   1      47.286  27.023  28.800  1.00  0.00     0.037 A 
ATOM     58  C   UNL A   1      41.375  29.789  29.561  1.00  0.00     0.049 A 
ATOM     59  C   UNL A   1      46.818  28.348  29.334  1.00  0.00     0.074 A 
ATOM     60  C   UNL A   1      41.086  31.020  30.118  1.00  0.00     0.029 A 
ATOM     61  N   UNL A   1      42.755  29.644  29.595  1.00  0.00    -0.354 N 
ATOM     62  N   UNL A   1      45.594  28.807  29.457  1.00  0.00    -0.248 NA
ATOM     63  C   UNL A   1      47.858  29.271  29.801  1.00  0.00     0.031 C 
ATOM     64  C   UNL A   1      42.296  31.643  30.443  1.00  0.00     0.029 A 
ATOM     65  C   UNL A   1      43.336  30.775  30.143  1.00  0.00     0.049 A 
ATOM     66  H   UNL A   1      43.248  28.854  29.276  1.00  0.00     0.167 HD
ATOM     67  C   UNL A   1      45.716  30.062  30.036  1.00  0.00     0.074 A 
ATOM     68  C   UNL A   1      47.131  30.277  30.264  1.00  0.00     0.031 C 
ATOM     69  C   UNL A   1      44.750  30.962  30.348  1.00  0.00     0.037 A 
BRANCH  56  70
ATOM     70  C   UNL A   1      38.999  29.112  28.993  1.00  0.00     0.057 A 
ATOM     71  C   UNL A   1      38.358  29.540  27.820  1.00  0.00     0.134 A 
ATOM     72  C   UNL A   1      38.211  28.977  30.142  1.00  0.00     0.134 A 
ATOM     73  F   UNL A   1      39.058  29.711  26.687  1.00  0.00    -0.206 F 
ATOM     74  C   UNL A   1      36.998  29.850  27.799  1.00  0.00     0.040 A 
ATOM     75  C   UNL A   1      36.843  29.254  30.126  1.00  0.00     0.040 A 
ATOM     76  F   UNL A   1      38.758  28.576  31.300  1.00  0.00    -0.206 F 
ATOM     77  C   UNL A   1      36.234  29.699  28.954  1.00  0.00     0.006 A 
ENDBRANCH  56  70
BRANCH  57  78
ATOM     78  C   UNL A   1      48.726  26.668  28.770  1.00  0.00     0.057 A 
ATOM     79  C   UNL A   1      49.334  26.016  29.850  1.00  0.00     0.134 A 
ATOM     80  C   UNL A   1      49.531  26.968  27.665  1.00  0.00     0.134 A 
ATOM     81  F   UNL A   1      48.618  25.710  30.943  1.00  0.00    -0.206 F 
ATOM     82  C   UNL A   1      50.692  25.700  29.844  1.00  0.00     0.040 A 
ATOM     83  C   UNL A   1      50.885  26.633  27.633  1.00  0.00     0.040 A 
ATOM     84  F   UNL A   1      49.006  27.578  26.591  1.00  0.00    -0.206 F 
ATOM     85  C   UNL A   1      51.472  26.005  28.730  1.00  0.00     0.006 A 
ENDBRANCH  57  78
BRANCH  69  86
ATOM     86  C   UNL A   1      45.202  32.242  30.988  1.00  0.00     0.057 A 
ATOM     87  C   UNL A   1      45.330  32.371  32.377  1.00  0.00     0.134 A 
ATOM     88  C   UNL A   1      45.519  33.358  30.203  1.00  0.00     0.134 A 
ATOM     89  F   UNL A   1      45.032  31.342  33.187  1.00  0.00    -0.206 F 
ATOM     90  C   UNL A   1      45.714  33.576  32.965  1.00  0.00     0.040 A 
ATOM     91  C   UNL A   1      45.938  34.558  30.777  1.00  0.00     0.040 A 
ATOM     92  F   UNL A   1      45.431  33.298  28.866  1.00  0.00    -0.206 F 
ATOM     93  C   UNL A   1      46.024  34.672  32.162  1.00  0.00     0.006 A 
ENDBRANCH  69  86
ENDBRANCH  43  44
ENDBRANCH  35  38
ENDBRANCH  33  34
ENDBRANCH  32  33
ENDBRANCH  31  32
ENDBRANCH   1  31
TORSDOF 16
ENDMDL
