MODEL 1
REMARK VINA RESULT:     -10.8      0.000      0.000
REMARK SMILES CC(C)Cc1ccc([C@H](CF)C(=O)NCCCCNC(=O)c2ccc(-c3c4nc(c(-c5c(F)cccc5F)c5ccc([nH]5)c(-c5c(F)cccc5F)c5nc(c(-c6c(F)cccc6F)c6ccc3[nH]6)C=C5)C=C4)cc2)cc1
REMARK SMILES IDX 16 1 15 2 14 3 12 4 13 5 9 7 8 8 5 9 6 10 77 11 7 12 76 13
REMARK SMILES IDX 4 14 2 15 1 16 3 17 10 18 11 19 17 20 18 21 19 22 20 23
REMARK SMILES IDX 21 25 22 26 23 27 75 28 24 29 74 30 25 31 26 32 27 33 68 34
REMARK SMILES IDX 28 35 73 36 67 37 69 38 29 39 72 40 66 41 65 42 30 44 56 45
REMARK SMILES IDX 39 46 55 47 40 48 43 49 54 50 70 51 41 52 42 53 53 55 71 56
REMARK SMILES IDX 44 57 31 58 32 59 37 60 33 61 34 62 36 63 38 64 35 65 57 66
REMARK SMILES IDX 58 67 63 68 59 69 60 70 62 71 64 72 61 73 45 74 46 75 51 76
REMARK SMILES IDX 47 77 48 78 50 79 52 80 49 81
REMARK H PARENT 14 6 19 24 69 43 43 54
REMARK Flexibility Score: inf
ROOT
ATOM      1  C   UNL A   1      36.856  21.887  24.199  1.00  0.00     0.023 C 
ENDROOT
BRANCH   1   2
ATOM      2  C   UNL A   1      36.573  22.986  25.219  1.00  0.00     0.116 C 
BRANCH   2   3
ATOM      3  N   UNL A   1      35.801  24.068  24.636  1.00  0.00    -0.355 N 
ATOM      4  C   UNL A   1      34.512  24.449  24.867  1.00  0.00     0.230 C 
ATOM      5  O   UNL A   1      34.093  25.433  24.251  1.00  0.00    -0.274 OA
ATOM      6  H   UNL A   1      36.282  24.609  23.970  1.00  0.00     0.163 HD
BRANCH   4   7
ATOM      7  C   UNL A   1      33.607  23.676  25.819  1.00  0.00     0.139 C 
BRANCH   7   8
ATOM      8  C   UNL A   1      33.224  22.287  25.314  1.00  0.00    -0.033 A 
ATOM      9  C   UNL A   1      32.653  19.716  24.267  1.00  0.00    -0.048 A 
ATOM     10  C   UNL A   1      33.122  19.870  25.577  1.00  0.00     0.004 A 
ATOM     11  C   UNL A   1      32.430  20.860  23.496  1.00  0.00     0.004 A 
ATOM     12  C   UNL A   1      33.425  21.135  26.085  1.00  0.00     0.005 A 
ATOM     13  C   UNL A   1      32.714  22.127  24.013  1.00  0.00     0.005 A 
BRANCH   9  14
ATOM     14  C   UNL A   1      32.466  18.337  23.681  1.00  0.00     0.038 C 
BRANCH  14  15
ATOM     15  C   UNL A   1      33.498  17.305  24.190  1.00  0.00    -0.013 C 
ATOM     16  C   UNL A   1      32.873  16.215  25.068  1.00  0.00     0.008 C 
ATOM     17  C   UNL A   1      34.203  16.645  23.001  1.00  0.00     0.008 C 
ENDBRANCH  14  15
ENDBRANCH   9  14
ENDBRANCH   7   8
BRANCH   7  18
ATOM     18  C   UNL A   1      32.476  24.614  26.241  1.00  0.00     0.232 C 
ATOM     19  F   UNL A   1      31.813  24.089  27.310  1.00  0.00    -0.250 F 
ENDBRANCH   7  18
ENDBRANCH   4   7
ENDBRANCH   2   3
ENDBRANCH   1   2
BRANCH   1  20
ATOM     20  C   UNL A   1      37.397  20.589  24.799  1.00  0.00     0.023 C 
BRANCH  20  21
ATOM     21  C   UNL A   1      38.549  20.764  25.783  1.00  0.00     0.116 C 
BRANCH  21  22
ATOM     22  N   UNL A   1      39.532  19.695  25.703  1.00  0.00    -0.352 N 
ATOM     23  C   UNL A   1      40.876  19.737  25.990  1.00  0.00     0.251 C 
ATOM     24  H   UNL A   1      39.188  18.822  25.403  1.00  0.00     0.163 HD
ATOM     25  O   UNL A   1      41.596  18.779  25.742  1.00  0.00    -0.269 OA
BRANCH  23  26
ATOM     26  C   UNL A   1      41.451  20.968  26.571  1.00  0.00     0.039 A 
ATOM     27  C   UNL A   1      41.986  21.933  25.715  1.00  0.00     0.014 A 
ATOM     28  C   UNL A   1      41.429  21.179  27.952  1.00  0.00     0.014 A 
ATOM     29  C   UNL A   1      42.433  23.147  26.240  1.00  0.00     0.010 A 
ATOM     30  C   UNL A   1      41.805  22.416  28.465  1.00  0.00     0.010 A 
ATOM     31  C   UNL A   1      42.309  23.413  27.614  1.00  0.00    -0.014 A 
BRANCH  31  32
ATOM     32  C   UNL A   1      42.698  24.726  28.186  1.00  0.00     0.031 A 
ATOM     33  C   UNL A   1      41.658  25.787  28.408  1.00  0.00     0.074 A 
ATOM     34  C   UNL A   1      43.997  24.991  28.430  1.00  0.00     0.049 A 
ATOM     35  N   UNL A   1      41.811  27.025  28.806  1.00  0.00    -0.248 NA
ATOM     36  C   UNL A   1      40.264  25.418  28.114  1.00  0.00     0.031 C 
ATOM     37  C   UNL A   1      45.107  24.062  28.209  1.00  0.00     0.029 A 
ATOM     38  N   UNL A   1      44.604  26.126  28.903  1.00  0.00    -0.354 N 
ATOM     39  C   UNL A   1      40.539  27.584  28.791  1.00  0.00     0.074 A 
ATOM     40  C   UNL A   1      39.635  26.569  28.297  1.00  0.00     0.031 C 
ATOM     41  C   UNL A   1      46.256  24.659  28.563  1.00  0.00     0.029 A 
ATOM     42  C   UNL A   1      45.971  26.022  28.998  1.00  0.00     0.049 A 
ATOM     43  H   UNL A   1      44.107  26.939  29.152  1.00  0.00     0.167 HD
ATOM     44  C   UNL A   1      40.157  28.826  29.175  1.00  0.00     0.037 A 
ATOM     45  C   UNL A   1      46.891  26.928  29.382  1.00  0.00     0.037 A 
ATOM     46  C   UNL A   1      41.055  29.823  29.696  1.00  0.00     0.049 A 
ATOM     47  C   UNL A   1      46.441  28.298  29.808  1.00  0.00     0.074 A 
ATOM     48  C   UNL A   1      40.755  31.085  30.175  1.00  0.00     0.029 A 
ATOM     49  N   UNL A   1      42.429  29.669  29.803  1.00  0.00    -0.354 N 
ATOM     50  N   UNL A   1      45.227  28.791  29.855  1.00  0.00    -0.248 NA
ATOM     51  C   UNL A   1      47.487  29.234  30.241  1.00  0.00     0.031 C 
ATOM     52  C   UNL A   1      41.952  31.713  30.533  1.00  0.00     0.029 A 
ATOM     53  C   UNL A   1      42.993  30.823  30.323  1.00  0.00     0.049 A 
ATOM     54  H   UNL A   1      42.929  28.860  29.548  1.00  0.00     0.167 HD
ATOM     55  C   UNL A   1      45.360  30.083  30.347  1.00  0.00     0.074 A 
ATOM     56  C   UNL A   1      46.771  30.293  30.595  1.00  0.00     0.031 C 
ATOM     57  C   UNL A   1      44.399  31.011  30.574  1.00  0.00     0.037 A 
BRANCH  44  58
ATOM     58  C   UNL A   1      38.702  29.172  29.051  1.00  0.00     0.057 A 
ATOM     59  C   UNL A   1      37.827  29.088  30.141  1.00  0.00     0.134 A 
ATOM     60  C   UNL A   1      38.177  29.625  27.834  1.00  0.00     0.134 A 
ATOM     61  F   UNL A   1      38.264  28.649  31.332  1.00  0.00    -0.206 F 
ATOM     62  C   UNL A   1      36.477  29.420  30.021  1.00  0.00     0.040 A 
ATOM     63  C   UNL A   1      36.834  29.985  27.708  1.00  0.00     0.040 A 
ATOM     64  F   UNL A   1      38.961  29.734  26.751  1.00  0.00    -0.206 F 
ATOM     65  C   UNL A   1      35.978  29.877  28.803  1.00  0.00     0.006 A 
ENDBRANCH  44  58
BRANCH  45  66
ATOM     66  C   UNL A   1      48.329  26.562  29.402  1.00  0.00     0.057 A 
ATOM     67  C   UNL A   1      49.160  26.843  28.312  1.00  0.00     0.134 A 
ATOM     68  C   UNL A   1      48.906  25.918  30.504  1.00  0.00     0.134 A 
ATOM     69  F   UNL A   1      48.661  27.441  27.220  1.00  0.00    -0.206 F 
ATOM     70  C   UNL A   1      50.508  26.482  28.306  1.00  0.00     0.040 A 
ATOM     71  C   UNL A   1      50.259  25.573  30.522  1.00  0.00     0.040 A 
ATOM     72  F   UNL A   1      48.165  25.627  31.583  1.00  0.00    -0.206 F 
ATOM     73  C   UNL A   1      51.062  25.848  29.417  1.00  0.00     0.006 A 
ENDBRANCH  45  66
BRANCH  57  74
ATOM     74  C   UNL A   1      44.834  32.325  31.154  1.00  0.00     0.057 A 
ATOM     75  C   UNL A   1      45.160  33.420  30.345  1.00  0.00     0.134 A 
ATOM     76  C   UNL A   1      44.879  32.509  32.542  1.00  0.00     0.134 A 
ATOM     77  F   UNL A   1      45.149  33.305  29.008  1.00  0.00    -0.206 F 
ATOM     78  C   UNL A   1      45.534  34.646  30.896  1.00  0.00     0.040 A 
ATOM     79  C   UNL A   1      45.226  33.737  33.104  1.00  0.00     0.040 A 
ATOM     80  F   UNL A   1      44.570  31.501  33.374  1.00  0.00    -0.206 F 
ATOM     81  C   UNL A   1      45.560  34.809  32.280  1.00  0.00     0.006 A 
ENDBRANCH  57  74
ENDBRANCH  31  32
ENDBRANCH  23  26
ENDBRANCH  21  22
ENDBRANCH  20  21
ENDBRANCH   1  20
TORSDOF 15
ENDMDL
MODEL 2
REMARK VINA RESULT:     -10.8      1.065      6.581
REMARK SMILES CC(C)Cc1ccc([C@H](CF)C(=O)NCCCCNC(=O)c2ccc(-c3c4nc(c(-c5c(F)cccc5F)c5ccc([nH]5)c(-c5c(F)cccc5F)c5nc(c(-c6c(F)cccc6F)c6ccc3[nH]6)C=C5)C=C4)cc2)cc1
REMARK SMILES IDX 16 1 15 2 14 3 12 4 13 5 9 7 8 8 5 9 6 10 77 11 7 12 76 13
REMARK SMILES IDX 4 14 2 15 1 16 3 17 10 18 11 19 17 20 18 21 19 22 20 23
REMARK SMILES IDX 21 25 22 26 23 27 75 28 24 29 74 30 25 31 26 32 27 33 68 34
REMARK SMILES IDX 28 35 73 36 67 37 69 38 29 39 72 40 66 41 65 42 30 44 56 45
REMARK SMILES IDX 39 46 55 47 40 48 43 49 54 50 70 51 41 52 42 53 53 55 71 56
REMARK SMILES IDX 44 57 31 58 32 59 37 60 33 61 34 62 36 63 38 64 35 65 57 66
REMARK SMILES IDX 58 67 63 68 59 69 60 70 62 71 64 72 61 73 45 74 46 75 51 76
REMARK SMILES IDX 47 77 48 78 50 79 52 80 49 81
REMARK H PARENT 14 6 19 24 69 43 43 54
REMARK Flexibility Score: inf
ROOT
ATOM      1  C   UNL A   1      38.833  22.645  26.198  1.00  0.00     0.023 C 
ENDROOT
BRANCH   1   2
ATOM      2  C   UNL A   1      37.658  23.483  25.703  1.00  0.00     0.116 C 
BRANCH   2   3
ATOM      3  N   UNL A   1      37.429  23.292  24.282  1.00  0.00    -0.355 N 
ATOM      4  C   UNL A   1      36.262  23.132  23.596  1.00  0.00     0.230 C 
ATOM      5  O   UNL A   1      36.337  23.012  22.370  1.00  0.00    -0.274 OA
ATOM      6  H   UNL A   1      38.243  23.276  23.729  1.00  0.00     0.163 HD
BRANCH   4   7
ATOM      7  C   UNL A   1      34.917  23.067  24.310  1.00  0.00     0.139 C 
BRANCH   7   8
ATOM      8  C   UNL A   1      34.317  21.665  24.367  1.00  0.00    -0.033 A 
ATOM      9  C   UNL A   1      33.191  19.079  24.650  1.00  0.00    -0.048 A 
ATOM     10  C   UNL A   1      32.465  20.117  24.054  1.00  0.00     0.004 A 
ATOM     11  C   UNL A   1      34.501  19.330  25.066  1.00  0.00     0.004 A 
ATOM     12  C   UNL A   1      33.011  21.397  23.935  1.00  0.00     0.005 A 
ATOM     13  C   UNL A   1      35.055  20.606  24.928  1.00  0.00     0.005 A 
BRANCH   9  14
ATOM     14  C   UNL A   1      32.540  17.741  24.904  1.00  0.00     0.038 C 
BRANCH  14  15
ATOM     15  C   UNL A   1      33.256  16.563  24.204  1.00  0.00    -0.013 C 
ATOM     16  C   UNL A   1      34.026  16.990  22.949  1.00  0.00     0.008 C 
ATOM     17  C   UNL A   1      34.224  15.890  25.180  1.00  0.00     0.008 C 
ENDBRANCH  14  15
ENDBRANCH   9  14
ENDBRANCH   7   8
BRANCH   7  18
ATOM     18  C   UNL A   1      34.044  24.190  23.748  1.00  0.00     0.232 C 
ATOM     19  F   UNL A   1      34.398  25.379  24.312  1.00  0.00    -0.250 F 
ENDBRANCH   7  18
ENDBRANCH   4   7
ENDBRANCH   2   3
ENDBRANCH   1   2
BRANCH   1  20
ATOM     20  C   UNL A   1      38.967  21.280  25.522  1.00  0.00     0.023 C 
BRANCH  20  21
ATOM     21  C   UNL A   1      39.317  20.129  26.458  1.00  0.00     0.116 C 
BRANCH  21  22
ATOM     22  N   UNL A   1      40.444  19.337  25.989  1.00  0.00    -0.352 N 
ATOM     23  C   UNL A   1      41.771  19.692  25.907  1.00  0.00     0.251 C 
ATOM     24  H   UNL A   1      40.228  18.425  25.689  1.00  0.00     0.163 HD
ATOM     25  O   UNL A   1      42.580  18.953  25.360  1.00  0.00    -0.269 OA
BRANCH  23  26
ATOM     26  C   UNL A   1      42.206  20.993  26.455  1.00  0.00     0.039 A 
ATOM     27  C   UNL A   1      42.591  22.004  25.573  1.00  0.00     0.014 A 
ATOM     28  C   UNL A   1      42.197  21.220  27.834  1.00  0.00     0.014 A 
ATOM     29  C   UNL A   1      42.899  23.271  26.070  1.00  0.00     0.010 A 
ATOM     30  C   UNL A   1      42.432  22.502  28.321  1.00  0.00     0.010 A 
ATOM     31  C   UNL A   1      42.783  23.540  27.444  1.00  0.00    -0.014 A 
BRANCH  31  32
ATOM     32  C   UNL A   1      43.022  24.900  27.989  1.00  0.00     0.031 A 
ATOM     33  C   UNL A   1      44.397  25.296  28.445  1.00  0.00     0.074 A 
ATOM     34  C   UNL A   1      41.987  25.750  28.145  1.00  0.00     0.049 A 
ATOM     35  N   UNL A   1      44.788  26.398  29.034  1.00  0.00    -0.248 NA
ATOM     36  C   UNL A   1      45.471  24.311  28.241  1.00  0.00     0.031 C 
ATOM     37  C   UNL A   1      40.596  25.465  27.787  1.00  0.00     0.029 A 
ATOM     38  N   UNL A   1      41.944  27.020  28.661  1.00  0.00    -0.354 N 
ATOM     39  C   UNL A   1      46.144  26.229  29.287  1.00  0.00     0.074 A 
ATOM     40  C   UNL A   1      46.497  24.901  28.835  1.00  0.00     0.031 C 
ATOM     41  C   UNL A   1      39.840  26.536  28.078  1.00  0.00     0.029 A 
ATOM     42  C   UNL A   1      40.682  27.566  28.677  1.00  0.00     0.049 A 
ATOM     43  H   UNL A   1      42.741  27.496  28.989  1.00  0.00     0.167 HD
ATOM     44  C   UNL A   1      47.019  27.110  29.827  1.00  0.00     0.037 A 
ATOM     45  C   UNL A   1      40.252  28.758  29.133  1.00  0.00     0.037 A 
ATOM     46  C   UNL A   1      46.671  28.441  30.247  1.00  0.00     0.049 A 
ATOM     47  C   UNL A   1      41.245  29.720  29.725  1.00  0.00     0.074 A 
ATOM     48  C   UNL A   1      47.499  29.432  30.744  1.00  0.00     0.029 A 
ATOM     49  N   UNL A   1      45.388  28.968  30.220  1.00  0.00    -0.354 N 
ATOM     50  N   UNL A   1      42.537  29.573  29.895  1.00  0.00    -0.248 NA
ATOM     51  C   UNL A   1      40.722  31.014  30.183  1.00  0.00     0.031 C 
ATOM     52  C   UNL A   1      46.712  30.544  31.058  1.00  0.00     0.029 A 
ATOM     53  C   UNL A   1      45.399  30.263  30.711  1.00  0.00     0.049 A 
ATOM     54  H   UNL A   1      44.588  28.491  29.900  1.00  0.00     0.167 HD
ATOM     55  C   UNL A   1      42.985  30.764  30.452  1.00  0.00     0.074 A 
ATOM     56  C   UNL A   1      41.829  31.627  30.580  1.00  0.00     0.031 C 
ATOM     57  C   UNL A   1      44.241  31.112  30.822  1.00  0.00     0.037 A 
BRANCH  44  58
ATOM     58  C   UNL A   1      48.442  26.660  29.990  1.00  0.00     0.057 A 
ATOM     59  C   UNL A   1      49.421  26.945  29.029  1.00  0.00     0.134 A 
ATOM     60  C   UNL A   1      48.844  25.962  31.135  1.00  0.00     0.134 A 
ATOM     61  F   UNL A   1      49.099  27.599  27.903  1.00  0.00    -0.206 F 
ATOM     62  C   UNL A   1      50.744  26.531  29.191  1.00  0.00     0.040 A 
ATOM     63  C   UNL A   1      50.170  25.567  31.320  1.00  0.00     0.040 A 
ATOM     64  F   UNL A   1      47.959  25.661  32.097  1.00  0.00    -0.206 F 
ATOM     65  C   UNL A   1      51.124  25.846  30.343  1.00  0.00     0.006 A 
ENDBRANCH  44  58
BRANCH  45  66
ATOM     66  C   UNL A   1      38.816  29.118  29.030  1.00  0.00     0.057 A 
ATOM     67  C   UNL A   1      37.965  29.011  30.135  1.00  0.00     0.134 A 
ATOM     68  C   UNL A   1      38.260  29.569  27.827  1.00  0.00     0.134 A 
ATOM     69  F   UNL A   1      38.436  28.567  31.309  1.00  0.00    -0.206 F 
ATOM     70  C   UNL A   1      36.607  29.322  30.046  1.00  0.00     0.040 A 
ATOM     71  C   UNL A   1      36.908  29.908  27.729  1.00  0.00     0.040 A 
ATOM     72  F   UNL A   1      39.024  29.701  26.734  1.00  0.00    -0.206 F 
ATOM     73  C   UNL A   1      36.076  29.777  28.840  1.00  0.00     0.006 A 
ENDBRANCH  45  66
BRANCH  57  74
ATOM     74  C   UNL A   1      44.441  32.496  31.366  1.00  0.00     0.057 A 
ATOM     75  C   UNL A   1      44.385  32.768  32.738  1.00  0.00     0.134 A 
ATOM     76  C   UNL A   1      44.741  33.561  30.506  1.00  0.00     0.134 A 
ATOM     77  F   UNL A   1      44.089  31.794  33.613  1.00  0.00    -0.206 F 
ATOM     78  C   UNL A   1      44.602  34.054  33.235  1.00  0.00     0.040 A 
ATOM     79  C   UNL A   1      44.985  34.845  30.993  1.00  0.00     0.040 A 
ATOM     80  F   UNL A   1      44.818  33.366  29.180  1.00  0.00    -0.206 F 
ATOM     81  C   UNL A   1      44.911  35.095  32.361  1.00  0.00     0.006 A 
ENDBRANCH  57  74
ENDBRANCH  31  32
ENDBRANCH  23  26
ENDBRANCH  21  22
ENDBRANCH  20  21
ENDBRANCH   1  20
TORSDOF 15
ENDMDL
MODEL 3
REMARK VINA RESULT:     -10.6      4.605      9.263
REMARK SMILES CC(C)Cc1ccc([C@H](CF)C(=O)NCCCCNC(=O)c2ccc(-c3c4nc(c(-c5c(F)cccc5F)c5ccc([nH]5)c(-c5c(F)cccc5F)c5nc(c(-c6c(F)cccc6F)c6ccc3[nH]6)C=C5)C=C4)cc2)cc1
REMARK SMILES IDX 16 1 15 2 14 3 12 4 13 5 9 7 8 8 5 9 6 10 77 11 7 12 76 13
REMARK SMILES IDX 4 14 2 15 1 16 3 17 10 18 11 19 17 20 18 21 19 22 20 23
REMARK SMILES IDX 21 25 22 26 23 27 75 28 24 29 74 30 25 31 26 32 27 33 68 34
REMARK SMILES IDX 28 35 73 36 67 37 69 38 29 39 72 40 66 41 65 42 30 44 56 45
REMARK SMILES IDX 39 46 55 47 40 48 43 49 54 50 70 51 41 52 42 53 53 55 71 56
REMARK SMILES IDX 44 57 31 58 32 59 37 60 33 61 34 62 36 63 38 64 35 65 57 66
REMARK SMILES IDX 58 67 63 68 59 69 60 70 62 71 64 72 61 73 45 74 46 75 51 76
REMARK SMILES IDX 47 77 48 78 50 79 52 80 49 81
REMARK H PARENT 14 6 19 24 69 43 43 54
REMARK Flexibility Score: inf
ROOT
ATOM      1  C   UNL A   1      31.067  30.739  25.376  1.00  0.00     0.023 C 
ENDROOT
BRANCH   1   2
ATOM      2  C   UNL A   1      32.268  29.840  25.654  1.00  0.00     0.116 C 
BRANCH   2   3
ATOM      3  N   UNL A   1      33.139  29.742  24.497  1.00  0.00    -0.355 N 
ATOM      4  C   UNL A   1      33.270  28.742  23.580  1.00  0.00     0.230 C 
ATOM      5  O   UNL A   1      34.075  28.917  22.661  1.00  0.00    -0.274 OA
ATOM      6  H   UNL A   1      33.725  30.519  24.352  1.00  0.00     0.163 HD
BRANCH   4   7
ATOM      7  C   UNL A   1      32.482  27.442  23.696  1.00  0.00     0.139 C 
BRANCH   7   8
ATOM      8  C   UNL A   1      33.352  26.218  23.968  1.00  0.00    -0.033 A 
ATOM      9  C   UNL A   1      34.834  23.878  24.571  1.00  0.00    -0.048 A 
ATOM     10  C   UNL A   1      34.348  24.106  23.279  1.00  0.00     0.004 A 
ATOM     11  C   UNL A   1      34.613  24.849  25.552  1.00  0.00     0.004 A 
ATOM     12  C   UNL A   1      33.598  25.248  22.987  1.00  0.00     0.005 A 
ATOM     13  C   UNL A   1      33.880  26.001  25.254  1.00  0.00     0.005 A 
BRANCH   9  14
ATOM     14  C   UNL A   1      35.519  22.575  24.910  1.00  0.00     0.038 C 
BRANCH  14  15
ATOM     15  C   UNL A   1      37.056  22.627  24.756  1.00  0.00    -0.013 C 
ATOM     16  C   UNL A   1      37.748  23.387  25.893  1.00  0.00     0.008 C 
ATOM     17  C   UNL A   1      37.619  21.205  24.690  1.00  0.00     0.008 C 
ENDBRANCH  14  15
ENDBRANCH   9  14
ENDBRANCH   7   8
BRANCH   7  18
ATOM     18  C   UNL A   1      31.521  27.380  22.509  1.00  0.00     0.232 C 
ATOM     19  F   UNL A   1      30.934  28.596  22.323  1.00  0.00    -0.250 F 
ENDBRANCH   7  18
ENDBRANCH   4   7
ENDBRANCH   2   3
ENDBRANCH   1   2
BRANCH   1  20
ATOM     20  C   UNL A   1      30.966  31.961  26.289  1.00  0.00     0.023 C 
BRANCH  20  21
ATOM     21  C   UNL A   1      32.295  32.467  26.838  1.00  0.00     0.116 C 
BRANCH  21  22
ATOM     22  N   UNL A   1      32.218  33.826  27.350  1.00  0.00    -0.352 N 
ATOM     23  C   UNL A   1      33.029  34.448  28.271  1.00  0.00     0.251 C 
ATOM     24  H   UNL A   1      31.486  34.377  26.988  1.00  0.00     0.163 HD
ATOM     25  O   UNL A   1      32.748  35.560  28.698  1.00  0.00    -0.269 OA
BRANCH  23  26
ATOM     26  C   UNL A   1      34.228  33.742  28.768  1.00  0.00     0.039 A 
ATOM     27  C   UNL A   1      35.484  34.319  28.569  1.00  0.00     0.014 A 
ATOM     28  C   UNL A   1      34.105  32.533  29.459  1.00  0.00     0.014 A 
ATOM     29  C   UNL A   1      36.613  33.720  29.129  1.00  0.00     0.010 A 
ATOM     30  C   UNL A   1      35.220  31.978  30.077  1.00  0.00     0.010 A 
ATOM     31  C   UNL A   1      36.485  32.566  29.920  1.00  0.00    -0.014 A 
BRANCH  31  32
ATOM     32  C   UNL A   1      37.657  31.957  30.595  1.00  0.00     0.031 A 
ATOM     33  C   UNL A   1      38.454  30.890  29.901  1.00  0.00     0.074 A 
ATOM     34  C   UNL A   1      37.957  32.308  31.862  1.00  0.00     0.049 A 
ATOM     35  N   UNL A   1      39.450  30.171  30.357  1.00  0.00    -0.248 NA
ATOM     36  C   UNL A   1      38.061  30.564  28.521  1.00  0.00     0.031 C 
ATOM     37  C   UNL A   1      37.229  33.295  32.662  1.00  0.00     0.029 A 
ATOM     38  N   UNL A   1      38.943  31.860  32.704  1.00  0.00    -0.354 N 
ATOM     39  C   UNL A   1      39.786  29.299  29.329  1.00  0.00     0.074 A 
ATOM     40  C   UNL A   1      38.858  29.542  28.247  1.00  0.00     0.031 C 
ATOM     41  C   UNL A   1      37.805  33.391  33.871  1.00  0.00     0.029 A 
ATOM     42  C   UNL A   1      38.916  32.447  33.947  1.00  0.00     0.049 A 
ATOM     43  H   UNL A   1      39.608  31.183  32.443  1.00  0.00     0.167 HD
ATOM     44  C   UNL A   1      40.791  28.393  29.285  1.00  0.00     0.037 A 
ATOM     45  C   UNL A   1      39.692  32.240  35.028  1.00  0.00     0.037 A 
ATOM     46  C   UNL A   1      41.732  28.176  30.352  1.00  0.00     0.049 A 
ATOM     47  C   UNL A   1      40.804  31.230  34.951  1.00  0.00     0.074 A 
ATOM     48  C   UNL A   1      42.826  27.329  30.377  1.00  0.00     0.029 A 
ATOM     49  N   UNL A   1      41.688  28.811  31.585  1.00  0.00    -0.354 N 
ATOM     50  N   UNL A   1      41.154  30.461  33.949  1.00  0.00    -0.248 NA
ATOM     51  C   UNL A   1      41.632  31.065  36.153  1.00  0.00     0.031 C 
ATOM     52  C   UNL A   1      43.420  27.420  31.639  1.00  0.00     0.029 A 
ATOM     53  C   UNL A   1      42.725  28.359  32.385  1.00  0.00     0.049 A 
ATOM     54  H   UNL A   1      41.020  29.482  31.851  1.00  0.00     0.167 HD
ATOM     55  C   UNL A   1      42.258  29.743  34.389  1.00  0.00     0.074 A 
ATOM     56  C   UNL A   1      42.527  30.177  35.744  1.00  0.00     0.031 C 
ATOM     57  C   UNL A   1      42.985  28.809  33.728  1.00  0.00     0.037 A 
BRANCH  44  58
ATOM     58  C   UNL A   1      40.928  27.571  28.037  1.00  0.00     0.057 A 
ATOM     59  C   UNL A   1      41.664  28.020  26.933  1.00  0.00     0.134 A 
ATOM     60  C   UNL A   1      40.342  26.301  27.950  1.00  0.00     0.134 A 
ATOM     61  F   UNL A   1      42.240  29.232  26.947  1.00  0.00    -0.206 F 
ATOM     62  C   UNL A   1      41.794  27.246  25.778  1.00  0.00     0.040 A 
ATOM     63  C   UNL A   1      40.487  25.508  26.811  1.00  0.00     0.040 A 
ATOM     64  F   UNL A   1      39.628  25.808  28.972  1.00  0.00    -0.206 F 
ATOM     65  C   UNL A   1      41.210  25.983  25.717  1.00  0.00     0.006 A 
ENDBRANCH  44  58
BRANCH  45  66
ATOM     66  C   UNL A   1      39.457  33.017  36.270  1.00  0.00     0.057 A 
ATOM     67  C   UNL A   1      38.576  32.556  37.254  1.00  0.00     0.134 A 
ATOM     68  C   UNL A   1      40.099  34.240  36.500  1.00  0.00     0.134 A 
ATOM     69  F   UNL A   1      37.917  31.401  37.082  1.00  0.00    -0.206 F 
ATOM     70  C   UNL A   1      38.326  33.289  38.415  1.00  0.00     0.040 A 
ATOM     71  C   UNL A   1      39.878  34.972  37.668  1.00  0.00     0.040 A 
ATOM     72  F   UNL A   1      40.961  34.733  35.599  1.00  0.00    -0.206 F 
ATOM     73  C   UNL A   1      38.983  34.500  38.627  1.00  0.00     0.006 A 
ENDBRANCH  45  66
BRANCH  57  74
ATOM     74  C   UNL A   1      44.163  28.219  34.445  1.00  0.00     0.057 A 
ATOM     75  C   UNL A   1      45.427  28.820  34.412  1.00  0.00     0.134 A 
ATOM     76  C   UNL A   1      44.017  27.059  35.217  1.00  0.00     0.134 A 
ATOM     77  F   UNL A   1      45.636  29.925  33.680  1.00  0.00    -0.206 F 
ATOM     78  C   UNL A   1      46.509  28.278  35.107  1.00  0.00     0.040 A 
ATOM     79  C   UNL A   1      45.085  26.523  35.937  1.00  0.00     0.040 A 
ATOM     80  F   UNL A   1      42.830  26.438  35.298  1.00  0.00    -0.206 F 
ATOM     81  C   UNL A   1      46.337  27.130  35.879  1.00  0.00     0.006 A 
ENDBRANCH  57  74
ENDBRANCH  31  32
ENDBRANCH  23  26
ENDBRANCH  21  22
ENDBRANCH  20  21
ENDBRANCH   1  20
TORSDOF 15
ENDMDL
