MODEL 1
REMARK VINA RESULT:     -12.7      0.000      0.000
REMARK SMILES Cc1ccc(/C=C(\NC(=O)c2cccc(C)c2)C(=O)NCCCCNC(=O)c2ccc(-c3c4nc(c(-c5c(F)cccc5F)c5ccc([nH]5)c(-c5c(F)cccc5F)c5nc(c(-c6c(F)cccc6F)c6ccc3[nH]6)C=C5)C=C4)cc2)cc1
REMARK SMILES IDX 22 1 21 2 20 3 18 4 19 5 7 7 6 8 5 9 1 10 2 11 3 12 83 13
REMARK SMILES IDX 4 14 82 15 8 16 9 17 10 19 11 20 12 21 17 22 13 23 15 24
REMARK SMILES IDX 14 25 16 26 23 27 24 28 25 29 26 30 27 32 28 33 29 34 81 35
REMARK SMILES IDX 30 36 80 37 31 38 32 39 33 40 74 41 34 42 79 43 73 44 75 45
REMARK SMILES IDX 35 46 78 47 72 48 71 49 36 51 62 52 45 53 61 54 46 55 49 56
REMARK SMILES IDX 60 57 76 58 47 59 48 60 59 62 77 63 50 64 37 65 38 66 43 67
REMARK SMILES IDX 39 68 40 69 42 70 44 71 41 72 63 73 64 74 69 75 65 76 66 77
REMARK SMILES IDX 68 78 70 79 67 80 51 81 52 82 57 83 53 84 54 85 56 86 58 87
REMARK SMILES IDX 55 88
REMARK H PARENT 20 6 8 18 25 31 75 50 49 61
REMARK Flexibility Score: inf
ROOT
ATOM      1  C   UNL A   1      31.948  30.164  26.820  1.00  0.00     0.023 C 
ENDROOT
BRANCH   1   2
ATOM      2  C   UNL A   1      31.877  29.419  25.491  1.00  0.00     0.116 C 
BRANCH   2   3
ATOM      3  N   UNL A   1      32.951  29.676  24.547  1.00  0.00    -0.351 N 
ATOM      4  C   UNL A   1      33.688  28.821  23.763  1.00  0.00     0.267 C 
ATOM      5  O   UNL A   1      34.476  29.327  22.959  1.00  0.00    -0.268 OA
ATOM      6  H   UNL A   1      33.193  30.626  24.453  1.00  0.00     0.163 HD
BRANCH   4   7
ATOM      7  C   UNL A   1      33.620  27.308  23.920  1.00  0.00     0.107 C 
ATOM      8  C   UNL A   1      33.705  26.826  25.182  1.00  0.00     0.040 C 
BRANCH   8   9
ATOM      9  C   UNL A   1      33.664  25.420  25.682  1.00  0.00    -0.023 A 
ATOM     10  C   UNL A   1      33.864  21.466  27.468  1.00  0.00     0.044 C 
ATOM     11  C   UNL A   1      33.797  22.799  26.787  1.00  0.00    -0.051 A 
ATOM     12  C   UNL A   1      32.600  23.509  26.783  1.00  0.00     0.004 A 
ATOM     13  C   UNL A   1      34.916  23.375  26.183  1.00  0.00     0.004 A 
ATOM     14  C   UNL A   1      32.528  24.777  26.197  1.00  0.00     0.008 A 
ATOM     15  C   UNL A   1      34.850  24.668  25.642  1.00  0.00     0.008 A 
ENDBRANCH   8   9
BRANCH   7  16
ATOM     16  N   UNL A   1      33.447  26.448  22.868  1.00  0.00    -0.317 N 
ATOM     17  C   UNL A   1      32.329  26.046  22.181  1.00  0.00     0.255 C 
ATOM     18  H   UNL A   1      34.282  26.041  22.543  1.00  0.00     0.170 HD
ATOM     19  O   UNL A   1      32.462  25.265  21.240  1.00  0.00    -0.269 OA
BRANCH  17  20
ATOM     20  C   UNL A   1      30.980  26.476  22.591  1.00  0.00     0.040 A 
ATOM     21  C   UNL A   1      30.278  25.547  23.355  1.00  0.00     0.014 A 
ATOM     22  C   UNL A   1      30.458  27.757  22.370  1.00  0.00     0.017 A 
ATOM     23  C   UNL A   1      29.155  25.957  24.048  1.00  0.00     0.001 A 
ATOM     24  C   UNL A   1      29.279  28.146  23.020  1.00  0.00    -0.050 A 
ATOM     25  C   UNL A   1      28.649  27.242  23.881  1.00  0.00     0.003 A 
ATOM     26  C   UNL A   1      28.671  29.499  22.809  1.00  0.00     0.044 C 
ENDBRANCH  17  20
ENDBRANCH   7  16
ENDBRANCH   4   7
ENDBRANCH   2   3
ENDBRANCH   1   2
BRANCH   1  27
ATOM     27  C   UNL A   1      33.279  30.113  27.570  1.00  0.00     0.023 C 
BRANCH  27  28
ATOM     28  C   UNL A   1      34.264  31.261  27.343  1.00  0.00     0.116 C 
BRANCH  28  29
ATOM     29  N   UNL A   1      34.784  31.904  28.542  1.00  0.00    -0.352 N 
ATOM     30  C   UNL A   1      35.762  31.493  29.436  1.00  0.00     0.251 C 
ATOM     31  H   UNL A   1      34.374  32.774  28.751  1.00  0.00     0.163 HD
ATOM     32  O   UNL A   1      36.000  32.194  30.410  1.00  0.00    -0.269 OA
BRANCH  30  33
ATOM     33  C   UNL A   1      36.622  30.297  29.179  1.00  0.00     0.039 A 
ATOM     34  C   UNL A   1      36.721  29.327  30.194  1.00  0.00     0.014 A 
ATOM     35  C   UNL A   1      37.432  30.169  28.058  1.00  0.00     0.014 A 
ATOM     36  C   UNL A   1      37.780  28.418  30.200  1.00  0.00     0.010 A 
ATOM     37  C   UNL A   1      38.533  29.335  28.099  1.00  0.00     0.010 A 
ATOM     38  C   UNL A   1      38.758  28.524  29.215  1.00  0.00    -0.014 A 
BRANCH  38  39
ATOM     39  C   UNL A   1      40.123  28.024  29.363  1.00  0.00     0.031 A 
ATOM     40  C   UNL A   1      40.532  26.722  28.805  1.00  0.00     0.074 A 
ATOM     41  C   UNL A   1      41.065  28.869  29.843  1.00  0.00     0.049 A 
ATOM     42  N   UNL A   1      41.662  26.163  29.069  1.00  0.00    -0.248 NA
ATOM     43  C   UNL A   1      39.672  25.893  27.965  1.00  0.00     0.031 C 
ATOM     44  C   UNL A   1      42.516  28.797  29.675  1.00  0.00     0.029 A 
ATOM     45  N   UNL A   1      40.892  29.943  30.715  1.00  0.00    -0.354 N 
ATOM     46  C   UNL A   1      41.811  25.097  28.220  1.00  0.00     0.074 A 
ATOM     47  C   UNL A   1      40.499  24.885  27.665  1.00  0.00     0.031 C 
ATOM     48  C   UNL A   1      43.100  29.582  30.595  1.00  0.00     0.029 A 
ATOM     49  C   UNL A   1      42.053  30.050  31.485  1.00  0.00     0.049 A 
ATOM     50  H   UNL A   1      40.098  30.521  30.776  1.00  0.00     0.167 HD
ATOM     51  C   UNL A   1      43.067  24.615  27.999  1.00  0.00     0.037 A 
ATOM     52  C   UNL A   1      42.052  29.924  32.842  1.00  0.00     0.037 A 
ATOM     53  C   UNL A   1      44.011  25.154  28.983  1.00  0.00     0.049 A 
ATOM     54  C   UNL A   1      42.876  28.737  33.287  1.00  0.00     0.074 A 
ATOM     55  C   UNL A   1      45.033  26.085  28.918  1.00  0.00     0.029 A 
ATOM     56  N   UNL A   1      43.786  24.913  30.339  1.00  0.00    -0.354 N 
ATOM     57  N   UNL A   1      43.257  27.781  32.483  1.00  0.00    -0.248 NA
ATOM     58  C   UNL A   1      43.318  28.516  34.659  1.00  0.00     0.031 C 
ATOM     59  C   UNL A   1      45.337  26.487  30.250  1.00  0.00     0.029 A 
ATOM     60  C   UNL A   1      44.543  25.760  31.124  1.00  0.00     0.049 A 
ATOM     61  H   UNL A   1      43.170  24.229  30.689  1.00  0.00     0.167 HD
ATOM     62  C   UNL A   1      43.960  26.841  33.181  1.00  0.00     0.074 A 
ATOM     63  C   UNL A   1      43.977  27.349  34.541  1.00  0.00     0.031 C 
ATOM     64  C   UNL A   1      44.451  25.717  32.582  1.00  0.00     0.037 A 
BRANCH  51  65
ATOM     65  C   UNL A   1      43.493  23.791  26.799  1.00  0.00     0.057 A 
ATOM     66  C   UNL A   1      43.329  22.390  26.805  1.00  0.00     0.134 A 
ATOM     67  C   UNL A   1      44.175  24.281  25.665  1.00  0.00     0.134 A 
ATOM     68  F   UNL A   1      42.723  21.763  27.825  1.00  0.00    -0.206 F 
ATOM     69  C   UNL A   1      43.799  21.558  25.776  1.00  0.00     0.040 A 
ATOM     70  C   UNL A   1      44.603  23.465  24.607  1.00  0.00     0.040 A 
ATOM     71  F   UNL A   1      44.531  25.562  25.536  1.00  0.00    -0.206 F 
ATOM     72  C   UNL A   1      44.426  22.095  24.664  1.00  0.00     0.006 A 
ENDBRANCH  51  65
BRANCH  52  73
ATOM     73  C   UNL A   1      40.799  30.408  33.481  1.00  0.00     0.057 A 
ATOM     74  C   UNL A   1      40.654  31.796  33.663  1.00  0.00     0.134 A 
ATOM     75  C   UNL A   1      39.626  29.641  33.469  1.00  0.00     0.134 A 
ATOM     76  F   UNL A   1      41.740  32.585  33.691  1.00  0.00    -0.206 F 
ATOM     77  C   UNL A   1      39.400  32.410  33.688  1.00  0.00     0.040 A 
ATOM     78  C   UNL A   1      38.363  30.248  33.505  1.00  0.00     0.040 A 
ATOM     79  F   UNL A   1      39.678  28.322  33.247  1.00  0.00    -0.206 F 
ATOM     80  C   UNL A   1      38.249  31.637  33.569  1.00  0.00     0.006 A 
ENDBRANCH  52  73
BRANCH  64  81
ATOM     81  C   UNL A   1      44.960  24.504  33.319  1.00  0.00     0.057 A 
ATOM     82  C   UNL A   1      44.248  23.299  33.429  1.00  0.00     0.134 A 
ATOM     83  C   UNL A   1      46.281  24.467  33.814  1.00  0.00     0.134 A 
ATOM     84  F   UNL A   1      43.028  23.152  32.895  1.00  0.00    -0.206 F 
ATOM     85  C   UNL A   1      44.784  22.163  34.047  1.00  0.00     0.040 A 
ATOM     86  C   UNL A   1      46.846  23.321  34.382  1.00  0.00     0.040 A 
ATOM     87  F   UNL A   1      47.090  25.534  33.743  1.00  0.00    -0.206 F 
ATOM     88  C   UNL A   1      46.091  22.166  34.516  1.00  0.00     0.006 A 
ENDBRANCH  64  81
ENDBRANCH  38  39
ENDBRANCH  30  33
ENDBRANCH  28  29
ENDBRANCH  27  28
ENDBRANCH   1  27
TORSDOF 14
ENDMDL
MODEL 2
REMARK VINA RESULT:     -12.7      1.615      2.461
REMARK SMILES Cc1ccc(/C=C(\NC(=O)c2cccc(C)c2)C(=O)NCCCCNC(=O)c2ccc(-c3c4nc(c(-c5c(F)cccc5F)c5ccc([nH]5)c(-c5c(F)cccc5F)c5nc(c(-c6c(F)cccc6F)c6ccc3[nH]6)C=C5)C=C4)cc2)cc1
REMARK SMILES IDX 22 1 21 2 20 3 18 4 19 5 7 7 6 8 5 9 1 10 2 11 3 12 83 13
REMARK SMILES IDX 4 14 82 15 8 16 9 17 10 19 11 20 12 21 17 22 13 23 15 24
REMARK SMILES IDX 14 25 16 26 23 27 24 28 25 29 26 30 27 32 28 33 29 34 81 35
REMARK SMILES IDX 30 36 80 37 31 38 32 39 33 40 74 41 34 42 79 43 73 44 75 45
REMARK SMILES IDX 35 46 78 47 72 48 71 49 36 51 62 52 45 53 61 54 46 55 49 56
REMARK SMILES IDX 60 57 76 58 47 59 48 60 59 62 77 63 50 64 37 65 38 66 43 67
REMARK SMILES IDX 39 68 40 69 42 70 44 71 41 72 63 73 64 74 69 75 65 76 66 77
REMARK SMILES IDX 68 78 70 79 67 80 51 81 52 82 57 83 53 84 54 85 56 86 58 87
REMARK SMILES IDX 55 88
REMARK H PARENT 20 6 8 18 25 31 75 50 49 61
REMARK Flexibility Score: inf
ROOT
ATOM      1  C   UNL A   1      32.282  28.545  27.631  1.00  0.00     0.023 C 
ENDROOT
BRANCH   1   2
ATOM      2  C   UNL A   1      32.380  27.358  26.677  1.00  0.00     0.116 C 
BRANCH   2   3
ATOM      3  N   UNL A   1      31.284  26.405  26.717  1.00  0.00    -0.351 N 
ATOM      4  C   UNL A   1      31.237  25.070  26.394  1.00  0.00     0.267 C 
ATOM      5  O   UNL A   1      30.186  24.467  26.630  1.00  0.00    -0.268 OA
ATOM      6  H   UNL A   1      30.429  26.779  27.029  1.00  0.00     0.163 HD
BRANCH   4   7
ATOM      7  C   UNL A   1      32.386  24.360  25.692  1.00  0.00     0.107 C 
ATOM      8  C   UNL A   1      33.447  24.018  26.462  1.00  0.00     0.040 C 
BRANCH   8   9
ATOM      9  C   UNL A   1      34.714  23.316  26.102  1.00  0.00    -0.023 A 
ATOM     10  C   UNL A   1      38.587  21.459  25.455  1.00  0.00     0.044 C 
ATOM     11  C   UNL A   1      37.249  22.118  25.608  1.00  0.00    -0.051 A 
ATOM     12  C   UNL A   1      36.113  21.332  25.779  1.00  0.00     0.004 A 
ATOM     13  C   UNL A   1      37.109  23.506  25.622  1.00  0.00     0.004 A 
ATOM     14  C   UNL A   1      34.862  21.926  25.975  1.00  0.00     0.008 A 
ATOM     15  C   UNL A   1      35.858  24.096  25.869  1.00  0.00     0.008 A 
ENDBRANCH   8   9
BRANCH   7  16
ATOM     16  N   UNL A   1      32.373  24.035  24.361  1.00  0.00    -0.317 N 
ATOM     17  C   UNL A   1      32.455  24.802  23.226  1.00  0.00     0.255 C 
ATOM     18  H   UNL A   1      32.289  23.070  24.185  1.00  0.00     0.170 HD
ATOM     19  O   UNL A   1      32.443  24.241  22.131  1.00  0.00    -0.269 OA
BRANCH  17  20
ATOM     20  C   UNL A   1      32.486  26.274  23.294  1.00  0.00     0.040 A 
ATOM     21  C   UNL A   1      33.760  26.830  23.371  1.00  0.00     0.014 A 
ATOM     22  C   UNL A   1      31.358  27.094  23.159  1.00  0.00     0.017 A 
ATOM     23  C   UNL A   1      33.922  28.179  23.124  1.00  0.00     0.001 A 
ATOM     24  C   UNL A   1      31.523  28.474  22.980  1.00  0.00    -0.050 A 
ATOM     25  C   UNL A   1      32.816  29.003  22.937  1.00  0.00     0.003 A 
ATOM     26  C   UNL A   1      30.350  29.397  22.844  1.00  0.00     0.044 C 
ENDBRANCH  17  20
ENDBRANCH   7  16
ENDBRANCH   4   7
ENDBRANCH   2   3
ENDBRANCH   1   2
BRANCH   1  27
ATOM     27  C   UNL A   1      32.140  29.929  26.998  1.00  0.00     0.023 C 
BRANCH  27  28
ATOM     28  C   UNL A   1      33.424  30.705  26.697  1.00  0.00     0.116 C 
BRANCH  28  29
ATOM     29  N   UNL A   1      33.872  31.625  27.733  1.00  0.00    -0.352 N 
ATOM     30  C   UNL A   1      34.876  31.498  28.682  1.00  0.00     0.251 C 
ATOM     31  H   UNL A   1      33.382  32.478  27.764  1.00  0.00     0.163 HD
ATOM     32  O   UNL A   1      35.041  32.403  29.488  1.00  0.00    -0.269 OA
BRANCH  30  33
ATOM     33  C   UNL A   1      35.845  30.359  28.666  1.00  0.00     0.039 A 
ATOM     34  C   UNL A   1      36.159  29.746  29.893  1.00  0.00     0.014 A 
ATOM     35  C   UNL A   1      36.551  29.976  27.532  1.00  0.00     0.014 A 
ATOM     36  C   UNL A   1      37.317  28.975  30.020  1.00  0.00     0.010 A 
ATOM     37  C   UNL A   1      37.743  29.290  27.666  1.00  0.00     0.010 A 
ATOM     38  C   UNL A   1      38.173  28.869  28.927  1.00  0.00    -0.014 A 
BRANCH  38  39
ATOM     39  C   UNL A   1      39.596  28.556  29.034  1.00  0.00     0.031 A 
ATOM     40  C   UNL A   1      40.118  27.217  28.702  1.00  0.00     0.074 A 
ATOM     41  C   UNL A   1      40.461  29.576  29.244  1.00  0.00     0.049 A 
ATOM     42  N   UNL A   1      41.325  26.846  28.957  1.00  0.00    -0.248 NA
ATOM     43  C   UNL A   1      39.304  26.148  28.130  1.00  0.00     0.031 C 
ATOM     44  C   UNL A   1      41.893  29.623  28.950  1.00  0.00     0.029 A 
ATOM     45  N   UNL A   1      40.225  30.781  29.902  1.00  0.00    -0.354 N 
ATOM     46  C   UNL A   1      41.539  25.650  28.321  1.00  0.00     0.074 A 
ATOM     47  C   UNL A   1      40.224  25.193  27.951  1.00  0.00     0.031 C 
ATOM     48  C   UNL A   1      42.445  30.637  29.636  1.00  0.00     0.029 A 
ATOM     49  C   UNL A   1      41.419  31.165  30.518  1.00  0.00     0.049 A 
ATOM     50  H   UNL A   1      39.372  31.273  29.928  1.00  0.00     0.167 HD
ATOM     51  C   UNL A   1      42.823  25.267  28.075  1.00  0.00     0.037 A 
ATOM     52  C   UNL A   1      41.538  31.320  31.866  1.00  0.00     0.037 A 
ATOM     53  C   UNL A   1      43.766  26.093  28.836  1.00  0.00     0.049 A 
ATOM     54  C   UNL A   1      42.532  30.343  32.450  1.00  0.00     0.074 A 
ATOM     55  C   UNL A   1      44.658  27.093  28.489  1.00  0.00     0.029 A 
ATOM     56  N   UNL A   1      43.677  26.112  30.228  1.00  0.00    -0.354 N 
ATOM     57  N   UNL A   1      42.965  29.288  31.814  1.00  0.00    -0.248 NA
ATOM     58  C   UNL A   1      43.101  30.456  33.788  1.00  0.00     0.031 C 
ATOM     59  C   UNL A   1      45.011  27.788  29.680  1.00  0.00     0.029 A 
ATOM     60  C   UNL A   1      44.382  27.178  30.754  1.00  0.00     0.049 A 
ATOM     61  H   UNL A   1      43.178  25.455  30.765  1.00  0.00     0.167 HD
ATOM     62  C   UNL A   1      43.829  28.590  32.608  1.00  0.00     0.074 A 
ATOM     63  C   UNL A   1      43.888  29.365  33.835  1.00  0.00     0.031 C 
ATOM     64  C   UNL A   1      44.408  27.425  32.194  1.00  0.00     0.037 A 
BRANCH  51  65
ATOM     65  C   UNL A   1      43.254  24.264  27.022  1.00  0.00     0.057 A 
ATOM     66  C   UNL A   1      43.723  24.707  25.769  1.00  0.00     0.134 A 
ATOM     67  C   UNL A   1      43.124  22.862  27.120  1.00  0.00     0.134 A 
ATOM     68  F   UNL A   1      43.877  26.013  25.503  1.00  0.00    -0.206 F 
ATOM     69  C   UNL A   1      44.034  23.834  24.713  1.00  0.00     0.040 A 
ATOM     70  C   UNL A   1      43.481  21.978  26.091  1.00  0.00     0.040 A 
ATOM     71  F   UNL A   1      42.583  22.260  28.184  1.00  0.00    -0.206 F 
ATOM     72  C   UNL A   1      43.928  22.463  24.875  1.00  0.00     0.006 A 
ENDBRANCH  51  65
BRANCH  52  73
ATOM     73  C   UNL A   1      40.287  31.791  32.519  1.00  0.00     0.057 A 
ATOM     74  C   UNL A   1      39.973  33.159  32.418  1.00  0.00     0.134 A 
ATOM     75  C   UNL A   1      39.230  30.915  32.798  1.00  0.00     0.134 A 
ATOM     76  F   UNL A   1      40.943  34.052  32.161  1.00  0.00    -0.206 F 
ATOM     77  C   UNL A   1      38.655  33.619  32.448  1.00  0.00     0.040 A 
ATOM     78  C   UNL A   1      37.904  31.368  32.840  1.00  0.00     0.040 A 
ATOM     79  F   UNL A   1      39.439  29.594  32.856  1.00  0.00    -0.206 F 
ATOM     80  C   UNL A   1      37.612  32.715  32.621  1.00  0.00     0.006 A 
ENDBRANCH  52  73
BRANCH  64  81
ATOM     81  C   UNL A   1      45.116  26.449  33.099  1.00  0.00     0.057 A 
ATOM     82  C   UNL A   1      44.460  25.611  34.015  1.00  0.00     0.134 A 
ATOM     83  C   UNL A   1      46.500  26.211  32.955  1.00  0.00     0.134 A 
ATOM     84  F   UNL A   1      43.129  25.644  34.167  1.00  0.00    -0.206 F 
ATOM     85  C   UNL A   1      45.138  24.655  34.780  1.00  0.00     0.040 A 
ATOM     86  C   UNL A   1      47.178  25.221  33.672  1.00  0.00     0.040 A 
ATOM     87  F   UNL A   1      47.248  26.911  32.090  1.00  0.00    -0.206 F 
ATOM     88  C   UNL A   1      46.500  24.448  34.602  1.00  0.00     0.006 A 
ENDBRANCH  64  81
ENDBRANCH  38  39
ENDBRANCH  30  33
ENDBRANCH  28  29
ENDBRANCH  27  28
ENDBRANCH   1  27
TORSDOF 14
ENDMDL
MODEL 3
REMARK VINA RESULT:     -12.6      3.591      8.809
REMARK SMILES Cc1ccc(/C=C(\NC(=O)c2cccc(C)c2)C(=O)NCCCCNC(=O)c2ccc(-c3c4nc(c(-c5c(F)cccc5F)c5ccc([nH]5)c(-c5c(F)cccc5F)c5nc(c(-c6c(F)cccc6F)c6ccc3[nH]6)C=C5)C=C4)cc2)cc1
REMARK SMILES IDX 22 1 21 2 20 3 18 4 19 5 7 7 6 8 5 9 1 10 2 11 3 12 83 13
REMARK SMILES IDX 4 14 82 15 8 16 9 17 10 19 11 20 12 21 17 22 13 23 15 24
REMARK SMILES IDX 14 25 16 26 23 27 24 28 25 29 26 30 27 32 28 33 29 34 81 35
REMARK SMILES IDX 30 36 80 37 31 38 32 39 33 40 74 41 34 42 79 43 73 44 75 45
REMARK SMILES IDX 35 46 78 47 72 48 71 49 36 51 62 52 45 53 61 54 46 55 49 56
REMARK SMILES IDX 60 57 76 58 47 59 48 60 59 62 77 63 50 64 37 65 38 66 43 67
REMARK SMILES IDX 39 68 40 69 42 70 44 71 41 72 63 73 64 74 69 75 65 76 66 77
REMARK SMILES IDX 68 78 70 79 67 80 51 81 52 82 57 83 53 84 54 85 56 86 58 87
REMARK SMILES IDX 55 88
REMARK H PARENT 20 6 8 18 25 31 75 50 49 61
REMARK Flexibility Score: inf
ROOT
ATOM      1  C   UNL A   1      36.708  19.966  25.001  1.00  0.00     0.023 C 
ENDROOT
BRANCH   1   2
ATOM      2  C   UNL A   1      35.310  20.496  24.701  1.00  0.00     0.116 C 
BRANCH   2   3
ATOM      3  N   UNL A   1      34.202  19.609  25.010  1.00  0.00    -0.351 N 
ATOM      4  C   UNL A   1      32.845  19.829  25.023  1.00  0.00     0.267 C 
ATOM      5  O   UNL A   1      32.115  18.853  25.219  1.00  0.00    -0.268 OA
ATOM      6  H   UNL A   1      34.468  18.692  25.251  1.00  0.00     0.163 HD
BRANCH   4   7
ATOM      7  C   UNL A   1      32.244  21.222  24.892  1.00  0.00     0.107 C 
ATOM      8  C   UNL A   1      32.479  21.875  23.730  1.00  0.00     0.040 C 
BRANCH   8   9
ATOM      9  C   UNL A   1      32.037  23.227  23.277  1.00  0.00    -0.023 A 
ATOM     10  C   UNL A   1      30.657  27.255  22.420  1.00  0.00     0.044 C 
ATOM     11  C   UNL A   1      31.096  25.843  22.659  1.00  0.00    -0.051 A 
ATOM     12  C   UNL A   1      32.408  25.475  22.378  1.00  0.00     0.004 A 
ATOM     13  C   UNL A   1      30.234  24.883  23.192  1.00  0.00     0.004 A 
ATOM     14  C   UNL A   1      32.853  24.175  22.640  1.00  0.00     0.008 A 
ATOM     15  C   UNL A   1      30.700  23.595  23.500  1.00  0.00     0.008 A 
ENDBRANCH   8   9
BRANCH   7  16
ATOM     16  N   UNL A   1      31.473  21.805  25.863  1.00  0.00    -0.317 N 
ATOM     17  C   UNL A   1      31.618  22.967  26.578  1.00  0.00     0.255 C 
ATOM     18  H   UNL A   1      30.662  21.295  26.090  1.00  0.00     0.170 HD
ATOM     19  O   UNL A   1      30.746  23.274  27.390  1.00  0.00    -0.269 OA
BRANCH  17  20
ATOM     20  C   UNL A   1      32.821  23.808  26.443  1.00  0.00     0.040 A 
ATOM     21  C   UNL A   1      34.028  23.121  26.543  1.00  0.00     0.014 A 
ATOM     22  C   UNL A   1      32.800  25.167  26.106  1.00  0.00     0.017 A 
ATOM     23  C   UNL A   1      35.191  23.739  26.124  1.00  0.00     0.001 A 
ATOM     24  C   UNL A   1      33.993  25.810  25.750  1.00  0.00    -0.050 A 
ATOM     25  C   UNL A   1      35.182  25.076  25.736  1.00  0.00     0.003 A 
ATOM     26  C   UNL A   1      34.028  27.266  25.394  1.00  0.00     0.044 C 
ENDBRANCH  17  20
ENDBRANCH   7  16
ENDBRANCH   4   7
ENDBRANCH   2   3
ENDBRANCH   1   2
BRANCH   1  27
ATOM     27  C   UNL A   1      37.882  20.883  24.659  1.00  0.00     0.023 C 
BRANCH  27  28
ATOM     28  C   UNL A   1      38.317  21.901  25.715  1.00  0.00     0.116 C 
BRANCH  28  29
ATOM     29  N   UNL A   1      39.707  21.829  26.139  1.00  0.00    -0.352 N 
ATOM     30  C   UNL A   1      40.568  22.821  26.587  1.00  0.00     0.251 C 
ATOM     31  H   UNL A   1      40.102  20.928  26.103  1.00  0.00     0.163 HD
ATOM     32  O   UNL A   1      41.725  22.522  26.848  1.00  0.00    -0.269 OA
BRANCH  30  33
ATOM     33  C   UNL A   1      40.095  24.208  26.887  1.00  0.00     0.039 A 
ATOM     34  C   UNL A   1      40.613  25.262  26.112  1.00  0.00     0.014 A 
ATOM     35  C   UNL A   1      39.289  24.518  27.976  1.00  0.00     0.014 A 
ATOM     36  C   UNL A   1      40.541  26.578  26.573  1.00  0.00     0.010 A 
ATOM     37  C   UNL A   1      39.289  25.803  28.484  1.00  0.00     0.010 A 
ATOM     38  C   UNL A   1      39.995  26.817  27.831  1.00  0.00    -0.014 A 
BRANCH  38  39
ATOM     39  C   UNL A   1      40.296  27.995  28.641  1.00  0.00     0.031 A 
ATOM     40  C   UNL A   1      39.338  29.108  28.770  1.00  0.00     0.074 A 
ATOM     41  C   UNL A   1      41.387  27.958  29.441  1.00  0.00     0.049 A 
ATOM     42  N   UNL A   1      39.635  30.236  29.316  1.00  0.00    -0.248 NA
ATOM     43  C   UNL A   1      37.985  29.081  28.222  1.00  0.00     0.031 C 
ATOM     44  C   UNL A   1      41.662  28.759  30.634  1.00  0.00     0.029 A 
ATOM     45  N   UNL A   1      42.566  27.238  29.255  1.00  0.00    -0.354 N 
ATOM     46  C   UNL A   1      38.470  30.944  29.476  1.00  0.00     0.074 A 
ATOM     47  C   UNL A   1      37.509  30.254  28.655  1.00  0.00     0.031 C 
ATOM     48  C   UNL A   1      42.975  28.691  30.910  1.00  0.00     0.029 A 
ATOM     49  C   UNL A   1      43.607  27.986  29.810  1.00  0.00     0.049 A 
ATOM     50  H   UNL A   1      42.650  26.362  28.813  1.00  0.00     0.167 HD
ATOM     51  C   UNL A   1      38.444  31.950  30.394  1.00  0.00     0.037 A 
ATOM     52  C   UNL A   1      44.661  28.444  29.076  1.00  0.00     0.037 A 
ATOM     53  C   UNL A   1      39.803  32.292  30.829  1.00  0.00     0.049 A 
ATOM     54  C   UNL A   1      44.708  29.955  29.063  1.00  0.00     0.074 A 
ATOM     55  C   UNL A   1      40.512  32.086  31.999  1.00  0.00     0.029 A 
ATOM     56  N   UNL A   1      40.729  32.721  29.879  1.00  0.00    -0.354 N 
ATOM     57  N   UNL A   1      43.707  30.712  29.421  1.00  0.00    -0.248 NA
ATOM     58  C   UNL A   1      45.864  30.733  28.633  1.00  0.00     0.031 C 
ATOM     59  C   UNL A   1      41.892  32.282  31.708  1.00  0.00     0.029 A 
ATOM     60  C   UNL A   1      42.015  32.662  30.381  1.00  0.00     0.049 A 
ATOM     61  H   UNL A   1      40.498  33.024  28.971  1.00  0.00     0.167 HD
ATOM     62  C   UNL A   1      44.043  32.027  29.275  1.00  0.00     0.074 A 
ATOM     63  C   UNL A   1      45.409  31.990  28.783  1.00  0.00     0.031 C 
ATOM     64  C   UNL A   1      43.162  33.032  29.554  1.00  0.00     0.037 A 
BRANCH  51  65
ATOM     65  C   UNL A   1      37.194  32.522  31.035  1.00  0.00     0.057 A 
ATOM     66  C   UNL A   1      36.734  32.015  32.267  1.00  0.00     0.134 A 
ATOM     67  C   UNL A   1      36.332  33.474  30.451  1.00  0.00     0.134 A 
ATOM     68  F   UNL A   1      37.424  31.082  32.940  1.00  0.00    -0.206 F 
ATOM     69  C   UNL A   1      35.527  32.421  32.862  1.00  0.00     0.040 A 
ATOM     70  C   UNL A   1      35.152  33.926  31.061  1.00  0.00     0.040 A 
ATOM     71  F   UNL A   1      36.536  33.979  29.231  1.00  0.00    -0.206 F 
ATOM     72  C   UNL A   1      34.738  33.391  32.267  1.00  0.00     0.006 A 
ENDBRANCH  51  65
BRANCH  52  73
ATOM     73  C   UNL A   1      45.031  27.547  27.949  1.00  0.00     0.057 A 
ATOM     74  C   UNL A   1      45.771  26.390  28.254  1.00  0.00     0.134 A 
ATOM     75  C   UNL A   1      44.313  27.545  26.746  1.00  0.00     0.134 A 
ATOM     76  F   UNL A   1      46.487  26.331  29.388  1.00  0.00    -0.206 F 
ATOM     77  C   UNL A   1      45.689  25.234  27.474  1.00  0.00     0.040 A 
ATOM     78  C   UNL A   1      44.232  26.394  25.952  1.00  0.00     0.040 A 
ATOM     79  F   UNL A   1      43.542  28.588  26.413  1.00  0.00    -0.206 F 
ATOM     80  C   UNL A   1      44.885  25.223  26.338  1.00  0.00     0.006 A 
ENDBRANCH  52  73
BRANCH  64  81
ATOM     81  C   UNL A   1      43.340  34.470  29.137  1.00  0.00     0.057 A 
ATOM     82  C   UNL A   1      43.323  34.907  27.803  1.00  0.00     0.134 A 
ATOM     83  C   UNL A   1      43.377  35.498  30.104  1.00  0.00     0.134 A 
ATOM     84  F   UNL A   1      43.169  34.049  26.785  1.00  0.00    -0.206 F 
ATOM     85  C   UNL A   1      43.405  36.260  27.453  1.00  0.00     0.040 A 
ATOM     86  C   UNL A   1      43.402  36.855  29.767  1.00  0.00     0.040 A 
ATOM     87  F   UNL A   1      43.362  35.230  31.418  1.00  0.00    -0.206 F 
ATOM     88  C   UNL A   1      43.433  37.241  28.436  1.00  0.00     0.006 A 
ENDBRANCH  64  81
ENDBRANCH  38  39
ENDBRANCH  30  33
ENDBRANCH  28  29
ENDBRANCH  27  28
ENDBRANCH   1  27
TORSDOF 14
ENDMDL
