MODEL 1
REMARK VINA RESULT:     -13.0      0.000      0.000
REMARK SMILES CCCC(=O)N(c1cc2sc(=O)oc2c2ccccc12)S(=O)(=O)c1ccc(C(=O)NCCCCNC(=O)c2ccc(-c3c4nc(c(-c5c(F)cccc5F)c5ccc([nH]5)c(-c5c(F)cccc5F)c5nc(c(-c6c(F)cccc6F)c6ccc3[nH]6)C=C5)C=C4)cc2)cc1
REMARK SMILES IDX 31 1 30 2 28 3 29 4 27 6 24 7 25 8 93 9 26 10 92 11 21 12
REMARK SMILES IDX 22 13 23 14 6 15 4 16 5 17 3 18 2 19 1 20 7 21 8 22 20 23
REMARK SMILES IDX 9 24 15 25 19 26 10 27 14 28 16 29 18 30 11 31 13 32 17 33
REMARK SMILES IDX 12 34 32 35 33 36 34 37 35 38 36 39 37 41 38 42 39 43 91 44
REMARK SMILES IDX 40 45 90 46 41 47 42 48 43 49 84 50 44 51 89 52 83 53 85 54
REMARK SMILES IDX 45 55 88 56 82 57 81 58 46 60 72 61 55 62 71 63 56 64 59 65
REMARK SMILES IDX 70 66 86 67 57 68 58 69 69 71 87 72 60 73 47 74 48 75 53 76
REMARK SMILES IDX 49 77 50 78 52 79 54 80 51 81 73 82 74 83 79 84 75 85 76 86
REMARK SMILES IDX 78 87 80 88 77 89 61 90 62 91 67 92 63 93 64 94 66 95 68 96
REMARK SMILES IDX 65 97
REMARK H PARENT 30 5 35 40 85 59 59 70
REMARK Flexibility Score: inf
ROOT
ATOM      1  C   UNL A   1      35.526  21.085  24.959  1.00  0.00     0.116 C 
ENDROOT
BRANCH   1   2
ATOM      2  N   UNL A   1      34.371  20.241  25.205  1.00  0.00    -0.352 N 
ATOM      3  C   UNL A   1      33.028  20.531  25.141  1.00  0.00     0.251 C 
ATOM      4  O   UNL A   1      32.228  19.620  25.355  1.00  0.00    -0.269 OA
ATOM      5  H   UNL A   1      34.584  19.313  25.456  1.00  0.00     0.163 HD
BRANCH   3   6
ATOM      6  C   UNL A   1      32.512  21.918  24.920  1.00  0.00     0.039 A 
ATOM      7  C   UNL A   1      31.075  24.282  24.443  1.00  0.00     0.088 A 
ATOM      8  C   UNL A   1      31.479  23.482  23.373  1.00  0.00     0.023 A 
ATOM      9  C   UNL A   1      31.578  24.014  25.714  1.00  0.00     0.023 A 
ATOM     10  C   UNL A   1      32.130  22.268  23.618  1.00  0.00     0.015 A 
ATOM     11  C   UNL A   1      32.356  22.874  25.925  1.00  0.00     0.015 A 
BRANCH   7  12
ATOM     12  S   UNL A   1      30.023  25.712  24.196  1.00  0.00     0.270 S 
ATOM     13  O   UNL A   1      29.594  26.098  25.520  1.00  0.00    -0.201 OA
ATOM     14  O   UNL A   1      29.069  25.308  23.175  1.00  0.00    -0.201 OA
BRANCH  12  15
ATOM     15  N   UNL A   1      30.963  26.966  23.494  1.00  0.00    -0.202 N 
BRANCH  15  16
ATOM     16  C   UNL A   1      31.771  26.617  22.353  1.00  0.00     0.241 C 
ATOM     17  O   UNL A   1      31.271  26.355  21.262  1.00  0.00    -0.273 OA
BRANCH  16  18
ATOM     18  C   UNL A   1      33.287  26.506  22.506  1.00  0.00     0.101 C 
BRANCH  18  19
ATOM     19  C   UNL A   1      33.832  27.081  23.816  1.00  0.00     0.006 C 
ATOM     20  C   UNL A   1      34.236  25.996  24.806  1.00  0.00     0.004 C 
ENDBRANCH  18  19
ENDBRANCH  16  18
ENDBRANCH  15  16
BRANCH  15  21
ATOM     21  C   UNL A   1      30.460  28.313  23.548  1.00  0.00     0.070 A 
ATOM     22  C   UNL A   1      29.563  28.666  22.524  1.00  0.00     0.051 A 
ATOM     23  C   UNL A   1      30.891  29.279  24.516  1.00  0.00     0.010 A 
ATOM     24  C   UNL A   1      29.121  29.972  22.442  1.00  0.00     0.080 A 
ATOM     25  C   UNL A   1      30.322  30.582  24.475  1.00  0.00     0.028 A 
ATOM     26  C   UNL A   1      31.841  29.022  25.532  1.00  0.00     0.011 A 
ATOM     27  S   UNL A   1      28.134  30.696  21.189  1.00  0.00    -0.052 S 
ATOM     28  C   UNL A   1      29.483  30.907  23.401  1.00  0.00     0.157 A 
ATOM     29  C   UNL A   1      30.599  31.503  25.504  1.00  0.00     0.013 A 
ATOM     30  C   UNL A   1      32.097  29.943  26.550  1.00  0.00     0.001 A 
ATOM     31  C   UNL A   1      28.288  32.246  22.024  1.00  0.00     0.396 A 
ATOM     32  O   UNL A   1      29.000  32.210  23.220  1.00  0.00    -0.413 OA
ATOM     33  C   UNL A   1      31.451  31.171  26.553  1.00  0.00     0.001 A 
ATOM     34  O   UNL A   1      27.796  33.274  21.581  1.00  0.00    -0.233 OA
ENDBRANCH  15  21
ENDBRANCH  12  15
ENDBRANCH   7  12
ENDBRANCH   3   6
ENDBRANCH   1   2
BRANCH   1  35
ATOM     35  C   UNL A   1      35.961  21.970  26.118  1.00  0.00     0.023 C 
BRANCH  35  36
ATOM     36  C   UNL A   1      36.487  23.349  25.739  1.00  0.00     0.023 C 
BRANCH  36  37
ATOM     37  C   UNL A   1      37.966  23.577  26.055  1.00  0.00     0.116 C 
BRANCH  37  38
ATOM     38  N   UNL A   1      38.705  22.370  26.406  1.00  0.00    -0.352 N 
ATOM     39  C   UNL A   1      39.824  22.236  27.202  1.00  0.00     0.251 C 
ATOM     40  H   UNL A   1      38.358  21.533  26.021  1.00  0.00     0.163 HD
ATOM     41  O   UNL A   1      40.331  21.141  27.413  1.00  0.00    -0.269 OA
BRANCH  39  42
ATOM     42  C   UNL A   1      40.455  23.464  27.711  1.00  0.00     0.039 A 
ATOM     43  C   UNL A   1      39.676  24.597  27.950  1.00  0.00     0.014 A 
ATOM     44  C   UNL A   1      41.850  23.518  27.742  1.00  0.00     0.014 A 
ATOM     45  C   UNL A   1      40.290  25.835  27.992  1.00  0.00     0.010 A 
ATOM     46  C   UNL A   1      42.468  24.757  27.856  1.00  0.00     0.010 A 
ATOM     47  C   UNL A   1      41.683  25.918  27.915  1.00  0.00    -0.014 A 
BRANCH  47  48
ATOM     48  C   UNL A   1      42.234  27.269  28.061  1.00  0.00     0.031 A 
ATOM     49  C   UNL A   1      41.148  28.292  27.899  1.00  0.00     0.074 A 
ATOM     50  C   UNL A   1      43.228  27.524  28.937  1.00  0.00     0.049 A 
ATOM     51  N   UNL A   1      40.300  28.600  28.835  1.00  0.00    -0.248 NA
ATOM     52  C   UNL A   1      40.754  28.762  26.570  1.00  0.00     0.031 C 
ATOM     53  C   UNL A   1      43.370  26.959  30.279  1.00  0.00     0.029 A 
ATOM     54  N   UNL A   1      44.255  28.440  28.840  1.00  0.00    -0.354 N 
ATOM     55  C   UNL A   1      39.253  29.278  28.234  1.00  0.00     0.074 A 
ATOM     56  C   UNL A   1      39.572  29.345  26.826  1.00  0.00     0.031 C 
ATOM     57  C   UNL A   1      44.314  27.656  30.942  1.00  0.00     0.029 A 
ATOM     58  C   UNL A   1      44.914  28.656  30.052  1.00  0.00     0.049 A 
ATOM     59  H   UNL A   1      44.498  28.896  28.002  1.00  0.00     0.167 HD
ATOM     60  C   UNL A   1      38.194  29.755  28.939  1.00  0.00     0.037 A 
ATOM     61  C   UNL A   1      45.287  29.905  30.459  1.00  0.00     0.037 A 
ATOM     62  C   UNL A   1      38.265  29.552  30.355  1.00  0.00     0.049 A 
ATOM     63  C   UNL A   1      43.966  30.497  30.888  1.00  0.00     0.074 A 
ATOM     64  C   UNL A   1      37.708  28.735  31.313  1.00  0.00     0.029 A 
ATOM     65  N   UNL A   1      39.105  30.386  31.052  1.00  0.00    -0.354 N 
ATOM     66  N   UNL A   1      43.353  30.258  32.017  1.00  0.00    -0.248 NA
ATOM     67  C   UNL A   1      43.116  31.075  29.846  1.00  0.00     0.031 C 
ATOM     68  C   UNL A   1      38.587  28.824  32.440  1.00  0.00     0.029 A 
ATOM     69  C   UNL A   1      39.642  29.662  32.080  1.00  0.00     0.049 A 
ATOM     70  H   UNL A   1      39.287  31.332  30.849  1.00  0.00     0.167 HD
ATOM     71  C   UNL A   1      41.990  30.382  31.735  1.00  0.00     0.074 A 
ATOM     72  C   UNL A   1      41.917  30.930  30.395  1.00  0.00     0.031 C 
ATOM     73  C   UNL A   1      41.004  29.851  32.519  1.00  0.00     0.037 A 
BRANCH  60  74
ATOM     74  C   UNL A   1      37.138  30.651  28.429  1.00  0.00     0.057 A 
ATOM     75  C   UNL A   1      35.867  30.212  28.065  1.00  0.00     0.134 A 
ATOM     76  C   UNL A   1      37.329  32.028  28.618  1.00  0.00     0.134 A 
ATOM     77  F   UNL A   1      35.620  28.909  27.871  1.00  0.00    -0.206 F 
ATOM     78  C   UNL A   1      34.802  31.114  27.966  1.00  0.00     0.040 A 
ATOM     79  C   UNL A   1      36.274  32.931  28.548  1.00  0.00     0.040 A 
ATOM     80  F   UNL A   1      38.541  32.500  28.956  1.00  0.00    -0.206 F 
ATOM     81  C   UNL A   1      34.999  32.471  28.239  1.00  0.00     0.006 A 
ENDBRANCH  60  74
BRANCH  61  82
ATOM     82  C   UNL A   1      46.296  30.598  29.604  1.00  0.00     0.057 A 
ATOM     83  C   UNL A   1      46.136  30.994  28.270  1.00  0.00     0.134 A 
ATOM     84  C   UNL A   1      47.549  30.896  30.178  1.00  0.00     0.134 A 
ATOM     85  F   UNL A   1      44.957  30.889  27.643  1.00  0.00    -0.206 F 
ATOM     86  C   UNL A   1      47.194  31.516  27.515  1.00  0.00     0.040 A 
ATOM     87  C   UNL A   1      48.607  31.441  29.445  1.00  0.00     0.040 A 
ATOM     88  F   UNL A   1      47.772  30.652  31.479  1.00  0.00    -0.206 F 
ATOM     89  C   UNL A   1      48.440  31.725  28.096  1.00  0.00     0.006 A 
ENDBRANCH  61  82
BRANCH  73  90
ATOM     90  C   UNL A   1      41.458  29.234  33.796  1.00  0.00     0.057 A 
ATOM     91  C   UNL A   1      41.728  27.862  33.901  1.00  0.00     0.134 A 
ATOM     92  C   UNL A   1      41.594  30.010  34.950  1.00  0.00     0.134 A 
ATOM     93  F   UNL A   1      41.647  27.055  32.831  1.00  0.00    -0.206 F 
ATOM     94  C   UNL A   1      42.074  27.279  35.120  1.00  0.00     0.040 A 
ATOM     95  C   UNL A   1      41.975  29.443  36.166  1.00  0.00     0.040 A 
ATOM     96  F   UNL A   1      41.336  31.327  34.922  1.00  0.00    -0.206 F 
ATOM     97  C   UNL A   1      42.202  28.072  36.257  1.00  0.00     0.006 A 
ENDBRANCH  73  90
ENDBRANCH  47  48
ENDBRANCH  39  42
ENDBRANCH  37  38
ENDBRANCH  36  37
ENDBRANCH  35  36
ENDBRANCH   1  35
TORSDOF 17
ENDMDL
MODEL 2
REMARK VINA RESULT:     -12.9      3.030      7.062
REMARK SMILES CCCC(=O)N(c1cc2sc(=O)oc2c2ccccc12)S(=O)(=O)c1ccc(C(=O)NCCCCNC(=O)c2ccc(-c3c4nc(c(-c5c(F)cccc5F)c5ccc([nH]5)c(-c5c(F)cccc5F)c5nc(c(-c6c(F)cccc6F)c6ccc3[nH]6)C=C5)C=C4)cc2)cc1
REMARK SMILES IDX 31 1 30 2 28 3 29 4 27 6 24 7 25 8 93 9 26 10 92 11 21 12
REMARK SMILES IDX 22 13 23 14 6 15 4 16 5 17 3 18 2 19 1 20 7 21 8 22 20 23
REMARK SMILES IDX 9 24 15 25 19 26 10 27 14 28 16 29 18 30 11 31 13 32 17 33
REMARK SMILES IDX 12 34 32 35 33 36 34 37 35 38 36 39 37 41 38 42 39 43 91 44
REMARK SMILES IDX 40 45 90 46 41 47 42 48 43 49 84 50 44 51 89 52 83 53 85 54
REMARK SMILES IDX 45 55 88 56 82 57 81 58 46 60 72 61 55 62 71 63 56 64 59 65
REMARK SMILES IDX 70 66 86 67 57 68 58 69 69 71 87 72 60 73 47 74 48 75 53 76
REMARK SMILES IDX 49 77 50 78 52 79 54 80 51 81 73 82 74 83 79 84 75 85 76 86
REMARK SMILES IDX 78 87 80 88 77 89 61 90 62 91 67 92 63 93 64 94 66 95 68 96
REMARK SMILES IDX 65 97
REMARK H PARENT 30 5 35 40 85 59 59 70
REMARK Flexibility Score: inf
ROOT
ATOM      1  C   UNL A   1      38.318  24.269  26.567  1.00  0.00     0.116 C 
ENDROOT
BRANCH   1   2
ATOM      2  N   UNL A   1      38.190  22.846  26.315  1.00  0.00    -0.352 N 
ATOM      3  C   UNL A   1      37.295  22.159  25.526  1.00  0.00     0.251 C 
ATOM      4  O   UNL A   1      37.419  20.938  25.440  1.00  0.00    -0.269 OA
ATOM      5  H   UNL A   1      38.848  22.282  26.783  1.00  0.00     0.163 HD
BRANCH   3   6
ATOM      6  C   UNL A   1      36.136  22.825  24.856  1.00  0.00     0.039 A 
ATOM      7  C   UNL A   1      34.326  24.404  23.404  1.00  0.00     0.088 A 
ATOM      8  C   UNL A   1      34.782  24.833  24.651  1.00  0.00     0.023 A 
ATOM      9  C   UNL A   1      34.601  23.102  22.994  1.00  0.00     0.023 A 
ATOM     10  C   UNL A   1      35.739  24.079  25.338  1.00  0.00     0.015 A 
ATOM     11  C   UNL A   1      35.444  22.298  23.764  1.00  0.00     0.015 A 
BRANCH   7  12
ATOM     12  S   UNL A   1      33.296  25.451  22.375  1.00  0.00     0.270 S 
ATOM     13  O   UNL A   1      32.900  24.617  21.264  1.00  0.00    -0.201 OA
ATOM     14  O   UNL A   1      34.072  26.666  22.174  1.00  0.00    -0.201 OA
BRANCH  12  15
ATOM     15  N   UNL A   1      31.915  25.918  23.281  1.00  0.00    -0.202 N 
BRANCH  15  16
ATOM     16  C   UNL A   1      31.179  24.868  23.939  1.00  0.00     0.241 C 
ATOM     17  O   UNL A   1      30.683  23.935  23.312  1.00  0.00    -0.273 OA
BRANCH  16  18
ATOM     18  C   UNL A   1      30.950  24.937  25.448  1.00  0.00     0.101 C 
BRANCH  18  19
ATOM     19  C   UNL A   1      31.591  23.793  26.236  1.00  0.00     0.006 C 
ATOM     20  C   UNL A   1      30.702  22.558  26.300  1.00  0.00     0.004 C 
ENDBRANCH  18  19
ENDBRANCH  16  18
ENDBRANCH  15  16
BRANCH  15  21
ATOM     21  C   UNL A   1      31.915  27.210  23.915  1.00  0.00     0.070 A 
ATOM     22  C   UNL A   1      32.970  27.442  24.815  1.00  0.00     0.051 A 
ATOM     23  C   UNL A   1      30.877  28.182  23.728  1.00  0.00     0.010 A 
ATOM     24  C   UNL A   1      32.981  28.614  25.547  1.00  0.00     0.080 A 
ATOM     25  C   UNL A   1      30.985  29.428  24.405  1.00  0.00     0.028 A 
ATOM     26  C   UNL A   1      29.750  27.995  22.896  1.00  0.00     0.011 A 
ATOM     27  S   UNL A   1      34.084  29.072  26.828  1.00  0.00    -0.052 S 
ATOM     28  C   UNL A   1      32.016  29.591  25.339  1.00  0.00     0.157 A 
ATOM     29  C   UNL A   1      30.073  30.463  24.121  1.00  0.00     0.013 A 
ATOM     30  C   UNL A   1      28.860  29.035  22.617  1.00  0.00     0.001 A 
ATOM     31  C   UNL A   1      33.155  30.562  27.035  1.00  0.00     0.396 A 
ATOM     32  O   UNL A   1      32.100  30.735  26.144  1.00  0.00    -0.413 OA
ATOM     33  C   UNL A   1      29.041  30.279  23.205  1.00  0.00     0.001 A 
ATOM     34  O   UNL A   1      33.431  31.383  27.898  1.00  0.00    -0.233 OA
ENDBRANCH  15  21
ENDBRANCH  12  15
ENDBRANCH   7  12
ENDBRANCH   3   6
ENDBRANCH   1   2
BRANCH   1  35
ATOM     35  C   UNL A   1      39.357  24.670  27.605  1.00  0.00     0.023 C 
BRANCH  35  36
ATOM     36  C   UNL A   1      40.812  24.514  27.182  1.00  0.00     0.023 C 
BRANCH  36  37
ATOM     37  C   UNL A   1      41.671  25.764  27.379  1.00  0.00     0.116 C 
BRANCH  37  38
ATOM     38  N   UNL A   1      42.053  26.439  26.144  1.00  0.00    -0.352 N 
ATOM     39  C   UNL A   1      41.965  27.777  25.821  1.00  0.00     0.251 C 
ATOM     40  H   UNL A   1      42.425  25.859  25.442  1.00  0.00     0.163 HD
ATOM     41  O   UNL A   1      42.339  28.198  24.734  1.00  0.00    -0.269 OA
BRANCH  39  42
ATOM     42  C   UNL A   1      41.311  28.675  26.788  1.00  0.00     0.039 A 
ATOM     43  C   UNL A   1      42.040  29.187  27.861  1.00  0.00     0.014 A 
ATOM     44  C   UNL A   1      39.924  28.818  26.712  1.00  0.00     0.014 A 
ATOM     45  C   UNL A   1      41.360  29.642  28.976  1.00  0.00     0.010 A 
ATOM     46  C   UNL A   1      39.247  29.342  27.806  1.00  0.00     0.010 A 
ATOM     47  C   UNL A   1      39.963  29.691  28.960  1.00  0.00    -0.014 A 
BRANCH  47  48
ATOM     48  C   UNL A   1      39.347  30.274  30.156  1.00  0.00     0.031 A 
ATOM     49  C   UNL A   1      39.792  29.531  31.382  1.00  0.00     0.074 A 
ATOM     50  C   UNL A   1      39.140  31.604  30.255  1.00  0.00     0.049 A 
ATOM     51  N   UNL A   1      40.943  29.710  31.958  1.00  0.00    -0.248 NA
ATOM     52  C   UNL A   1      39.103  28.311  31.809  1.00  0.00     0.031 C 
ATOM     53  C   UNL A   1      40.041  32.661  29.795  1.00  0.00     0.029 A 
ATOM     54  N   UNL A   1      38.122  32.277  30.899  1.00  0.00    -0.354 N 
ATOM     55  C   UNL A   1      41.153  28.631  32.801  1.00  0.00     0.074 A 
ATOM     56  C   UNL A   1      39.990  27.783  32.667  1.00  0.00     0.031 C 
ATOM     57  C   UNL A   1      39.628  33.834  30.313  1.00  0.00     0.029 A 
ATOM     58  C   UNL A   1      38.384  33.638  31.066  1.00  0.00     0.049 A 
ATOM     59  H   UNL A   1      37.296  31.842  31.211  1.00  0.00     0.167 HD
ATOM     60  C   UNL A   1      42.268  28.513  33.568  1.00  0.00     0.037 A 
ATOM     61  C   UNL A   1      38.092  34.293  32.228  1.00  0.00     0.037 A 
ATOM     62  C   UNL A   1      43.185  29.610  33.482  1.00  0.00     0.049 A 
ATOM     63  C   UNL A   1      39.189  33.806  33.143  1.00  0.00     0.074 A 
ATOM     64  C   UNL A   1      44.400  29.900  32.904  1.00  0.00     0.029 A 
ATOM     65  N   UNL A   1      42.838  30.753  34.161  1.00  0.00    -0.354 N 
ATOM     66  N   UNL A   1      40.423  34.238  33.152  1.00  0.00    -0.248 NA
ATOM     67  C   UNL A   1      38.993  32.515  33.804  1.00  0.00     0.031 C 
ATOM     68  C   UNL A   1      44.476  31.330  32.890  1.00  0.00     0.029 A 
ATOM     69  C   UNL A   1      43.286  31.817  33.429  1.00  0.00     0.049 A 
ATOM     70  H   UNL A   1      42.357  30.798  35.018  1.00  0.00     0.167 HD
ATOM     71  C   UNL A   1      41.197  33.147  33.559  1.00  0.00     0.074 A 
ATOM     72  C   UNL A   1      40.251  32.135  33.987  1.00  0.00     0.031 C 
ATOM     73  C   UNL A   1      42.543  33.051  33.339  1.00  0.00     0.037 A 
BRANCH  60  74
ATOM     74  C   UNL A   1      42.492  27.516  34.633  1.00  0.00     0.057 A 
ATOM     75  C   UNL A   1      41.881  27.576  35.884  1.00  0.00     0.134 A 
ATOM     76  C   UNL A   1      43.093  26.306  34.252  1.00  0.00     0.134 A 
ATOM     77  F   UNL A   1      41.288  28.702  36.305  1.00  0.00    -0.206 F 
ATOM     78  C   UNL A   1      41.809  26.440  36.698  1.00  0.00     0.040 A 
ATOM     79  C   UNL A   1      43.006  25.164  35.041  1.00  0.00     0.040 A 
ATOM     80  F   UNL A   1      43.705  26.204  33.061  1.00  0.00    -0.206 F 
ATOM     81  C   UNL A   1      42.344  25.225  36.262  1.00  0.00     0.006 A 
ENDBRANCH  60  74
BRANCH  61  82
ATOM     82  C   UNL A   1      36.645  34.364  32.593  1.00  0.00     0.057 A 
ATOM     83  C   UNL A   1      36.107  34.429  33.884  1.00  0.00     0.134 A 
ATOM     84  C   UNL A   1      35.704  34.368  31.543  1.00  0.00     0.134 A 
ATOM     85  F   UNL A   1      36.888  34.561  34.964  1.00  0.00    -0.206 F 
ATOM     86  C   UNL A   1      34.729  34.355  34.123  1.00  0.00     0.040 A 
ATOM     87  C   UNL A   1      34.324  34.321  31.765  1.00  0.00     0.040 A 
ATOM     88  F   UNL A   1      36.115  34.412  30.266  1.00  0.00    -0.206 F 
ATOM     89  C   UNL A   1      33.832  34.283  33.062  1.00  0.00     0.006 A 
ENDBRANCH  61  82
BRANCH  73  90
ATOM     90  C   UNL A   1      43.188  34.257  32.752  1.00  0.00     0.057 A 
ATOM     91  C   UNL A   1      43.592  35.341  33.545  1.00  0.00     0.134 A 
ATOM     92  C   UNL A   1      43.378  34.360  31.371  1.00  0.00     0.134 A 
ATOM     93  F   UNL A   1      43.467  35.308  34.881  1.00  0.00    -0.206 F 
ATOM     94  C   UNL A   1      44.121  36.501  32.978  1.00  0.00     0.040 A 
ATOM     95  C   UNL A   1      43.940  35.500  30.798  1.00  0.00     0.040 A 
ATOM     96  F   UNL A   1      43.000  33.364  30.554  1.00  0.00    -0.206 F 
ATOM     97  C   UNL A   1      44.300  36.581  31.600  1.00  0.00     0.006 A 
ENDBRANCH  73  90
ENDBRANCH  47  48
ENDBRANCH  39  42
ENDBRANCH  37  38
ENDBRANCH  36  37
ENDBRANCH  35  36
ENDBRANCH   1  35
TORSDOF 17
ENDMDL
MODEL 3
REMARK VINA RESULT:     -12.7      2.843      6.687
REMARK SMILES CCCC(=O)N(c1cc2sc(=O)oc2c2ccccc12)S(=O)(=O)c1ccc(C(=O)NCCCCNC(=O)c2ccc(-c3c4nc(c(-c5c(F)cccc5F)c5ccc([nH]5)c(-c5c(F)cccc5F)c5nc(c(-c6c(F)cccc6F)c6ccc3[nH]6)C=C5)C=C4)cc2)cc1
REMARK SMILES IDX 31 1 30 2 28 3 29 4 27 6 24 7 25 8 93 9 26 10 92 11 21 12
REMARK SMILES IDX 22 13 23 14 6 15 4 16 5 17 3 18 2 19 1 20 7 21 8 22 20 23
REMARK SMILES IDX 9 24 15 25 19 26 10 27 14 28 16 29 18 30 11 31 13 32 17 33
REMARK SMILES IDX 12 34 32 35 33 36 34 37 35 38 36 39 37 41 38 42 39 43 91 44
REMARK SMILES IDX 40 45 90 46 41 47 42 48 43 49 84 50 44 51 89 52 83 53 85 54
REMARK SMILES IDX 45 55 88 56 82 57 81 58 46 60 72 61 55 62 71 63 56 64 59 65
REMARK SMILES IDX 70 66 86 67 57 68 58 69 69 71 87 72 60 73 47 74 48 75 53 76
REMARK SMILES IDX 49 77 50 78 52 79 54 80 51 81 73 82 74 83 79 84 75 85 76 86
REMARK SMILES IDX 78 87 80 88 77 89 61 90 62 91 67 92 63 93 64 94 66 95 68 96
REMARK SMILES IDX 65 97
REMARK H PARENT 30 5 35 40 85 59 59 70
REMARK Flexibility Score: inf
ROOT
ATOM      1  C   UNL A   1      38.140  23.714  25.753  1.00  0.00     0.116 C 
ENDROOT
BRANCH   1   2
ATOM      2  N   UNL A   1      37.461  22.452  25.979  1.00  0.00    -0.352 N 
ATOM      3  C   UNL A   1      36.212  22.031  25.583  1.00  0.00     0.251 C 
ATOM      4  O   UNL A   1      35.872  20.881  25.864  1.00  0.00    -0.269 OA
ATOM      5  H   UNL A   1      37.976  21.792  26.498  1.00  0.00     0.163 HD
BRANCH   3   6
ATOM      6  C   UNL A   1      35.229  22.939  24.915  1.00  0.00     0.039 A 
ATOM      7  C   UNL A   1      33.814  24.910  23.504  1.00  0.00     0.088 A 
ATOM      8  C   UNL A   1      34.283  25.174  24.792  1.00  0.00     0.023 A 
ATOM      9  C   UNL A   1      33.861  23.605  23.022  1.00  0.00     0.023 A 
ATOM     10  C   UNL A   1      35.050  24.217  25.463  1.00  0.00     0.015 A 
ATOM     11  C   UNL A   1      34.503  22.614  23.768  1.00  0.00     0.015 A 
BRANCH   7  12
ATOM     12  S   UNL A   1      33.046  26.188  22.508  1.00  0.00     0.270 S 
ATOM     13  O   UNL A   1      33.095  25.691  21.153  1.00  0.00    -0.201 OA
ATOM     14  O   UNL A   1      33.718  27.421  22.890  1.00  0.00    -0.201 OA
BRANCH  12  15
ATOM     15  N   UNL A   1      31.415  26.365  23.011  1.00  0.00    -0.202 N 
BRANCH  15  16
ATOM     16  C   UNL A   1      30.812  25.242  23.684  1.00  0.00     0.241 C 
ATOM     17  O   UNL A   1      30.656  24.160  23.124  1.00  0.00    -0.273 OA
BRANCH  16  18
ATOM     18  C   UNL A   1      30.295  25.406  25.112  1.00  0.00     0.101 C 
BRANCH  18  19
ATOM     19  C   UNL A   1      31.240  24.871  26.191  1.00  0.00     0.006 C 
ATOM     20  C   UNL A   1      31.120  23.364  26.376  1.00  0.00     0.004 C 
ENDBRANCH  18  19
ENDBRANCH  16  18
ENDBRANCH  15  16
BRANCH  15  21
ATOM     21  C   UNL A   1      30.950  27.675  23.385  1.00  0.00     0.070 A 
ATOM     22  C   UNL A   1      29.935  28.211  22.572  1.00  0.00     0.051 A 
ATOM     23  C   UNL A   1      31.521  28.441  24.453  1.00  0.00     0.010 A 
ATOM     24  C   UNL A   1      29.511  29.507  22.797  1.00  0.00     0.080 A 
ATOM     25  C   UNL A   1      30.977  29.725  24.735  1.00  0.00     0.028 A 
ATOM     26  C   UNL A   1      32.589  28.001  25.269  1.00  0.00     0.011 A 
ATOM     27  S   UNL A   1      28.385  30.451  21.844  1.00  0.00    -0.052 S 
ATOM     28  C   UNL A   1      30.013  30.244  23.861  1.00  0.00     0.157 A 
ATOM     29  C   UNL A   1      31.404  30.435  25.874  1.00  0.00     0.013 A 
ATOM     30  C   UNL A   1      32.993  28.713  26.400  1.00  0.00     0.001 A 
ATOM     31  C   UNL A   1      28.677  31.815  22.930  1.00  0.00     0.396 A 
ATOM     32  O   UNL A   1      29.537  31.555  23.994  1.00  0.00    -0.413 OA
ATOM     33  C   UNL A   1      32.378  29.914  26.720  1.00  0.00     0.001 A 
ATOM     34  O   UNL A   1      28.152  32.905  22.757  1.00  0.00    -0.233 OA
ENDBRANCH  15  21
ENDBRANCH  12  15
ENDBRANCH   7  12
ENDBRANCH   3   6
ENDBRANCH   1   2
BRANCH   1  35
ATOM     35  C   UNL A   1      38.899  24.283  26.944  1.00  0.00     0.023 C 
BRANCH  35  36
ATOM     36  C   UNL A   1      40.416  24.316  26.810  1.00  0.00     0.023 C 
BRANCH  36  37
ATOM     37  C   UNL A   1      41.057  25.664  27.143  1.00  0.00     0.116 C 
BRANCH  37  38
ATOM     38  N   UNL A   1      41.657  26.350  26.005  1.00  0.00    -0.352 N 
ATOM     39  C   UNL A   1      41.791  27.704  25.777  1.00  0.00     0.251 C 
ATOM     40  H   UNL A   1      42.017  25.765  25.300  1.00  0.00     0.163 HD
ATOM     41  O   UNL A   1      42.332  28.130  24.765  1.00  0.00    -0.269 OA
BRANCH  39  42
ATOM     42  C   UNL A   1      41.169  28.626  26.740  1.00  0.00     0.039 A 
ATOM     43  C   UNL A   1      41.872  29.014  27.882  1.00  0.00     0.014 A 
ATOM     44  C   UNL A   1      39.813  28.921  26.583  1.00  0.00     0.014 A 
ATOM     45  C   UNL A   1      41.168  29.494  28.970  1.00  0.00     0.010 A 
ATOM     46  C   UNL A   1      39.121  29.470  27.655  1.00  0.00     0.010 A 
ATOM     47  C   UNL A   1      39.789  29.694  28.868  1.00  0.00    -0.014 A 
BRANCH  47  48
ATOM     48  C   UNL A   1      39.157  30.291  30.048  1.00  0.00     0.031 A 
ATOM     49  C   UNL A   1      39.582  29.561  31.288  1.00  0.00     0.074 A 
ATOM     50  C   UNL A   1      38.950  31.622  30.129  1.00  0.00     0.049 A 
ATOM     51  N   UNL A   1      40.725  29.745  31.879  1.00  0.00    -0.248 NA
ATOM     52  C   UNL A   1      38.885  28.347  31.719  1.00  0.00     0.031 C 
ATOM     53  C   UNL A   1      39.860  32.673  29.670  1.00  0.00     0.029 A 
ATOM     54  N   UNL A   1      37.924  32.304  30.751  1.00  0.00    -0.354 N 
ATOM     55  C   UNL A   1      40.921  28.675  32.737  1.00  0.00     0.074 A 
ATOM     56  C   UNL A   1      39.759  27.828  32.596  1.00  0.00     0.031 C 
ATOM     57  C   UNL A   1      39.441  33.852  30.169  1.00  0.00     0.029 A 
ATOM     58  C   UNL A   1      38.186  33.667  30.906  1.00  0.00     0.049 A 
ATOM     59  H   UNL A   1      37.093  31.873  31.055  1.00  0.00     0.167 HD
ATOM     60  C   UNL A   1      42.025  28.564  33.522  1.00  0.00     0.037 A 
ATOM     61  C   UNL A   1      37.878  34.335  32.057  1.00  0.00     0.037 A 
ATOM     62  C   UNL A   1      42.944  29.659  33.437  1.00  0.00     0.049 A 
ATOM     63  C   UNL A   1      38.961  33.856  32.992  1.00  0.00     0.074 A 
ATOM     64  C   UNL A   1      44.168  29.941  32.873  1.00  0.00     0.029 A 
ATOM     65  N   UNL A   1      42.590  30.810  34.098  1.00  0.00    -0.354 N 
ATOM     66  N   UNL A   1      40.195  34.287  33.015  1.00  0.00    -0.248 NA
ATOM     67  C   UNL A   1      38.754  32.573  33.665  1.00  0.00     0.031 C 
ATOM     68  C   UNL A   1      44.247  31.370  32.844  1.00  0.00     0.029 A 
ATOM     69  C   UNL A   1      43.050  31.865  33.360  1.00  0.00     0.049 A 
ATOM     70  H   UNL A   1      42.096  30.865  34.947  1.00  0.00     0.167 HD
ATOM     71  C   UNL A   1      40.961  33.199  33.445  1.00  0.00     0.074 A 
ATOM     72  C   UNL A   1      40.008  32.194  33.870  1.00  0.00     0.031 C 
ATOM     73  C   UNL A   1      42.310  33.099  33.246  1.00  0.00     0.037 A 
BRANCH  60  74
ATOM     74  C   UNL A   1      42.232  27.579  34.601  1.00  0.00     0.057 A 
ATOM     75  C   UNL A   1      41.619  27.665  35.849  1.00  0.00     0.134 A 
ATOM     76  C   UNL A   1      42.816  26.355  34.238  1.00  0.00     0.134 A 
ATOM     77  F   UNL A   1      41.041  28.805  36.253  1.00  0.00    -0.206 F 
ATOM     78  C   UNL A   1      41.529  26.541  36.679  1.00  0.00     0.040 A 
ATOM     79  C   UNL A   1      42.711  25.226  35.042  1.00  0.00     0.040 A 
ATOM     80  F   UNL A   1      43.430  26.228  33.050  1.00  0.00    -0.206 F 
ATOM     81  C   UNL A   1      42.047  25.313  36.261  1.00  0.00     0.006 A 
ENDBRANCH  60  74
BRANCH  61  82
ATOM     82  C   UNL A   1      36.426  34.412  32.399  1.00  0.00     0.057 A 
ATOM     83  C   UNL A   1      35.348  34.327  31.509  1.00  0.00     0.134 A 
ATOM     84  C   UNL A   1      36.080  34.588  33.754  1.00  0.00     0.134 A 
ATOM     85  F   UNL A   1      35.527  34.034  30.215  1.00  0.00    -0.206 F 
ATOM     86  C   UNL A   1      34.026  34.549  31.916  1.00  0.00     0.040 A 
ATOM     87  C   UNL A   1      34.763  34.784  34.180  1.00  0.00     0.040 A 
ATOM     88  F   UNL A   1      37.031  34.578  34.702  1.00  0.00    -0.206 F 
ATOM     89  C   UNL A   1      33.730  34.796  33.252  1.00  0.00     0.006 A 
ENDBRANCH  61  82
BRANCH  73  90
ATOM     90  C   UNL A   1      42.965  34.298  32.655  1.00  0.00     0.057 A 
ATOM     91  C   UNL A   1      43.361  35.389  33.441  1.00  0.00     0.134 A 
ATOM     92  C   UNL A   1      43.175  34.385  31.275  1.00  0.00     0.134 A 
ATOM     93  F   UNL A   1      43.218  35.371  34.775  1.00  0.00    -0.206 F 
ATOM     94  C   UNL A   1      43.900  36.542  32.870  1.00  0.00     0.040 A 
ATOM     95  C   UNL A   1      43.747  35.518  30.697  1.00  0.00     0.040 A 
ATOM     96  F   UNL A   1      42.806  33.381  30.464  1.00  0.00    -0.206 F 
ATOM     97  C   UNL A   1      44.098  36.607  31.493  1.00  0.00     0.006 A 
ENDBRANCH  73  90
ENDBRANCH  47  48
ENDBRANCH  39  42
ENDBRANCH  37  38
ENDBRANCH  36  37
ENDBRANCH  35  36
ENDBRANCH   1  35
TORSDOF 17
ENDMDL
