MODEL 1
REMARK VINA RESULT:     -12.9      0.000      0.000
REMARK SMILES C[C@]12C[C@@H](O)[C@H]3[C@@H](CCC4=CC(=O)C=C[C@]43C)[C@H]1CC[C@]2(O)C(=O)COC(=O)CCC(=O)NCCCCNC(=O)c1ccc(-c2c3nc(c(-c4c(F)cccc4F)c4ccc([nH]4)c(-c4c(F)cccc4F)c4nc(c(-c5c(F)cccc5F)c5ccc2[nH]5)C=C4)C=C3)cc1
REMARK SMILES IDX 31 1 32 2 33 3 30 5 29 6 27 7 28 8 26 9 25 10 23 11 24 12
REMARK SMILES IDX 21 13 17 14 16 15 15 16 10 17 6 18 14 19 11 20 9 21 7 22
REMARK SMILES IDX 4 23 12 24 8 25 18 26 3 27 13 28 2 29 19 30 1 31 20 32 5 33
REMARK SMILES IDX 22 35 34 37 35 38 36 39 37 40 38 41 39 42 40 44 41 45 42 46
REMARK SMILES IDX 94 47 43 48 93 49 44 50 45 51 46 52 87 53 47 54 92 55 86 56
REMARK SMILES IDX 88 57 48 58 91 59 85 60 84 61 49 63 75 64 58 65 74 66 59 67
REMARK SMILES IDX 62 68 73 69 89 70 60 71 61 72 72 74 90 75 63 76 50 77 51 78
REMARK SMILES IDX 56 79 52 80 53 81 55 82 57 83 54 84 76 85 77 86 82 87 78 88
REMARK SMILES IDX 79 89 81 90 83 91 80 92 64 93 65 94 70 95 66 96 67 97 69 98
REMARK SMILES IDX 71 99 68 100
REMARK H PARENT 33 4 5 34 22 36 38 43 88 62 62 73
REMARK Flexibility Score: inf
ROOT
ATOM      1  C   UNL A   1      32.906  35.916  29.756  1.00  0.00     0.220 C 
ATOM      2  O   UNL A   1      32.409  36.487  28.782  1.00  0.00    -0.275 OA
ATOM      3  N   UNL A   1      32.728  36.492  30.975  1.00  0.00    -0.356 N 
ATOM      4  H   UNL A   1      32.296  37.376  30.955  1.00  0.00     0.163 HD
ENDROOT
BRANCH   1   5
ATOM      5  C   UNL A   1      33.617  34.582  29.574  1.00  0.00     0.111 C 
BRANCH   5   6
ATOM      6  C   UNL A   1      33.541  33.960  28.184  1.00  0.00     0.132 C 
BRANCH   6   7
ATOM      7  C   UNL A   1      34.536  32.830  28.001  1.00  0.00     0.306 C 
ATOM      8  O   UNL A   1      35.677  32.978  27.585  1.00  0.00    -0.252 OA
BRANCH   7   9
ATOM      9  O   UNL A   1      33.989  31.630  28.324  1.00  0.00    -0.458 OA
BRANCH   9  10
ATOM     10  C   UNL A   1      33.730  30.719  27.250  1.00  0.00     0.311 C 
BRANCH  10  11
ATOM     11  C   UNL A   1      32.334  30.666  26.570  1.00  0.00     0.202 C 
ATOM     12  O   UNL A   1      31.465  31.485  26.876  1.00  0.00    -0.293 OA
BRANCH  11  13
ATOM     13  C   UNL A   1      32.111  29.582  25.487  1.00  0.00     0.132 C 
ATOM     14  C   UNL A   1      31.529  23.284  23.006  1.00  0.00     0.021 C 
ATOM     15  C   UNL A   1      31.944  23.694  24.454  1.00  0.00     0.013 C 
ATOM     16  C   UNL A   1      30.919  23.035  25.388  1.00  0.00    -0.012 C 
ATOM     17  C   UNL A   1      33.311  23.029  24.735  1.00  0.00    -0.056 C 
ATOM     18  C   UNL A   1      31.964  25.286  24.512  1.00  0.00     0.035 C 
ATOM     19  C   UNL A   1      30.996  21.744  25.752  1.00  0.00     0.048 C 
ATOM     20  C   UNL A   1      33.393  21.721  25.062  1.00  0.00     0.052 C 
ATOM     21  C   UNL A   1      34.589  23.816  24.803  1.00  0.00     0.032 C 
ATOM     22  C   UNL A   1      33.122  25.819  25.383  1.00  0.00    -0.000 C 
ATOM     23  C   UNL A   1      30.622  25.965  24.868  1.00  0.00     0.119 C 
ATOM     24  C   UNL A   1      32.169  20.943  25.345  1.00  0.00     0.178 C 
ATOM     25  C   UNL A   1      34.438  25.323  24.760  1.00  0.00     0.009 C 
ATOM     26  C   UNL A   1      33.170  27.355  25.531  1.00  0.00     0.002 C 
ATOM     27  C   UNL A   1      30.727  27.486  24.907  1.00  0.00     0.042 C 
ATOM     28  O   UNL A   1      32.155  19.721  25.348  1.00  0.00    -0.290 OA
ATOM     29  C   UNL A   1      31.828  28.063  25.843  1.00  0.00     0.009 C 
ATOM     30  C   UNL A   1      33.655  28.096  24.288  1.00  0.00     0.008 C 
ATOM     31  C   UNL A   1      31.405  27.839  27.299  1.00  0.00     0.015 C 
ATOM     32  C   UNL A   1      33.408  29.540  24.660  1.00  0.00     0.044 C 
BRANCH  23  33
ATOM     33  O   UNL A   1      29.624  25.689  23.882  1.00  0.00    -0.393 OA
ATOM     34  H   UNL A   1      29.999  25.121  23.191  1.00  0.00     0.210 HD
ENDBRANCH  23  33
BRANCH  13  35
ATOM     35  O   UNL A   1      31.028  30.068  24.694  1.00  0.00    -0.381 OA
ATOM     36  H   UNL A   1      30.470  29.325  24.417  1.00  0.00     0.212 HD
ENDBRANCH  13  35
ENDBRANCH  11  13
ENDBRANCH  10  11
ENDBRANCH   9  10
ENDBRANCH   7   9
ENDBRANCH   6   7
ENDBRANCH   5   6
ENDBRANCH   1   5
BRANCH   3  37
ATOM     37  C   UNL A   1      33.073  36.016  32.299  1.00  0.00     0.116 C 
BRANCH  37  38
ATOM     38  C   UNL A   1      34.468  36.450  32.753  1.00  0.00     0.023 C 
BRANCH  38  39
ATOM     39  C   UNL A   1      35.307  35.355  33.414  1.00  0.00     0.023 C 
BRANCH  39  40
ATOM     40  C   UNL A   1      35.971  34.337  32.488  1.00  0.00     0.116 C 
BRANCH  40  41
ATOM     41  N   UNL A   1      35.290  33.051  32.398  1.00  0.00    -0.352 N 
ATOM     42  C   UNL A   1      35.830  31.826  32.058  1.00  0.00     0.251 C 
ATOM     43  H   UNL A   1      34.328  33.057  32.605  1.00  0.00     0.163 HD
ATOM     44  O   UNL A   1      35.152  30.809  32.146  1.00  0.00    -0.269 OA
BRANCH  42  45
ATOM     45  C   UNL A   1      37.212  31.770  31.532  1.00  0.00     0.039 A 
ATOM     46  C   UNL A   1      38.232  31.333  32.384  1.00  0.00     0.014 A 
ATOM     47  C   UNL A   1      37.474  32.005  30.182  1.00  0.00     0.014 A 
ATOM     48  C   UNL A   1      39.479  30.998  31.851  1.00  0.00     0.010 A 
ATOM     49  C   UNL A   1      38.693  31.607  29.643  1.00  0.00     0.010 A 
ATOM     50  C   UNL A   1      39.693  31.063  30.465  1.00  0.00    -0.014 A 
BRANCH  50  51
ATOM     51  C   UNL A   1      40.914  30.502  29.831  1.00  0.00     0.031 A 
ATOM     52  C   UNL A   1      42.076  31.398  29.508  1.00  0.00     0.074 A 
ATOM     53  C   UNL A   1      40.924  29.213  29.434  1.00  0.00     0.049 A 
ATOM     54  N   UNL A   1      43.162  31.133  28.831  1.00  0.00    -0.248 NA
ATOM     55  C   UNL A   1      41.986  32.787  29.984  1.00  0.00     0.031 C 
ATOM     56  C   UNL A   1      39.834  28.255  29.634  1.00  0.00     0.029 A 
ATOM     57  N   UNL A   1      41.875  28.492  28.755  1.00  0.00    -0.354 N 
ATOM     58  C   UNL A   1      43.874  32.323  28.781  1.00  0.00     0.074 A 
ATOM     59  C   UNL A   1      43.075  33.323  29.454  1.00  0.00     0.031 C 
ATOM     60  C   UNL A   1      40.184  27.071  29.106  1.00  0.00     0.029 A 
ATOM     61  C   UNL A   1      41.503  27.195  28.494  1.00  0.00     0.049 A 
ATOM     62  H   UNL A   1      42.743  28.867  28.482  1.00  0.00     0.167 HD
ATOM     63  C   UNL A   1      45.094  32.557  28.240  1.00  0.00     0.037 A 
ATOM     64  C   UNL A   1      42.145  26.217  27.825  1.00  0.00     0.037 A 
ATOM     65  C   UNL A   1      45.896  31.553  27.590  1.00  0.00     0.049 A 
ATOM     66  C   UNL A   1      43.502  26.500  27.240  1.00  0.00     0.074 A 
ATOM     67  C   UNL A   1      47.167  31.677  27.057  1.00  0.00     0.029 A 
ATOM     68  N   UNL A   1      45.504  30.238  27.389  1.00  0.00    -0.354 N 
ATOM     69  N   UNL A   1      44.192  27.615  27.256  1.00  0.00    -0.248 NA
ATOM     70  C   UNL A   1      44.172  25.389  26.549  1.00  0.00     0.031 C 
ATOM     71  C   UNL A   1      47.530  30.445  26.501  1.00  0.00     0.029 A 
ATOM     72  C   UNL A   1      46.504  29.543  26.730  1.00  0.00     0.049 A 
ATOM     73  H   UNL A   1      44.642  29.856  27.672  1.00  0.00     0.167 HD
ATOM     74  C   UNL A   1      45.390  27.330  26.614  1.00  0.00     0.074 A 
ATOM     75  C   UNL A   1      45.335  25.936  26.224  1.00  0.00     0.031 C 
ATOM     76  C   UNL A   1      46.442  28.149  26.372  1.00  0.00     0.037 A 
BRANCH  63  77
ATOM     77  C   UNL A   1      45.635  33.953  28.336  1.00  0.00     0.057 A 
ATOM     78  C   UNL A   1      45.367  34.915  27.352  1.00  0.00     0.134 A 
ATOM     79  C   UNL A   1      46.411  34.349  29.432  1.00  0.00     0.134 A 
ATOM     80  F   UNL A   1      44.641  34.597  26.269  1.00  0.00    -0.206 F 
ATOM     81  C   UNL A   1      45.874  36.212  27.441  1.00  0.00     0.040 A 
ATOM     82  C   UNL A   1      46.901  35.652  29.546  1.00  0.00     0.040 A 
ATOM     83  F   UNL A   1      46.700  33.480  30.412  1.00  0.00    -0.206 F 
ATOM     84  C   UNL A   1      46.639  36.585  28.544  1.00  0.00     0.006 A 
ENDBRANCH  63  77
BRANCH  64  85
ATOM     85  C   UNL A   1      41.533  24.871  27.696  1.00  0.00     0.057 A 
ATOM     86  C   UNL A   1      41.953  23.810  28.509  1.00  0.00     0.134 A 
ATOM     87  C   UNL A   1      40.533  24.603  26.754  1.00  0.00     0.134 A 
ATOM     88  F   UNL A   1      42.920  23.999  29.417  1.00  0.00    -0.206 F 
ATOM     89  C   UNL A   1      41.416  22.528  28.376  1.00  0.00     0.040 A 
ATOM     90  C   UNL A   1      39.970  23.332  26.626  1.00  0.00     0.040 A 
ATOM     91  F   UNL A   1      40.081  25.577  25.950  1.00  0.00    -0.206 F 
ATOM     92  C   UNL A   1      40.419  22.288  27.434  1.00  0.00     0.006 A 
ENDBRANCH  64  85
BRANCH  76  93
ATOM     93  C   UNL A   1      47.643  27.548  25.705  1.00  0.00     0.057 A 
ATOM     94  C   UNL A   1      48.700  26.994  26.437  1.00  0.00     0.134 A 
ATOM     95  C   UNL A   1      47.713  27.474  24.307  1.00  0.00     0.134 A 
ATOM     96  F   UNL A   1      48.699  27.045  27.777  1.00  0.00    -0.206 F 
ATOM     97  C   UNL A   1      49.793  26.403  25.802  1.00  0.00     0.040 A 
ATOM     98  C   UNL A   1      48.789  26.863  23.662  1.00  0.00     0.040 A 
ATOM     99  F   UNL A   1      46.729  27.979  23.549  1.00  0.00    -0.206 F 
ATOM    100  C   UNL A   1      49.836  26.328  24.411  1.00  0.00     0.006 A 
ENDBRANCH  76  93
ENDBRANCH  50  51
ENDBRANCH  42  45
ENDBRANCH  40  41
ENDBRANCH  39  40
ENDBRANCH  38  39
ENDBRANCH  37  38
ENDBRANCH   3  37
TORSDOF 19
ENDMDL
MODEL 2
REMARK VINA RESULT:     -12.5      2.042      4.049
REMARK SMILES C[C@]12C[C@@H](O)[C@H]3[C@@H](CCC4=CC(=O)C=C[C@]43C)[C@H]1CC[C@]2(O)C(=O)COC(=O)CCC(=O)NCCCCNC(=O)c1ccc(-c2c3nc(c(-c4c(F)cccc4F)c4ccc([nH]4)c(-c4c(F)cccc4F)c4nc(c(-c5c(F)cccc5F)c5ccc2[nH]5)C=C4)C=C3)cc1
REMARK SMILES IDX 31 1 32 2 33 3 30 5 29 6 27 7 28 8 26 9 25 10 23 11 24 12
REMARK SMILES IDX 21 13 17 14 16 15 15 16 10 17 6 18 14 19 11 20 9 21 7 22
REMARK SMILES IDX 4 23 12 24 8 25 18 26 3 27 13 28 2 29 19 30 1 31 20 32 5 33
REMARK SMILES IDX 22 35 34 37 35 38 36 39 37 40 38 41 39 42 40 44 41 45 42 46
REMARK SMILES IDX 94 47 43 48 93 49 44 50 45 51 46 52 87 53 47 54 92 55 86 56
REMARK SMILES IDX 88 57 48 58 91 59 85 60 84 61 49 63 75 64 58 65 74 66 59 67
REMARK SMILES IDX 62 68 73 69 89 70 60 71 61 72 72 74 90 75 63 76 50 77 51 78
REMARK SMILES IDX 56 79 52 80 53 81 55 82 57 83 54 84 76 85 77 86 82 87 78 88
REMARK SMILES IDX 79 89 81 90 83 91 80 92 64 93 65 94 70 95 66 96 67 97 69 98
REMARK SMILES IDX 71 99 68 100
REMARK H PARENT 33 4 5 34 22 36 38 43 88 62 62 73
REMARK Flexibility Score: inf
ROOT
ATOM      1  C   UNL A   1      33.897  29.959  27.224  1.00  0.00     0.220 C 
ATOM      2  O   UNL A   1      34.707  29.053  27.013  1.00  0.00    -0.275 OA
ATOM      3  N   UNL A   1      34.340  31.044  27.915  1.00  0.00    -0.356 N 
ATOM      4  H   UNL A   1      35.253  30.961  28.272  1.00  0.00     0.163 HD
ENDROOT
BRANCH   1   5
ATOM      5  C   UNL A   1      32.488  29.868  26.653  1.00  0.00     0.111 C 
BRANCH   5   6
ATOM      6  C   UNL A   1      32.126  28.562  25.955  1.00  0.00     0.132 C 
BRANCH   6   7
ATOM      7  C   UNL A   1      31.497  27.557  26.901  1.00  0.00     0.306 C 
ATOM      8  O   UNL A   1      31.033  27.840  27.997  1.00  0.00    -0.252 OA
BRANCH   7   9
ATOM      9  O   UNL A   1      31.547  26.298  26.393  1.00  0.00    -0.458 OA
BRANCH   9  10
ATOM     10  C   UNL A   1      32.295  26.108  25.187  1.00  0.00     0.311 C 
BRANCH  10  11
ATOM     11  C   UNL A   1      33.604  25.272  25.186  1.00  0.00     0.202 C 
ATOM     12  O   UNL A   1      34.534  25.575  25.936  1.00  0.00    -0.293 OA
BRANCH  11  13
ATOM     13  C   UNL A   1      33.663  24.044  24.243  1.00  0.00     0.132 C 
ATOM     14  C   UNL A   1      33.691  17.454  22.595  1.00  0.00     0.021 C 
ATOM     15  C   UNL A   1      33.715  18.068  24.029  1.00  0.00     0.013 C 
ATOM     16  C   UNL A   1      32.473  17.515  24.744  1.00  0.00    -0.012 C 
ATOM     17  C   UNL A   1      34.954  17.485  24.747  1.00  0.00    -0.056 C 
ATOM     18  C   UNL A   1      33.735  19.653  23.869  1.00  0.00     0.035 C 
ATOM     19  C   UNL A   1      32.439  16.289  25.291  1.00  0.00     0.048 C 
ATOM     20  C   UNL A   1      34.933  16.236  25.262  1.00  0.00     0.052 C 
ATOM     21  C   UNL A   1      36.176  18.308  25.038  1.00  0.00     0.032 C 
ATOM     22  C   UNL A   1      34.628  20.331  24.930  1.00  0.00    -0.000 C 
ATOM     23  C   UNL A   1      32.353  20.338  23.763  1.00  0.00     0.119 C 
ATOM     24  C   UNL A   1      33.669  15.471  25.321  1.00  0.00     0.178 C 
ATOM     25  C   UNL A   1      36.057  19.790  24.748  1.00  0.00     0.009 C 
ATOM     26  C   UNL A   1      34.651  21.873  24.871  1.00  0.00     0.002 C 
ATOM     27  C   UNL A   1      32.459  21.853  23.617  1.00  0.00     0.042 C 
ATOM     28  O   UNL A   1      33.643  14.262  25.489  1.00  0.00    -0.290 OA
ATOM     29  C   UNL A   1      33.282  22.581  24.719  1.00  0.00     0.009 C 
ATOM     30  C   UNL A   1      35.453  22.451  23.708  1.00  0.00     0.008 C 
ATOM     31  C   UNL A   1      32.488  22.546  26.030  1.00  0.00     0.015 C 
ATOM     32  C   UNL A   1      35.131  23.925  23.799  1.00  0.00     0.044 C 
BRANCH  23  33
ATOM     33  O   UNL A   1      31.647  19.903  22.599  1.00  0.00    -0.393 OA
ATOM     34  H   UNL A   1      30.740  19.659  22.842  1.00  0.00     0.210 HD
ENDBRANCH  23  33
BRANCH  13  35
ATOM     35  O   UNL A   1      32.832  24.389  23.135  1.00  0.00    -0.381 OA
ATOM     36  H   UNL A   1      32.092  24.934  23.443  1.00  0.00     0.212 HD
ENDBRANCH  13  35
ENDBRANCH  11  13
ENDBRANCH  10  11
ENDBRANCH   9  10
ENDBRANCH   7   9
ENDBRANCH   6   7
ENDBRANCH   5   6
ENDBRANCH   1   5
BRANCH   3  37
ATOM     37  C   UNL A   1      33.685  32.302  28.212  1.00  0.00     0.116 C 
BRANCH  37  38
ATOM     38  C   UNL A   1      34.641  33.369  28.745  1.00  0.00     0.023 C 
BRANCH  38  39
ATOM     39  C   UNL A   1      34.536  33.647  30.246  1.00  0.00     0.023 C 
BRANCH  39  40
ATOM     40  C   UNL A   1      34.584  32.438  31.179  1.00  0.00     0.116 C 
BRANCH  40  41
ATOM     41  N   UNL A   1      35.129  32.705  32.504  1.00  0.00    -0.352 N 
ATOM     42  C   UNL A   1      36.383  32.384  32.988  1.00  0.00     0.251 C 
ATOM     43  H   UNL A   1      34.531  33.171  33.131  1.00  0.00     0.163 HD
ATOM     44  O   UNL A   1      36.739  32.786  34.089  1.00  0.00    -0.269 OA
BRANCH  42  45
ATOM     45  C   UNL A   1      37.259  31.502  32.185  1.00  0.00     0.039 A 
ATOM     46  C   UNL A   1      37.355  31.734  30.808  1.00  0.00     0.014 A 
ATOM     47  C   UNL A   1      38.083  30.559  32.799  1.00  0.00     0.014 A 
ATOM     48  C   UNL A   1      38.373  31.119  30.075  1.00  0.00     0.010 A 
ATOM     49  C   UNL A   1      39.137  30.002  32.083  1.00  0.00     0.010 A 
ATOM     50  C   UNL A   1      39.316  30.306  30.724  1.00  0.00    -0.014 A 
BRANCH  50  51
ATOM     51  C   UNL A   1      40.541  29.822  30.037  1.00  0.00     0.031 A 
ATOM     52  C   UNL A   1      41.670  30.769  29.752  1.00  0.00     0.074 A 
ATOM     53  C   UNL A   1      40.579  28.561  29.559  1.00  0.00     0.049 A 
ATOM     54  N   UNL A   1      42.751  30.579  29.042  1.00  0.00    -0.248 NA
ATOM     55  C   UNL A   1      41.550  32.123  30.316  1.00  0.00     0.031 C 
ATOM     56  C   UNL A   1      39.520  27.560  29.716  1.00  0.00     0.029 A 
ATOM     57  N   UNL A   1      41.538  27.911  28.821  1.00  0.00    -0.354 N 
ATOM     58  C   UNL A   1      43.429  31.790  29.056  1.00  0.00     0.074 A 
ATOM     59  C   UNL A   1      42.614  32.723  29.803  1.00  0.00     0.031 C 
ATOM     60  C   UNL A   1      39.895  26.423  29.109  1.00  0.00     0.029 A 
ATOM     61  C   UNL A   1      41.198  26.623  28.485  1.00  0.00     0.049 A 
ATOM     62  H   UNL A   1      42.390  28.328  28.558  1.00  0.00     0.167 HD
ATOM     63  C   UNL A   1      44.632  32.093  28.511  1.00  0.00     0.037 A 
ATOM     64  C   UNL A   1      41.856  25.708  27.746  1.00  0.00     0.037 A 
ATOM     65  C   UNL A   1      45.450  31.156  27.787  1.00  0.00     0.049 A 
ATOM     66  C   UNL A   1      43.194  26.067  27.158  1.00  0.00     0.074 A 
ATOM     67  C   UNL A   1      46.707  31.349  27.242  1.00  0.00     0.029 A 
ATOM     68  N   UNL A   1      45.092  29.844  27.510  1.00  0.00    -0.354 N 
ATOM     69  N   UNL A   1      43.852  27.198  27.233  1.00  0.00    -0.248 NA
ATOM     70  C   UNL A   1      43.883  25.021  26.388  1.00  0.00     0.031 C 
ATOM     71  C   UNL A   1      47.095  30.166  26.605  1.00  0.00     0.029 A 
ATOM     72  C   UNL A   1      46.099  29.221  26.793  1.00  0.00     0.049 A 
ATOM     73  H   UNL A   1      44.246  29.420  27.782  1.00  0.00     0.167 HD
ATOM     74  C   UNL A   1      45.046  26.989  26.556  1.00  0.00     0.074 A 
ATOM     75  C   UNL A   1      45.023  25.620  26.080  1.00  0.00     0.031 C 
ATOM     76  C   UNL A   1      46.070  27.852  26.349  1.00  0.00     0.037 A 
BRANCH  63  77
ATOM     77  C   UNL A   1      45.136  33.495  28.686  1.00  0.00     0.057 A 
ATOM     78  C   UNL A   1      45.821  33.891  29.843  1.00  0.00     0.134 A 
ATOM     79  C   UNL A   1      44.957  34.453  27.681  1.00  0.00     0.134 A 
ATOM     80  F   UNL A   1      46.014  33.026  30.850  1.00  0.00    -0.206 F 
ATOM     81  C   UNL A   1      46.285  35.198  30.006  1.00  0.00     0.040 A 
ATOM     82  C   UNL A   1      45.442  35.756  27.820  1.00  0.00     0.040 A 
ATOM     83  F   UNL A   1      44.316  34.139  26.546  1.00  0.00    -0.206 F 
ATOM     84  C   UNL A   1      46.101  36.133  28.989  1.00  0.00     0.006 A 
ENDBRANCH  63  77
BRANCH  64  85
ATOM     85  C   UNL A   1      41.280  24.355  27.542  1.00  0.00     0.057 A 
ATOM     86  C   UNL A   1      40.227  24.151  26.641  1.00  0.00     0.134 A 
ATOM     87  C   UNL A   1      41.750  23.240  28.246  1.00  0.00     0.134 A 
ATOM     88  F   UNL A   1      39.721  25.183  25.950  1.00  0.00    -0.206 F 
ATOM     89  C   UNL A   1      39.647  22.894  26.464  1.00  0.00     0.040 A 
ATOM     90  C   UNL A   1      41.195  21.972  28.061  1.00  0.00     0.040 A 
ATOM     91  F   UNL A   1      42.761  23.365  29.117  1.00  0.00    -0.206 F 
ATOM     92  C   UNL A   1      40.134  21.799  27.173  1.00  0.00     0.006 A 
ENDBRANCH  64  85
BRANCH  76  93
ATOM     93  C   UNL A   1      47.276  27.328  25.626  1.00  0.00     0.057 A 
ATOM     94  C   UNL A   1      47.447  27.497  24.247  1.00  0.00     0.134 A 
ATOM     95  C   UNL A   1      48.306  26.695  26.335  1.00  0.00     0.134 A 
ATOM     96  F   UNL A   1      46.492  28.084  23.510  1.00  0.00    -0.206 F 
ATOM     97  C   UNL A   1      48.593  27.039  23.595  1.00  0.00     0.040 A 
ATOM     98  C   UNL A   1      49.466  26.256  25.698  1.00  0.00     0.040 A 
ATOM     99  F   UNL A   1      48.206  26.510  27.659  1.00  0.00    -0.206 F 
ATOM    100  C   UNL A   1      49.610  26.424  24.322  1.00  0.00     0.006 A 
ENDBRANCH  76  93
ENDBRANCH  50  51
ENDBRANCH  42  45
ENDBRANCH  40  41
ENDBRANCH  39  40
ENDBRANCH  38  39
ENDBRANCH  37  38
ENDBRANCH   3  37
TORSDOF 19
ENDMDL
MODEL 3
REMARK VINA RESULT:     -12.1      4.664     10.915
REMARK SMILES C[C@]12C[C@@H](O)[C@H]3[C@@H](CCC4=CC(=O)C=C[C@]43C)[C@H]1CC[C@]2(O)C(=O)COC(=O)CCC(=O)NCCCCNC(=O)c1ccc(-c2c3nc(c(-c4c(F)cccc4F)c4ccc([nH]4)c(-c4c(F)cccc4F)c4nc(c(-c5c(F)cccc5F)c5ccc2[nH]5)C=C4)C=C3)cc1
REMARK SMILES IDX 31 1 32 2 33 3 30 5 29 6 27 7 28 8 26 9 25 10 23 11 24 12
REMARK SMILES IDX 21 13 17 14 16 15 15 16 10 17 6 18 14 19 11 20 9 21 7 22
REMARK SMILES IDX 4 23 12 24 8 25 18 26 3 27 13 28 2 29 19 30 1 31 20 32 5 33
REMARK SMILES IDX 22 35 34 37 35 38 36 39 37 40 38 41 39 42 40 44 41 45 42 46
REMARK SMILES IDX 94 47 43 48 93 49 44 50 45 51 46 52 87 53 47 54 92 55 86 56
REMARK SMILES IDX 88 57 48 58 91 59 85 60 84 61 49 63 75 64 58 65 74 66 59 67
REMARK SMILES IDX 62 68 73 69 89 70 60 71 61 72 72 74 90 75 63 76 50 77 51 78
REMARK SMILES IDX 56 79 52 80 53 81 55 82 57 83 54 84 76 85 77 86 82 87 78 88
REMARK SMILES IDX 79 89 81 90 83 91 80 92 64 93 65 94 70 95 66 96 67 97 69 98
REMARK SMILES IDX 71 99 68 100
REMARK H PARENT 33 4 5 34 22 36 38 43 88 62 62 73
REMARK Flexibility Score: inf
ROOT
ATOM      1  C   UNL A   1      43.963  23.173  28.173  1.00  0.00     0.220 C 
ATOM      2  O   UNL A   1      44.637  22.650  27.280  1.00  0.00    -0.275 OA
ATOM      3  N   UNL A   1      44.635  23.718  29.222  1.00  0.00    -0.356 N 
ATOM      4  H   UNL A   1      45.606  23.557  29.220  1.00  0.00     0.163 HD
ENDROOT
BRANCH   1   5
ATOM      5  C   UNL A   1      42.449  23.254  28.034  1.00  0.00     0.111 C 
BRANCH   5   6
ATOM      6  C   UNL A   1      41.867  22.794  26.702  1.00  0.00     0.132 C 
BRANCH   6   7
ATOM      7  C   UNL A   1      40.640  21.921  26.880  1.00  0.00     0.306 C 
ATOM      8  O   UNL A   1      40.404  21.260  27.882  1.00  0.00    -0.252 OA
BRANCH   7   9
ATOM      9  O   UNL A   1      39.855  21.937  25.771  1.00  0.00    -0.458 OA
BRANCH   9  10
ATOM     10  C   UNL A   1      38.439  21.999  25.972  1.00  0.00     0.311 C 
BRANCH  10  11
ATOM     11  C   UNL A   1      37.486  21.026  25.224  1.00  0.00     0.202 C 
ATOM     12  O   UNL A   1      37.938  20.029  24.658  1.00  0.00    -0.293 OA
BRANCH  11  13
ATOM     13  C   UNL A   1      35.971  21.346  25.259  1.00  0.00     0.132 C 
ATOM     14  C   UNL A   1      30.327  24.904  23.979  1.00  0.00     0.021 C 
ATOM     15  C   UNL A   1      31.798  25.321  23.666  1.00  0.00     0.013 C 
ATOM     16  C   UNL A   1      31.856  25.551  22.148  1.00  0.00    -0.012 C 
ATOM     17  C   UNL A   1      32.030  26.692  24.344  1.00  0.00    -0.056 C 
ATOM     18  C   UNL A   1      32.748  24.158  24.196  1.00  0.00     0.035 C 
ATOM     19  C   UNL A   1      31.430  26.686  21.571  1.00  0.00     0.048 C 
ATOM     20  C   UNL A   1      31.567  27.830  23.783  1.00  0.00     0.052 C 
ATOM     21  C   UNL A   1      32.892  26.849  25.563  1.00  0.00     0.032 C 
ATOM     22  C   UNL A   1      34.054  24.709  24.807  1.00  0.00    -0.000 C 
ATOM     23  C   UNL A   1      33.023  23.007  23.201  1.00  0.00     0.119 C 
ATOM     24  C   UNL A   1      30.998  27.816  22.419  1.00  0.00     0.178 C 
ATOM     25  C   UNL A   1      33.667  25.618  25.986  1.00  0.00     0.009 C 
ATOM     26  C   UNL A   1      35.049  23.634  25.291  1.00  0.00     0.002 C 
ATOM     27  C   UNL A   1      33.943  21.938  23.782  1.00  0.00     0.042 C 
ATOM     28  O   UNL A   1      30.306  28.726  21.989  1.00  0.00    -0.290 OA
ATOM     29  C   UNL A   1      35.308  22.446  24.331  1.00  0.00     0.009 C 
ATOM     30  C   UNL A   1      34.645  22.932  26.584  1.00  0.00     0.008 C 
ATOM     31  C   UNL A   1      36.188  22.868  23.148  1.00  0.00     0.015 C 
ATOM     32  C   UNL A   1      35.678  21.834  26.689  1.00  0.00     0.044 C 
BRANCH  23  33
ATOM     33  O   UNL A   1      31.819  22.314  22.863  1.00  0.00    -0.393 OA
ATOM     34  H   UNL A   1      31.055  22.819  23.181  1.00  0.00     0.210 HD
ENDBRANCH  23  33
BRANCH  13  35
ATOM     35  O   UNL A   1      35.323  20.098  25.014  1.00  0.00    -0.381 OA
ATOM     36  H   UNL A   1      35.148  19.654  25.857  1.00  0.00     0.212 HD
ENDBRANCH  13  35
ENDBRANCH  11  13
ENDBRANCH  10  11
ENDBRANCH   9  10
ENDBRANCH   7   9
ENDBRANCH   6   7
ENDBRANCH   5   6
ENDBRANCH   1   5
BRANCH   3  37
ATOM     37  C   UNL A   1      44.153  24.498  30.344  1.00  0.00     0.116 C 
BRANCH  37  38
ATOM     38  C   UNL A   1      44.448  23.853  31.699  1.00  0.00     0.023 C 
BRANCH  38  39
ATOM     39  C   UNL A   1      45.339  24.675  32.631  1.00  0.00     0.023 C 
BRANCH  39  40
ATOM     40  C   UNL A   1      45.500  24.166  34.063  1.00  0.00     0.116 C 
BRANCH  40  41
ATOM     41  N   UNL A   1      46.656  24.695  34.778  1.00  0.00    -0.352 N 
ATOM     42  C   UNL A   1      46.775  25.913  35.417  1.00  0.00     0.251 C 
ATOM     43  H   UNL A   1      47.448  24.112  34.808  1.00  0.00     0.163 HD
ATOM     44  O   UNL A   1      47.774  26.165  36.082  1.00  0.00    -0.269 OA
BRANCH  42  45
ATOM     45  C   UNL A   1      45.711  26.927  35.237  1.00  0.00     0.039 A 
ATOM     46  C   UNL A   1      45.951  27.998  34.370  1.00  0.00     0.014 A 
ATOM     47  C   UNL A   1      44.447  26.745  35.800  1.00  0.00     0.014 A 
ATOM     48  C   UNL A   1      44.887  28.804  33.960  1.00  0.00     0.010 A 
ATOM     49  C   UNL A   1      43.378  27.505  35.337  1.00  0.00     0.010 A 
ATOM     50  C   UNL A   1      43.580  28.516  34.384  1.00  0.00    -0.014 A 
BRANCH  50  51
ATOM     51  C   UNL A   1      42.396  29.194  33.797  1.00  0.00     0.031 A 
ATOM     52  C   UNL A   1      41.908  28.810  32.430  1.00  0.00     0.074 A 
ATOM     53  C   UNL A   1      41.842  30.240  34.444  1.00  0.00     0.049 A 
ATOM     54  N   UNL A   1      40.991  29.375  31.689  1.00  0.00    -0.248 NA
ATOM     55  C   UNL A   1      42.564  27.654  31.799  1.00  0.00     0.031 C 
ATOM     56  C   UNL A   1      42.263  30.751  35.750  1.00  0.00     0.029 A 
ATOM     57  N   UNL A   1      40.818  31.079  34.077  1.00  0.00    -0.354 N 
ATOM     58  C   UNL A   1      40.973  28.659  30.500  1.00  0.00     0.074 A 
ATOM     59  C   UNL A   1      42.004  27.649  30.598  1.00  0.00     0.031 C 
ATOM     60  C   UNL A   1      41.496  31.802  36.082  1.00  0.00     0.029 A 
ATOM     61  C   UNL A   1      40.557  32.067  34.997  1.00  0.00     0.049 A 
ATOM     62  H   UNL A   1      40.317  30.982  33.236  1.00  0.00     0.167 HD
ATOM     63  C   UNL A   1      40.156  28.817  29.430  1.00  0.00     0.037 A 
ATOM     64  C   UNL A   1      39.670  33.080  34.966  1.00  0.00     0.037 A 
ATOM     65  C   UNL A   1      39.117  29.809  29.345  1.00  0.00     0.049 A 
ATOM     66  C   UNL A   1      38.770  33.229  33.769  1.00  0.00     0.074 A 
ATOM     67  C   UNL A   1      38.203  30.015  28.327  1.00  0.00     0.029 A 
ATOM     68  N   UNL A   1      38.852  30.760  30.320  1.00  0.00    -0.354 N 
ATOM     69  N   UNL A   1      38.722  32.504  32.678  1.00  0.00    -0.248 NA
ATOM     70  C   UNL A   1      37.798  34.331  33.802  1.00  0.00     0.031 C 
ATOM     71  C   UNL A   1      37.407  31.114  28.670  1.00  0.00     0.029 A 
ATOM     72  C   UNL A   1      37.796  31.562  29.922  1.00  0.00     0.049 A 
ATOM     73  H   UNL A   1      39.343  30.852  31.168  1.00  0.00     0.167 HD
ATOM     74  C   UNL A   1      37.692  33.037  31.913  1.00  0.00     0.074 A 
ATOM     75  C   UNL A   1      37.140  34.144  32.667  1.00  0.00     0.031 C 
ATOM     76  C   UNL A   1      37.244  32.643  30.696  1.00  0.00     0.037 A 
BRANCH  63  77
ATOM     77  C   UNL A   1      40.355  27.888  28.269  1.00  0.00     0.057 A 
ATOM     78  C   UNL A   1      39.742  26.628  28.222  1.00  0.00     0.134 A 
ATOM     79  C   UNL A   1      41.144  28.263  27.175  1.00  0.00     0.134 A 
ATOM     80  F   UNL A   1      38.983  26.202  29.243  1.00  0.00    -0.206 F 
ATOM     81  C   UNL A   1      39.931  25.763  27.142  1.00  0.00     0.040 A 
ATOM     82  C   UNL A   1      41.318  27.418  26.076  1.00  0.00     0.040 A 
ATOM     83  F   UNL A   1      41.754  29.457  27.153  1.00  0.00    -0.206 F 
ATOM     84  C   UNL A   1      40.717  26.161  26.062  1.00  0.00     0.006 A 
ENDBRANCH  63  77
BRANCH  64  85
ATOM     85  C   UNL A   1      39.562  34.018  36.112  1.00  0.00     0.057 A 
ATOM     86  C   UNL A   1      40.234  35.247  36.100  1.00  0.00     0.134 A 
ATOM     87  C   UNL A   1      38.805  33.709  37.248  1.00  0.00     0.134 A 
ATOM     88  F   UNL A   1      40.990  35.591  35.048  1.00  0.00    -0.206 F 
ATOM     89  C   UNL A   1      40.176  36.124  37.184  1.00  0.00     0.040 A 
ATOM     90  C   UNL A   1      38.719  34.587  38.330  1.00  0.00     0.040 A 
ATOM     91  F   UNL A   1      38.131  32.553  37.320  1.00  0.00    -0.206 F 
ATOM     92  C   UNL A   1      39.413  35.796  38.302  1.00  0.00     0.006 A 
ENDBRANCH  64  85
BRANCH  76  93
ATOM     93  C   UNL A   1      36.063  33.374  30.128  1.00  0.00     0.057 A 
ATOM     94  C   UNL A   1      36.194  34.303  29.089  1.00  0.00     0.134 A 
ATOM     95  C   UNL A   1      34.770  33.099  30.594  1.00  0.00     0.134 A 
ATOM     96  F   UNL A   1      37.405  34.619  28.608  1.00  0.00    -0.206 F 
ATOM     97  C   UNL A   1      35.081  34.946  28.545  1.00  0.00     0.040 A 
ATOM     98  C   UNL A   1      33.649  33.717  30.041  1.00  0.00     0.040 A 
ATOM     99  F   UNL A   1      34.577  32.213  31.583  1.00  0.00    -0.206 F 
ATOM    100  C   UNL A   1      33.803  34.647  29.014  1.00  0.00     0.006 A 
ENDBRANCH  76  93
ENDBRANCH  50  51
ENDBRANCH  42  45
ENDBRANCH  40  41
ENDBRANCH  39  40
ENDBRANCH  38  39
ENDBRANCH  37  38
ENDBRANCH   3  37
TORSDOF 19
ENDMDL
