MODEL 1
REMARK VINA RESULT:     -11.5      0.000      0.000
REMARK SMILES COc1ccc2c(c1)C=C(C(=O)NCCCCNC(=O)c1ccc(-c3c4nc(c(-c5c(F)cccc5F)c5ccc([nH]5)c(-c5c(F)cccc5F)c5nc(c(-c6c(F)cccc6F)c6ccc3[nH]6)C=C5)C=C4)cc1)[C@H](C(F)(F)F)O2
REMARK SMILES IDX 16 1 15 2 14 3 13 4 11 5 12 6 10 8 3 9 4 10 8 11 5 12 7 13
REMARK SMILES IDX 6 14 9 15 80 16 75 17 2 18 1 19 76 20 77 21 78 22 79 23
REMARK SMILES IDX 17 24 18 25 19 26 20 28 21 29 22 30 74 31 23 32 73 33 24 34
REMARK SMILES IDX 25 35 26 36 67 37 27 38 72 39 66 40 68 41 28 42 71 43 65 44
REMARK SMILES IDX 64 45 29 47 55 48 38 49 54 50 39 51 42 52 53 53 69 54 40 55
REMARK SMILES IDX 41 56 52 58 70 59 43 60 30 61 31 62 36 63 32 64 33 65 35 66
REMARK SMILES IDX 37 67 34 68 56 69 57 70 62 71 58 72 59 73 61 74 63 75 60 76
REMARK SMILES IDX 44 77 45 78 50 79 46 80 47 81 49 82 51 83 48 84
REMARK H PARENT 13 7 18 27 68 46 42 57
REMARK Flexibility Score: inf
ROOT
ATOM      1  C   UNL A   1      33.357  28.330  25.717  1.00  0.00     0.023 C 
ENDROOT
BRANCH   1   2
ATOM      2  C   UNL A   1      31.841  28.532  25.669  1.00  0.00     0.023 C 
BRANCH   2   3
ATOM      3  C   UNL A   1      31.062  27.331  25.119  1.00  0.00     0.116 C 
BRANCH   3   4
ATOM      4  N   UNL A   1      30.882  26.331  26.158  1.00  0.00    -0.352 N 
ATOM      5  C   UNL A   1      31.439  25.107  26.359  1.00  0.00     0.251 C 
ATOM      6  O   UNL A   1      30.972  24.402  27.251  1.00  0.00    -0.270 OA
ATOM      7  H   UNL A   1      30.230  26.590  26.850  1.00  0.00     0.163 HD
BRANCH   5   8
ATOM      8  C   UNL A   1      32.625  24.621  25.602  1.00  0.00     0.067 C 
ATOM      9  C   UNL A   1      37.260  23.322  25.232  1.00  0.00     0.119 A 
ATOM     10  C   UNL A   1      37.028  22.821  23.952  1.00  0.00     0.050 A 
ATOM     11  C   UNL A   1      36.220  23.925  25.936  1.00  0.00     0.058 A 
ATOM     12  C   UNL A   1      35.755  22.933  23.381  1.00  0.00     0.051 A 
ATOM     13  C   UNL A   1      34.951  24.042  25.361  1.00  0.00     0.021 A 
ATOM     14  C   UNL A   1      34.716  23.541  24.087  1.00  0.00     0.128 A 
ATOM     15  C   UNL A   1      33.856  24.604  26.127  1.00  0.00     0.025 C 
ATOM     16  O   UNL A   1      33.491  23.548  23.494  1.00  0.00    -0.475 OA
ATOM     17  C   UNL A   1      32.397  24.281  24.130  1.00  0.00     0.314 C 
BRANCH   9  18
ATOM     18  O   UNL A   1      38.436  23.194  25.917  1.00  0.00    -0.497 OA
ATOM     19  C   UNL A   1      38.868  21.851  26.104  1.00  0.00     0.278 C 
ENDBRANCH   9  18
BRANCH  17  20
ATOM     20  C   UNL A   1      31.089  23.525  23.804  1.00  0.00     0.429 C 
ATOM     21  F   UNL A   1      30.060  24.355  23.521  1.00  0.00    -0.167 F 
ATOM     22  F   UNL A   1      31.238  22.745  22.699  1.00  0.00    -0.167 F 
ATOM     23  F   UNL A   1      30.703  22.705  24.809  1.00  0.00    -0.167 F 
ENDBRANCH  17  20
ENDBRANCH   5   8
ENDBRANCH   3   4
ENDBRANCH   2   3
ENDBRANCH   1   2
BRANCH   1  24
ATOM     24  C   UNL A   1      33.972  28.468  27.104  1.00  0.00     0.116 C 
BRANCH  24  25
ATOM     25  N   UNL A   1      33.852  29.810  27.652  1.00  0.00    -0.352 N 
ATOM     26  C   UNL A   1      34.800  30.553  28.317  1.00  0.00     0.251 C 
ATOM     27  H   UNL A   1      32.977  30.243  27.531  1.00  0.00     0.163 HD
ATOM     28  O   UNL A   1      34.509  31.630  28.809  1.00  0.00    -0.269 OA
BRANCH  26  29
ATOM     29  C   UNL A   1      36.166  30.008  28.466  1.00  0.00     0.039 A 
ATOM     30  C   UNL A   1      37.054  30.127  27.395  1.00  0.00     0.014 A 
ATOM     31  C   UNL A   1      36.574  29.409  29.661  1.00  0.00     0.014 A 
ATOM     32  C   UNL A   1      38.373  29.698  27.543  1.00  0.00     0.010 A 
ATOM     33  C   UNL A   1      37.906  29.049  29.832  1.00  0.00     0.010 A 
ATOM     34  C   UNL A   1      38.815  29.185  28.773  1.00  0.00    -0.014 A 
BRANCH  34  35
ATOM     35  C   UNL A   1      40.230  28.787  28.971  1.00  0.00     0.031 A 
ATOM     36  C   UNL A   1      41.220  29.771  29.524  1.00  0.00     0.074 A 
ATOM     37  C   UNL A   1      40.637  27.566  28.576  1.00  0.00     0.049 A 
ATOM     38  N   UNL A   1      42.506  29.630  29.717  1.00  0.00    -0.248 NA
ATOM     39  C   UNL A   1      40.702  31.103  29.874  1.00  0.00     0.031 C 
ATOM     40  C   UNL A   1      39.785  26.550  27.956  1.00  0.00     0.029 A 
ATOM     41  N   UNL A   1      41.876  26.981  28.622  1.00  0.00    -0.354 N 
ATOM     42  C   UNL A   1      42.953  30.857  30.188  1.00  0.00     0.074 A 
ATOM     43  C   UNL A   1      41.812  31.746  30.202  1.00  0.00     0.031 C 
ATOM     44  C   UNL A   1      40.525  25.463  27.688  1.00  0.00     0.029 A 
ATOM     45  C   UNL A   1      41.904  25.714  28.095  1.00  0.00     0.049 A 
ATOM     46  H   UNL A   1      42.670  27.427  28.997  1.00  0.00     0.167 HD
ATOM     47  C   UNL A   1      44.197  31.205  30.594  1.00  0.00     0.037 A 
ATOM     48  C   UNL A   1      42.928  24.852  27.951  1.00  0.00     0.037 A 
ATOM     49  C   UNL A   1      45.322  30.307  30.605  1.00  0.00     0.049 A 
ATOM     50  C   UNL A   1      44.291  25.242  28.445  1.00  0.00     0.074 A 
ATOM     51  C   UNL A   1      46.602  30.533  31.081  1.00  0.00     0.029 A 
ATOM     52  N   UNL A   1      45.302  29.012  30.110  1.00  0.00    -0.354 N 
ATOM     53  N   UNL A   1      44.682  26.373  28.981  1.00  0.00    -0.248 NA
ATOM     54  C   UNL A   1      45.352  24.232  28.330  1.00  0.00     0.031 C 
ATOM     55  C   UNL A   1      47.368  29.388  30.835  1.00  0.00     0.029 A 
ATOM     56  C   UNL A   1      46.553  28.434  30.247  1.00  0.00     0.049 A 
ATOM     57  H   UNL A   1      44.515  28.569  29.719  1.00  0.00     0.167 HD
ATOM     58  C   UNL A   1      46.027  26.208  29.282  1.00  0.00     0.074 A 
ATOM     59  C   UNL A   1      46.380  24.860  28.884  1.00  0.00     0.031 C 
ATOM     60  C   UNL A   1      46.891  27.092  29.838  1.00  0.00     0.037 A 
BRANCH  47  61
ATOM     61  C   UNL A   1      44.397  32.619  31.055  1.00  0.00     0.057 A 
ATOM     62  C   UNL A   1      44.207  32.998  32.391  1.00  0.00     0.134 A 
ATOM     63  C   UNL A   1      44.781  33.618  30.151  1.00  0.00     0.134 A 
ATOM     64  F   UNL A   1      43.825  32.094  33.306  1.00  0.00    -0.206 F 
ATOM     65  C   UNL A   1      44.354  34.324  32.804  1.00  0.00     0.040 A 
ATOM     66  C   UNL A   1      44.960  34.941  30.558  1.00  0.00     0.040 A 
ATOM     67  F   UNL A   1      44.987  33.325  28.858  1.00  0.00    -0.206 F 
ATOM     68  C   UNL A   1      44.735  35.300  31.885  1.00  0.00     0.006 A 
ENDBRANCH  47  61
BRANCH  48  69
ATOM     69  C   UNL A   1      42.684  23.525  27.336  1.00  0.00     0.057 A 
ATOM     70  C   UNL A   1      42.820  23.330  25.958  1.00  0.00     0.134 A 
ATOM     71  C   UNL A   1      42.343  22.413  28.116  1.00  0.00     0.134 A 
ATOM     72  F   UNL A   1      43.131  24.361  25.158  1.00  0.00    -0.206 F 
ATOM     73  C   UNL A   1      42.617  22.078  25.374  1.00  0.00     0.040 A 
ATOM     74  C   UNL A   1      42.158  21.152  27.549  1.00  0.00     0.040 A 
ATOM     75  F   UNL A   1      42.209  22.535  29.446  1.00  0.00    -0.206 F 
ATOM     76  C   UNL A   1      42.292  20.983  26.172  1.00  0.00     0.006 A 
ENDBRANCH  48  69
BRANCH  60  77
ATOM     77  C   UNL A   1      48.298  26.624  30.064  1.00  0.00     0.057 A 
ATOM     78  C   UNL A   1      49.316  26.875  29.135  1.00  0.00     0.134 A 
ATOM     79  C   UNL A   1      48.646  25.952  31.242  1.00  0.00     0.134 A 
ATOM     80  F   UNL A   1      49.044  27.503  27.981  1.00  0.00    -0.206 F 
ATOM     81  C   UNL A   1      50.627  26.453  29.360  1.00  0.00     0.040 A 
ATOM     82  C   UNL A   1      49.958  25.547  31.490  1.00  0.00     0.040 A 
ATOM     83  F   UNL A   1      47.720  25.689  32.175  1.00  0.00    -0.206 F 
ATOM     84  C   UNL A   1      50.952  25.793  30.544  1.00  0.00     0.006 A 
ENDBRANCH  60  77
ENDBRANCH  34  35
ENDBRANCH  26  29
ENDBRANCH  24  25
ENDBRANCH   1  24
TORSDOF 13
ENDMDL
MODEL 2
REMARK VINA RESULT:     -11.3      2.224      7.674
REMARK SMILES COc1ccc2c(c1)C=C(C(=O)NCCCCNC(=O)c1ccc(-c3c4nc(c(-c5c(F)cccc5F)c5ccc([nH]5)c(-c5c(F)cccc5F)c5nc(c(-c6c(F)cccc6F)c6ccc3[nH]6)C=C5)C=C4)cc1)[C@H](C(F)(F)F)O2
REMARK SMILES IDX 16 1 15 2 14 3 13 4 11 5 12 6 10 8 3 9 4 10 8 11 5 12 7 13
REMARK SMILES IDX 6 14 9 15 80 16 75 17 2 18 1 19 76 20 77 21 78 22 79 23
REMARK SMILES IDX 17 24 18 25 19 26 20 28 21 29 22 30 74 31 23 32 73 33 24 34
REMARK SMILES IDX 25 35 26 36 67 37 27 38 72 39 66 40 68 41 28 42 71 43 65 44
REMARK SMILES IDX 64 45 29 47 55 48 38 49 54 50 39 51 42 52 53 53 69 54 40 55
REMARK SMILES IDX 41 56 52 58 70 59 43 60 30 61 31 62 36 63 32 64 33 65 35 66
REMARK SMILES IDX 37 67 34 68 56 69 57 70 62 71 58 72 59 73 61 74 63 75 60 76
REMARK SMILES IDX 44 77 45 78 50 79 46 80 47 81 49 82 51 83 48 84
REMARK H PARENT 13 7 18 27 68 46 42 57
REMARK Flexibility Score: inf
ROOT
ATOM      1  C   UNL A   1      39.192  21.277  25.690  1.00  0.00     0.023 C 
ENDROOT
BRANCH   1   2
ATOM      2  C   UNL A   1      39.165  22.578  26.494  1.00  0.00     0.023 C 
BRANCH   2   3
ATOM      3  C   UNL A   1      38.049  23.548  26.087  1.00  0.00     0.116 C 
BRANCH   3   4
ATOM      4  N   UNL A   1      37.667  23.321  24.703  1.00  0.00    -0.352 N 
ATOM      5  C   UNL A   1      36.460  23.289  24.078  1.00  0.00     0.251 C 
ATOM      6  O   UNL A   1      36.427  22.908  22.910  1.00  0.00    -0.270 OA
ATOM      7  H   UNL A   1      38.431  23.156  24.102  1.00  0.00     0.163 HD
BRANCH   5   8
ATOM      8  C   UNL A   1      35.202  23.761  24.720  1.00  0.00     0.067 C 
ATOM      9  C   UNL A   1      31.527  26.850  25.231  1.00  0.00     0.119 A 
ATOM     10  C   UNL A   1      30.882  25.956  26.084  1.00  0.00     0.050 A 
ATOM     11  C   UNL A   1      32.781  26.527  24.714  1.00  0.00     0.058 A 
ATOM     12  C   UNL A   1      31.499  24.746  26.421  1.00  0.00     0.051 A 
ATOM     13  C   UNL A   1      33.399  25.321  25.058  1.00  0.00     0.021 A 
ATOM     14  C   UNL A   1      32.756  24.428  25.905  1.00  0.00     0.128 A 
ATOM     15  C   UNL A   1      34.668  24.960  24.458  1.00  0.00     0.025 C 
ATOM     16  O   UNL A   1      33.259  23.203  26.221  1.00  0.00    -0.475 OA
ATOM     17  C   UNL A   1      34.622  22.867  25.814  1.00  0.00     0.314 C 
BRANCH   9  18
ATOM     18  O   UNL A   1      30.985  28.017  24.771  1.00  0.00    -0.497 OA
ATOM     19  C   UNL A   1      31.824  29.157  24.916  1.00  0.00     0.278 C 
ENDBRANCH   9  18
BRANCH  17  20
ATOM     20  C   UNL A   1      34.655  21.346  25.536  1.00  0.00     0.429 C 
ATOM     21  F   UNL A   1      35.876  20.803  25.740  1.00  0.00    -0.167 F 
ATOM     22  F   UNL A   1      33.818  20.678  26.375  1.00  0.00    -0.167 F 
ATOM     23  F   UNL A   1      34.265  21.045  24.276  1.00  0.00    -0.167 F 
ENDBRANCH  17  20
ENDBRANCH   5   8
ENDBRANCH   3   4
ENDBRANCH   2   3
ENDBRANCH   1   2
BRANCH   1  24
ATOM     24  C   UNL A   1      39.626  20.051  26.483  1.00  0.00     0.116 C 
BRANCH  24  25
ATOM     25  N   UNL A   1      40.765  19.363  25.896  1.00  0.00    -0.352 N 
ATOM     26  C   UNL A   1      42.064  19.801  25.777  1.00  0.00     0.251 C 
ATOM     27  H   UNL A   1      40.583  18.465  25.538  1.00  0.00     0.163 HD
ATOM     28  O   UNL A   1      42.886  19.143  25.162  1.00  0.00    -0.269 OA
BRANCH  26  29
ATOM     29  C   UNL A   1      42.440  21.104  26.366  1.00  0.00     0.039 A 
ATOM     30  C   UNL A   1      42.786  22.149  25.507  1.00  0.00     0.014 A 
ATOM     31  C   UNL A   1      42.426  21.298  27.750  1.00  0.00     0.014 A 
ATOM     32  C   UNL A   1      43.061  23.411  26.035  1.00  0.00     0.010 A 
ATOM     33  C   UNL A   1      42.628  22.572  28.269  1.00  0.00     0.010 A 
ATOM     34  C   UNL A   1      42.953  23.638  27.416  1.00  0.00    -0.014 A 
BRANCH  34  35
ATOM     35  C   UNL A   1      43.174  24.988  27.990  1.00  0.00     0.031 A 
ATOM     36  C   UNL A   1      44.542  25.395  28.455  1.00  0.00     0.074 A 
ATOM     37  C   UNL A   1      42.125  25.814  28.164  1.00  0.00     0.049 A 
ATOM     38  N   UNL A   1      44.922  26.506  29.032  1.00  0.00    -0.248 NA
ATOM     39  C   UNL A   1      45.619  24.408  28.281  1.00  0.00     0.031 C 
ATOM     40  C   UNL A   1      40.737  25.502  27.822  1.00  0.00     0.029 A 
ATOM     41  N   UNL A   1      42.064  27.078  28.691  1.00  0.00    -0.354 N 
ATOM     42  C   UNL A   1      46.273  26.343  29.308  1.00  0.00     0.074 A 
ATOM     43  C   UNL A   1      46.634  25.008  28.884  1.00  0.00     0.031 C 
ATOM     44  C   UNL A   1      39.962  26.551  28.139  1.00  0.00     0.029 A 
ATOM     45  C   UNL A   1      40.793  27.597  28.727  1.00  0.00     0.049 A 
ATOM     46  H   UNL A   1      42.855  27.567  29.014  1.00  0.00     0.167 HD
ATOM     47  C   UNL A   1      47.140  27.234  29.846  1.00  0.00     0.037 A 
ATOM     48  C   UNL A   1      40.348  28.781  29.188  1.00  0.00     0.037 A 
ATOM     49  C   UNL A   1      46.781  28.571  30.239  1.00  0.00     0.049 A 
ATOM     50  C   UNL A   1      41.332  29.770  29.742  1.00  0.00     0.074 A 
ATOM     51  C   UNL A   1      47.602  29.582  30.708  1.00  0.00     0.029 A 
ATOM     52  N   UNL A   1      45.492  29.081  30.213  1.00  0.00    -0.354 N 
ATOM     53  N   UNL A   1      42.626  29.642  29.908  1.00  0.00    -0.248 NA
ATOM     54  C   UNL A   1      40.797  31.074  30.158  1.00  0.00     0.031 C 
ATOM     55  C   UNL A   1      46.801  30.690  31.008  1.00  0.00     0.029 A 
ATOM     56  C   UNL A   1      45.489  30.385  30.682  1.00  0.00     0.049 A 
ATOM     57  H   UNL A   1      44.696  28.590  29.908  1.00  0.00     0.167 HD
ATOM     58  C   UNL A   1      43.064  30.851  30.432  1.00  0.00     0.074 A 
ATOM     59  C   UNL A   1      41.899  31.706  30.540  1.00  0.00     0.031 C 
ATOM     60  C   UNL A   1      44.318  31.220  30.791  1.00  0.00     0.037 A 
BRANCH  47  61
ATOM     61  C   UNL A   1      48.557  26.780  30.039  1.00  0.00     0.057 A 
ATOM     62  C   UNL A   1      49.544  26.994  29.067  1.00  0.00     0.134 A 
ATOM     63  C   UNL A   1      48.942  26.116  31.210  1.00  0.00     0.134 A 
ATOM     64  F   UNL A   1      49.240  27.612  27.915  1.00  0.00    -0.206 F 
ATOM     65  C   UNL A   1      50.850  26.532  29.235  1.00  0.00     0.040 A 
ATOM     66  C   UNL A   1      50.251  25.675  31.403  1.00  0.00     0.040 A 
ATOM     67  F   UNL A   1      48.050  25.882  32.186  1.00  0.00    -0.206 F 
ATOM     68  C   UNL A   1      51.208  25.872  30.409  1.00  0.00     0.006 A 
ENDBRANCH  47  61
BRANCH  48  69
ATOM     69  C   UNL A   1      38.901  29.096  29.109  1.00  0.00     0.057 A 
ATOM     70  C   UNL A   1      38.080  29.013  30.238  1.00  0.00     0.134 A 
ATOM     71  C   UNL A   1      38.313  29.521  27.911  1.00  0.00     0.134 A 
ATOM     72  F   UNL A   1      38.584  28.597  31.409  1.00  0.00    -0.206 F 
ATOM     73  C   UNL A   1      36.723  29.332  30.179  1.00  0.00     0.040 A 
ATOM     74  C   UNL A   1      36.962  29.865  27.843  1.00  0.00     0.040 A 
ATOM     75  F   UNL A   1      39.052  29.633  26.797  1.00  0.00    -0.206 F 
ATOM     76  C   UNL A   1      36.162  29.766  28.980  1.00  0.00     0.006 A 
ENDBRANCH  48  69
BRANCH  60  77
ATOM     77  C   UNL A   1      44.498  32.613  31.318  1.00  0.00     0.057 A 
ATOM     78  C   UNL A   1      44.427  32.897  32.687  1.00  0.00     0.134 A 
ATOM     79  C   UNL A   1      44.784  33.673  30.449  1.00  0.00     0.134 A 
ATOM     80  F   UNL A   1      44.142  31.927  33.569  1.00  0.00    -0.206 F 
ATOM     81  C   UNL A   1      44.613  34.193  33.172  1.00  0.00     0.040 A 
ATOM     82  C   UNL A   1      44.998  34.967  30.924  1.00  0.00     0.040 A 
ATOM     83  F   UNL A   1      44.875  33.466  29.127  1.00  0.00    -0.206 F 
ATOM     84  C   UNL A   1      44.907  35.230  32.290  1.00  0.00     0.006 A 
ENDBRANCH  60  77
ENDBRANCH  34  35
ENDBRANCH  26  29
ENDBRANCH  24  25
ENDBRANCH   1  24
TORSDOF 13
ENDMDL
MODEL 3
REMARK VINA RESULT:     -11.2      4.161      8.070
REMARK SMILES COc1ccc2c(c1)C=C(C(=O)NCCCCNC(=O)c1ccc(-c3c4nc(c(-c5c(F)cccc5F)c5ccc([nH]5)c(-c5c(F)cccc5F)c5nc(c(-c6c(F)cccc6F)c6ccc3[nH]6)C=C5)C=C4)cc1)[C@H](C(F)(F)F)O2
REMARK SMILES IDX 16 1 15 2 14 3 13 4 11 5 12 6 10 8 3 9 4 10 8 11 5 12 7 13
REMARK SMILES IDX 6 14 9 15 80 16 75 17 2 18 1 19 76 20 77 21 78 22 79 23
REMARK SMILES IDX 17 24 18 25 19 26 20 28 21 29 22 30 74 31 23 32 73 33 24 34
REMARK SMILES IDX 25 35 26 36 67 37 27 38 72 39 66 40 68 41 28 42 71 43 65 44
REMARK SMILES IDX 64 45 29 47 55 48 38 49 54 50 39 51 42 52 53 53 69 54 40 55
REMARK SMILES IDX 41 56 52 58 70 59 43 60 30 61 31 62 36 63 32 64 33 65 35 66
REMARK SMILES IDX 37 67 34 68 56 69 57 70 62 71 58 72 59 73 61 74 63 75 60 76
REMARK SMILES IDX 44 77 45 78 50 79 46 80 47 81 49 82 51 83 48 84
REMARK H PARENT 13 7 18 27 68 46 42 57
REMARK Flexibility Score: inf
ROOT
ATOM      1  C   UNL A   1      31.624  31.728  26.699  1.00  0.00     0.023 C 
ENDROOT
BRANCH   1   2
ATOM      2  C   UNL A   1      31.808  30.209  26.714  1.00  0.00     0.023 C 
BRANCH   2   3
ATOM      3  C   UNL A   1      33.248  29.745  26.461  1.00  0.00     0.116 C 
BRANCH   3   4
ATOM      4  N   UNL A   1      33.519  29.711  25.034  1.00  0.00    -0.352 N 
ATOM      5  C   UNL A   1      33.453  28.714  24.111  1.00  0.00     0.251 C 
ATOM      6  O   UNL A   1      33.902  28.937  22.990  1.00  0.00    -0.270 OA
ATOM      7  H   UNL A   1      33.810  30.576  24.664  1.00  0.00     0.163 HD
BRANCH   5   8
ATOM      8  C   UNL A   1      32.797  27.404  24.379  1.00  0.00     0.067 C 
ATOM      9  C   UNL A   1      32.265  23.278  26.829  1.00  0.00     0.119 A 
ATOM     10  C   UNL A   1      31.066  23.026  26.163  1.00  0.00     0.050 A 
ATOM     11  C   UNL A   1      33.002  24.418  26.515  1.00  0.00     0.058 A 
ATOM     12  C   UNL A   1      30.616  23.914  25.180  1.00  0.00     0.051 A 
ATOM     13  C   UNL A   1      32.554  25.300  25.526  1.00  0.00     0.021 A 
ATOM     14  C   UNL A   1      31.359  25.052  24.864  1.00  0.00     0.128 A 
ATOM     15  C   UNL A   1      33.288  26.521  25.257  1.00  0.00     0.025 C 
ATOM     16  O   UNL A   1      30.821  25.904  23.949  1.00  0.00    -0.475 OA
ATOM     17  C   UNL A   1      31.610  27.044  23.487  1.00  0.00     0.314 C 
BRANCH   9  18
ATOM     18  O   UNL A   1      32.756  22.527  27.860  1.00  0.00    -0.497 OA
ATOM     19  C   UNL A   1      34.047  21.977  27.628  1.00  0.00     0.278 C 
ENDBRANCH   9  18
BRANCH  17  20
ATOM     20  C   UNL A   1      30.621  28.192  23.179  1.00  0.00     0.429 C 
ATOM     21  F   UNL A   1      31.027  28.974  22.154  1.00  0.00    -0.167 F 
ATOM     22  F   UNL A   1      29.408  27.704  22.803  1.00  0.00    -0.167 F 
ATOM     23  F   UNL A   1      30.404  28.986  24.253  1.00  0.00    -0.167 F 
ENDBRANCH  17  20
ENDBRANCH   5   8
ENDBRANCH   3   4
ENDBRANCH   2   3
ENDBRANCH   1   2
BRANCH   1  24
ATOM     24  C   UNL A   1      32.837  32.518  27.174  1.00  0.00     0.116 C 
BRANCH  24  25
ATOM     25  N   UNL A   1      32.519  33.890  27.538  1.00  0.00    -0.352 N 
ATOM     26  C   UNL A   1      33.106  34.680  28.500  1.00  0.00     0.251 C 
ATOM     27  H   UNL A   1      31.789  34.308  27.029  1.00  0.00     0.163 HD
ATOM     28  O   UNL A   1      32.653  35.782  28.756  1.00  0.00    -0.269 OA
BRANCH  26  29
ATOM     29  C   UNL A   1      34.265  34.156  29.252  1.00  0.00     0.039 A 
ATOM     30  C   UNL A   1      34.029  33.326  30.350  1.00  0.00     0.014 A 
ATOM     31  C   UNL A   1      35.572  34.460  28.861  1.00  0.00     0.014 A 
ATOM     32  C   UNL A   1      35.108  32.751  31.022  1.00  0.00     0.010 A 
ATOM     33  C   UNL A   1      36.642  33.829  29.486  1.00  0.00     0.010 A 
ATOM     34  C   UNL A   1      36.420  32.974  30.574  1.00  0.00    -0.014 A 
BRANCH  34  35
ATOM     35  C   UNL A   1      37.575  32.317  31.233  1.00  0.00     0.031 A 
ATOM     36  C   UNL A   1      38.277  31.173  30.561  1.00  0.00     0.074 A 
ATOM     37  C   UNL A   1      37.938  32.700  32.472  1.00  0.00     0.049 A 
ATOM     38  N   UNL A   1      39.266  30.437  30.999  1.00  0.00    -0.248 NA
ATOM     39  C   UNL A   1      37.777  30.781  29.234  1.00  0.00     0.031 C 
ATOM     40  C   UNL A   1      37.285  33.748  33.258  1.00  0.00     0.029 A 
ATOM     41  N   UNL A   1      38.934  32.237  33.292  1.00  0.00    -0.354 N 
ATOM     42  C   UNL A   1      39.491  29.485  30.014  1.00  0.00     0.074 A 
ATOM     43  C   UNL A   1      38.503  29.703  28.981  1.00  0.00     0.031 C 
ATOM     44  C   UNL A   1      37.904  33.855  34.444  1.00  0.00     0.029 A 
ATOM     45  C   UNL A   1      38.979  32.869  34.511  1.00  0.00     0.049 A 
ATOM     46  H   UNL A   1      39.557  31.520  33.034  1.00  0.00     0.167 HD
ATOM     47  C   UNL A   1      40.450  28.530  29.965  1.00  0.00     0.037 A 
ATOM     48  C   UNL A   1      39.793  32.673  35.564  1.00  0.00     0.037 A 
ATOM     49  C   UNL A   1      41.449  28.337  30.983  1.00  0.00     0.049 A 
ATOM     50  C   UNL A   1      40.876  31.637  35.474  1.00  0.00     0.074 A 
ATOM     51  C   UNL A   1      42.518  27.459  30.987  1.00  0.00     0.029 A 
ATOM     52  N   UNL A   1      41.496  29.031  32.183  1.00  0.00    -0.354 N 
ATOM     53  N   UNL A   1      41.142  30.806  34.495  1.00  0.00    -0.248 NA
ATOM     54  C   UNL A   1      41.780  31.521  36.625  1.00  0.00     0.031 C 
ATOM     55  C   UNL A   1      43.188  27.592  32.210  1.00  0.00     0.029 A 
ATOM     56  C   UNL A   1      42.562  28.584  32.947  1.00  0.00     0.049 A 
ATOM     57  H   UNL A   1      40.865  29.736  32.453  1.00  0.00     0.167 HD
ATOM     58  C   UNL A   1      42.253  30.080  34.903  1.00  0.00     0.074 A 
ATOM     59  C   UNL A   1      42.620  30.581  36.212  1.00  0.00     0.031 C 
ATOM     60  C   UNL A   1      42.909  29.088  34.252  1.00  0.00     0.037 A 
BRANCH  47  61
ATOM     61  C   UNL A   1      40.454  27.623  28.769  1.00  0.00     0.057 A 
ATOM     62  C   UNL A   1      41.231  27.895  27.635  1.00  0.00     0.134 A 
ATOM     63  C   UNL A   1      39.667  26.465  28.747  1.00  0.00     0.134 A 
ATOM     64  F   UNL A   1      41.998  28.995  27.584  1.00  0.00    -0.206 F 
ATOM     65  C   UNL A   1      41.197  27.069  26.509  1.00  0.00     0.040 A 
ATOM     66  C   UNL A   1      39.647  25.617  27.640  1.00  0.00     0.040 A 
ATOM     67  F   UNL A   1      38.903  26.140  29.801  1.00  0.00    -0.206 F 
ATOM     68  C   UNL A   1      40.405  25.923  26.511  1.00  0.00     0.006 A 
ENDBRANCH  47  61
BRANCH  48  69
ATOM     69  C   UNL A   1      39.624  33.504  36.781  1.00  0.00     0.057 A 
ATOM     70  C   UNL A   1      40.255  34.747  36.901  1.00  0.00     0.134 A 
ATOM     71  C   UNL A   1      38.801  33.092  37.836  1.00  0.00     0.134 A 
ATOM     72  F   UNL A   1      41.067  35.188  35.929  1.00  0.00    -0.206 F 
ATOM     73  C   UNL A   1      40.082  35.547  38.031  1.00  0.00     0.040 A 
ATOM     74  C   UNL A   1      38.602  33.891  38.962  1.00  0.00     0.040 A 
ATOM     75  F   UNL A   1      38.160  31.915  37.774  1.00  0.00    -0.206 F 
ATOM     76  C   UNL A   1      39.247  35.122  39.063  1.00  0.00     0.006 A 
ENDBRANCH  48  69
BRANCH  60  77
ATOM     77  C   UNL A   1      44.101  28.491  34.940  1.00  0.00     0.057 A 
ATOM     78  C   UNL A   1      43.988  27.368  35.769  1.00  0.00     0.134 A 
ATOM     79  C   UNL A   1      45.382  29.021  34.737  1.00  0.00     0.134 A 
ATOM     80  F   UNL A   1      42.787  26.822  36.013  1.00  0.00    -0.206 F 
ATOM     81  C   UNL A   1      45.104  26.806  36.390  1.00  0.00     0.040 A 
ATOM     82  C   UNL A   1      46.508  28.453  35.332  1.00  0.00     0.040 A 
ATOM     83  F   UNL A   1      45.559  30.090  33.948  1.00  0.00    -0.206 F 
ATOM     84  C   UNL A   1      46.370  27.345  36.166  1.00  0.00     0.006 A 
ENDBRANCH  60  77
ENDBRANCH  34  35
ENDBRANCH  26  29
ENDBRANCH  24  25
ENDBRANCH   1  24
TORSDOF 13
ENDMDL
