MODEL 1
REMARK VINA RESULT:     -12.2      0.000      0.000
REMARK SMILES Cc1cccc(-c2cc(OCC(=O)NCCCCNC(=O)c3ccc(-c4c5nc(c(-c6c(F)cccc6F)c6ccc([nH]6)c(-c6c(F)cccc6F)c6nc(c(-c7c(F)cccc7F)c7ccc4[nH]7)C=C6)C=C5)cc3)ncn2)c1
REMARK SMILES IDX 16 1 15 2 14 3 12 4 13 5 11 7 10 8 9 9 7 10 8 11 78 12 77 13
REMARK SMILES IDX 76 14 6 15 1 16 2 17 3 18 79 19 4 20 5 21 17 22 18 23 19 24
REMARK SMILES IDX 20 25 21 27 22 28 23 29 75 30 24 31 74 32 25 33 26 34 27 35
REMARK SMILES IDX 68 36 28 37 73 38 67 39 69 40 29 41 72 42 66 43 65 44 30 46
REMARK SMILES IDX 56 47 39 48 55 49 40 50 43 51 54 52 70 53 41 54 42 55 53 57
REMARK SMILES IDX 71 58 44 59 31 60 32 61 37 62 33 63 34 64 36 65 38 66 35 67
REMARK SMILES IDX 57 68 58 69 63 70 59 71 60 72 62 73 64 74 61 75 45 76 46 77
REMARK SMILES IDX 51 78 47 79 48 80 50 81 52 82 49 83
REMARK H PARENT 14 6 19 26 69 45 43 56
REMARK Flexibility Score: inf
ROOT
ATOM      1  C   UNL A   1      32.919  35.817  29.429  1.00  0.00     0.023 C 
ENDROOT
BRANCH   1   2
ATOM      2  C   UNL A   1      33.963  36.186  28.367  1.00  0.00     0.116 C 
BRANCH   2   3
ATOM      3  N   UNL A   1      35.075  35.255  28.300  1.00  0.00    -0.353 N 
ATOM      4  C   UNL A   1      35.066  33.925  27.999  1.00  0.00     0.258 C 
ATOM      5  O   UNL A   1      36.135  33.313  27.999  1.00  0.00    -0.271 OA
ATOM      6  H   UNL A   1      35.960  35.637  28.501  1.00  0.00     0.163 HD
BRANCH   4   7
ATOM      7  C   UNL A   1      33.747  33.222  27.654  1.00  0.00     0.331 C 
BRANCH   7   8
ATOM      8  O   UNL A   1      33.504  31.979  28.287  1.00  0.00    -0.467 OA
BRANCH   8   9
ATOM      9  C   UNL A   1      33.455  30.861  27.506  1.00  0.00     0.217 A 
ATOM     10  C   UNL A   1      32.550  29.336  25.968  1.00  0.00     0.077 A 
ATOM     11  C   UNL A   1      32.378  30.463  26.750  1.00  0.00     0.097 A 
ATOM     12  N   UNL A   1      33.690  28.618  25.970  1.00  0.00    -0.236 NA
ATOM     13  C   UNL A   1      34.667  29.080  26.759  1.00  0.00     0.226 A 
ATOM     14  N   UNL A   1      34.610  30.175  27.525  1.00  0.00    -0.202 NA
BRANCH  10  15
ATOM     15  C   UNL A   1      31.489  28.879  25.064  1.00  0.00     0.001 A 
ATOM     16  C   UNL A   1      29.949  25.581  23.890  1.00  0.00     0.044 C 
ATOM     17  C   UNL A   1      30.233  27.047  24.031  1.00  0.00    -0.050 A 
ATOM     18  C   UNL A   1      29.532  27.978  23.257  1.00  0.00     0.003 A 
ATOM     19  C   UNL A   1      31.210  27.506  24.924  1.00  0.00     0.013 A 
ATOM     20  C   UNL A   1      29.787  29.343  23.391  1.00  0.00     0.001 A 
ATOM     21  C   UNL A   1      30.752  29.790  24.296  1.00  0.00     0.010 A 
ENDBRANCH  10  15
ENDBRANCH   8   9
ENDBRANCH   7   8
ENDBRANCH   4   7
ENDBRANCH   2   3
ENDBRANCH   1   2
BRANCH   1  22
ATOM     22  C   UNL A   1      33.069  36.516  30.782  1.00  0.00     0.023 C 
BRANCH  22  23
ATOM     23  C   UNL A   1      32.630  35.686  31.980  1.00  0.00     0.116 C 
BRANCH  23  24
ATOM     24  N   UNL A   1      33.427  35.880  33.182  1.00  0.00    -0.352 N 
ATOM     25  C   UNL A   1      34.515  35.161  33.658  1.00  0.00     0.251 C 
ATOM     26  H   UNL A   1      33.150  36.638  33.746  1.00  0.00     0.163 HD
ATOM     27  O   UNL A   1      35.004  35.449  34.734  1.00  0.00    -0.269 OA
BRANCH  25  28
ATOM     28  C   UNL A   1      35.175  34.143  32.792  1.00  0.00     0.039 A 
ATOM     29  C   UNL A   1      35.209  32.822  33.257  1.00  0.00     0.014 A 
ATOM     30  C   UNL A   1      35.915  34.495  31.667  1.00  0.00     0.014 A 
ATOM     31  C   UNL A   1      36.181  31.948  32.776  1.00  0.00     0.010 A 
ATOM     32  C   UNL A   1      36.941  33.669  31.254  1.00  0.00     0.010 A 
ATOM     33  C   UNL A   1      37.119  32.427  31.865  1.00  0.00    -0.014 A 
BRANCH  33  34
ATOM     34  C   UNL A   1      38.390  31.765  31.610  1.00  0.00     0.031 A 
ATOM     35  C   UNL A   1      38.464  30.555  30.771  1.00  0.00     0.074 A 
ATOM     36  C   UNL A   1      39.524  32.320  32.093  1.00  0.00     0.049 A 
ATOM     37  N   UNL A   1      39.390  29.664  30.878  1.00  0.00    -0.248 NA
ATOM     38  C   UNL A   1      37.472  30.240  29.752  1.00  0.00     0.031 C 
ATOM     39  C   UNL A   1      40.899  31.974  31.749  1.00  0.00     0.029 A 
ATOM     40  N   UNL A   1      39.647  33.203  33.175  1.00  0.00    -0.354 N 
ATOM     41  C   UNL A   1      39.284  28.821  29.797  1.00  0.00     0.074 A 
ATOM     42  C   UNL A   1      38.037  29.183  29.161  1.00  0.00     0.031 C 
ATOM     43  C   UNL A   1      41.709  32.381  32.741  1.00  0.00     0.029 A 
ATOM     44  C   UNL A   1      40.862  32.877  33.811  1.00  0.00     0.049 A 
ATOM     45  H   UNL A   1      39.012  33.908  33.437  1.00  0.00     0.167 HD
ATOM     46  C   UNL A   1      40.328  28.002  29.480  1.00  0.00     0.037 A 
ATOM     47  C   UNL A   1      40.891  32.433  35.101  1.00  0.00     0.037 A 
ATOM     48  C   UNL A   1      41.434  28.166  30.419  1.00  0.00     0.049 A 
ATOM     49  C   UNL A   1      41.492  31.057  35.260  1.00  0.00     0.074 A 
ATOM     50  C   UNL A   1      42.597  28.918  30.367  1.00  0.00     0.029 A 
ATOM     51  N   UNL A   1      41.288  27.760  31.740  1.00  0.00    -0.354 N 
ATOM     52  N   UNL A   1      41.630  30.205  34.282  1.00  0.00    -0.248 NA
ATOM     53  C   UNL A   1      41.972  30.524  36.532  1.00  0.00     0.031 C 
ATOM     54  C   UNL A   1      43.135  28.993  31.672  1.00  0.00     0.029 A 
ATOM     55  C   UNL A   1      42.309  28.271  32.517  1.00  0.00     0.049 A 
ATOM     56  H   UNL A   1      40.559  27.189  32.075  1.00  0.00     0.167 HD
ATOM     57  C   UNL A   1      42.177  29.039  34.757  1.00  0.00     0.074 A 
ATOM     58  C   UNL A   1      42.394  29.300  36.167  1.00  0.00     0.031 C 
ATOM     59  C   UNL A   1      42.393  27.967  33.938  1.00  0.00     0.037 A 
BRANCH  46  60
ATOM     60  C   UNL A   1      40.457  27.292  28.153  1.00  0.00     0.057 A 
ATOM     61  C   UNL A   1      39.944  25.992  27.966  1.00  0.00     0.134 A 
ATOM     62  C   UNL A   1      41.113  27.821  27.030  1.00  0.00     0.134 A 
ATOM     63  F   UNL A   1      39.191  25.388  28.895  1.00  0.00    -0.206 F 
ATOM     64  C   UNL A   1      40.181  25.237  26.810  1.00  0.00     0.040 A 
ATOM     65  C   UNL A   1      41.404  27.061  25.887  1.00  0.00     0.040 A 
ATOM     66  F   UNL A   1      41.463  29.114  26.972  1.00  0.00    -0.206 F 
ATOM     67  C   UNL A   1      40.951  25.754  25.782  1.00  0.00     0.006 A 
ENDBRANCH  46  60
BRANCH  47  68
ATOM     68  C   UNL A   1      39.808  33.004  35.942  1.00  0.00     0.057 A 
ATOM     69  C   UNL A   1      38.653  32.231  36.160  1.00  0.00     0.134 A 
ATOM     70  C   UNL A   1      40.038  34.065  36.821  1.00  0.00     0.134 A 
ATOM     71  F   UNL A   1      38.376  31.194  35.353  1.00  0.00    -0.206 F 
ATOM     72  C   UNL A   1      37.827  32.431  37.269  1.00  0.00     0.040 A 
ATOM     73  C   UNL A   1      39.211  34.281  37.931  1.00  0.00     0.040 A 
ATOM     74  F   UNL A   1      41.130  34.832  36.693  1.00  0.00    -0.206 F 
ATOM     75  C   UNL A   1      38.127  33.439  38.179  1.00  0.00     0.006 A 
ENDBRANCH  47  68
BRANCH  59  76
ATOM     76  C   UNL A   1      42.783  26.561  34.345  1.00  0.00     0.057 A 
ATOM     77  C   UNL A   1      41.997  25.709  35.134  1.00  0.00     0.134 A 
ATOM     78  C   UNL A   1      43.947  25.958  33.806  1.00  0.00     0.134 A 
ATOM     79  F   UNL A   1      40.815  26.096  35.627  1.00  0.00    -0.206 F 
ATOM     80  C   UNL A   1      42.364  24.381  35.406  1.00  0.00     0.040 A 
ATOM     81  C   UNL A   1      44.291  24.621  34.022  1.00  0.00     0.040 A 
ATOM     82  F   UNL A   1      44.797  26.634  33.018  1.00  0.00    -0.206 F 
ATOM     83  C   UNL A   1      43.504  23.828  34.838  1.00  0.00     0.006 A 
ENDBRANCH  59  76
ENDBRANCH  33  34
ENDBRANCH  25  28
ENDBRANCH  23  24
ENDBRANCH  22  23
ENDBRANCH   1  22
TORSDOF 14
ENDMDL
MODEL 2
REMARK VINA RESULT:     -12.0      3.225      5.600
REMARK SMILES Cc1cccc(-c2cc(OCC(=O)NCCCCNC(=O)c3ccc(-c4c5nc(c(-c6c(F)cccc6F)c6ccc([nH]6)c(-c6c(F)cccc6F)c6nc(c(-c7c(F)cccc7F)c7ccc4[nH]7)C=C6)C=C5)cc3)ncn2)c1
REMARK SMILES IDX 16 1 15 2 14 3 12 4 13 5 11 7 10 8 9 9 7 10 8 11 78 12 77 13
REMARK SMILES IDX 76 14 6 15 1 16 2 17 3 18 79 19 4 20 5 21 17 22 18 23 19 24
REMARK SMILES IDX 20 25 21 27 22 28 23 29 75 30 24 31 74 32 25 33 26 34 27 35
REMARK SMILES IDX 68 36 28 37 73 38 67 39 69 40 29 41 72 42 66 43 65 44 30 46
REMARK SMILES IDX 56 47 39 48 55 49 40 50 43 51 54 52 70 53 41 54 42 55 53 57
REMARK SMILES IDX 71 58 44 59 31 60 32 61 37 62 33 63 34 64 36 65 38 66 35 67
REMARK SMILES IDX 57 68 58 69 63 70 59 71 60 72 62 73 64 74 61 75 45 76 46 77
REMARK SMILES IDX 51 78 47 79 48 80 50 81 52 82 49 83
REMARK H PARENT 14 6 19 26 69 45 43 56
REMARK Flexibility Score: inf
ROOT
ATOM      1  C   UNL A   1      31.927  30.440  25.902  1.00  0.00     0.023 C 
ENDROOT
BRANCH   1   2
ATOM      2  C   UNL A   1      31.604  29.294  24.937  1.00  0.00     0.116 C 
BRANCH   2   3
ATOM      3  N   UNL A   1      30.939  29.728  23.722  1.00  0.00    -0.353 N 
ATOM      4  C   UNL A   1      30.158  29.009  22.866  1.00  0.00     0.258 C 
ATOM      5  O   UNL A   1      29.685  29.577  21.880  1.00  0.00    -0.271 OA
ATOM      6  H   UNL A   1      31.069  30.674  23.482  1.00  0.00     0.163 HD
BRANCH   4   7
ATOM      7  C   UNL A   1      29.871  27.528  23.143  1.00  0.00     0.331 C 
BRANCH   7   8
ATOM      8  O   UNL A   1      30.833  26.596  22.684  1.00  0.00    -0.467 OA
BRANCH   8   9
ATOM      9  C   UNL A   1      31.512  25.864  23.615  1.00  0.00     0.217 A 
ATOM     10  C   UNL A   1      33.294  24.628  24.513  1.00  0.00     0.077 A 
ATOM     11  C   UNL A   1      32.736  25.268  23.422  1.00  0.00     0.097 A 
ATOM     12  N   UNL A   1      32.666  24.538  25.701  1.00  0.00    -0.236 NA
ATOM     13  C   UNL A   1      31.471  25.133  25.774  1.00  0.00     0.226 A 
ATOM     14  N   UNL A   1      30.862  25.802  24.788  1.00  0.00    -0.202 NA
BRANCH  10  15
ATOM     15  C   UNL A   1      34.632  24.032  24.432  1.00  0.00     0.001 A 
ATOM     16  C   UNL A   1      37.867  23.964  26.469  1.00  0.00     0.044 C 
ATOM     17  C   UNL A   1      36.872  23.724  25.372  1.00  0.00    -0.050 A 
ATOM     18  C   UNL A   1      37.236  22.988  24.241  1.00  0.00     0.003 A 
ATOM     19  C   UNL A   1      35.575  24.245  25.455  1.00  0.00     0.013 A 
ATOM     20  C   UNL A   1      36.311  22.756  23.222  1.00  0.00     0.001 A 
ATOM     21  C   UNL A   1      35.015  23.266  23.322  1.00  0.00     0.010 A 
ENDBRANCH  10  15
ENDBRANCH   8   9
ENDBRANCH   7   8
ENDBRANCH   4   7
ENDBRANCH   2   3
ENDBRANCH   1   2
BRANCH   1  22
ATOM     22  C   UNL A   1      32.535  30.030  27.246  1.00  0.00     0.023 C 
BRANCH  22  23
ATOM     23  C   UNL A   1      34.056  30.074  27.296  1.00  0.00     0.116 C 
BRANCH  23  24
ATOM     24  N   UNL A   1      34.608  31.055  28.219  1.00  0.00    -0.352 N 
ATOM     25  C   UNL A   1      35.773  31.016  28.972  1.00  0.00     0.251 C 
ATOM     26  H   UNL A   1      34.071  31.873  28.325  1.00  0.00     0.163 HD
ATOM     27  O   UNL A   1      36.022  31.923  29.744  1.00  0.00    -0.269 OA
BRANCH  25  28
ATOM     28  C   UNL A   1      36.785  29.949  28.729  1.00  0.00     0.039 A 
ATOM     29  C   UNL A   1      36.942  28.969  29.719  1.00  0.00     0.014 A 
ATOM     30  C   UNL A   1      37.692  30.013  27.676  1.00  0.00     0.014 A 
ATOM     31  C   UNL A   1      38.137  28.259  29.800  1.00  0.00     0.010 A 
ATOM     32  C   UNL A   1      38.914  29.385  27.804  1.00  0.00     0.010 A 
ATOM     33  C   UNL A   1      39.161  28.570  28.909  1.00  0.00    -0.014 A 
BRANCH  33  34
ATOM     34  C   UNL A   1      40.553  28.212  29.142  1.00  0.00     0.031 A 
ATOM     35  C   UNL A   1      41.142  27.007  28.530  1.00  0.00     0.074 A 
ATOM     36  C   UNL A   1      41.329  29.046  29.871  1.00  0.00     0.049 A 
ATOM     37  N   UNL A   1      42.144  26.367  29.028  1.00  0.00    -0.248 NA
ATOM     38  C   UNL A   1      40.623  26.409  27.308  1.00  0.00     0.031 C 
ATOM     39  C   UNL A   1      42.781  29.013  30.010  1.00  0.00     0.029 A 
ATOM     40  N   UNL A   1      40.909  29.993  30.814  1.00  0.00    -0.354 N 
ATOM     41  C   UNL A   1      42.571  25.462  28.086  1.00  0.00     0.074 A 
ATOM     42  C   UNL A   1      41.554  25.482  27.059  1.00  0.00     0.031 C 
ATOM     43  C   UNL A   1      43.122  29.656  31.139  1.00  0.00     0.029 A 
ATOM     44  C   UNL A   1      41.890  30.000  31.827  1.00  0.00     0.049 A 
ATOM     45  H   UNL A   1      40.094  30.543  30.777  1.00  0.00     0.167 HD
ATOM     46  C   UNL A   1      43.806  24.894  28.211  1.00  0.00     0.037 A 
ATOM     47  C   UNL A   1      41.587  29.650  33.110  1.00  0.00     0.037 A 
ATOM     48  C   UNL A   1      44.487  25.368  29.413  1.00  0.00     0.049 A 
ATOM     49  C   UNL A   1      42.372  28.466  33.623  1.00  0.00     0.074 A 
ATOM     50  C   UNL A   1      45.423  26.368  29.619  1.00  0.00     0.029 A 
ATOM     51  N   UNL A   1      44.005  25.015  30.667  1.00  0.00    -0.354 N 
ATOM     52  N   UNL A   1      42.992  27.615  32.852  1.00  0.00    -0.248 NA
ATOM     53  C   UNL A   1      42.509  28.135  35.038  1.00  0.00     0.031 C 
ATOM     54  C   UNL A   1      45.479  26.643  31.005  1.00  0.00     0.029 A 
ATOM     55  C   UNL A   1      44.589  25.797  31.645  1.00  0.00     0.049 A 
ATOM     56  H   UNL A   1      43.340  24.309  30.836  1.00  0.00     0.167 HD
ATOM     57  C   UNL A   1      43.581  26.640  33.619  1.00  0.00     0.074 A 
ATOM     58  C   UNL A   1      43.268  27.026  34.981  1.00  0.00     0.031 C 
ATOM     59  C   UNL A   1      44.266  25.604  33.051  1.00  0.00     0.037 A 
BRANCH  46  60
ATOM     60  C   UNL A   1      44.502  24.159  27.090  1.00  0.00     0.057 A 
ATOM     61  C   UNL A   1      44.180  22.822  26.781  1.00  0.00     0.134 A 
ATOM     62  C   UNL A   1      45.530  24.703  26.303  1.00  0.00     0.134 A 
ATOM     63  F   UNL A   1      43.148  22.192  27.357  1.00  0.00    -0.206 F 
ATOM     64  C   UNL A   1      44.908  22.054  25.863  1.00  0.00     0.040 A 
ATOM     65  C   UNL A   1      46.302  23.933  25.418  1.00  0.00     0.040 A 
ATOM     66  F   UNL A   1      45.803  26.015  26.323  1.00  0.00    -0.206 F 
ATOM     67  C   UNL A   1      46.002  22.596  25.209  1.00  0.00     0.006 A 
ENDBRANCH  46  60
BRANCH  47  68
ATOM     68  C   UNL A   1      40.197  29.998  33.500  1.00  0.00     0.057 A 
ATOM     69  C   UNL A   1      39.907  31.338  33.818  1.00  0.00     0.134 A 
ATOM     70  C   UNL A   1      39.115  29.169  33.194  1.00  0.00     0.134 A 
ATOM     71  F   UNL A   1      40.902  32.188  34.118  1.00  0.00    -0.206 F 
ATOM     72  C   UNL A   1      38.614  31.858  33.722  1.00  0.00     0.040 A 
ATOM     73  C   UNL A   1      37.813  29.677  33.105  1.00  0.00     0.040 A 
ATOM     74  F   UNL A   1      39.313  27.886  32.857  1.00  0.00    -0.206 F 
ATOM     75  C   UNL A   1      37.566  31.032  33.329  1.00  0.00     0.006 A 
ENDBRANCH  47  68
BRANCH  59  76
ATOM     76  C   UNL A   1      44.781  24.355  33.737  1.00  0.00     0.057 A 
ATOM     77  C   UNL A   1      43.984  23.270  34.128  1.00  0.00     0.134 A 
ATOM     78  C   UNL A   1      46.174  24.149  33.893  1.00  0.00     0.134 A 
ATOM     79  F   UNL A   1      42.658  23.266  33.944  1.00  0.00    -0.206 F 
ATOM     80  C   UNL A   1      44.524  22.096  34.676  1.00  0.00     0.040 A 
ATOM     81  C   UNL A   1      46.726  22.962  34.384  1.00  0.00     0.040 A 
ATOM     82  F   UNL A   1      47.073  25.085  33.552  1.00  0.00    -0.206 F 
ATOM     83  C   UNL A   1      45.899  21.932  34.792  1.00  0.00     0.006 A 
ENDBRANCH  59  76
ENDBRANCH  33  34
ENDBRANCH  25  28
ENDBRANCH  23  24
ENDBRANCH  22  23
ENDBRANCH   1  22
TORSDOF 14
ENDMDL
MODEL 3
REMARK VINA RESULT:     -11.8      4.427      9.850
REMARK SMILES Cc1cccc(-c2cc(OCC(=O)NCCCCNC(=O)c3ccc(-c4c5nc(c(-c6c(F)cccc6F)c6ccc([nH]6)c(-c6c(F)cccc6F)c6nc(c(-c7c(F)cccc7F)c7ccc4[nH]7)C=C6)C=C5)cc3)ncn2)c1
REMARK SMILES IDX 16 1 15 2 14 3 12 4 13 5 11 7 10 8 9 9 7 10 8 11 78 12 77 13
REMARK SMILES IDX 76 14 6 15 1 16 2 17 3 18 79 19 4 20 5 21 17 22 18 23 19 24
REMARK SMILES IDX 20 25 21 27 22 28 23 29 75 30 24 31 74 32 25 33 26 34 27 35
REMARK SMILES IDX 68 36 28 37 73 38 67 39 69 40 29 41 72 42 66 43 65 44 30 46
REMARK SMILES IDX 56 47 39 48 55 49 40 50 43 51 54 52 70 53 41 54 42 55 53 57
REMARK SMILES IDX 71 58 44 59 31 60 32 61 37 62 33 63 34 64 36 65 38 66 35 67
REMARK SMILES IDX 57 68 58 69 63 70 59 71 60 72 62 73 64 74 61 75 45 76 46 77
REMARK SMILES IDX 51 78 47 79 48 80 50 81 52 82 49 83
REMARK H PARENT 14 6 19 26 69 45 43 56
REMARK Flexibility Score: inf
ROOT
ATOM      1  C   UNL A   1      37.300  21.361  24.724  1.00  0.00     0.023 C 
ENDROOT
BRANCH   1   2
ATOM      2  C   UNL A   1      36.068  21.185  25.620  1.00  0.00     0.116 C 
BRANCH   2   3
ATOM      3  N   UNL A   1      35.253  20.038  25.266  1.00  0.00    -0.353 N 
ATOM      4  C   UNL A   1      34.034  20.006  24.654  1.00  0.00     0.258 C 
ATOM      5  O   UNL A   1      33.508  18.911  24.444  1.00  0.00    -0.271 OA
ATOM      6  H   UNL A   1      35.631  19.159  25.500  1.00  0.00     0.163 HD
BRANCH   4   7
ATOM      7  C   UNL A   1      33.351  21.311  24.229  1.00  0.00     0.331 C 
BRANCH   7   8
ATOM      8  O   UNL A   1      31.951  21.389  24.422  1.00  0.00    -0.467 OA
BRANCH   8   9
ATOM      9  C   UNL A   1      31.463  22.422  25.169  1.00  0.00     0.217 A 
ATOM     10  C   UNL A   1      31.102  24.656  25.794  1.00  0.00     0.077 A 
ATOM     11  C   UNL A   1      31.755  23.752  24.976  1.00  0.00     0.097 A 
ATOM     12  N   UNL A   1      30.257  24.273  26.770  1.00  0.00    -0.236 NA
ATOM     13  C   UNL A   1      30.061  22.955  26.886  1.00  0.00     0.226 A 
ATOM     14  N   UNL A   1      30.618  22.005  26.125  1.00  0.00    -0.202 NA
BRANCH  10  15
ATOM     15  C   UNL A   1      31.284  26.100  25.613  1.00  0.00     0.001 A 
ATOM     16  C   UNL A   1      33.202  28.974  27.253  1.00  0.00     0.044 C 
ATOM     17  C   UNL A   1      32.289  28.213  26.337  1.00  0.00    -0.050 A 
ATOM     18  C   UNL A   1      31.561  28.886  25.350  1.00  0.00     0.003 A 
ATOM     19  C   UNL A   1      32.139  26.826  26.463  1.00  0.00     0.013 A 
ATOM     20  C   UNL A   1      30.718  28.181  24.491  1.00  0.00     0.001 A 
ATOM     21  C   UNL A   1      30.589  26.797  24.615  1.00  0.00     0.010 A 
ENDBRANCH  10  15
ENDBRANCH   8   9
ENDBRANCH   7   8
ENDBRANCH   4   7
ENDBRANCH   2   3
ENDBRANCH   1   2
BRANCH   1  22
ATOM     22  C   UNL A   1      38.646  21.438  25.449  1.00  0.00     0.023 C 
BRANCH  22  23
ATOM     23  C   UNL A   1      38.927  22.771  26.130  1.00  0.00     0.116 C 
BRANCH  23  24
ATOM     24  N   UNL A   1      40.303  22.957  26.563  1.00  0.00    -0.352 N 
ATOM     25  C   UNL A   1      40.959  24.105  26.985  1.00  0.00     0.251 C 
ATOM     26  H   UNL A   1      40.855  22.142  26.555  1.00  0.00     0.163 HD
ATOM     27  O   UNL A   1      42.147  24.061  27.243  1.00  0.00    -0.269 OA
BRANCH  25  28
ATOM     28  C   UNL A   1      40.185  25.348  27.265  1.00  0.00     0.039 A 
ATOM     29  C   UNL A   1      40.487  26.484  26.501  1.00  0.00     0.014 A 
ATOM     30  C   UNL A   1      39.343  25.464  28.367  1.00  0.00     0.014 A 
ATOM     31  C   UNL A   1      40.180  27.749  26.999  1.00  0.00     0.010 A 
ATOM     32  C   UNL A   1      39.121  26.713  28.912  1.00  0.00     0.010 A 
ATOM     33  C   UNL A   1      39.609  27.848  28.265  1.00  0.00    -0.014 A 
BRANCH  33  34
ATOM     34  C   UNL A   1      39.623  29.076  29.048  1.00  0.00     0.031 A 
ATOM     35  C   UNL A   1      38.577  30.100  28.877  1.00  0.00     0.074 A 
ATOM     36  C   UNL A   1      40.571  29.233  29.999  1.00  0.00     0.049 A 
ATOM     37  N   UNL A   1      38.750  31.351  29.135  1.00  0.00    -0.248 NA
ATOM     38  C   UNL A   1      37.247  29.792  28.369  1.00  0.00     0.031 C 
ATOM     39  C   UNL A   1      40.616  30.245  31.049  1.00  0.00     0.029 A 
ATOM     40  N   UNL A   1      41.819  28.600  30.070  1.00  0.00    -0.354 N 
ATOM     41  C   UNL A   1      37.518  31.960  29.095  1.00  0.00     0.074 A 
ATOM     42  C   UNL A   1      36.625  30.961  28.552  1.00  0.00     0.031 C 
ATOM     43  C   UNL A   1      41.885  30.377  31.468  1.00  0.00     0.029 A 
ATOM     44  C   UNL A   1      42.712  29.551  30.605  1.00  0.00     0.049 A 
ATOM     45  H   UNL A   1      42.030  27.677  29.802  1.00  0.00     0.167 HD
ATOM     46  C   UNL A   1      37.361  33.196  29.652  1.00  0.00     0.037 A 
ATOM     47  C   UNL A   1      43.785  29.998  29.891  1.00  0.00     0.037 A 
ATOM     48  C   UNL A   1      38.618  33.688  30.209  1.00  0.00     0.049 A 
ATOM     49  C   UNL A   1      43.779  31.488  29.645  1.00  0.00     0.074 A 
ATOM     50  C   UNL A   1      39.136  33.672  31.494  1.00  0.00     0.029 A 
ATOM     51  N   UNL A   1      39.672  34.010  29.363  1.00  0.00    -0.354 N 
ATOM     52  N   UNL A   1      42.717  32.238  29.749  1.00  0.00    -0.248 NA
ATOM     53  C   UNL A   1      44.959  32.249  29.248  1.00  0.00     0.031 C 
ATOM     54  C   UNL A   1      40.521  33.952  31.416  1.00  0.00     0.029 A 
ATOM     55  C   UNL A   1      40.841  34.157  30.085  1.00  0.00     0.049 A 
ATOM     56  H   UNL A   1      39.597  34.118  28.388  1.00  0.00     0.167 HD
ATOM     57  C   UNL A   1      43.034  33.535  29.431  1.00  0.00     0.074 A 
ATOM     58  C   UNL A   1      44.456  33.492  29.147  1.00  0.00     0.031 C 
ATOM     59  C   UNL A   1      42.087  34.521  29.427  1.00  0.00     0.037 A 
BRANCH  46  60
ATOM     60  C   UNL A   1      36.014  33.806  29.959  1.00  0.00     0.057 A 
ATOM     61  C   UNL A   1      35.174  34.279  28.930  1.00  0.00     0.134 A 
ATOM     62  C   UNL A   1      35.504  33.994  31.254  1.00  0.00     0.134 A 
ATOM     63  F   UNL A   1      35.456  34.075  27.636  1.00  0.00    -0.206 F 
ATOM     64  C   UNL A   1      33.996  34.995  29.176  1.00  0.00     0.040 A 
ATOM     65  C   UNL A   1      34.354  34.754  31.518  1.00  0.00     0.040 A 
ATOM     66  F   UNL A   1      36.074  33.411  32.318  1.00  0.00    -0.206 F 
ATOM     67  C   UNL A   1      33.603  35.273  30.474  1.00  0.00     0.006 A 
ENDBRANCH  46  60
BRANCH  47  68
ATOM     68  C   UNL A   1      44.344  28.974  28.972  1.00  0.00     0.057 A 
ATOM     69  C   UNL A   1      45.186  27.982  29.509  1.00  0.00     0.134 A 
ATOM     70  C   UNL A   1      43.780  28.719  27.720  1.00  0.00     0.134 A 
ATOM     71  F   UNL A   1      45.756  28.163  30.712  1.00  0.00    -0.206 F 
ATOM     72  C   UNL A   1      45.365  26.745  28.884  1.00  0.00     0.040 A 
ATOM     73  C   UNL A   1      43.962  27.487  27.078  1.00  0.00     0.040 A 
ATOM     74  F   UNL A   1      42.949  29.605  27.153  1.00  0.00    -0.206 F 
ATOM     75  C   UNL A   1      44.722  26.483  27.679  1.00  0.00     0.006 A 
ENDBRANCH  47  68
BRANCH  59  76
ATOM     76  C   UNL A   1      42.231  35.934  28.900  1.00  0.00     0.057 A 
ATOM     77  C   UNL A   1      42.960  36.952  29.529  1.00  0.00     0.134 A 
ATOM     78  C   UNL A   1      41.734  36.271  27.616  1.00  0.00     0.134 A 
ATOM     79  F   UNL A   1      43.583  36.755  30.697  1.00  0.00    -0.206 F 
ATOM     80  C   UNL A   1      43.139  38.219  28.952  1.00  0.00     0.040 A 
ATOM     81  C   UNL A   1      41.956  37.509  27.007  1.00  0.00     0.040 A 
ATOM     82  F   UNL A   1      41.028  35.402  26.877  1.00  0.00    -0.206 F 
ATOM     83  C   UNL A   1      42.650  38.497  27.681  1.00  0.00     0.006 A 
ENDBRANCH  59  76
ENDBRANCH  33  34
ENDBRANCH  25  28
ENDBRANCH  23  24
ENDBRANCH  22  23
ENDBRANCH   1  22
TORSDOF 14
ENDMDL
