MODEL 1
REMARK VINA RESULT:     -12.6      0.000      0.000
REMARK SMILES CCOC(=O)c1c(NC(=O)[C@@H]2[C@@H](C(=O)NCCCCNC(=O)c3ccc(-c4c5nc(c(-c6c(F)cccc6F)c6ccc([nH]6)c(-c6c(F)cccc6F)c6nc(c(-c7c(F)cccc7F)c7ccc4[nH]7)C=C6)C=C5)cc3)[C@@H]3C=C[C@H]2CC3)sc2c1CCC2
REMARK SMILES IDX 16 1 15 2 13 3 14 4 12 6 11 7 80 8 77 9 79 10 81 11 78 12
REMARK SMILES IDX 82 13 9 14 8 15 10 17 7 18 6 19 85 20 83 21 84 22 86 23
REMARK SMILES IDX 88 24 87 25 4 26 5 27 3 28 2 29 1 30 17 31 18 32 19 33 20 34
REMARK SMILES IDX 21 35 22 37 23 38 24 39 76 40 25 41 75 42 26 43 27 44 28 45
REMARK SMILES IDX 69 46 29 47 74 48 68 49 70 50 30 51 73 52 67 53 66 54 31 56
REMARK SMILES IDX 57 57 40 58 56 59 41 60 44 61 55 62 71 63 42 64 43 65 54 67
REMARK SMILES IDX 72 68 45 69 32 70 33 71 38 72 34 73 35 74 37 75 39 76 36 77
REMARK SMILES IDX 58 78 59 79 64 80 60 81 61 82 63 83 65 84 62 85 46 86 47 87
REMARK SMILES IDX 52 88 48 89 49 90 51 91 53 92 50 93
REMARK H PARENT 15 5 8 16 20 36 70 55 44 66
REMARK Flexibility Score: inf
ROOT
ATOM      1  C   UNL A   1      36.717  23.542  26.132  1.00  0.00     0.116 C 
ENDROOT
BRANCH   1   2
ATOM      2  N   UNL A   1      35.581  22.945  26.826  1.00  0.00    -0.356 N 
ATOM      3  C   UNL A   1      34.255  22.772  26.571  1.00  0.00     0.224 C 
ATOM      4  O   UNL A   1      33.710  21.926  27.300  1.00  0.00    -0.275 OA
ATOM      5  H   UNL A   1      35.840  22.574  27.700  1.00  0.00     0.163 HD
BRANCH   3   6
ATOM      6  C   UNL A   1      33.348  23.579  25.613  1.00  0.00     0.098 C 
ATOM      7  C   UNL A   1      31.847  23.251  25.577  1.00  0.00     0.099 C 
ATOM      8  C   UNL A   1      31.418  22.894  24.122  1.00  0.00     0.025 C 
ATOM      9  C   UNL A   1      33.940  23.547  24.165  1.00  0.00     0.025 C 
ATOM     10  C   UNL A   1      31.786  23.999  23.171  1.00  0.00    -0.027 C 
ATOM     11  C   UNL A   1      32.310  21.718  23.594  1.00  0.00     0.009 C 
ATOM     12  C   UNL A   1      33.090  24.328  23.189  1.00  0.00    -0.027 C 
ATOM     13  C   UNL A   1      33.814  22.140  23.583  1.00  0.00     0.009 C 
BRANCH   7  14
ATOM     14  C   UNL A   1      30.934  24.159  26.448  1.00  0.00     0.229 C 
ATOM     15  N   UNL A   1      30.758  25.506  26.457  1.00  0.00    -0.317 N 
ATOM     16  H   UNL A   1      30.074  25.802  27.100  1.00  0.00     0.170 HD
ATOM     17  O   UNL A   1      30.184  23.558  27.245  1.00  0.00    -0.274 OA
BRANCH  15  18
ATOM     18  C   UNL A   1      31.329  26.542  25.760  1.00  0.00     0.110 A 
ATOM     19  C   UNL A   1      30.904  27.123  24.560  1.00  0.00     0.098 A 
ATOM     20  C   UNL A   1      32.019  27.826  24.018  1.00  0.00    -0.017 A 
ATOM     21  S   UNL A   1      32.493  27.559  26.492  1.00  0.00    -0.122 S 
ATOM     22  C   UNL A   1      32.987  28.031  24.965  1.00  0.00     0.011 A 
ATOM     23  C   UNL A   1      32.437  28.418  22.722  1.00  0.00     0.038 C 
ATOM     24  C   UNL A   1      34.231  28.652  24.460  1.00  0.00     0.047 C 
ATOM     25  C   UNL A   1      33.982  28.577  22.922  1.00  0.00     0.010 C 
BRANCH  19  26
ATOM     26  C   UNL A   1      29.581  26.907  23.998  1.00  0.00     0.341 C 
ATOM     27  O   UNL A   1      28.757  26.185  24.548  1.00  0.00    -0.246 OA
BRANCH  26  28
ATOM     28  O   UNL A   1      29.335  27.649  22.881  1.00  0.00    -0.462 OA
BRANCH  28  29
ATOM     29  C   UNL A   1      28.745  28.944  23.089  1.00  0.00     0.230 C 
ATOM     30  C   UNL A   1      27.225  28.957  23.049  1.00  0.00     0.049 C 
ENDBRANCH  28  29
ENDBRANCH  26  28
ENDBRANCH  19  26
ENDBRANCH  15  18
ENDBRANCH   7  14
ENDBRANCH   3   6
ENDBRANCH   1   2
BRANCH   1  31
ATOM     31  C   UNL A   1      37.335  22.719  24.988  1.00  0.00     0.023 C 
BRANCH  31  32
ATOM     32  C   UNL A   1      38.309  21.608  25.370  1.00  0.00     0.023 C 
BRANCH  32  33
ATOM     33  C   UNL A   1      39.281  21.995  26.471  1.00  0.00     0.116 C 
BRANCH  33  34
ATOM     34  N   UNL A   1      40.667  21.997  26.022  1.00  0.00    -0.352 N 
ATOM     35  C   UNL A   1      41.585  23.038  26.088  1.00  0.00     0.251 C 
ATOM     36  H   UNL A   1      40.993  21.158  25.621  1.00  0.00     0.163 HD
ATOM     37  O   UNL A   1      42.622  23.021  25.474  1.00  0.00    -0.269 OA
BRANCH  35  38
ATOM     38  C   UNL A   1      41.216  24.182  26.934  1.00  0.00     0.039 A 
ATOM     39  C   UNL A   1      41.913  24.421  28.116  1.00  0.00     0.014 A 
ATOM     40  C   UNL A   1      40.295  25.100  26.432  1.00  0.00     0.014 A 
ATOM     41  C   UNL A   1      41.758  25.653  28.742  1.00  0.00     0.010 A 
ATOM     42  C   UNL A   1      40.228  26.360  26.992  1.00  0.00     0.010 A 
ATOM     43  C   UNL A   1      40.948  26.641  28.155  1.00  0.00    -0.014 A 
BRANCH  43  44
ATOM     44  C   UNL A   1      40.947  27.991  28.723  1.00  0.00     0.031 A 
ATOM     45  C   UNL A   1      42.066  28.896  28.315  1.00  0.00     0.074 A 
ATOM     46  C   UNL A   1      39.932  28.515  29.438  1.00  0.00     0.049 A 
ATOM     47  N   UNL A   1      43.005  29.387  29.058  1.00  0.00    -0.248 NA
ATOM     48  C   UNL A   1      42.183  29.260  26.896  1.00  0.00     0.031 C 
ATOM     49  C   UNL A   1      38.599  27.962  29.692  1.00  0.00     0.029 A 
ATOM     50  N   UNL A   1      39.875  29.739  30.034  1.00  0.00    -0.354 N 
ATOM     51  C   UNL A   1      43.743  30.252  28.248  1.00  0.00     0.074 A 
ATOM     52  C   UNL A   1      43.262  30.047  26.905  1.00  0.00     0.031 C 
ATOM     53  C   UNL A   1      37.802  28.926  30.201  1.00  0.00     0.029 A 
ATOM     54  C   UNL A   1      38.613  30.095  30.478  1.00  0.00     0.049 A 
ATOM     55  H   UNL A   1      40.663  30.320  30.138  1.00  0.00     0.167 HD
ATOM     56  C   UNL A   1      44.577  31.195  28.773  1.00  0.00     0.037 A 
ATOM     57  C   UNL A   1      38.251  31.272  31.035  1.00  0.00     0.037 A 
ATOM     58  C   UNL A   1      44.870  30.927  30.157  1.00  0.00     0.049 A 
ATOM     59  C   UNL A   1      39.474  31.921  31.559  1.00  0.00     0.074 A 
ATOM     60  C   UNL A   1      45.457  29.887  30.851  1.00  0.00     0.029 A 
ATOM     61  N   UNL A   1      44.242  31.692  31.108  1.00  0.00    -0.354 N 
ATOM     62  N   UNL A   1      40.160  31.479  32.576  1.00  0.00    -0.248 NA
ATOM     63  C   UNL A   1      40.168  32.871  30.705  1.00  0.00     0.031 C 
ATOM     64  C   UNL A   1      44.729  29.808  32.077  1.00  0.00     0.029 A 
ATOM     65  C   UNL A   1      43.777  30.828  32.064  1.00  0.00     0.049 A 
ATOM     66  H   UNL A   1      44.146  32.671  31.104  1.00  0.00     0.167 HD
ATOM     67  C   UNL A   1      41.481  31.753  32.258  1.00  0.00     0.074 A 
ATOM     68  C   UNL A   1      41.413  32.718  31.164  1.00  0.00     0.031 C 
ATOM     69  C   UNL A   1      42.500  30.971  32.723  1.00  0.00     0.037 A 
BRANCH  56  70
ATOM     70  C   UNL A   1      44.892  32.539  28.150  1.00  0.00     0.057 A 
ATOM     71  C   UNL A   1      43.893  33.533  28.105  1.00  0.00     0.134 A 
ATOM     72  C   UNL A   1      46.016  32.791  27.342  1.00  0.00     0.134 A 
ATOM     73  F   UNL A   1      42.765  33.413  28.822  1.00  0.00    -0.206 F 
ATOM     74  C   UNL A   1      43.972  34.648  27.260  1.00  0.00     0.040 A 
ATOM     75  C   UNL A   1      46.128  33.927  26.531  1.00  0.00     0.040 A 
ATOM     76  F   UNL A   1      47.016  31.911  27.215  1.00  0.00    -0.206 F 
ATOM     77  C   UNL A   1      45.091  34.843  26.462  1.00  0.00     0.006 A 
ENDBRANCH  56  70
BRANCH  57  78
ATOM     78  C   UNL A   1      36.949  31.959  30.947  1.00  0.00     0.057 A 
ATOM     79  C   UNL A   1      36.083  32.022  32.044  1.00  0.00     0.134 A 
ATOM     80  C   UNL A   1      36.640  32.797  29.860  1.00  0.00     0.134 A 
ATOM     81  F   UNL A   1      36.319  31.287  33.141  1.00  0.00    -0.206 F 
ATOM     82  C   UNL A   1      34.982  32.887  32.071  1.00  0.00     0.040 A 
ATOM     83  C   UNL A   1      35.541  33.659  29.870  1.00  0.00     0.040 A 
ATOM     84  F   UNL A   1      37.446  32.866  28.790  1.00  0.00    -0.206 F 
ATOM     85  C   UNL A   1      34.716  33.717  30.985  1.00  0.00     0.006 A 
ENDBRANCH  57  78
BRANCH  69  86
ATOM     86  C   UNL A   1      42.191  29.986  33.816  1.00  0.00     0.057 A 
ATOM     87  C   UNL A   1      41.757  28.672  33.589  1.00  0.00     0.134 A 
ATOM     88  C   UNL A   1      42.491  30.330  35.139  1.00  0.00     0.134 A 
ATOM     89  F   UNL A   1      41.546  28.216  32.348  1.00  0.00    -0.206 F 
ATOM     90  C   UNL A   1      41.583  27.759  34.634  1.00  0.00     0.040 A 
ATOM     91  C   UNL A   1      42.354  29.418  36.189  1.00  0.00     0.040 A 
ATOM     92  F   UNL A   1      42.971  31.551  35.429  1.00  0.00    -0.206 F 
ATOM     93  C   UNL A   1      41.888  28.130  35.939  1.00  0.00     0.006 A 
ENDBRANCH  69  86
ENDBRANCH  43  44
ENDBRANCH  35  38
ENDBRANCH  33  34
ENDBRANCH  32  33
ENDBRANCH  31  32
ENDBRANCH   1  31
TORSDOF 16
ENDMDL
MODEL 2
REMARK VINA RESULT:     -12.3      3.287      7.859
REMARK SMILES CCOC(=O)c1c(NC(=O)[C@@H]2[C@@H](C(=O)NCCCCNC(=O)c3ccc(-c4c5nc(c(-c6c(F)cccc6F)c6ccc([nH]6)c(-c6c(F)cccc6F)c6nc(c(-c7c(F)cccc7F)c7ccc4[nH]7)C=C6)C=C5)cc3)[C@@H]3C=C[C@H]2CC3)sc2c1CCC2
REMARK SMILES IDX 16 1 15 2 13 3 14 4 12 6 11 7 80 8 77 9 79 10 81 11 78 12
REMARK SMILES IDX 82 13 9 14 8 15 10 17 7 18 6 19 85 20 83 21 84 22 86 23
REMARK SMILES IDX 88 24 87 25 4 26 5 27 3 28 2 29 1 30 17 31 18 32 19 33 20 34
REMARK SMILES IDX 21 35 22 37 23 38 24 39 76 40 25 41 75 42 26 43 27 44 28 45
REMARK SMILES IDX 69 46 29 47 74 48 68 49 70 50 30 51 73 52 67 53 66 54 31 56
REMARK SMILES IDX 57 57 40 58 56 59 41 60 44 61 55 62 71 63 42 64 43 65 54 67
REMARK SMILES IDX 72 68 45 69 32 70 33 71 38 72 34 73 35 74 37 75 39 76 36 77
REMARK SMILES IDX 58 78 59 79 64 80 60 81 61 82 63 83 65 84 62 85 46 86 47 87
REMARK SMILES IDX 52 88 48 89 49 90 51 91 53 92 50 93
REMARK H PARENT 15 5 8 16 20 36 70 55 44 66
REMARK Flexibility Score: inf
ROOT
ATOM      1  C   UNL A   1      32.028  27.560  24.908  1.00  0.00     0.116 C 
ENDROOT
BRANCH   1   2
ATOM      2  N   UNL A   1      31.267  26.559  25.648  1.00  0.00    -0.356 N 
ATOM      3  C   UNL A   1      31.404  25.237  25.939  1.00  0.00     0.224 C 
ATOM      4  O   UNL A   1      30.678  24.848  26.869  1.00  0.00    -0.275 OA
ATOM      5  H   UNL A   1      30.445  26.938  26.036  1.00  0.00     0.163 HD
BRANCH   3   6
ATOM      6  C   UNL A   1      32.222  24.167  25.177  1.00  0.00     0.098 C 
ATOM      7  C   UNL A   1      33.553  24.585  24.534  1.00  0.00     0.099 C 
ATOM      8  C   UNL A   1      33.532  24.256  23.011  1.00  0.00     0.025 C 
ATOM      9  C   UNL A   1      31.314  23.456  24.120  1.00  0.00     0.025 C 
ATOM     10  C   UNL A   1      33.217  22.804  22.784  1.00  0.00    -0.027 C 
ATOM     11  C   UNL A   1      32.293  24.951  22.349  1.00  0.00     0.009 C 
ATOM     12  C   UNL A   1      32.067  22.395  23.350  1.00  0.00    -0.027 C 
ATOM     13  C   UNL A   1      30.969  24.427  22.992  1.00  0.00     0.009 C 
BRANCH   7  14
ATOM     14  C   UNL A   1      34.831  24.289  25.368  1.00  0.00     0.229 C 
ATOM     15  N   UNL A   1      35.360  23.118  25.810  1.00  0.00    -0.317 N 
ATOM     16  H   UNL A   1      36.213  23.235  26.288  1.00  0.00     0.170 HD
ATOM     17  O   UNL A   1      35.537  25.282  25.639  1.00  0.00    -0.274 OA
BRANCH  15  18
ATOM     18  C   UNL A   1      34.960  21.807  25.732  1.00  0.00     0.110 A 
ATOM     19  C   UNL A   1      35.672  20.707  25.241  1.00  0.00     0.098 A 
ATOM     20  C   UNL A   1      34.721  19.685  24.956  1.00  0.00    -0.017 A 
ATOM     21  S   UNL A   1      33.601  21.247  26.606  1.00  0.00    -0.122 S 
ATOM     22  C   UNL A   1      33.524  19.932  25.574  1.00  0.00     0.011 A 
ATOM     23  C   UNL A   1      34.649  18.414  24.192  1.00  0.00     0.038 C 
ATOM     24  C   UNL A   1      32.442  18.982  25.239  1.00  0.00     0.047 C 
ATOM     25  C   UNL A   1      33.103  18.202  24.061  1.00  0.00     0.010 C 
BRANCH  19  26
ATOM     26  C   UNL A   1      37.107  20.732  25.002  1.00  0.00     0.341 C 
ATOM     27  O   UNL A   1      37.707  19.749  24.581  1.00  0.00    -0.246 OA
BRANCH  26  28
ATOM     28  O   UNL A   1      37.671  21.956  25.202  1.00  0.00    -0.462 OA
BRANCH  28  29
ATOM     29  C   UNL A   1      38.802  22.003  26.088  1.00  0.00     0.230 C 
ATOM     30  C   UNL A   1      39.144  23.394  26.599  1.00  0.00     0.049 C 
ENDBRANCH  28  29
ENDBRANCH  26  28
ENDBRANCH  19  26
ENDBRANCH  15  18
ENDBRANCH   7  14
ENDBRANCH   3   6
ENDBRANCH   1   2
BRANCH   1  31
ATOM     31  C   UNL A   1      33.461  27.835  25.398  1.00  0.00     0.023 C 
BRANCH  31  32
ATOM     32  C   UNL A   1      33.622  28.693  26.649  1.00  0.00     0.023 C 
BRANCH  32  33
ATOM     33  C   UNL A   1      35.069  28.941  27.041  1.00  0.00     0.116 C 
BRANCH  33  34
ATOM     34  N   UNL A   1      35.194  29.813  28.202  1.00  0.00    -0.352 N 
ATOM     35  C   UNL A   1      36.248  29.886  29.105  1.00  0.00     0.251 C 
ATOM     36  H   UNL A   1      34.440  30.424  28.367  1.00  0.00     0.163 HD
ATOM     37  O   UNL A   1      36.151  30.460  30.161  1.00  0.00    -0.269 OA
BRANCH  35  38
ATOM     38  C   UNL A   1      37.491  29.204  28.716  1.00  0.00     0.039 A 
ATOM     39  C   UNL A   1      38.216  29.663  27.619  1.00  0.00     0.014 A 
ATOM     40  C   UNL A   1      38.000  28.229  29.571  1.00  0.00     0.014 A 
ATOM     41  C   UNL A   1      39.519  29.209  27.446  1.00  0.00     0.010 A 
ATOM     42  C   UNL A   1      39.328  27.866  29.461  1.00  0.00     0.010 A 
ATOM     43  C   UNL A   1      40.091  28.342  28.394  1.00  0.00    -0.014 A 
BRANCH  43  44
ATOM     44  C   UNL A   1      41.518  28.027  28.300  1.00  0.00     0.031 A 
ATOM     45  C   UNL A   1      41.888  26.779  27.563  1.00  0.00     0.074 A 
ATOM     46  C   UNL A   1      42.508  28.861  28.678  1.00  0.00     0.049 A 
ATOM     47  N   UNL A   1      42.442  25.709  28.035  1.00  0.00    -0.248 NA
ATOM     48  C   UNL A   1      41.554  26.692  26.134  1.00  0.00     0.031 C 
ATOM     49  C   UNL A   1      42.423  30.257  29.114  1.00  0.00     0.029 A 
ATOM     50  N   UNL A   1      43.849  28.625  28.663  1.00  0.00    -0.354 N 
ATOM     51  C   UNL A   1      42.681  24.870  26.945  1.00  0.00     0.074 A 
ATOM     52  C   UNL A   1      42.013  25.477  25.822  1.00  0.00     0.031 C 
ATOM     53  C   UNL A   1      43.659  30.803  29.117  1.00  0.00     0.029 A 
ATOM     54  C   UNL A   1      44.626  29.752  28.866  1.00  0.00     0.049 A 
ATOM     55  H   UNL A   1      44.233  27.730  28.520  1.00  0.00     0.167 HD
ATOM     56  C   UNL A   1      43.556  23.826  27.018  1.00  0.00     0.037 A 
ATOM     57  C   UNL A   1      45.975  29.827  28.829  1.00  0.00     0.037 A 
ATOM     58  C   UNL A   1      43.871  23.496  28.384  1.00  0.00     0.049 A 
ATOM     59  C   UNL A   1      46.510  28.463  29.044  1.00  0.00     0.074 A 
ATOM     60  C   UNL A   1      43.145  23.086  29.485  1.00  0.00     0.029 A 
ATOM     61  N   UNL A   1      45.091  23.886  28.876  1.00  0.00    -0.354 N 
ATOM     62  N   UNL A   1      46.426  27.811  30.169  1.00  0.00    -0.248 NA
ATOM     63  C   UNL A   1      46.813  27.652  27.875  1.00  0.00     0.031 C 
ATOM     64  C   UNL A   1      43.772  23.726  30.596  1.00  0.00     0.029 A 
ATOM     65  C   UNL A   1      44.859  24.449  30.103  1.00  0.00     0.049 A 
ATOM     66  H   UNL A   1      45.964  23.781  28.433  1.00  0.00     0.167 HD
ATOM     67  C   UNL A   1      46.243  26.488  29.800  1.00  0.00     0.074 A 
ATOM     68  C   UNL A   1      46.615  26.436  28.389  1.00  0.00     0.031 C 
ATOM     69  C   UNL A   1      45.548  25.620  30.594  1.00  0.00     0.037 A 
BRANCH  56  70
ATOM     70  C   UNL A   1      44.385  23.289  25.870  1.00  0.00     0.057 A 
ATOM     71  C   UNL A   1      44.373  21.907  25.593  1.00  0.00     0.134 A 
ATOM     72  C   UNL A   1      45.405  24.014  25.226  1.00  0.00     0.134 A 
ATOM     73  F   UNL A   1      43.458  21.098  26.149  1.00  0.00    -0.206 F 
ATOM     74  C   UNL A   1      45.349  21.285  24.803  1.00  0.00     0.040 A 
ATOM     75  C   UNL A   1      46.355  23.410  24.394  1.00  0.00     0.040 A 
ATOM     76  F   UNL A   1      45.599  25.320  25.442  1.00  0.00    -0.206 F 
ATOM     77  C   UNL A   1      46.351  22.037  24.207  1.00  0.00     0.006 A 
ENDBRANCH  56  70
BRANCH  57  78
ATOM     78  C   UNL A   1      46.814  30.964  28.408  1.00  0.00     0.057 A 
ATOM     79  C   UNL A   1      46.920  31.332  27.062  1.00  0.00     0.134 A 
ATOM     80  C   UNL A   1      47.323  31.880  29.346  1.00  0.00     0.134 A 
ATOM     81  F   UNL A   1      46.429  30.539  26.098  1.00  0.00    -0.206 F 
ATOM     82  C   UNL A   1      47.480  32.554  26.670  1.00  0.00     0.040 A 
ATOM     83  C   UNL A   1      47.892  33.099  28.969  1.00  0.00     0.040 A 
ATOM     84  F   UNL A   1      47.205  31.657  30.664  1.00  0.00    -0.206 F 
ATOM     85  C   UNL A   1      47.958  33.446  27.626  1.00  0.00     0.006 A 
ENDBRANCH  57  78
BRANCH  69  86
ATOM     86  C   UNL A   1      45.238  26.045  32.002  1.00  0.00     0.057 A 
ATOM     87  C   UNL A   1      44.075  26.735  32.375  1.00  0.00     0.134 A 
ATOM     88  C   UNL A   1      46.070  25.605  33.037  1.00  0.00     0.134 A 
ATOM     89  F   UNL A   1      43.165  27.103  31.466  1.00  0.00    -0.206 F 
ATOM     90  C   UNL A   1      43.780  27.016  33.713  1.00  0.00     0.040 A 
ATOM     91  C   UNL A   1      45.770  25.850  34.380  1.00  0.00     0.040 A 
ATOM     92  F   UNL A   1      47.170  24.884  32.763  1.00  0.00    -0.206 F 
ATOM     93  C   UNL A   1      44.627  26.568  34.721  1.00  0.00     0.006 A 
ENDBRANCH  69  86
ENDBRANCH  43  44
ENDBRANCH  35  38
ENDBRANCH  33  34
ENDBRANCH  32  33
ENDBRANCH  31  32
ENDBRANCH   1  31
TORSDOF 16
ENDMDL
MODEL 3
REMARK VINA RESULT:     -12.2      2.440      3.484
REMARK SMILES CCOC(=O)c1c(NC(=O)[C@@H]2[C@@H](C(=O)NCCCCNC(=O)c3ccc(-c4c5nc(c(-c6c(F)cccc6F)c6ccc([nH]6)c(-c6c(F)cccc6F)c6nc(c(-c7c(F)cccc7F)c7ccc4[nH]7)C=C6)C=C5)cc3)[C@@H]3C=C[C@H]2CC3)sc2c1CCC2
REMARK SMILES IDX 16 1 15 2 13 3 14 4 12 6 11 7 80 8 77 9 79 10 81 11 78 12
REMARK SMILES IDX 82 13 9 14 8 15 10 17 7 18 6 19 85 20 83 21 84 22 86 23
REMARK SMILES IDX 88 24 87 25 4 26 5 27 3 28 2 29 1 30 17 31 18 32 19 33 20 34
REMARK SMILES IDX 21 35 22 37 23 38 24 39 76 40 25 41 75 42 26 43 27 44 28 45
REMARK SMILES IDX 69 46 29 47 74 48 68 49 70 50 30 51 73 52 67 53 66 54 31 56
REMARK SMILES IDX 57 57 40 58 56 59 41 60 44 61 55 62 71 63 42 64 43 65 54 67
REMARK SMILES IDX 72 68 45 69 32 70 33 71 38 72 34 73 35 74 37 75 39 76 36 77
REMARK SMILES IDX 58 78 59 79 64 80 60 81 61 82 63 83 65 84 62 85 46 86 47 87
REMARK SMILES IDX 52 88 48 89 49 90 51 91 53 92 50 93
REMARK H PARENT 15 5 8 16 20 36 70 55 44 66
REMARK Flexibility Score: inf
ROOT
ATOM      1  C   UNL A   1      38.508  21.531  25.392  1.00  0.00     0.116 C 
ENDROOT
BRANCH   1   2
ATOM      2  N   UNL A   1      37.901  22.856  25.453  1.00  0.00    -0.356 N 
ATOM      3  C   UNL A   1      36.641  23.364  25.364  1.00  0.00     0.224 C 
ATOM      4  O   UNL A   1      36.538  24.527  25.789  1.00  0.00    -0.275 OA
ATOM      5  H   UNL A   1      38.573  23.561  25.595  1.00  0.00     0.163 HD
BRANCH   3   6
ATOM      6  C   UNL A   1      35.399  22.739  24.686  1.00  0.00     0.098 C 
ATOM      7  C   UNL A   1      34.081  23.529  24.702  1.00  0.00     0.099 C 
ATOM      8  C   UNL A   1      32.956  22.669  25.353  1.00  0.00     0.025 C 
ATOM      9  C   UNL A   1      35.165  21.293  25.236  1.00  0.00     0.025 C 
ATOM     10  C   UNL A   1      32.823  21.347  24.651  1.00  0.00    -0.027 C 
ATOM     11  C   UNL A   1      33.411  22.219  26.783  1.00  0.00     0.009 C 
ATOM     12  C   UNL A   1      33.963  20.634  24.599  1.00  0.00    -0.027 C 
ATOM     13  C   UNL A   1      34.711  21.356  26.693  1.00  0.00     0.009 C 
BRANCH   7  14
ATOM     14  C   UNL A   1      33.774  24.360  23.425  1.00  0.00     0.229 C 
ATOM     15  N   UNL A   1      33.234  25.597  23.270  1.00  0.00    -0.317 N 
ATOM     16  H   UNL A   1      33.197  25.887  22.330  1.00  0.00     0.170 HD
ATOM     17  O   UNL A   1      34.132  23.839  22.348  1.00  0.00    -0.274 OA
BRANCH  15  18
ATOM     18  C   UNL A   1      32.732  26.529  24.144  1.00  0.00     0.110 A 
ATOM     19  C   UNL A   1      31.726  27.477  23.923  1.00  0.00     0.098 A 
ATOM     20  C   UNL A   1      31.863  28.475  24.932  1.00  0.00    -0.017 A 
ATOM     21  S   UNL A   1      33.028  26.410  25.824  1.00  0.00    -0.122 S 
ATOM     22  C   UNL A   1      32.635  28.030  25.971  1.00  0.00     0.011 A 
ATOM     23  C   UNL A   1      31.399  29.860  25.196  1.00  0.00     0.038 C 
ATOM     24  C   UNL A   1      32.926  29.042  27.009  1.00  0.00     0.047 C 
ATOM     25  C   UNL A   1      32.398  30.330  26.306  1.00  0.00     0.010 C 
BRANCH  19  26
ATOM     26  C   UNL A   1      30.821  27.424  22.787  1.00  0.00     0.341 C 
ATOM     27  O   UNL A   1      31.187  27.017  21.690  1.00  0.00    -0.246 OA
BRANCH  26  28
ATOM     28  O   UNL A   1      29.540  27.775  23.093  1.00  0.00    -0.462 OA
BRANCH  28  29
ATOM     29  C   UNL A   1      29.027  28.953  22.449  1.00  0.00     0.230 C 
ATOM     30  C   UNL A   1      27.815  29.567  23.131  1.00  0.00     0.049 C 
ENDBRANCH  28  29
ENDBRANCH  26  28
ENDBRANCH  19  26
ENDBRANCH  15  18
ENDBRANCH   7  14
ENDBRANCH   3   6
ENDBRANCH   1   2
BRANCH   1  31
ATOM     31  C   UNL A   1      39.641  21.247  26.393  1.00  0.00     0.023 C 
BRANCH  31  32
ATOM     32  C   UNL A   1      40.553  20.058  26.103  1.00  0.00     0.023 C 
BRANCH  32  33
ATOM     33  C   UNL A   1      41.942  20.188  26.705  1.00  0.00     0.116 C 
BRANCH  33  34
ATOM     34  N   UNL A   1      42.986  19.687  25.821  1.00  0.00    -0.352 N 
ATOM     35  C   UNL A   1      43.907  20.421  25.084  1.00  0.00     0.251 C 
ATOM     36  H   UNL A   1      43.046  18.707  25.734  1.00  0.00     0.163 HD
ATOM     37  O   UNL A   1      44.565  19.928  24.202  1.00  0.00    -0.269 OA
BRANCH  35  38
ATOM     38  C   UNL A   1      44.025  21.847  25.420  1.00  0.00     0.039 A 
ATOM     39  C   UNL A   1      43.270  22.786  24.721  1.00  0.00     0.014 A 
ATOM     40  C   UNL A   1      44.754  22.197  26.555  1.00  0.00     0.014 A 
ATOM     41  C   UNL A   1      43.164  24.073  25.238  1.00  0.00     0.010 A 
ATOM     42  C   UNL A   1      44.557  23.439  27.125  1.00  0.00     0.010 A 
ATOM     43  C   UNL A   1      43.773  24.388  26.466  1.00  0.00    -0.014 A 
BRANCH  43  44
ATOM     44  C   UNL A   1      43.493  25.683  27.088  1.00  0.00     0.031 A 
ATOM     45  C   UNL A   1      44.433  26.803  26.769  1.00  0.00     0.074 A 
ATOM     46  C   UNL A   1      42.370  25.970  27.777  1.00  0.00     0.049 A 
ATOM     47  N   UNL A   1      45.232  27.426  27.574  1.00  0.00    -0.248 NA
ATOM     48  C   UNL A   1      44.530  27.251  25.372  1.00  0.00     0.031 C 
ATOM     49  C   UNL A   1      41.159  25.163  27.946  1.00  0.00     0.029 A 
ATOM     50  N   UNL A   1      42.057  27.131  28.418  1.00  0.00    -0.354 N 
ATOM     51  C   UNL A   1      45.821  28.453  26.834  1.00  0.00     0.074 A 
ATOM     52  C   UNL A   1      45.438  28.226  25.464  1.00  0.00     0.031 C 
ATOM     53  C   UNL A   1      40.173  25.933  28.456  1.00  0.00     0.029 A 
ATOM     54  C   UNL A   1      40.735  27.220  28.818  1.00  0.00     0.049 A 
ATOM     55  H   UNL A   1      42.715  27.845  28.582  1.00  0.00     0.167 HD
ATOM     56  C   UNL A   1      46.438  29.511  27.435  1.00  0.00     0.037 A 
ATOM     57  C   UNL A   1      40.134  28.278  29.404  1.00  0.00     0.037 A 
ATOM     58  C   UNL A   1      46.725  29.236  28.819  1.00  0.00     0.049 A 
ATOM     59  C   UNL A   1      41.190  29.121  30.011  1.00  0.00     0.074 A 
ATOM     60  C   UNL A   1      47.474  28.294  29.497  1.00  0.00     0.029 A 
ATOM     61  N   UNL A   1      45.927  29.821  29.770  1.00  0.00    -0.354 N 
ATOM     62  N   UNL A   1      41.909  28.768  31.038  1.00  0.00    -0.248 NA
ATOM     63  C   UNL A   1      41.721  30.226  29.228  1.00  0.00     0.031 C 
ATOM     64  C   UNL A   1      46.729  28.019  30.683  1.00  0.00     0.029 A 
ATOM     65  C   UNL A   1      45.600  28.839  30.668  1.00  0.00     0.049 A 
ATOM     66  H   UNL A   1      45.645  30.763  29.802  1.00  0.00     0.167 HD
ATOM     67  C   UNL A   1      43.165  29.303  30.794  1.00  0.00     0.074 A 
ATOM     68  C   UNL A   1      42.954  30.288  29.737  1.00  0.00     0.031 C 
ATOM     69  C   UNL A   1      44.296  28.705  31.273  1.00  0.00     0.037 A 
BRANCH  56  70
ATOM     70  C   UNL A   1      46.513  30.918  26.882  1.00  0.00     0.057 A 
ATOM     71  C   UNL A   1      47.747  31.600  26.887  1.00  0.00     0.134 A 
ATOM     72  C   UNL A   1      45.390  31.726  26.625  1.00  0.00     0.134 A 
ATOM     73  F   UNL A   1      48.896  30.950  27.128  1.00  0.00    -0.206 F 
ATOM     74  C   UNL A   1      47.845  32.989  26.729  1.00  0.00     0.040 A 
ATOM     75  C   UNL A   1      45.481  33.107  26.415  1.00  0.00     0.040 A 
ATOM     76  F   UNL A   1      44.142  31.246  26.660  1.00  0.00    -0.206 F 
ATOM     77  C   UNL A   1      46.706  33.750  26.501  1.00  0.00     0.006 A 
ENDBRANCH  56  70
BRANCH  57  78
ATOM     78  C   UNL A   1      38.729  28.710  29.285  1.00  0.00     0.057 A 
ATOM     79  C   UNL A   1      37.877  28.734  30.395  1.00  0.00     0.134 A 
ATOM     80  C   UNL A   1      38.263  29.359  28.127  1.00  0.00     0.134 A 
ATOM     81  F   UNL A   1      38.253  28.173  31.554  1.00  0.00    -0.206 F 
ATOM     82  C   UNL A   1      36.639  29.388  30.365  1.00  0.00     0.040 A 
ATOM     83  C   UNL A   1      37.027  30.008  28.081  1.00  0.00     0.040 A 
ATOM     84  F   UNL A   1      39.032  29.457  27.033  1.00  0.00    -0.206 F 
ATOM     85  C   UNL A   1      36.217  30.037  29.208  1.00  0.00     0.006 A 
ENDBRANCH  57  78
BRANCH  69  86
ATOM     86  C   UNL A   1      44.140  27.628  32.310  1.00  0.00     0.057 A 
ATOM     87  C   UNL A   1      44.060  26.260  32.013  1.00  0.00     0.134 A 
ATOM     88  C   UNL A   1      44.230  27.976  33.662  1.00  0.00     0.134 A 
ATOM     89  F   UNL A   1      44.077  25.822  30.748  1.00  0.00    -0.206 F 
ATOM     90  C   UNL A   1      44.022  25.287  33.017  1.00  0.00     0.040 A 
ATOM     91  C   UNL A   1      44.227  27.012  34.674  1.00  0.00     0.040 A 
ATOM     92  F   UNL A   1      44.372  29.262  34.023  1.00  0.00    -0.206 F 
ATOM     93  C   UNL A   1      44.111  25.662  34.353  1.00  0.00     0.006 A 
ENDBRANCH  69  86
ENDBRANCH  43  44
ENDBRANCH  35  38
ENDBRANCH  33  34
ENDBRANCH  32  33
ENDBRANCH  31  32
ENDBRANCH   1  31
TORSDOF 16
ENDMDL
