MODEL 1
REMARK VINA RESULT:     -10.9      0.000      0.000
REMARK SMILES CC(C)C[C@@H](NC(=O)Cn1nc(O)ccc1=O)C(=O)NCCCCNC(=O)c1ccc(-c2c3nc(c(-c4c(F)cccc4F)c4ccc([nH]4)c(-c4c(F)cccc4F)c4nc(c(-c5c(F)cccc5F)c5ccc2[nH]5)C=C4)C=C3)cc1
REMARK SMILES IDX 21 1 20 2 18 3 19 4 5 6 4 7 2 8 1 9 3 10 6 11 7 12 8 14 9 15
REMARK SMILES IDX 10 16 11 17 16 18 12 19 15 20 17 21 14 22 13 23 22 25 23 26
REMARK SMILES IDX 24 27 25 28 26 29 27 31 28 32 29 33 81 34 30 35 80 36 31 37
REMARK SMILES IDX 32 38 33 39 74 40 34 41 79 42 73 43 75 44 35 45 78 46 72 47
REMARK SMILES IDX 71 48 36 50 62 51 45 52 61 53 46 54 49 55 60 56 76 57 47 58
REMARK SMILES IDX 48 59 59 61 77 62 50 63 37 64 38 65 43 66 39 67 40 68 42 69
REMARK SMILES IDX 44 70 41 71 63 72 64 73 69 74 65 75 66 76 68 77 70 78 67 79
REMARK SMILES IDX 51 80 52 81 57 82 53 83 54 84 56 85 58 86 55 87
REMARK H PARENT 20 5 6 13 13 24 25 30 75 49 49 60
REMARK Flexibility Score: inf
ROOT
ATOM      1  C   UNL A   1      35.553  22.146  25.752  1.00  0.00     0.116 C 
ENDROOT
BRANCH   1   2
ATOM      2  N   UNL A   1      34.696  22.078  26.927  1.00  0.00    -0.354 N 
ATOM      3  C   UNL A   1      33.381  22.431  27.076  1.00  0.00     0.242 C 
ATOM      4  O   UNL A   1      32.916  22.419  28.222  1.00  0.00    -0.273 OA
ATOM      5  H   UNL A   1      35.128  21.727  27.739  1.00  0.00     0.163 HD
BRANCH   3   6
ATOM      6  C   UNL A   1      32.599  23.086  25.918  1.00  0.00     0.171 C 
BRANCH   6   7
ATOM      7  C   UNL A   1      31.851  21.855  25.338  1.00  0.00     0.038 C 
BRANCH   7   8
ATOM      8  C   UNL A   1      32.126  21.360  23.915  1.00  0.00    -0.015 C 
ATOM      9  C   UNL A   1      33.041  22.302  23.142  1.00  0.00     0.007 C 
ATOM     10  C   UNL A   1      32.792  19.977  24.032  1.00  0.00     0.007 C 
ENDBRANCH   7   8
ENDBRANCH   6   7
BRANCH   6  11
ATOM     11  N   UNL A   1      31.707  24.175  26.323  1.00  0.00    -0.343 N 
ATOM     12  C   UNL A   1      31.886  25.528  26.349  1.00  0.00     0.242 C 
ATOM     13  H   UNL A   1      30.821  23.878  26.633  1.00  0.00     0.164 HD
ATOM     14  O   UNL A   1      30.854  26.199  26.474  1.00  0.00    -0.273 OA
BRANCH  12  15
ATOM     15  C   UNL A   1      33.231  26.229  26.101  1.00  0.00     0.248 C 
BRANCH  15  16
ATOM     16  N   UNL A   1      33.447  26.785  24.771  1.00  0.00    -0.217 N 
ATOM     17  N   UNL A   1      33.272  25.922  23.704  1.00  0.00    -0.131 NA
ATOM     18  C   UNL A   1      33.697  28.147  24.615  1.00  0.00     0.267 A 
ATOM     19  C   UNL A   1      33.477  26.420  22.538  1.00  0.00     0.229 A 
ATOM     20  C   UNL A   1      33.899  28.624  23.222  1.00  0.00     0.079 A 
ATOM     21  O   UNL A   1      33.811  28.955  25.531  1.00  0.00    -0.268 OA
ATOM     22  C   UNL A   1      33.817  27.788  22.187  1.00  0.00     0.075 A 
BRANCH  19  23
ATOM     23  O   UNL A   1      33.447  25.629  21.462  1.00  0.00    -0.492 OA
ATOM     24  H   UNL A   1      34.004  25.813  20.730  1.00  0.00     0.295 HD
ENDBRANCH  19  23
ENDBRANCH  15  16
ENDBRANCH  12  15
ENDBRANCH   6  11
ENDBRANCH   3   6
ENDBRANCH   1   2
BRANCH   1  25
ATOM     25  C   UNL A   1      36.081  20.773  25.341  1.00  0.00     0.023 C 
BRANCH  25  26
ATOM     26  C   UNL A   1      37.470  20.781  24.704  1.00  0.00     0.023 C 
BRANCH  26  27
ATOM     27  C   UNL A   1      38.625  20.894  25.691  1.00  0.00     0.116 C 
BRANCH  27  28
ATOM     28  N   UNL A   1      39.571  19.799  25.596  1.00  0.00    -0.352 N 
ATOM     29  C   UNL A   1      40.898  19.791  25.966  1.00  0.00     0.251 C 
ATOM     30  H   UNL A   1      39.222  18.958  25.222  1.00  0.00     0.163 HD
ATOM     31  O   UNL A   1      41.603  18.815  25.752  1.00  0.00    -0.269 OA
BRANCH  29  32
ATOM     32  C   UNL A   1      41.482  21.010  26.571  1.00  0.00     0.039 A 
ATOM     33  C   UNL A   1      41.471  21.205  27.955  1.00  0.00     0.014 A 
ATOM     34  C   UNL A   1      42.009  21.988  25.725  1.00  0.00     0.014 A 
ATOM     35  C   UNL A   1      41.877  22.432  28.483  1.00  0.00     0.010 A 
ATOM     36  C   UNL A   1      42.462  23.197  26.261  1.00  0.00     0.010 A 
ATOM     37  C   UNL A   1      42.363  23.446  27.640  1.00  0.00    -0.014 A 
BRANCH  37  38
ATOM     38  C   UNL A   1      42.752  24.771  28.192  1.00  0.00     0.031 A 
ATOM     39  C   UNL A   1      41.716  25.846  28.403  1.00  0.00     0.074 A 
ATOM     40  C   UNL A   1      44.037  25.020  28.508  1.00  0.00     0.049 A 
ATOM     41  N   UNL A   1      41.876  27.085  28.801  1.00  0.00    -0.248 NA
ATOM     42  C   UNL A   1      40.318  25.481  28.130  1.00  0.00     0.031 C 
ATOM     43  C   UNL A   1      45.142  24.071  28.365  1.00  0.00     0.029 A 
ATOM     44  N   UNL A   1      44.632  26.151  29.009  1.00  0.00    -0.354 N 
ATOM     45  C   UNL A   1      40.605  27.646  28.820  1.00  0.00     0.074 A 
ATOM     46  C   UNL A   1      39.687  26.624  28.362  1.00  0.00     0.031 C 
ATOM     47  C   UNL A   1      46.278  24.656  28.777  1.00  0.00     0.029 A 
ATOM     48  C   UNL A   1      45.991  26.034  29.164  1.00  0.00     0.049 A 
ATOM     49  H   UNL A   1      44.131  26.968  29.235  1.00  0.00     0.167 HD
ATOM     50  C   UNL A   1      40.231  28.894  29.198  1.00  0.00     0.037 A 
ATOM     51  C   UNL A   1      46.909  26.941  29.547  1.00  0.00     0.037 A 
ATOM     52  C   UNL A   1      41.135  29.919  29.651  1.00  0.00     0.049 A 
ATOM     53  C   UNL A   1      46.475  28.338  29.895  1.00  0.00     0.074 A 
ATOM     54  C   UNL A   1      40.846  31.215  30.044  1.00  0.00     0.029 A 
ATOM     55  N   UNL A   1      42.507  29.766  29.771  1.00  0.00    -0.354 N 
ATOM     56  N   UNL A   1      45.271  28.852  29.909  1.00  0.00    -0.248 NA
ATOM     57  C   UNL A   1      47.536  29.282  30.276  1.00  0.00     0.031 C 
ATOM     58  C   UNL A   1      42.045  31.855  30.374  1.00  0.00     0.029 A 
ATOM     59  C   UNL A   1      43.078  30.945  30.223  1.00  0.00     0.049 A 
ATOM     60  H   UNL A   1      43.004  28.941  29.566  1.00  0.00     0.167 HD
ATOM     61  C   UNL A   1      45.426  30.172  30.317  1.00  0.00     0.074 A 
ATOM     62  C   UNL A   1      46.838  30.372  30.562  1.00  0.00     0.031 C 
ATOM     63  C   UNL A   1      44.484  31.133  30.469  1.00  0.00     0.037 A 
BRANCH  50  64
ATOM     64  C   UNL A   1      38.768  29.224  29.136  1.00  0.00     0.057 A 
ATOM     65  C   UNL A   1      38.175  29.650  27.940  1.00  0.00     0.134 A 
ATOM     66  C   UNL A   1      37.955  29.170  30.276  1.00  0.00     0.134 A 
ATOM     67  F   UNL A   1      38.900  29.731  26.813  1.00  0.00    -0.206 F 
ATOM     68  C   UNL A   1      36.830  30.014  27.881  1.00  0.00     0.040 A 
ATOM     69  C   UNL A   1      36.603  29.511  30.225  1.00  0.00     0.040 A 
ATOM     70  F   UNL A   1      38.458  28.759  31.450  1.00  0.00    -0.206 F 
ATOM     71  C   UNL A   1      36.038  29.942  29.026  1.00  0.00     0.006 A 
ENDBRANCH  50  64
BRANCH  51  72
ATOM     72  C   UNL A   1      48.346  26.573  29.597  1.00  0.00     0.057 A 
ATOM     73  C   UNL A   1      49.216  26.905  28.553  1.00  0.00     0.134 A 
ATOM     74  C   UNL A   1      48.889  25.922  30.710  1.00  0.00     0.134 A 
ATOM     75  F   UNL A   1      48.755  27.529  27.458  1.00  0.00    -0.206 F 
ATOM     76  C   UNL A   1      50.576  26.602  28.612  1.00  0.00     0.040 A 
ATOM     77  C   UNL A   1      50.253  25.637  30.794  1.00  0.00     0.040 A 
ATOM     78  F   UNL A   1      48.109  25.602  31.752  1.00  0.00    -0.206 F 
ATOM     79  C   UNL A   1      51.099  25.976  29.741  1.00  0.00     0.006 A 
ENDBRANCH  51  72
BRANCH  63  80
ATOM     80  C   UNL A   1      44.952  32.474  30.951  1.00  0.00     0.057 A 
ATOM     81  C   UNL A   1      45.027  32.754  32.322  1.00  0.00     0.134 A 
ATOM     82  C   UNL A   1      45.325  33.490  30.062  1.00  0.00     0.134 A 
ATOM     83  F   UNL A   1      44.679  31.827  33.226  1.00  0.00    -0.206 F 
ATOM     84  C   UNL A   1      45.461  33.995  32.790  1.00  0.00     0.040 A 
ATOM     85  C   UNL A   1      45.783  34.727  30.518  1.00  0.00     0.040 A 
ATOM     86  F   UNL A   1      45.290  33.280  28.737  1.00  0.00    -0.206 F 
ATOM     87  C   UNL A   1      45.849  34.983  31.887  1.00  0.00     0.006 A 
ENDBRANCH  63  80
ENDBRANCH  37  38
ENDBRANCH  29  32
ENDBRANCH  27  28
ENDBRANCH  26  27
ENDBRANCH  25  26
ENDBRANCH   1  25
TORSDOF 17
ENDMDL
MODEL 2
REMARK VINA RESULT:     -10.9      1.920      7.424
REMARK SMILES CC(C)C[C@@H](NC(=O)Cn1nc(O)ccc1=O)C(=O)NCCCCNC(=O)c1ccc(-c2c3nc(c(-c4c(F)cccc4F)c4ccc([nH]4)c(-c4c(F)cccc4F)c4nc(c(-c5c(F)cccc5F)c5ccc2[nH]5)C=C4)C=C3)cc1
REMARK SMILES IDX 21 1 20 2 18 3 19 4 5 6 4 7 2 8 1 9 3 10 6 11 7 12 8 14 9 15
REMARK SMILES IDX 10 16 11 17 16 18 12 19 15 20 17 21 14 22 13 23 22 25 23 26
REMARK SMILES IDX 24 27 25 28 26 29 27 31 28 32 29 33 81 34 30 35 80 36 31 37
REMARK SMILES IDX 32 38 33 39 74 40 34 41 79 42 73 43 75 44 35 45 78 46 72 47
REMARK SMILES IDX 71 48 36 50 62 51 45 52 61 53 46 54 49 55 60 56 76 57 47 58
REMARK SMILES IDX 48 59 59 61 77 62 50 63 37 64 38 65 43 66 39 67 40 68 42 69
REMARK SMILES IDX 44 70 41 71 63 72 64 73 69 74 65 75 66 76 68 77 70 78 67 79
REMARK SMILES IDX 51 80 52 81 57 82 53 83 54 84 56 85 58 86 55 87
REMARK H PARENT 20 5 6 13 13 24 25 30 75 49 49 60
REMARK Flexibility Score: inf
ROOT
ATOM      1  C   UNL A   1      33.903  27.063  24.338  1.00  0.00     0.116 C 
ENDROOT
BRANCH   1   2
ATOM      2  N   UNL A   1      33.865  26.789  22.909  1.00  0.00    -0.354 N 
ATOM      3  C   UNL A   1      33.021  25.983  22.192  1.00  0.00     0.242 C 
ATOM      4  O   UNL A   1      33.290  25.799  20.998  1.00  0.00    -0.273 OA
ATOM      5  H   UNL A   1      34.553  27.252  22.378  1.00  0.00     0.163 HD
BRANCH   3   6
ATOM      6  C   UNL A   1      31.956  25.120  22.899  1.00  0.00     0.171 C 
BRANCH   6   7
ATOM      7  C   UNL A   1      30.669  25.931  22.586  1.00  0.00     0.038 C 
BRANCH   7   8
ATOM      8  C   UNL A   1      29.811  26.519  23.711  1.00  0.00    -0.015 C 
ATOM      9  C   UNL A   1      30.288  26.080  25.091  1.00  0.00     0.007 C 
ATOM     10  C   UNL A   1      29.897  28.051  23.600  1.00  0.00     0.007 C 
ENDBRANCH   7   8
ENDBRANCH   6   7
BRANCH   6  11
ATOM     11  N   UNL A   1      31.896  23.729  22.443  1.00  0.00    -0.343 N 
ATOM     12  C   UNL A   1      32.623  22.629  22.798  1.00  0.00     0.242 C 
ATOM     13  H   UNL A   1      31.211  23.557  21.757  1.00  0.00     0.164 HD
ATOM     14  O   UNL A   1      32.149  21.542  22.443  1.00  0.00    -0.273 OA
BRANCH  12  15
ATOM     15  C   UNL A   1      33.868  22.667  23.697  1.00  0.00     0.248 C 
BRANCH  15  16
ATOM     16  N   UNL A   1      33.647  22.535  25.133  1.00  0.00    -0.217 N 
ATOM     17  N   UNL A   1      32.522  23.157  25.644  1.00  0.00    -0.131 NA
ATOM     18  C   UNL A   1      34.477  21.717  25.895  1.00  0.00     0.267 A 
ATOM     19  C   UNL A   1      32.345  23.045  26.912  1.00  0.00     0.229 A 
ATOM     20  C   UNL A   1      34.172  21.640  27.348  1.00  0.00     0.079 A 
ATOM     21  O   UNL A   1      35.454  21.108  25.472  1.00  0.00    -0.268 OA
ATOM     22  C   UNL A   1      33.141  22.302  27.873  1.00  0.00     0.075 A 
BRANCH  19  23
ATOM     23  O   UNL A   1      31.353  23.713  27.507  1.00  0.00    -0.492 OA
ATOM     24  H   UNL A   1      30.612  23.248  27.845  1.00  0.00     0.295 HD
ENDBRANCH  19  23
ENDBRANCH  15  16
ENDBRANCH  12  15
ENDBRANCH   6  11
ENDBRANCH   3   6
ENDBRANCH   1   2
BRANCH   1  25
ATOM     25  C   UNL A   1      33.465  28.489  24.665  1.00  0.00     0.023 C 
BRANCH  25  26
ATOM     26  C   UNL A   1      32.795  28.660  26.029  1.00  0.00     0.023 C 
BRANCH  26  27
ATOM     27  C   UNL A   1      33.760  28.848  27.194  1.00  0.00     0.116 C 
BRANCH  27  28
ATOM     28  N   UNL A   1      33.694  30.171  27.786  1.00  0.00    -0.352 N 
ATOM     29  C   UNL A   1      34.688  30.849  28.457  1.00  0.00     0.251 C 
ATOM     30  H   UNL A   1      32.835  30.642  27.695  1.00  0.00     0.163 HD
ATOM     31  O   UNL A   1      34.466  31.933  28.976  1.00  0.00    -0.269 OA
BRANCH  29  32
ATOM     32  C   UNL A   1      36.020  30.217  28.598  1.00  0.00     0.039 A 
ATOM     33  C   UNL A   1      36.418  29.633  29.803  1.00  0.00     0.014 A 
ATOM     34  C   UNL A   1      36.894  30.253  27.509  1.00  0.00     0.014 A 
ATOM     35  C   UNL A   1      37.734  29.194  29.957  1.00  0.00     0.010 A 
ATOM     36  C   UNL A   1      38.196  29.766  27.650  1.00  0.00     0.010 A 
ATOM     37  C   UNL A   1      38.642  29.269  28.886  1.00  0.00    -0.014 A 
BRANCH  37  38
ATOM     38  C   UNL A   1      40.057  28.847  29.059  1.00  0.00     0.031 A 
ATOM     39  C   UNL A   1      41.073  29.797  29.640  1.00  0.00     0.074 A 
ATOM     40  C   UNL A   1      40.440  27.609  28.696  1.00  0.00     0.049 A 
ATOM     41  N   UNL A   1      42.364  29.636  29.796  1.00  0.00    -0.248 NA
ATOM     42  C   UNL A   1      40.572  31.099  30.106  1.00  0.00     0.031 C 
ATOM     43  C   UNL A   1      39.563  26.583  28.130  1.00  0.00     0.029 A 
ATOM     44  N   UNL A   1      41.673  27.005  28.743  1.00  0.00    -0.354 N 
ATOM     45  C   UNL A   1      42.830  30.813  30.370  1.00  0.00     0.074 A 
ATOM     46  C   UNL A   1      41.688  31.694  30.504  1.00  0.00     0.031 C 
ATOM     47  C   UNL A   1      40.283  25.476  27.890  1.00  0.00     0.029 A 
ATOM     48  C   UNL A   1      41.678  25.728  28.238  1.00  0.00     0.049 A 
ATOM     49  H   UNL A   1      42.475  27.446  29.104  1.00  0.00     0.167 HD
ATOM     50  C   UNL A   1      44.088  31.129  30.763  1.00  0.00     0.037 A 
ATOM     51  C   UNL A   1      42.694  24.866  28.048  1.00  0.00     0.037 A 
ATOM     52  C   UNL A   1      45.231  30.262  30.630  1.00  0.00     0.049 A 
ATOM     53  C   UNL A   1      44.092  25.268  28.430  1.00  0.00     0.074 A 
ATOM     54  C   UNL A   1      46.546  30.504  30.992  1.00  0.00     0.029 A 
ATOM     55  N   UNL A   1      45.196  28.986  30.091  1.00  0.00    -0.354 N 
ATOM     56  N   UNL A   1      44.515  26.384  28.972  1.00  0.00    -0.248 NA
ATOM     57  C   UNL A   1      45.156  24.288  28.167  1.00  0.00     0.031 C 
ATOM     58  C   UNL A   1      47.312  29.385  30.646  1.00  0.00     0.029 A 
ATOM     59  C   UNL A   1      46.467  28.432  30.103  1.00  0.00     0.049 A 
ATOM     60  H   UNL A   1      44.389  28.538  29.751  1.00  0.00     0.167 HD
ATOM     61  C   UNL A   1      45.887  26.232  29.131  1.00  0.00     0.074 A 
ATOM     62  C   UNL A   1      46.222  24.909  28.650  1.00  0.00     0.031 C 
ATOM     63  C   UNL A   1      46.789  27.113  29.626  1.00  0.00     0.037 A 
BRANCH  50  64
ATOM     64  C   UNL A   1      44.300  32.482  31.380  1.00  0.00     0.057 A 
ATOM     65  C   UNL A   1      44.168  32.672  32.761  1.00  0.00     0.134 A 
ATOM     66  C   UNL A   1      44.584  33.608  30.596  1.00  0.00     0.134 A 
ATOM     67  F   UNL A   1      43.889  31.636  33.567  1.00  0.00    -0.206 F 
ATOM     68  C   UNL A   1      44.306  33.934  33.340  1.00  0.00     0.040 A 
ATOM     69  C   UNL A   1      44.746  34.871  31.166  1.00  0.00     0.040 A 
ATOM     70  F   UNL A   1      44.735  33.491  29.268  1.00  0.00    -0.206 F 
ATOM     71  C   UNL A   1      44.600  35.038  32.542  1.00  0.00     0.006 A 
ENDBRANCH  50  64
BRANCH  51  72
ATOM     72  C   UNL A   1      42.442  23.538  27.437  1.00  0.00     0.057 A 
ATOM     73  C   UNL A   1      42.530  23.347  26.053  1.00  0.00     0.134 A 
ATOM     74  C   UNL A   1      42.153  22.420  28.227  1.00  0.00     0.134 A 
ATOM     75  F   UNL A   1      42.805  24.380  25.243  1.00  0.00    -0.206 F 
ATOM     76  C   UNL A   1      42.339  22.093  25.476  1.00  0.00     0.040 A 
ATOM     77  C   UNL A   1      41.986  21.153  27.665  1.00  0.00     0.040 A 
ATOM     78  F   UNL A   1      42.081  22.536  29.561  1.00  0.00    -0.206 F 
ATOM     79  C   UNL A   1      42.076  20.989  26.284  1.00  0.00     0.006 A 
ENDBRANCH  51  72
BRANCH  63  80
ATOM     80  C   UNL A   1      48.216  26.656  29.699  1.00  0.00     0.057 A 
ATOM     81  C   UNL A   1      49.112  26.944  28.661  1.00  0.00     0.134 A 
ATOM     82  C   UNL A   1      48.705  25.929  30.792  1.00  0.00     0.134 A 
ATOM     83  F   UNL A   1      48.707  27.631  27.582  1.00  0.00    -0.206 F 
ATOM     84  C   UNL A   1      50.444  26.529  28.711  1.00  0.00     0.040 A 
ATOM     85  C   UNL A   1      50.040  25.529  30.864  1.00  0.00     0.040 A 
ATOM     86  F   UNL A   1      47.902  25.635  31.826  1.00  0.00    -0.206 F 
ATOM     87  C   UNL A   1      50.913  25.827  29.819  1.00  0.00     0.006 A 
ENDBRANCH  63  80
ENDBRANCH  37  38
ENDBRANCH  29  32
ENDBRANCH  27  28
ENDBRANCH  26  27
ENDBRANCH  25  26
ENDBRANCH   1  25
TORSDOF 17
ENDMDL
MODEL 3
REMARK VINA RESULT:     -10.8      4.423      9.331
REMARK SMILES CC(C)C[C@@H](NC(=O)Cn1nc(O)ccc1=O)C(=O)NCCCCNC(=O)c1ccc(-c2c3nc(c(-c4c(F)cccc4F)c4ccc([nH]4)c(-c4c(F)cccc4F)c4nc(c(-c5c(F)cccc5F)c5ccc2[nH]5)C=C4)C=C3)cc1
REMARK SMILES IDX 21 1 20 2 18 3 19 4 5 6 4 7 2 8 1 9 3 10 6 11 7 12 8 14 9 15
REMARK SMILES IDX 10 16 11 17 16 18 12 19 15 20 17 21 14 22 13 23 22 25 23 26
REMARK SMILES IDX 24 27 25 28 26 29 27 31 28 32 29 33 81 34 30 35 80 36 31 37
REMARK SMILES IDX 32 38 33 39 74 40 34 41 79 42 73 43 75 44 35 45 78 46 72 47
REMARK SMILES IDX 71 48 36 50 62 51 45 52 61 53 46 54 49 55 60 56 76 57 47 58
REMARK SMILES IDX 48 59 59 61 77 62 50 63 37 64 38 65 43 66 39 67 40 68 42 69
REMARK SMILES IDX 44 70 41 71 63 72 64 73 69 74 65 75 66 76 68 77 70 78 67 79
REMARK SMILES IDX 51 80 52 81 57 82 53 83 54 84 56 85 58 86 55 87
REMARK H PARENT 20 5 6 13 13 24 25 30 75 49 49 60
REMARK Flexibility Score: inf
ROOT
ATOM      1  C   UNL A   1      31.889  29.133  25.629  1.00  0.00     0.116 C 
ENDROOT
BRANCH   1   2
ATOM      2  N   UNL A   1      33.007  29.338  24.719  1.00  0.00    -0.354 N 
ATOM      3  C   UNL A   1      33.185  28.898  23.434  1.00  0.00     0.242 C 
ATOM      4  O   UNL A   1      34.296  29.080  22.921  1.00  0.00    -0.273 OA
ATOM      5  H   UNL A   1      33.748  29.874  25.084  1.00  0.00     0.163 HD
BRANCH   3   6
ATOM      6  C   UNL A   1      32.154  27.968  22.763  1.00  0.00     0.171 C 
BRANCH   6   7
ATOM      7  C   UNL A   1      31.056  28.991  22.364  1.00  0.00     0.038 C 
BRANCH   7   8
ATOM      8  C   UNL A   1      29.579  28.733  22.684  1.00  0.00    -0.015 C 
ATOM      9  C   UNL A   1      29.377  27.450  23.481  1.00  0.00     0.007 C 
ATOM     10  C   UNL A   1      29.071  29.933  23.502  1.00  0.00     0.007 C 
ENDBRANCH   7   8
ENDBRANCH   6   7
BRANCH   6  11
ATOM     11  N   UNL A   1      32.672  27.196  21.632  1.00  0.00    -0.343 N 
ATOM     12  C   UNL A   1      32.764  25.849  21.422  1.00  0.00     0.242 C 
ATOM     13  H   UNL A   1      33.018  27.745  20.891  1.00  0.00     0.164 HD
ATOM     14  O   UNL A   1      32.988  25.508  20.254  1.00  0.00    -0.273 OA
BRANCH  12  15
ATOM     15  C   UNL A   1      32.475  24.785  22.492  1.00  0.00     0.248 C 
BRANCH  15  16
ATOM     16  N   UNL A   1      33.586  24.405  23.357  1.00  0.00    -0.217 N 
ATOM     17  N   UNL A   1      34.683  23.832  22.740  1.00  0.00    -0.131 NA
ATOM     18  C   UNL A   1      33.557  24.728  24.712  1.00  0.00     0.267 A 
ATOM     19  C   UNL A   1      35.649  23.491  23.514  1.00  0.00     0.229 A 
ATOM     20  C   UNL A   1      34.735  24.305  25.515  1.00  0.00     0.079 A 
ATOM     21  O   UNL A   1      32.626  25.279  25.289  1.00  0.00    -0.268 OA
ATOM     22  C   UNL A   1      35.765  23.677  24.950  1.00  0.00     0.075 A 
BRANCH  19  23
ATOM     23  O   UNL A   1      36.696  22.824  23.019  1.00  0.00    -0.492 OA
ATOM     24  H   UNL A   1      37.529  23.247  22.948  1.00  0.00     0.295 HD
ENDBRANCH  19  23
ENDBRANCH  15  16
ENDBRANCH  12  15
ENDBRANCH   6  11
ENDBRANCH   3   6
ENDBRANCH   1   2
BRANCH   1  25
ATOM     25  C   UNL A   1      32.004  29.989  26.888  1.00  0.00     0.023 C 
BRANCH  25  26
ATOM     26  C   UNL A   1      31.779  31.485  26.672  1.00  0.00     0.023 C 
BRANCH  26  27
ATOM     27  C   UNL A   1      32.925  32.376  27.138  1.00  0.00     0.116 C 
BRANCH  27  28
ATOM     28  N   UNL A   1      32.498  33.708  27.522  1.00  0.00    -0.352 N 
ATOM     29  C   UNL A   1      33.039  34.525  28.490  1.00  0.00     0.251 C 
ATOM     30  H   UNL A   1      31.727  34.072  27.030  1.00  0.00     0.163 HD
ATOM     31  O   UNL A   1      32.523  35.598  28.765  1.00  0.00    -0.269 OA
BRANCH  29  32
ATOM     32  C   UNL A   1      34.224  34.057  29.245  1.00  0.00     0.039 A 
ATOM     33  C   UNL A   1      35.513  34.459  28.885  1.00  0.00     0.014 A 
ATOM     34  C   UNL A   1      34.032  33.166  30.303  1.00  0.00     0.014 A 
ATOM     35  C   UNL A   1      36.618  33.874  29.507  1.00  0.00     0.010 A 
ATOM     36  C   UNL A   1      35.139  32.620  30.958  1.00  0.00     0.010 A 
ATOM     37  C   UNL A   1      36.443  32.937  30.541  1.00  0.00    -0.014 A 
BRANCH  37  38
ATOM     38  C   UNL A   1      37.614  32.276  31.174  1.00  0.00     0.031 A 
ATOM     39  C   UNL A   1      38.372  31.198  30.442  1.00  0.00     0.074 A 
ATOM     40  C   UNL A   1      38.007  32.638  32.410  1.00  0.00     0.049 A 
ATOM     41  N   UNL A   1      39.369  30.456  30.859  1.00  0.00    -0.248 NA
ATOM     42  C   UNL A   1      37.954  30.915  29.060  1.00  0.00     0.031 C 
ATOM     43  C   UNL A   1      37.374  33.672  33.230  1.00  0.00     0.029 A 
ATOM     44  N   UNL A   1      39.032  32.171  33.195  1.00  0.00    -0.354 N 
ATOM     45  C   UNL A   1      39.693  29.618  29.798  1.00  0.00     0.074 A 
ATOM     46  C   UNL A   1      38.764  29.919  28.729  1.00  0.00     0.031 C 
ATOM     47  C   UNL A   1      38.028  33.766  34.398  1.00  0.00     0.029 A 
ATOM     48  C   UNL A   1      39.093  32.768  34.430  1.00  0.00     0.049 A 
ATOM     49  H   UNL A   1      39.661  31.474  32.900  1.00  0.00     0.167 HD
ATOM     50  C   UNL A   1      40.680  28.693  29.714  1.00  0.00     0.037 A 
ATOM     51  C   UNL A   1      39.896  32.521  35.482  1.00  0.00     0.037 A 
ATOM     52  C   UNL A   1      41.605  28.383  30.774  1.00  0.00     0.049 A 
ATOM     53  C   UNL A   1      40.939  31.441  35.386  1.00  0.00     0.074 A 
ATOM     54  C   UNL A   1      42.631  27.452  30.780  1.00  0.00     0.029 A 
ATOM     55  N   UNL A   1      41.617  28.995  32.017  1.00  0.00    -0.354 N 
ATOM     56  N   UNL A   1      41.232  30.660  34.376  1.00  0.00    -0.248 NA
ATOM     57  C   UNL A   1      41.759  31.209  36.583  1.00  0.00     0.031 C 
ATOM     58  C   UNL A   1      43.245  27.481  32.037  1.00  0.00     0.029 A 
ATOM     59  C   UNL A   1      42.627  28.456  32.800  1.00  0.00     0.049 A 
ATOM     60  H   UNL A   1      41.001  29.707  32.302  1.00  0.00     0.167 HD
ATOM     61  C   UNL A   1      42.279  29.857  34.810  1.00  0.00     0.074 A 
ATOM     62  C   UNL A   1      42.586  30.262  36.164  1.00  0.00     0.031 C 
ATOM     63  C   UNL A   1      42.926  28.870  34.146  1.00  0.00     0.037 A 
BRANCH  50  64
ATOM     64  C   UNL A   1      40.812  27.940  28.422  1.00  0.00     0.057 A 
ATOM     65  C   UNL A   1      40.179  26.703  28.241  1.00  0.00     0.134 A 
ATOM     66  C   UNL A   1      41.610  28.416  27.374  1.00  0.00     0.134 A 
ATOM     67  F   UNL A   1      39.406  26.186  29.209  1.00  0.00    -0.206 F 
ATOM     68  C   UNL A   1      40.339  25.966  27.068  1.00  0.00     0.040 A 
ATOM     69  C   UNL A   1      41.760  27.699  26.187  1.00  0.00     0.040 A 
ATOM     70  F   UNL A   1      42.233  29.600  27.479  1.00  0.00    -0.206 F 
ATOM     71  C   UNL A   1      41.129  26.466  26.033  1.00  0.00     0.006 A 
ENDBRANCH  50  64
BRANCH  51  72
ATOM     72  C   UNL A   1      39.733  33.290  36.740  1.00  0.00     0.057 A 
ATOM     73  C   UNL A   1      40.474  34.453  36.982  1.00  0.00     0.134 A 
ATOM     74  C   UNL A   1      38.800  32.905  37.709  1.00  0.00     0.134 A 
ATOM     75  F   UNL A   1      41.384  34.873  36.091  1.00  0.00    -0.206 F 
ATOM     76  C   UNL A   1      40.294  35.205  38.142  1.00  0.00     0.040 A 
ATOM     77  C   UNL A   1      38.590  33.663  38.862  1.00  0.00     0.040 A 
ATOM     78  F   UNL A   1      38.043  31.815  37.521  1.00  0.00    -0.206 F 
ATOM     79  C   UNL A   1      39.342  34.816  39.081  1.00  0.00     0.006 A 
ENDBRANCH  51  72
BRANCH  63  80
ATOM     80  C   UNL A   1      44.048  28.185  34.870  1.00  0.00     0.057 A 
ATOM     81  C   UNL A   1      45.352  28.695  34.813  1.00  0.00     0.134 A 
ATOM     82  C   UNL A   1      43.841  27.020  35.620  1.00  0.00     0.134 A 
ATOM     83  F   UNL A   1      45.619  29.803  34.107  1.00  0.00    -0.206 F 
ATOM     84  C   UNL A   1      46.408  28.073  35.481  1.00  0.00     0.040 A 
ATOM     85  C   UNL A   1      44.884  26.402  36.311  1.00  0.00     0.040 A 
ATOM     86  F   UNL A   1      42.613  26.490  35.727  1.00  0.00    -0.206 F 
ATOM     87  C   UNL A   1      46.173  26.928  36.240  1.00  0.00     0.006 A 
ENDBRANCH  63  80
ENDBRANCH  37  38
ENDBRANCH  29  32
ENDBRANCH  27  28
ENDBRANCH  26  27
ENDBRANCH  25  26
ENDBRANCH   1  25
TORSDOF 17
ENDMDL
