MODEL 1
REMARK VINA RESULT:     -12.0      0.000      0.000
REMARK SMILES O=C(NCCCCNC(=O)c1ccccc1Nc1cccc(C(F)(F)F)c1)c1ccc(-c2c3nc(c(-c4c(F)cccc4F)c4ccc([nH]4)c(-c4c(F)cccc4F)c4nc(c(-c5c(F)cccc5F)c5ccc2[nH]5)C=C4)C=C3)cc1
REMARK SMILES IDX 6 1 5 2 4 3 3 4 1 5 2 6 28 8 29 9 81 10 30 11 80 12 31 13
REMARK SMILES IDX 32 14 33 15 74 16 34 17 79 18 73 19 75 20 35 21 78 22 72 23
REMARK SMILES IDX 71 24 36 26 62 27 45 28 61 29 46 30 49 31 60 32 76 33 47 34
REMARK SMILES IDX 48 35 59 37 77 38 50 39 37 40 38 41 43 42 39 43 40 44 42 45
REMARK SMILES IDX 44 46 41 47 63 48 64 49 69 50 65 51 66 52 68 53 70 54 67 55
REMARK SMILES IDX 51 56 52 57 57 58 53 59 54 60 56 61 58 62 55 63 7 64 8 65
REMARK SMILES IDX 9 66 10 68 11 69 12 70 16 71 13 72 15 73 14 74 17 75 18 77
REMARK SMILES IDX 19 78 27 79 20 80 22 81 21 82 23 83 24 84 25 85 26 86
REMARK H PARENT 3 7 75 25 49 36 8 67 17 76
REMARK Flexibility Score: inf
ROOT
ATOM      1  C   UNL A   1      38.894  22.480  26.137  1.00  0.00     0.023 C 
ENDROOT
BRANCH   1   2
ATOM      2  C   UNL A   1      38.946  21.148  25.393  1.00  0.00     0.023 C 
BRANCH   2   3
ATOM      3  C   UNL A   1      39.255  19.929  26.253  1.00  0.00     0.116 C 
BRANCH   3   4
ATOM      4  N   UNL A   1      40.459  19.228  25.835  1.00  0.00    -0.352 N 
ATOM      5  O   UNL A   1      42.638  18.974  25.306  1.00  0.00    -0.269 OA
ATOM      6  C   UNL A   1      41.764  19.659  25.828  1.00  0.00     0.251 C 
ATOM      7  H   UNL A   1      40.317  18.310  25.509  1.00  0.00     0.163 HD
BRANCH   6   8
ATOM      8  C   UNL A   1      42.115  20.964  26.429  1.00  0.00     0.039 A 
ATOM      9  C   UNL A   1      42.050  21.152  27.811  1.00  0.00     0.014 A 
ATOM     10  C   UNL A   1      42.519  22.014  25.598  1.00  0.00     0.014 A 
ATOM     11  C   UNL A   1      42.232  22.423  28.344  1.00  0.00     0.010 A 
ATOM     12  C   UNL A   1      42.795  23.270  26.147  1.00  0.00     0.010 A 
ATOM     13  C   UNL A   1      42.622  23.493  27.521  1.00  0.00    -0.014 A 
BRANCH  13  14
ATOM     14  C   UNL A   1      42.909  24.811  28.142  1.00  0.00     0.031 A 
ATOM     15  C   UNL A   1      44.305  25.208  28.533  1.00  0.00     0.074 A 
ATOM     16  C   UNL A   1      41.888  25.673  28.313  1.00  0.00     0.049 A 
ATOM     17  N   UNL A   1      44.724  26.336  29.053  1.00  0.00    -0.248 NA
ATOM     18  C   UNL A   1      45.370  24.215  28.323  1.00  0.00     0.031 C 
ATOM     19  C   UNL A   1      40.487  25.393  27.987  1.00  0.00     0.029 A 
ATOM     20  N   UNL A   1      41.867  26.961  28.783  1.00  0.00    -0.354 N 
ATOM     21  C   UNL A   1      46.091  26.185  29.246  1.00  0.00     0.074 A 
ATOM     22  C   UNL A   1      46.430  24.846  28.810  1.00  0.00     0.031 C 
ATOM     23  C   UNL A   1      39.754  26.491  28.215  1.00  0.00     0.029 A 
ATOM     24  C   UNL A   1      40.618  27.530  28.764  1.00  0.00     0.049 A 
ATOM     25  H   UNL A   1      42.670  27.432  29.103  1.00  0.00     0.167 HD
ATOM     26  C   UNL A   1      46.980  27.083  29.734  1.00  0.00     0.037 A 
ATOM     27  C   UNL A   1      40.205  28.748  29.157  1.00  0.00     0.037 A 
ATOM     28  C   UNL A   1      46.639  28.420  30.152  1.00  0.00     0.049 A 
ATOM     29  C   UNL A   1      41.210  29.714  29.710  1.00  0.00     0.074 A 
ATOM     30  C   UNL A   1      47.477  29.415  30.627  1.00  0.00     0.029 A 
ATOM     31  N   UNL A   1      45.357  28.948  30.147  1.00  0.00    -0.354 N 
ATOM     32  N   UNL A   1      42.503  29.566  29.855  1.00  0.00    -0.248 NA
ATOM     33  C   UNL A   1      40.695  31.014  30.159  1.00  0.00     0.031 C 
ATOM     34  C   UNL A   1      46.695  30.530  30.950  1.00  0.00     0.029 A 
ATOM     35  C   UNL A   1      45.377  30.246  30.633  1.00  0.00     0.049 A 
ATOM     36  H   UNL A   1      44.551  28.471  29.844  1.00  0.00     0.167 HD
ATOM     37  C   UNL A   1      42.961  30.755  30.402  1.00  0.00     0.074 A 
ATOM     38  C   UNL A   1      41.810  31.624  30.538  1.00  0.00     0.031 C 
ATOM     39  C   UNL A   1      44.222  31.095  30.766  1.00  0.00     0.037 A 
BRANCH  26  40
ATOM     40  C   UNL A   1      48.413  26.653  29.856  1.00  0.00     0.057 A 
ATOM     41  C   UNL A   1      49.362  26.948  28.869  1.00  0.00     0.134 A 
ATOM     42  C   UNL A   1      48.864  25.990  31.006  1.00  0.00     0.134 A 
ATOM     43  F   UNL A   1      48.994  27.572  27.739  1.00  0.00    -0.206 F 
ATOM     44  C   UNL A   1      50.703  26.588  29.013  1.00  0.00     0.040 A 
ATOM     45  C   UNL A   1      50.207  25.645  31.172  1.00  0.00     0.040 A 
ATOM     46  F   UNL A   1      48.010  25.686  31.995  1.00  0.00    -0.206 F 
ATOM     47  C   UNL A   1      51.130  25.941  30.171  1.00  0.00     0.006 A 
ENDBRANCH  26  40
BRANCH  27  48
ATOM     48  C   UNL A   1      38.771  29.111  29.049  1.00  0.00     0.057 A 
ATOM     49  C   UNL A   1      37.913  29.011  30.149  1.00  0.00     0.134 A 
ATOM     50  C   UNL A   1      38.228  29.577  27.845  1.00  0.00     0.134 A 
ATOM     51  F   UNL A   1      38.372  28.558  31.324  1.00  0.00    -0.206 F 
ATOM     52  C   UNL A   1      36.561  29.348  30.053  1.00  0.00     0.040 A 
ATOM     53  C   UNL A   1      36.887  29.943  27.742  1.00  0.00     0.040 A 
ATOM     54  F   UNL A   1      39.002  29.703  26.757  1.00  0.00    -0.206 F 
ATOM     55  C   UNL A   1      36.047  29.822  28.847  1.00  0.00     0.006 A 
ENDBRANCH  27  48
BRANCH  39  56
ATOM     56  C   UNL A   1      44.415  32.472  31.328  1.00  0.00     0.057 A 
ATOM     57  C   UNL A   1      44.351  32.720  32.705  1.00  0.00     0.134 A 
ATOM     58  C   UNL A   1      44.678  33.558  30.485  1.00  0.00     0.134 A 
ATOM     59  F   UNL A   1      44.085  31.724  33.563  1.00  0.00    -0.206 F 
ATOM     60  C   UNL A   1      44.517  34.005  33.221  1.00  0.00     0.040 A 
ATOM     61  C   UNL A   1      44.870  34.844  30.992  1.00  0.00     0.040 A 
ATOM     62  F   UNL A   1      44.757  33.386  29.157  1.00  0.00    -0.206 F 
ATOM     63  C   UNL A   1      44.782  35.071  32.364  1.00  0.00     0.006 A 
ENDBRANCH  39  56
ENDBRANCH  13  14
ENDBRANCH   6   8
ENDBRANCH   3   4
ENDBRANCH   2   3
ENDBRANCH   1   2
BRANCH   1  64
ATOM     64  C   UNL A   1      37.738  23.401  25.755  1.00  0.00     0.116 C 
BRANCH  64  65
ATOM     65  N   UNL A   1      37.248  23.167  24.406  1.00  0.00    -0.352 N 
ATOM     66  C   UNL A   1      35.964  23.282  23.932  1.00  0.00     0.253 C 
ATOM     67  H   UNL A   1      37.924  22.890  23.747  1.00  0.00     0.163 HD
ATOM     68  O   UNL A   1      35.716  23.024  22.758  1.00  0.00    -0.269 OA
BRANCH  66  69
ATOM     69  C   UNL A   1      34.874  23.683  24.842  1.00  0.00     0.063 A 
ATOM     70  C   UNL A   1      34.645  25.061  24.966  1.00  0.00     0.016 A 
ATOM     71  C   UNL A   1      34.099  22.744  25.553  1.00  0.00     0.051 A 
ATOM     72  C   UNL A   1      33.601  25.523  25.763  1.00  0.00     0.001 A 
ATOM     73  C   UNL A   1      33.039  23.238  26.329  1.00  0.00     0.027 A 
ATOM     74  C   UNL A   1      32.792  24.611  26.435  1.00  0.00     0.002 A 
BRANCH  71  75
ATOM     75  N   UNL A   1      34.348  21.358  25.461  1.00  0.00    -0.355 N 
ATOM     76  H   UNL A   1      35.067  21.035  26.051  1.00  0.00     0.167 HD
BRANCH  75  77
ATOM     77  C   UNL A   1      33.750  20.360  24.675  1.00  0.00     0.039 A 
ATOM     78  C   UNL A   1      32.718  20.709  23.796  1.00  0.00     0.026 A 
ATOM     79  C   UNL A   1      34.181  19.026  24.698  1.00  0.00     0.039 A 
ATOM     80  C   UNL A   1      32.131  19.757  22.961  1.00  0.00     0.003 A 
ATOM     81  C   UNL A   1      33.589  18.051  23.876  1.00  0.00     0.058 A 
ATOM     82  C   UNL A   1      32.565  18.433  23.000  1.00  0.00     0.013 A 
BRANCH  81  83
ATOM     83  C   UNL A   1      34.056  16.618  23.914  1.00  0.00     0.416 C 
ATOM     84  F   UNL A   1      33.087  15.761  24.341  1.00  0.00    -0.166 F 
ATOM     85  F   UNL A   1      34.442  16.165  22.689  1.00  0.00    -0.166 F 
ATOM     86  F   UNL A   1      35.121  16.413  24.739  1.00  0.00    -0.166 F 
ENDBRANCH  81  83
ENDBRANCH  75  77
ENDBRANCH  71  75
ENDBRANCH  66  69
ENDBRANCH  64  65
ENDBRANCH   1  64
TORSDOF 14
ENDMDL
MODEL 2
REMARK VINA RESULT:     -11.8      1.053      6.422
REMARK SMILES O=C(NCCCCNC(=O)c1ccccc1Nc1cccc(C(F)(F)F)c1)c1ccc(-c2c3nc(c(-c4c(F)cccc4F)c4ccc([nH]4)c(-c4c(F)cccc4F)c4nc(c(-c5c(F)cccc5F)c5ccc2[nH]5)C=C4)C=C3)cc1
REMARK SMILES IDX 6 1 5 2 4 3 3 4 1 5 2 6 28 8 29 9 81 10 30 11 80 12 31 13
REMARK SMILES IDX 32 14 33 15 74 16 34 17 79 18 73 19 75 20 35 21 78 22 72 23
REMARK SMILES IDX 71 24 36 26 62 27 45 28 61 29 46 30 49 31 60 32 76 33 47 34
REMARK SMILES IDX 48 35 59 37 77 38 50 39 37 40 38 41 43 42 39 43 40 44 42 45
REMARK SMILES IDX 44 46 41 47 63 48 64 49 69 50 65 51 66 52 68 53 70 54 67 55
REMARK SMILES IDX 51 56 52 57 57 58 53 59 54 60 56 61 58 62 55 63 7 64 8 65
REMARK SMILES IDX 9 66 10 68 11 69 12 70 16 71 13 72 15 73 14 74 17 75 18 77
REMARK SMILES IDX 19 78 27 79 20 80 22 81 21 82 23 83 24 84 25 85 26 86
REMARK H PARENT 3 7 75 25 49 36 8 67 17 76
REMARK Flexibility Score: inf
ROOT
ATOM      1  C   UNL A   1      36.449  20.375  24.986  1.00  0.00     0.023 C 
ENDROOT
BRANCH   1   2
ATOM      2  C   UNL A   1      37.779  19.642  24.826  1.00  0.00     0.023 C 
BRANCH   2   3
ATOM      3  C   UNL A   1      38.909  20.135  25.722  1.00  0.00     0.116 C 
BRANCH   3   4
ATOM      4  N   UNL A   1      40.030  19.210  25.785  1.00  0.00    -0.352 N 
ATOM      5  O   UNL A   1      42.186  18.568  25.973  1.00  0.00    -0.269 OA
ATOM      6  C   UNL A   1      41.344  19.451  26.109  1.00  0.00     0.251 C 
ATOM      7  H   UNL A   1      39.817  18.275  25.562  1.00  0.00     0.163 HD
BRANCH   6   8
ATOM      8  C   UNL A   1      41.752  20.785  26.600  1.00  0.00     0.039 A 
ATOM      9  C   UNL A   1      41.696  21.091  27.961  1.00  0.00     0.014 A 
ATOM     10  C   UNL A   1      42.201  21.744  25.686  1.00  0.00     0.014 A 
ATOM     11  C   UNL A   1      41.935  22.392  28.387  1.00  0.00     0.010 A 
ATOM     12  C   UNL A   1      42.532  23.028  26.129  1.00  0.00     0.010 A 
ATOM     13  C   UNL A   1      42.370  23.372  27.480  1.00  0.00    -0.014 A 
BRANCH  13  14
ATOM     14  C   UNL A   1      42.715  24.724  27.989  1.00  0.00     0.031 A 
ATOM     15  C   UNL A   1      41.658  25.764  28.234  1.00  0.00     0.074 A 
ATOM     16  C   UNL A   1      44.006  24.992  28.268  1.00  0.00     0.049 A 
ATOM     17  N   UNL A   1      41.795  26.978  28.709  1.00  0.00    -0.248 NA
ATOM     18  C   UNL A   1      40.272  25.404  27.901  1.00  0.00     0.031 C 
ATOM     19  C   UNL A   1      45.122  24.067  28.055  1.00  0.00     0.029 A 
ATOM     20  N   UNL A   1      44.597  26.105  28.807  1.00  0.00    -0.354 N 
ATOM     21  C   UNL A   1      40.521  27.531  28.717  1.00  0.00     0.074 A 
ATOM     22  C   UNL A   1      39.625  26.529  28.178  1.00  0.00     0.031 C 
ATOM     23  C   UNL A   1      46.252  24.629  28.507  1.00  0.00     0.029 A 
ATOM     24  C   UNL A   1      45.953  25.974  28.981  1.00  0.00     0.049 A 
ATOM     25  H   UNL A   1      44.098  26.919  29.046  1.00  0.00     0.167 HD
ATOM     26  C   UNL A   1      40.135  28.758  29.144  1.00  0.00     0.037 A 
ATOM     27  C   UNL A   1      46.861  26.845  29.456  1.00  0.00     0.037 A 
ATOM     28  C   UNL A   1      41.029  29.746  29.695  1.00  0.00     0.049 A 
ATOM     29  C   UNL A   1      46.406  28.201  29.903  1.00  0.00     0.074 A 
ATOM     30  C   UNL A   1      40.726  31.004  30.187  1.00  0.00     0.029 A 
ATOM     31  N   UNL A   1      42.400  29.588  29.825  1.00  0.00    -0.354 N 
ATOM     32  N   UNL A   1      45.194  28.696  29.934  1.00  0.00    -0.248 NA
ATOM     33  C   UNL A   1      47.448  29.123  30.376  1.00  0.00     0.031 C 
ATOM     34  C   UNL A   1      41.919  31.623  30.575  1.00  0.00     0.029 A 
ATOM     35  C   UNL A   1      42.960  30.733  30.367  1.00  0.00     0.049 A 
ATOM     36  H   UNL A   1      42.903  28.780  29.569  1.00  0.00     0.167 HD
ATOM     37  C   UNL A   1      45.322  29.981  30.439  1.00  0.00     0.074 A 
ATOM     38  C   UNL A   1      46.729  30.180  30.724  1.00  0.00     0.031 C 
ATOM     39  C   UNL A   1      44.362  30.917  30.641  1.00  0.00     0.037 A 
BRANCH  26  40
ATOM     40  C   UNL A   1      38.682  29.115  29.025  1.00  0.00     0.057 A 
ATOM     41  C   UNL A   1      37.806  29.026  30.114  1.00  0.00     0.134 A 
ATOM     42  C   UNL A   1      38.165  29.613  27.821  1.00  0.00     0.134 A 
ATOM     43  F   UNL A   1      38.234  28.549  31.293  1.00  0.00    -0.206 F 
ATOM     44  C   UNL A   1      36.467  29.408  30.008  1.00  0.00     0.040 A 
ATOM     45  C   UNL A   1      36.834  30.018  27.708  1.00  0.00     0.040 A 
ATOM     46  F   UNL A   1      38.951  29.732  26.741  1.00  0.00    -0.206 F 
ATOM     47  C   UNL A   1      35.979  29.912  28.804  1.00  0.00     0.006 A 
ENDBRANCH  26  40
BRANCH  27  48
ATOM     48  C   UNL A   1      48.291  26.456  29.520  1.00  0.00     0.057 A 
ATOM     49  C   UNL A   1      49.167  26.739  28.466  1.00  0.00     0.134 A 
ATOM     50  C   UNL A   1      48.818  25.801  30.640  1.00  0.00     0.134 A 
ATOM     51  F   UNL A   1      48.718  27.351  27.360  1.00  0.00    -0.206 F 
ATOM     52  C   UNL A   1      50.513  26.373  28.518  1.00  0.00     0.040 A 
ATOM     53  C   UNL A   1      50.166  25.455  30.717  1.00  0.00     0.040 A 
ATOM     54  F   UNL A   1      48.031  25.510  31.686  1.00  0.00    -0.206 F 
ATOM     55  C   UNL A   1      51.017  25.734  29.650  1.00  0.00     0.006 A 
ENDBRANCH  27  48
BRANCH  39  56
ATOM     56  C   UNL A   1      44.807  32.229  31.214  1.00  0.00     0.057 A 
ATOM     57  C   UNL A   1      45.173  33.304  30.393  1.00  0.00     0.134 A 
ATOM     58  C   UNL A   1      44.859  32.423  32.599  1.00  0.00     0.134 A 
ATOM     59  F   UNL A   1      45.162  33.174  29.058  1.00  0.00    -0.206 F 
ATOM     60  C   UNL A   1      45.601  34.517  30.932  1.00  0.00     0.040 A 
ATOM     61  C   UNL A   1      45.261  33.641  33.149  1.00  0.00     0.040 A 
ATOM     62  F   UNL A   1      44.515  31.435  33.439  1.00  0.00    -0.206 F 
ATOM     63  C   UNL A   1      45.640  34.690  32.314  1.00  0.00     0.006 A 
ENDBRANCH  39  56
ENDBRANCH  13  14
ENDBRANCH   6   8
ENDBRANCH   3   4
ENDBRANCH   2   3
ENDBRANCH   1   2
BRANCH   1  64
ATOM     64  C   UNL A   1      36.515  21.698  25.744  1.00  0.00     0.116 C 
BRANCH  64  65
ATOM     65  N   UNL A   1      35.517  21.799  26.798  1.00  0.00    -0.352 N 
ATOM     66  C   UNL A   1      34.313  22.459  26.773  1.00  0.00     0.253 C 
ATOM     67  H   UNL A   1      35.733  21.334  27.637  1.00  0.00     0.163 HD
ATOM     68  O   UNL A   1      33.592  22.462  27.766  1.00  0.00    -0.269 OA
BRANCH  66  69
ATOM     69  C   UNL A   1      33.899  23.196  25.563  1.00  0.00     0.063 A 
ATOM     70  C   UNL A   1      34.494  24.451  25.367  1.00  0.00     0.016 A 
ATOM     71  C   UNL A   1      32.957  22.680  24.650  1.00  0.00     0.051 A 
ATOM     72  C   UNL A   1      34.199  25.188  24.224  1.00  0.00     0.001 A 
ATOM     73  C   UNL A   1      32.698  23.435  23.496  1.00  0.00     0.027 A 
ATOM     74  C   UNL A   1      33.309  24.675  23.284  1.00  0.00     0.002 A 
BRANCH  71  75
ATOM     75  N   UNL A   1      32.327  21.435  24.861  1.00  0.00    -0.355 N 
ATOM     76  H   UNL A   1      31.652  21.438  25.577  1.00  0.00     0.167 HD
BRANCH  75  77
ATOM     77  C   UNL A   1      32.495  20.193  24.228  1.00  0.00     0.039 A 
ATOM     78  C   UNL A   1      32.115  20.052  22.888  1.00  0.00     0.026 A 
ATOM     79  C   UNL A   1      33.079  19.093  24.872  1.00  0.00     0.039 A 
ATOM     80  C   UNL A   1      32.311  18.849  22.207  1.00  0.00     0.003 A 
ATOM     81  C   UNL A   1      33.269  17.870  24.206  1.00  0.00     0.058 A 
ATOM     82  C   UNL A   1      32.887  17.763  22.863  1.00  0.00     0.013 A 
BRANCH  81  83
ATOM     83  C   UNL A   1      33.892  16.692  24.912  1.00  0.00     0.416 C 
ATOM     84  F   UNL A   1      33.442  16.547  26.189  1.00  0.00    -0.166 F 
ATOM     85  F   UNL A   1      33.626  15.513  24.285  1.00  0.00    -0.166 F 
ATOM     86  F   UNL A   1      35.250  16.766  25.004  1.00  0.00    -0.166 F 
ENDBRANCH  81  83
ENDBRANCH  75  77
ENDBRANCH  71  75
ENDBRANCH  66  69
ENDBRANCH  64  65
ENDBRANCH   1  64
TORSDOF 14
ENDMDL
MODEL 3
REMARK VINA RESULT:     -11.6      3.865      8.320
REMARK SMILES O=C(NCCCCNC(=O)c1ccccc1Nc1cccc(C(F)(F)F)c1)c1ccc(-c2c3nc(c(-c4c(F)cccc4F)c4ccc([nH]4)c(-c4c(F)cccc4F)c4nc(c(-c5c(F)cccc5F)c5ccc2[nH]5)C=C4)C=C3)cc1
REMARK SMILES IDX 6 1 5 2 4 3 3 4 1 5 2 6 28 8 29 9 81 10 30 11 80 12 31 13
REMARK SMILES IDX 32 14 33 15 74 16 34 17 79 18 73 19 75 20 35 21 78 22 72 23
REMARK SMILES IDX 71 24 36 26 62 27 45 28 61 29 46 30 49 31 60 32 76 33 47 34
REMARK SMILES IDX 48 35 59 37 77 38 50 39 37 40 38 41 43 42 39 43 40 44 42 45
REMARK SMILES IDX 44 46 41 47 63 48 64 49 69 50 65 51 66 52 68 53 70 54 67 55
REMARK SMILES IDX 51 56 52 57 57 58 53 59 54 60 56 61 58 62 55 63 7 64 8 65
REMARK SMILES IDX 9 66 10 68 11 69 12 70 16 71 13 72 15 73 14 74 17 75 18 77
REMARK SMILES IDX 19 78 27 79 20 80 22 81 21 82 23 83 24 84 25 85 26 86
REMARK H PARENT 3 7 75 25 49 36 8 67 17 76
REMARK Flexibility Score: inf
ROOT
ATOM      1  C   UNL A   1      33.794  26.475  25.750  1.00  0.00     0.023 C 
ENDROOT
BRANCH   1   2
ATOM      2  C   UNL A   1      32.872  27.647  25.417  1.00  0.00     0.023 C 
BRANCH   2   3
ATOM      3  C   UNL A   1      33.573  28.957  25.082  1.00  0.00     0.116 C 
BRANCH   3   4
ATOM      4  N   UNL A   1      32.914  30.119  25.655  1.00  0.00    -0.352 N 
ATOM      5  O   UNL A   1      32.489  31.725  27.183  1.00  0.00    -0.269 OA
ATOM      6  C   UNL A   1      33.248  30.854  26.767  1.00  0.00     0.251 C 
ATOM      7  H   UNL A   1      32.109  30.423  25.176  1.00  0.00     0.163 HD
BRANCH   6   8
ATOM      8  C   UNL A   1      34.515  30.581  27.481  1.00  0.00     0.039 A 
ATOM      9  C   UNL A   1      34.778  29.313  28.002  1.00  0.00     0.014 A 
ATOM     10  C   UNL A   1      35.454  31.607  27.626  1.00  0.00     0.014 A 
ATOM     11  C   UNL A   1      35.899  29.115  28.801  1.00  0.00     0.010 A 
ATOM     12  C   UNL A   1      36.628  31.379  28.351  1.00  0.00     0.010 A 
ATOM     13  C   UNL A   1      36.844  30.140  28.972  1.00  0.00    -0.014 A 
BRANCH  13  14
ATOM     14  C   UNL A   1      38.080  29.858  29.746  1.00  0.00     0.031 A 
ATOM     15  C   UNL A   1      38.277  30.398  31.134  1.00  0.00     0.074 A 
ATOM     16  C   UNL A   1      39.018  29.067  29.188  1.00  0.00     0.049 A 
ATOM     17  N   UNL A   1      39.284  30.213  31.953  1.00  0.00    -0.248 NA
ATOM     18  C   UNL A   1      37.216  31.260  31.677  1.00  0.00     0.031 C 
ATOM     19  C   UNL A   1      38.945  28.499  27.840  1.00  0.00     0.029 A 
ATOM     20  N   UNL A   1      40.201  28.587  29.686  1.00  0.00    -0.354 N 
ATOM     21  C   UNL A   1      38.988  30.944  33.096  1.00  0.00     0.074 A 
ATOM     22  C   UNL A   1      37.716  31.596  32.859  1.00  0.00     0.031 C 
ATOM     23  C   UNL A   1      40.007  27.707  27.637  1.00  0.00     0.029 A 
ATOM     24  C   UNL A   1      40.866  27.762  28.813  1.00  0.00     0.049 A 
ATOM     25  H   UNL A   1      40.541  28.813  30.582  1.00  0.00     0.167 HD
ATOM     26  C   UNL A   1      39.706  31.053  34.239  1.00  0.00     0.037 A 
ATOM     27  C   UNL A   1      42.046  27.128  28.937  1.00  0.00     0.037 A 
ATOM     28  C   UNL A   1      40.964  30.389  34.476  1.00  0.00     0.049 A 
ATOM     29  C   UNL A   1      42.827  27.282  30.207  1.00  0.00     0.074 A 
ATOM     30  C   UNL A   1      41.749  30.410  35.616  1.00  0.00     0.029 A 
ATOM     31  N   UNL A   1      41.621  29.587  33.556  1.00  0.00    -0.354 N 
ATOM     32  N   UNL A   1      42.516  27.951  31.290  1.00  0.00    -0.248 NA
ATOM     33  C   UNL A   1      44.126  26.598  30.270  1.00  0.00     0.031 C 
ATOM     34  C   UNL A   1      42.902  29.655  35.370  1.00  0.00     0.029 A 
ATOM     35  C   UNL A   1      42.812  29.126  34.093  1.00  0.00     0.049 A 
ATOM     36  H   UNL A   1      41.290  29.375  32.653  1.00  0.00     0.167 HD
ATOM     37  C   UNL A   1      43.573  27.762  32.168  1.00  0.00     0.074 A 
ATOM     38  C   UNL A   1      44.522  26.894  31.500  1.00  0.00     0.031 C 
ATOM     39  C   UNL A   1      43.747  28.267  33.414  1.00  0.00     0.037 A 
BRANCH  26  40
ATOM     40  C   UNL A   1      39.161  31.932  35.328  1.00  0.00     0.057 A 
ATOM     41  C   UNL A   1      39.376  33.316  35.339  1.00  0.00     0.134 A 
ATOM     42  C   UNL A   1      38.357  31.395  36.343  1.00  0.00     0.134 A 
ATOM     43  F   UNL A   1      40.144  33.892  34.402  1.00  0.00    -0.206 F 
ATOM     44  C   UNL A   1      38.824  34.132  36.328  1.00  0.00     0.040 A 
ATOM     45  C   UNL A   1      37.781  32.205  37.324  1.00  0.00     0.040 A 
ATOM     46  F   UNL A   1      38.103  30.079  36.386  1.00  0.00    -0.206 F 
ATOM     47  C   UNL A   1      38.017  33.578  37.320  1.00  0.00     0.006 A 
ENDBRANCH  26  40
BRANCH  27  48
ATOM     48  C   UNL A   1      42.559  26.300  27.818  1.00  0.00     0.057 A 
ATOM     49  C   UNL A   1      42.320  24.922  27.767  1.00  0.00     0.134 A 
ATOM     50  C   UNL A   1      43.291  26.868  26.768  1.00  0.00     0.134 A 
ATOM     51  F   UNL A   1      41.638  24.318  28.751  1.00  0.00    -0.206 F 
ATOM     52  C   UNL A   1      42.802  24.136  26.719  1.00  0.00     0.040 A 
ATOM     53  C   UNL A   1      43.754  26.100  25.701  1.00  0.00     0.040 A 
ATOM     54  F   UNL A   1      43.545  28.185  26.755  1.00  0.00    -0.206 F 
ATOM     55  C   UNL A   1      43.517  24.728  25.678  1.00  0.00     0.006 A 
ENDBRANCH  27  48
BRANCH  39  56
ATOM     56  C   UNL A   1      45.002  27.875  34.133  1.00  0.00     0.057 A 
ATOM     57  C   UNL A   1      46.169  28.646  34.051  1.00  0.00     0.134 A 
ATOM     58  C   UNL A   1      45.041  26.721  34.925  1.00  0.00     0.134 A 
ATOM     59  F   UNL A   1      46.200  29.753  33.294  1.00  0.00    -0.206 F 
ATOM     60  C   UNL A   1      47.339  28.268  34.711  1.00  0.00     0.040 A 
ATOM     61  C   UNL A   1      46.198  26.347  35.610  1.00  0.00     0.040 A 
ATOM     62  F   UNL A   1      43.956  25.943  35.050  1.00  0.00    -0.206 F 
ATOM     63  C   UNL A   1      47.354  27.118  35.498  1.00  0.00     0.006 A 
ENDBRANCH  39  56
ENDBRANCH  13  14
ENDBRANCH   6   8
ENDBRANCH   3   4
ENDBRANCH   2   3
ENDBRANCH   1   2
BRANCH   1  64
ATOM     64  C   UNL A   1      33.312  25.106  25.280  1.00  0.00     0.116 C 
BRANCH  64  65
ATOM     65  N   UNL A   1      33.604  24.851  23.879  1.00  0.00    -0.352 N 
ATOM     66  C   UNL A   1      33.767  23.643  23.246  1.00  0.00     0.253 C 
ATOM     67  H   UNL A   1      33.698  25.648  23.310  1.00  0.00     0.163 HD
ATOM     68  O   UNL A   1      34.033  23.606  22.049  1.00  0.00    -0.269 OA
BRANCH  66  69
ATOM     69  C   UNL A   1      33.654  22.387  24.012  1.00  0.00     0.063 A 
ATOM     70  C   UNL A   1      32.354  21.965  24.325  1.00  0.00     0.016 A 
ATOM     71  C   UNL A   1      34.783  21.644  24.415  1.00  0.00     0.051 A 
ATOM     72  C   UNL A   1      32.157  20.763  24.999  1.00  0.00     0.001 A 
ATOM     73  C   UNL A   1      34.552  20.426  25.072  1.00  0.00     0.027 A 
ATOM     74  C   UNL A   1      33.255  19.989  25.362  1.00  0.00     0.002 A 
BRANCH  71  75
ATOM     75  N   UNL A   1      36.095  22.083  24.137  1.00  0.00    -0.355 N 
ATOM     76  H   UNL A   1      36.307  22.148  23.177  1.00  0.00     0.167 HD
BRANCH  75  77
ATOM     77  C   UNL A   1      37.151  22.443  24.989  1.00  0.00     0.039 A 
ATOM     78  C   UNL A   1      37.134  23.701  25.604  1.00  0.00     0.026 A 
ATOM     79  C   UNL A   1      38.206  21.570  25.290  1.00  0.00     0.039 A 
ATOM     80  C   UNL A   1      38.137  24.079  26.498  1.00  0.00     0.003 A 
ATOM     81  C   UNL A   1      39.234  21.941  26.175  1.00  0.00     0.058 A 
ATOM     82  C   UNL A   1      39.183  23.203  26.782  1.00  0.00     0.013 A 
BRANCH  81  83
ATOM     83  C   UNL A   1      40.367  20.997  26.486  1.00  0.00     0.416 C 
ATOM     84  F   UNL A   1      40.056  19.698  26.221  1.00  0.00    -0.166 F 
ATOM     85  F   UNL A   1      41.485  21.271  25.758  1.00  0.00    -0.166 F 
ATOM     86  F   UNL A   1      40.757  21.025  27.792  1.00  0.00    -0.166 F 
ENDBRANCH  81  83
ENDBRANCH  75  77
ENDBRANCH  71  75
ENDBRANCH  66  69
ENDBRANCH  64  65
ENDBRANCH   1  64
TORSDOF 14
ENDMDL
