MODEL 1
REMARK VINA RESULT:     -10.5      0.000      0.000
REMARK SMILES COc1ccccc1-c1ccc(O)c(C(=O)NCCCCNC(=O)c2ccc(-c3c4nc(c(-c5c(F)cccc5F)c5ccc([nH]5)c(-c5c(F)cccc5F)c5nc(c(-c6c(F)cccc6F)c6ccc3[nH]6)C=C5)C=C4)cc2)c1
REMARK SMILES IDX 19 1 18 2 17 3 15 4 16 5 14 7 9 8 10 9 79 10 11 11 12 12
REMARK SMILES IDX 8 13 3 14 4 15 5 16 7 17 6 18 2 19 1 20 13 21 20 23 21 24
REMARK SMILES IDX 22 25 23 26 24 28 25 29 26 30 78 31 27 32 77 33 28 34 29 35
REMARK SMILES IDX 30 36 71 37 31 38 76 39 70 40 72 41 32 42 75 43 69 44 68 45
REMARK SMILES IDX 33 47 59 48 42 49 58 50 43 51 46 52 57 53 73 54 44 55 45 56
REMARK SMILES IDX 56 58 74 59 47 60 34 61 35 62 40 63 36 64 37 65 39 66 41 67
REMARK SMILES IDX 38 68 60 69 61 70 66 71 62 72 63 73 65 74 67 75 64 76 48 77
REMARK SMILES IDX 49 78 54 79 50 80 51 81 53 82 55 83 52 84
REMARK H PARENT 17 6 13 22 22 27 72 46 46 57
REMARK Flexibility Score: inf
ROOT
ATOM      1  C   UNL A   1      34.217  35.755  28.463  1.00  0.00     0.023 C 
ENDROOT
BRANCH   1   2
ATOM      2  C   UNL A   1      32.913  35.638  29.258  1.00  0.00     0.116 C 
BRANCH   2   3
ATOM      3  N   UNL A   1      32.878  36.615  30.331  1.00  0.00    -0.352 N 
ATOM      4  C   UNL A   1      33.379  36.616  31.609  1.00  0.00     0.255 C 
ATOM      5  O   UNL A   1      33.206  37.638  32.279  1.00  0.00    -0.269 OA
ATOM      6  H   UNL A   1      32.398  37.442  30.095  1.00  0.00     0.163 HD
BRANCH   4   7
ATOM      7  C   UNL A   1      34.169  35.505  32.218  1.00  0.00     0.082 A 
ATOM      8  C   UNL A   1      36.293  34.461  32.864  1.00  0.00    -0.014 A 
ATOM      9  C   UNL A   1      35.595  33.482  33.577  1.00  0.00     0.013 A 
ATOM     10  C   UNL A   1      35.557  35.410  32.132  1.00  0.00     0.026 A 
ATOM     11  C   UNL A   1      34.200  33.491  33.596  1.00  0.00     0.047 A 
ATOM     12  C   UNL A   1      33.498  34.503  32.939  1.00  0.00     0.128 A 
BRANCH   8  13
ATOM     13  C   UNL A   1      37.759  34.576  32.913  1.00  0.00     0.024 A 
ATOM     14  C   UNL A   1      38.554  34.513  31.745  1.00  0.00     0.126 A 
ATOM     15  C   UNL A   1      39.950  34.499  31.825  1.00  0.00     0.047 A 
ATOM     16  C   UNL A   1      40.579  34.580  33.064  1.00  0.00     0.004 A 
ATOM     17  C   UNL A   1      38.417  34.670  34.150  1.00  0.00     0.012 A 
ATOM     18  C   UNL A   1      39.813  34.669  34.225  1.00  0.00     0.001 A 
BRANCH  14  19
ATOM     19  O   UNL A   1      38.035  34.345  30.482  1.00  0.00    -0.496 OA
ATOM     20  C   UNL A   1      39.051  34.168  29.493  1.00  0.00     0.278 C 
ENDBRANCH  14  19
ENDBRANCH   8  13
BRANCH  12  21
ATOM     21  O   UNL A   1      32.132  34.448  33.058  1.00  0.00    -0.507 OA
ATOM     22  H   UNL A   1      31.618  34.067  32.375  1.00  0.00     0.293 HD
ENDBRANCH  12  21
ENDBRANCH   4   7
ENDBRANCH   2   3
ENDBRANCH   1   2
BRANCH   1  23
ATOM     23  C   UNL A   1      35.145  34.544  28.602  1.00  0.00     0.023 C 
BRANCH  23  24
ATOM     24  C   UNL A   1      34.505  33.320  29.244  1.00  0.00     0.116 C 
BRANCH  24  25
ATOM     25  N   UNL A   1      33.942  32.389  28.280  1.00  0.00    -0.352 N 
ATOM     26  C   UNL A   1      34.478  31.213  27.807  1.00  0.00     0.251 C 
ATOM     27  H   UNL A   1      33.060  32.632  27.916  1.00  0.00     0.163 HD
ATOM     28  O   UNL A   1      33.925  30.594  26.914  1.00  0.00    -0.269 OA
BRANCH  26  29
ATOM     29  C   UNL A   1      35.758  30.728  28.369  1.00  0.00     0.039 A 
ATOM     30  C   UNL A   1      35.724  29.699  29.313  1.00  0.00     0.014 A 
ATOM     31  C   UNL A   1      36.978  31.272  27.961  1.00  0.00     0.014 A 
ATOM     32  C   UNL A   1      36.920  29.185  29.813  1.00  0.00     0.010 A 
ATOM     33  C   UNL A   1      38.170  30.704  28.398  1.00  0.00     0.010 A 
ATOM     34  C   UNL A   1      38.153  29.665  29.340  1.00  0.00    -0.014 A 
BRANCH  34  35
ATOM     35  C   UNL A   1      39.430  29.104  29.845  1.00  0.00     0.031 A 
ATOM     36  C   UNL A   1      40.055  29.656  31.097  1.00  0.00     0.074 A 
ATOM     37  C   UNL A   1      40.044  28.122  29.157  1.00  0.00     0.049 A 
ATOM     38  N   UNL A   1      41.163  29.298  31.694  1.00  0.00    -0.248 NA
ATOM     39  C   UNL A   1      39.358  30.777  31.748  1.00  0.00     0.031 C 
ATOM     40  C   UNL A   1      39.570  27.546  27.897  1.00  0.00     0.029 A 
ATOM     41  N   UNL A   1      41.199  27.433  29.423  1.00  0.00    -0.354 N 
ATOM     42  C   UNL A   1      41.298  30.153  32.781  1.00  0.00     0.074 A 
ATOM     43  C   UNL A   1      40.197  31.089  32.724  1.00  0.00     0.031 C 
ATOM     44  C   UNL A   1      40.408  26.566  27.521  1.00  0.00     0.029 A 
ATOM     45  C   UNL A   1      41.489  26.464  28.494  1.00  0.00     0.049 A 
ATOM     46  H   UNL A   1      41.767  27.616  30.207  1.00  0.00     0.167 HD
ATOM     47  C   UNL A   1      42.235  30.139  33.758  1.00  0.00     0.037 A 
ATOM     48  C   UNL A   1      42.509  25.588  28.441  1.00  0.00     0.037 A 
ATOM     49  C   UNL A   1      43.315  29.192  33.827  1.00  0.00     0.049 A 
ATOM     50  C   UNL A   1      43.530  25.585  29.544  1.00  0.00     0.074 A 
ATOM     51  C   UNL A   1      44.284  29.056  34.805  1.00  0.00     0.029 A 
ATOM     52  N   UNL A   1      43.565  28.213  32.876  1.00  0.00    -0.354 N 
ATOM     53  N   UNL A   1      43.602  26.347  30.609  1.00  0.00    -0.248 NA
ATOM     54  C   UNL A   1      44.607  24.590  29.445  1.00  0.00     0.031 C 
ATOM     55  C   UNL A   1      45.146  28.021  34.425  1.00  0.00     0.029 A 
ATOM     56  C   UNL A   1      44.685  27.482  33.236  1.00  0.00     0.049 A 
ATOM     57  H   UNL A   1      43.027  28.062  32.066  1.00  0.00     0.167 HD
ATOM     58  C   UNL A   1      44.712  25.907  31.318  1.00  0.00     0.074 A 
ATOM     59  C   UNL A   1      45.271  24.799  30.572  1.00  0.00     0.031 C 
ATOM     60  C   UNL A   1      45.225  26.378  32.482  1.00  0.00     0.037 A 
BRANCH  47  61
ATOM     61  C   UNL A   1      42.121  31.180  34.836  1.00  0.00     0.057 A 
ATOM     62  C   UNL A   1      42.918  32.332  34.835  1.00  0.00     0.134 A 
ATOM     63  C   UNL A   1      41.193  31.039  35.874  1.00  0.00     0.134 A 
ATOM     64  F   UNL A   1      43.839  32.523  33.877  1.00  0.00    -0.206 F 
ATOM     65  C   UNL A   1      42.818  33.291  35.843  1.00  0.00     0.040 A 
ATOM     66  C   UNL A   1      41.063  32.006  36.873  1.00  0.00     0.040 A 
ATOM     67  F   UNL A   1      40.394  29.963  35.934  1.00  0.00    -0.206 F 
ATOM     68  C   UNL A   1      41.883  33.133  36.863  1.00  0.00     0.006 A 
ENDBRANCH  47  61
BRANCH  48  69
ATOM     69  C   UNL A   1      42.594  24.608  27.328  1.00  0.00     0.057 A 
ATOM     70  C   UNL A   1      42.020  23.336  27.440  1.00  0.00     0.134 A 
ATOM     71  C   UNL A   1      43.261  24.912  26.135  1.00  0.00     0.134 A 
ATOM     72  F   UNL A   1      41.384  22.981  28.566  1.00  0.00    -0.206 F 
ATOM     73  C   UNL A   1      42.126  22.393  26.418  1.00  0.00     0.040 A 
ATOM     74  C   UNL A   1      43.353  23.987  25.094  1.00  0.00     0.040 A 
ATOM     75  F   UNL A   1      43.824  26.117  25.961  1.00  0.00    -0.206 F 
ATOM     76  C   UNL A   1      42.792  22.719  25.238  1.00  0.00     0.006 A 
ENDBRANCH  48  69
BRANCH  60  77
ATOM     77  C   UNL A   1      46.432  25.675  33.029  1.00  0.00     0.057 A 
ATOM     78  C   UNL A   1      47.734  26.079  32.707  1.00  0.00     0.134 A 
ATOM     79  C   UNL A   1      46.288  24.593  33.907  1.00  0.00     0.134 A 
ATOM     80  F   UNL A   1      47.939  27.101  31.862  1.00  0.00    -0.206 F 
ATOM     81  C   UNL A   1      48.850  25.413  33.216  1.00  0.00     0.040 A 
ATOM     82  C   UNL A   1      47.396  23.937  34.443  1.00  0.00     0.040 A 
ATOM     83  F   UNL A   1      45.069  24.161  34.264  1.00  0.00    -0.206 F 
ATOM     84  C   UNL A   1      48.682  24.341  34.091  1.00  0.00     0.006 A 
ENDBRANCH  60  77
ENDBRANCH  34  35
ENDBRANCH  26  29
ENDBRANCH  24  25
ENDBRANCH  23  24
ENDBRANCH   1  23
TORSDOF 14
ENDMDL
MODEL 2
REMARK VINA RESULT:     -10.2      4.856     10.356
REMARK SMILES COc1ccccc1-c1ccc(O)c(C(=O)NCCCCNC(=O)c2ccc(-c3c4nc(c(-c5c(F)cccc5F)c5ccc([nH]5)c(-c5c(F)cccc5F)c5nc(c(-c6c(F)cccc6F)c6ccc3[nH]6)C=C5)C=C4)cc2)c1
REMARK SMILES IDX 19 1 18 2 17 3 15 4 16 5 14 7 9 8 10 9 79 10 11 11 12 12
REMARK SMILES IDX 8 13 3 14 4 15 5 16 7 17 6 18 2 19 1 20 13 21 20 23 21 24
REMARK SMILES IDX 22 25 23 26 24 28 25 29 26 30 78 31 27 32 77 33 28 34 29 35
REMARK SMILES IDX 30 36 71 37 31 38 76 39 70 40 72 41 32 42 75 43 69 44 68 45
REMARK SMILES IDX 33 47 59 48 42 49 58 50 43 51 46 52 57 53 73 54 44 55 45 56
REMARK SMILES IDX 56 58 74 59 47 60 34 61 35 62 40 63 36 64 37 65 39 66 41 67
REMARK SMILES IDX 38 68 60 69 61 70 66 71 62 72 63 73 65 74 67 75 64 76 48 77
REMARK SMILES IDX 49 78 54 79 50 80 51 81 53 82 55 83 52 84
REMARK H PARENT 17 6 13 22 22 27 72 46 46 57
REMARK Flexibility Score: inf
ROOT
ATOM      1  C   UNL A   1      36.442  20.449  25.004  1.00  0.00     0.023 C 
ENDROOT
BRANCH   1   2
ATOM      2  C   UNL A   1      36.403  21.980  25.008  1.00  0.00     0.116 C 
BRANCH   2   3
ATOM      3  N   UNL A   1      35.779  22.480  23.796  1.00  0.00    -0.352 N 
ATOM      4  C   UNL A   1      34.667  23.254  23.570  1.00  0.00     0.255 C 
ATOM      5  O   UNL A   1      34.414  23.541  22.396  1.00  0.00    -0.269 OA
ATOM      6  H   UNL A   1      36.245  22.209  22.972  1.00  0.00     0.163 HD
BRANCH   4   7
ATOM      7  C   UNL A   1      33.791  23.823  24.635  1.00  0.00     0.082 A 
ATOM      8  C   UNL A   1      32.754  25.715  25.804  1.00  0.00    -0.014 A 
ATOM      9  C   UNL A   1      31.950  24.828  26.527  1.00  0.00     0.013 A 
ATOM     10  C   UNL A   1      33.717  25.185  24.926  1.00  0.00     0.026 A 
ATOM     11  C   UNL A   1      32.075  23.452  26.331  1.00  0.00     0.047 A 
ATOM     12  C   UNL A   1      32.972  22.959  25.382  1.00  0.00     0.128 A 
BRANCH   8  13
ATOM     13  C   UNL A   1      32.579  27.173  25.875  1.00  0.00     0.024 A 
ATOM     14  C   UNL A   1      31.579  27.845  25.133  1.00  0.00     0.126 A 
ATOM     15  C   UNL A   1      31.510  29.241  25.118  1.00  0.00     0.047 A 
ATOM     16  C   UNL A   1      32.412  29.992  25.866  1.00  0.00     0.004 A 
ATOM     17  C   UNL A   1      33.468  27.953  26.632  1.00  0.00     0.012 A 
ATOM     18  C   UNL A   1      33.388  29.349  26.625  1.00  0.00     0.001 A 
BRANCH  14  19
ATOM     19  O   UNL A   1      30.696  27.203  24.296  1.00  0.00    -0.496 OA
ATOM     20  C   UNL A   1      29.966  28.112  23.471  1.00  0.00     0.278 C 
ENDBRANCH  14  19
ENDBRANCH   8  13
BRANCH  12  21
ATOM     21  O   UNL A   1      32.984  21.595  25.234  1.00  0.00    -0.507 OA
ATOM     22  H   UNL A   1      32.584  21.202  24.485  1.00  0.00     0.293 HD
ENDBRANCH  12  21
ENDBRANCH   4   7
ENDBRANCH   2   3
ENDBRANCH   1   2
BRANCH   1  23
ATOM     23  C   UNL A   1      37.825  19.861  24.707  1.00  0.00     0.023 C 
BRANCH  23  24
ATOM     24  C   UNL A   1      38.884  20.154  25.762  1.00  0.00     0.116 C 
BRANCH  24  25
ATOM     25  N   UNL A   1      39.982  19.200  25.760  1.00  0.00    -0.352 N 
ATOM     26  C   UNL A   1      41.300  19.407  26.098  1.00  0.00     0.251 C 
ATOM     27  H   UNL A   1      39.752  18.285  25.480  1.00  0.00     0.163 HD
ATOM     28  O   UNL A   1      42.126  18.524  25.941  1.00  0.00    -0.269 OA
BRANCH  26  29
ATOM     29  C   UNL A   1      41.711  20.730  26.617  1.00  0.00     0.039 A 
ATOM     30  C   UNL A   1      42.115  21.707  25.705  1.00  0.00     0.014 A 
ATOM     31  C   UNL A   1      41.686  21.008  27.985  1.00  0.00     0.014 A 
ATOM     32  C   UNL A   1      42.450  22.980  26.166  1.00  0.00     0.010 A 
ATOM     33  C   UNL A   1      41.942  22.300  28.435  1.00  0.00     0.010 A 
ATOM     34  C   UNL A   1      42.341  23.295  27.531  1.00  0.00    -0.014 A 
BRANCH  34  35
ATOM     35  C   UNL A   1      42.668  24.654  28.025  1.00  0.00     0.031 A 
ATOM     36  C   UNL A   1      44.099  25.041  28.282  1.00  0.00     0.074 A 
ATOM     37  C   UNL A   1      41.675  25.529  28.275  1.00  0.00     0.049 A 
ATOM     38  N   UNL A   1      44.583  26.178  28.712  1.00  0.00    -0.248 NA
ATOM     39  C   UNL A   1      45.118  24.004  28.052  1.00  0.00     0.031 C 
ATOM     40  C   UNL A   1      40.245  25.252  28.125  1.00  0.00     0.029 A 
ATOM     41  N   UNL A   1      41.718  26.829  28.708  1.00  0.00    -0.354 N 
ATOM     42  C   UNL A   1      45.956  25.989  28.812  1.00  0.00     0.074 A 
ATOM     43  C   UNL A   1      46.221  24.611  28.462  1.00  0.00     0.031 C 
ATOM     44  C   UNL A   1      39.550  26.362  28.424  1.00  0.00     0.029 A 
ATOM     45  C   UNL A   1      40.480  27.416  28.813  1.00  0.00     0.049 A 
ATOM     46  H   UNL A   1      42.557  27.299  28.922  1.00  0.00     0.167 HD
ATOM     47  C   UNL A   1      46.914  26.890  29.133  1.00  0.00     0.037 A 
ATOM     48  C   UNL A   1      40.139  28.666  29.174  1.00  0.00     0.037 A 
ATOM     49  C   UNL A   1      46.651  28.267  29.455  1.00  0.00     0.049 A 
ATOM     50  C   UNL A   1      41.222  29.652  29.515  1.00  0.00     0.074 A 
ATOM     51  C   UNL A   1      47.554  29.276  29.740  1.00  0.00     0.029 A 
ATOM     52  N   UNL A   1      45.385  28.829  29.535  1.00  0.00    -0.354 N 
ATOM     53  N   UNL A   1      42.522  29.482  29.528  1.00  0.00    -0.248 NA
ATOM     54  C   UNL A   1      40.790  31.009  29.878  1.00  0.00     0.031 C 
ATOM     55  C   UNL A   1      46.833  30.439  30.030  1.00  0.00     0.029 A 
ATOM     56  C   UNL A   1      45.483  30.167  29.881  1.00  0.00     0.049 A 
ATOM     57  H   UNL A   1      44.542  28.348  29.370  1.00  0.00     0.167 HD
ATOM     58  C   UNL A   1      43.063  30.714  29.874  1.00  0.00     0.074 A 
ATOM     59  C   UNL A   1      41.950  31.626  30.042  1.00  0.00     0.031 C 
ATOM     60  C   UNL A   1      44.364  31.060  30.039  1.00  0.00     0.037 A 
BRANCH  47  61
ATOM     61  C   UNL A   1      48.338  26.410  29.139  1.00  0.00     0.057 A 
ATOM     62  C   UNL A   1      48.926  25.862  30.287  1.00  0.00     0.134 A 
ATOM     63  C   UNL A   1      49.123  26.476  27.983  1.00  0.00     0.134 A 
ATOM     64  F   UNL A   1      48.234  25.782  31.435  1.00  0.00    -0.206 F 
ATOM     65  C   UNL A   1      50.251  25.426  30.293  1.00  0.00     0.040 A 
ATOM     66  C   UNL A   1      50.441  26.018  27.968  1.00  0.00     0.040 A 
ATOM     67  F   UNL A   1      48.622  26.985  26.846  1.00  0.00    -0.206 F 
ATOM     68  C   UNL A   1      51.011  25.497  29.128  1.00  0.00     0.006 A 
ENDBRANCH  47  61
BRANCH  48  69
ATOM     69  C   UNL A   1      38.711  29.074  29.190  1.00  0.00     0.057 A 
ATOM     70  C   UNL A   1      38.091  29.579  28.041  1.00  0.00     0.134 A 
ATOM     71  C   UNL A   1      37.938  28.986  30.354  1.00  0.00     0.134 A 
ATOM     72  F   UNL A   1      38.786  29.704  26.901  1.00  0.00    -0.206 F 
ATOM     73  C   UNL A   1      36.761  30.002  28.052  1.00  0.00     0.040 A 
ATOM     74  C   UNL A   1      36.600  29.382  30.373  1.00  0.00     0.040 A 
ATOM     75  F   UNL A   1      38.470  28.503  31.486  1.00  0.00    -0.206 F 
ATOM     76  C   UNL A   1      36.010  29.901  29.221  1.00  0.00     0.006 A 
ENDBRANCH  48  69
BRANCH  60  77
ATOM     77  C   UNL A   1      44.649  32.490  30.392  1.00  0.00     0.057 A 
ATOM     78  C   UNL A   1      44.767  32.917  31.721  1.00  0.00     0.134 A 
ATOM     79  C   UNL A   1      44.829  33.449  29.386  1.00  0.00     0.134 A 
ATOM     80  F   UNL A   1      44.594  32.049  32.730  1.00  0.00    -0.206 F 
ATOM     81  C   UNL A   1      45.025  34.250  32.038  1.00  0.00     0.040 A 
ATOM     82  C   UNL A   1      45.114  34.780  29.690  1.00  0.00     0.040 A 
ATOM     83  F   UNL A   1      44.739  33.105  28.093  1.00  0.00    -0.206 F 
ATOM     84  C   UNL A   1      45.205  35.186  31.020  1.00  0.00     0.006 A 
ENDBRANCH  60  77
ENDBRANCH  34  35
ENDBRANCH  26  29
ENDBRANCH  24  25
ENDBRANCH  23  24
ENDBRANCH   1  23
TORSDOF 14
ENDMDL
MODEL 3
REMARK VINA RESULT:     -10.1      3.574      7.070
REMARK SMILES COc1ccccc1-c1ccc(O)c(C(=O)NCCCCNC(=O)c2ccc(-c3c4nc(c(-c5c(F)cccc5F)c5ccc([nH]5)c(-c5c(F)cccc5F)c5nc(c(-c6c(F)cccc6F)c6ccc3[nH]6)C=C5)C=C4)cc2)c1
REMARK SMILES IDX 19 1 18 2 17 3 15 4 16 5 14 7 9 8 10 9 79 10 11 11 12 12
REMARK SMILES IDX 8 13 3 14 4 15 5 16 7 17 6 18 2 19 1 20 13 21 20 23 21 24
REMARK SMILES IDX 22 25 23 26 24 28 25 29 26 30 78 31 27 32 77 33 28 34 29 35
REMARK SMILES IDX 30 36 71 37 31 38 76 39 70 40 72 41 32 42 75 43 69 44 68 45
REMARK SMILES IDX 33 47 59 48 42 49 58 50 43 51 46 52 57 53 73 54 44 55 45 56
REMARK SMILES IDX 56 58 74 59 47 60 34 61 35 62 40 63 36 64 37 65 39 66 41 67
REMARK SMILES IDX 38 68 60 69 61 70 66 71 62 72 63 73 65 74 67 75 64 76 48 77
REMARK SMILES IDX 49 78 54 79 50 80 51 81 53 82 55 83 52 84
REMARK H PARENT 17 6 13 22 22 27 72 46 46 57
REMARK Flexibility Score: inf
ROOT
ATOM      1  C   UNL A   1      31.442  30.759  26.123  1.00  0.00     0.023 C 
ENDROOT
BRANCH   1   2
ATOM      2  C   UNL A   1      31.718  29.588  27.070  1.00  0.00     0.116 C 
BRANCH   2   3
ATOM      3  N   UNL A   1      33.138  29.479  27.350  1.00  0.00    -0.352 N 
ATOM      4  C   UNL A   1      34.144  28.728  26.794  1.00  0.00     0.255 C 
ATOM      5  O   UNL A   1      35.281  28.892  27.245  1.00  0.00    -0.269 OA
ATOM      6  H   UNL A   1      33.439  30.057  28.088  1.00  0.00     0.163 HD
BRANCH   4   7
ATOM      7  C   UNL A   1      33.974  27.788  25.647  1.00  0.00     0.082 A 
ATOM      8  C   UNL A   1      33.672  25.536  24.721  1.00  0.00    -0.014 A 
ATOM      9  C   UNL A   1      33.437  26.087  23.458  1.00  0.00     0.013 A 
ATOM     10  C   UNL A   1      34.014  26.400  25.777  1.00  0.00     0.026 A 
ATOM     11  C   UNL A   1      33.492  27.469  23.276  1.00  0.00     0.047 A 
ATOM     12  C   UNL A   1      33.740  28.308  24.363  1.00  0.00     0.128 A 
BRANCH   8  13
ATOM     13  C   UNL A   1      33.502  24.102  24.999  1.00  0.00     0.024 A 
ATOM     14  C   UNL A   1      34.564  23.179  24.853  1.00  0.00     0.126 A 
ATOM     15  C   UNL A   1      34.349  21.806  25.001  1.00  0.00     0.047 A 
ATOM     16  C   UNL A   1      33.084  21.328  25.328  1.00  0.00     0.004 A 
ATOM     17  C   UNL A   1      32.237  23.596  25.343  1.00  0.00     0.012 A 
ATOM     18  C   UNL A   1      32.030  22.223  25.503  1.00  0.00     0.001 A 
BRANCH  14  19
ATOM     19  O   UNL A   1      35.829  23.537  24.448  1.00  0.00    -0.496 OA
ATOM     20  C   UNL A   1      36.743  23.643  25.541  1.00  0.00     0.278 C 
ENDBRANCH  14  19
ENDBRANCH   8  13
BRANCH  12  21
ATOM     21  O   UNL A   1      33.727  29.652  24.086  1.00  0.00    -0.507 OA
ATOM     22  H   UNL A   1      33.081  30.205  24.478  1.00  0.00     0.293 HD
ENDBRANCH  12  21
ENDBRANCH   4   7
ENDBRANCH   2   3
ENDBRANCH   1   2
BRANCH   1  23
ATOM     23  C   UNL A   1      31.232  32.101  26.833  1.00  0.00     0.023 C 
BRANCH  23  24
ATOM     24  C   UNL A   1      32.511  32.874  27.128  1.00  0.00     0.116 C 
BRANCH  24  25
ATOM     25  N   UNL A   1      32.272  34.226  27.606  1.00  0.00    -0.352 N 
ATOM     26  C   UNL A   1      32.988  34.948  28.533  1.00  0.00     0.251 C 
ATOM     27  H   UNL A   1      31.494  34.686  27.215  1.00  0.00     0.163 HD
ATOM     28  O   UNL A   1      32.594  36.041  28.907  1.00  0.00    -0.269 OA
BRANCH  26  29
ATOM     29  C   UNL A   1      34.222  34.366  29.102  1.00  0.00     0.039 A 
ATOM     30  C   UNL A   1      34.120  33.581  30.253  1.00  0.00     0.014 A 
ATOM     31  C   UNL A   1      35.465  34.581  28.502  1.00  0.00     0.014 A 
ATOM     32  C   UNL A   1      35.262  32.973  30.773  1.00  0.00     0.010 A 
ATOM     33  C   UNL A   1      36.588  33.909  28.974  1.00  0.00     0.010 A 
ATOM     34  C   UNL A   1      36.501  33.110  30.124  1.00  0.00    -0.014 A 
BRANCH  34  35
ATOM     35  C   UNL A   1      37.714  32.444  30.654  1.00  0.00     0.031 A 
ATOM     36  C   UNL A   1      38.374  32.960  31.904  1.00  0.00     0.074 A 
ATOM     37  C   UNL A   1      38.242  31.395  29.993  1.00  0.00     0.049 A 
ATOM     38  N   UNL A   1      39.438  32.513  32.521  1.00  0.00    -0.248 NA
ATOM     39  C   UNL A   1      37.777  34.152  32.526  1.00  0.00     0.031 C 
ATOM     40  C   UNL A   1      37.730  30.841  28.738  1.00  0.00     0.029 A 
ATOM     41  N   UNL A   1      39.326  30.608  30.286  1.00  0.00    -0.354 N 
ATOM     42  C   UNL A   1      39.640  33.372  33.594  1.00  0.00     0.074 A 
ATOM     43  C   UNL A   1      38.631  34.404  33.506  1.00  0.00     0.031 C 
ATOM     44  C   UNL A   1      38.477  29.781  28.390  1.00  0.00     0.029 A 
ATOM     45  C   UNL A   1      39.534  29.599  29.378  1.00  0.00     0.049 A 
ATOM     46  H   UNL A   1      39.900  30.753  31.073  1.00  0.00     0.167 HD
ATOM     47  C   UNL A   1      40.562  33.291  34.582  1.00  0.00     0.037 A 
ATOM     48  C   UNL A   1      40.469  28.631  29.354  1.00  0.00     0.037 A 
ATOM     49  C   UNL A   1      41.548  32.249  34.683  1.00  0.00     0.049 A 
ATOM     50  C   UNL A   1      41.474  28.555  30.470  1.00  0.00     0.074 A 
ATOM     51  C   UNL A   1      42.490  32.043  35.675  1.00  0.00     0.029 A 
ATOM     52  N   UNL A   1      41.717  31.233  33.753  1.00  0.00    -0.354 N 
ATOM     53  N   UNL A   1      41.604  29.328  31.521  1.00  0.00    -0.248 NA
ATOM     54  C   UNL A   1      42.455  27.463  30.403  1.00  0.00     0.031 C 
ATOM     55  C   UNL A   1      43.256  30.926  35.325  1.00  0.00     0.029 A 
ATOM     56  C   UNL A   1      42.760  30.408  34.140  1.00  0.00     0.049 A 
ATOM     57  H   UNL A   1      41.176  31.117  32.939  1.00  0.00     0.167 HD
ATOM     58  C   UNL A   1      42.661  28.801  32.252  1.00  0.00     0.074 A 
ATOM     59  C   UNL A   1      43.123  27.631  31.534  1.00  0.00     0.031 C 
ATOM     60  C   UNL A   1      43.203  29.245  33.413  1.00  0.00     0.037 A 
BRANCH  47  61
ATOM     61  C   UNL A   1      40.533  34.358  35.640  1.00  0.00     0.057 A 
ATOM     62  C   UNL A   1      39.769  34.220  36.807  1.00  0.00     0.134 A 
ATOM     63  C   UNL A   1      41.293  35.526  35.502  1.00  0.00     0.134 A 
ATOM     64  F   UNL A   1      39.006  33.131  36.995  1.00  0.00    -0.206 F 
ATOM     65  C   UNL A   1      39.736  35.216  37.782  1.00  0.00     0.040 A 
ATOM     66  C   UNL A   1      41.291  36.518  36.485  1.00  0.00     0.040 A 
ATOM     67  F   UNL A   1      42.052  35.722  34.413  1.00  0.00    -0.206 F 
ATOM     68  C   UNL A   1      40.505  36.367  37.625  1.00  0.00     0.006 A 
ENDBRANCH  47  61
BRANCH  48  69
ATOM     69  C   UNL A   1      40.475  27.626  28.260  1.00  0.00     0.057 A 
ATOM     70  C   UNL A   1      39.801  26.407  28.397  1.00  0.00     0.134 A 
ATOM     71  C   UNL A   1      41.163  27.852  27.063  1.00  0.00     0.134 A 
ATOM     72  F   UNL A   1      39.138  26.126  29.529  1.00  0.00    -0.206 F 
ATOM     73  C   UNL A   1      39.830  25.438  27.393  1.00  0.00     0.040 A 
ATOM     74  C   UNL A   1      41.180  26.903  26.040  1.00  0.00     0.040 A 
ATOM     75  F   UNL A   1      41.821  29.004  26.866  1.00  0.00    -0.206 F 
ATOM     76  C   UNL A   1      40.519  25.686  26.208  1.00  0.00     0.006 A 
ENDBRANCH  48  69
BRANCH  60  77
ATOM     77  C   UNL A   1      44.334  28.444  33.988  1.00  0.00     0.057 A 
ATOM     78  C   UNL A   1      44.112  27.357  34.844  1.00  0.00     0.134 A 
ATOM     79  C   UNL A   1      45.661  28.752  33.664  1.00  0.00     0.134 A 
ATOM     80  F   UNL A   1      42.864  27.019  35.202  1.00  0.00    -0.206 F 
ATOM     81  C   UNL A   1      45.171  26.624  35.379  1.00  0.00     0.040 A 
ATOM     82  C   UNL A   1      46.727  28.008  34.172  1.00  0.00     0.040 A 
ATOM     83  F   UNL A   1      45.943  29.774  32.843  1.00  0.00    -0.206 F 
ATOM     84  C   UNL A   1      46.483  26.946  35.039  1.00  0.00     0.006 A 
ENDBRANCH  60  77
ENDBRANCH  34  35
ENDBRANCH  26  29
ENDBRANCH  24  25
ENDBRANCH  23  24
ENDBRANCH   1  23
TORSDOF 14
ENDMDL
