MODEL 1
REMARK VINA RESULT:     -11.0      0.000      0.000
REMARK SMILES CC(C)(C)N(CC(=O)NCCCCNC(=O)c1ccc(-c2c3nc(c(-c4c(F)cccc4F)c4ccc([nH]4)c(-c4c(F)cccc4F)c4nc(c(-c5c(F)cccc5F)c5ccc2[nH]5)C=C4)C=C3)cc1)C(=O)C1(c2ccccc2)CCC1
REMARK SMILES IDX 10 1 9 2 7 3 8 4 6 6 5 7 2 8 1 9 3 10 4 11 71 12 72 13 73 14
REMARK SMILES IDX 80 15 82 16 81 17 74 18 75 19 79 20 76 21 78 22 77 23 11 24
REMARK SMILES IDX 12 25 13 26 14 27 15 28 16 30 17 31 18 32 70 33 19 34 69 35
REMARK SMILES IDX 20 36 21 37 22 38 63 39 23 40 68 41 62 42 64 43 24 44 67 45
REMARK SMILES IDX 61 46 60 47 25 49 51 50 34 51 50 52 35 53 38 54 49 55 65 56
REMARK SMILES IDX 36 57 37 58 48 60 66 61 39 62 26 63 27 64 32 65 28 66 29 67
REMARK SMILES IDX 31 68 33 69 30 70 52 71 53 72 58 73 54 74 55 75 57 76 59 77
REMARK SMILES IDX 56 78 40 79 41 80 46 81 42 82 43 83 45 84 47 85 44 86
REMARK H PARENT 9 5 14 29 64 48 38 59
REMARK Flexibility Score: inf
ROOT
ATOM      1  C   UNL A   1      36.593  22.269  24.029  1.00  0.00     0.116 C 
ENDROOT
BRANCH   1   2
ATOM      2  N   UNL A   1      35.680  23.306  24.458  1.00  0.00    -0.355 N 
ATOM      3  C   UNL A   1      34.641  23.578  23.603  1.00  0.00     0.239 C 
ATOM      4  O   UNL A   1      34.817  24.419  22.724  1.00  0.00    -0.273 OA
ATOM      5  H   UNL A   1      35.797  23.788  25.308  1.00  0.00     0.163 HD
BRANCH   3   6
ATOM      6  C   UNL A   1      33.379  22.732  23.765  1.00  0.00     0.220 C 
BRANCH   6   7
ATOM      7  N   UNL A   1      32.366  23.439  24.542  1.00  0.00    -0.328 N 
BRANCH   7   8
ATOM      8  C   UNL A   1      32.190  23.084  26.016  1.00  0.00     0.035 C 
ATOM      9  C   UNL A   1      32.531  21.603  26.342  1.00  0.00     0.034 C 
ATOM     10  C   UNL A   1      30.743  23.322  26.489  1.00  0.00     0.034 C 
ATOM     11  C   UNL A   1      33.154  23.899  26.917  1.00  0.00     0.034 C 
ENDBRANCH   7   8
BRANCH   7  12
ATOM     12  C   UNL A   1      31.382  24.247  23.886  1.00  0.00     0.234 C 
ATOM     13  O   UNL A   1      30.509  23.626  23.241  1.00  0.00    -0.274 OA
BRANCH  12  14
ATOM     14  C   UNL A   1      31.215  25.876  23.967  1.00  0.00     0.074 C 
ATOM     15  C   UNL A   1      31.446  26.538  22.513  1.00  0.00     0.022 C 
ATOM     16  C   UNL A   1      29.699  26.307  23.723  1.00  0.00     0.022 C 
ATOM     17  C   UNL A   1      30.198  27.395  22.757  1.00  0.00     0.003 C 
BRANCH  14  18
ATOM     18  C   UNL A   1      31.946  26.722  25.178  1.00  0.00    -0.032 A 
ATOM     19  C   UNL A   1      31.246  27.127  26.341  1.00  0.00     0.005 A 
ATOM     20  C   UNL A   1      33.322  27.038  25.176  1.00  0.00     0.005 A 
ATOM     21  C   UNL A   1      31.828  27.901  27.352  1.00  0.00     0.000 A 
ATOM     22  C   UNL A   1      33.914  27.823  26.176  1.00  0.00     0.000 A 
ATOM     23  C   UNL A   1      33.161  28.271  27.256  1.00  0.00     0.000 A 
ENDBRANCH  14  18
ENDBRANCH  12  14
ENDBRANCH   7  12
ENDBRANCH   6   7
ENDBRANCH   3   6
ENDBRANCH   1   2
BRANCH   1  24
ATOM     24  C   UNL A   1      36.520  21.027  24.935  1.00  0.00     0.023 C 
BRANCH  24  25
ATOM     25  C   UNL A   1      37.720  20.087  24.827  1.00  0.00     0.023 C 
BRANCH  25  26
ATOM     26  C   UNL A   1      38.866  20.456  25.747  1.00  0.00     0.116 C 
BRANCH  26  27
ATOM     27  N   UNL A   1      39.927  19.459  25.737  1.00  0.00    -0.352 N 
ATOM     28  C   UNL A   1      41.244  19.612  26.067  1.00  0.00     0.251 C 
ATOM     29  H   UNL A   1      39.660  18.555  25.456  1.00  0.00     0.163 HD
ATOM     30  O   UNL A   1      42.048  18.703  25.896  1.00  0.00    -0.269 OA
BRANCH  28  31
ATOM     31  C   UNL A   1      41.675  20.910  26.600  1.00  0.00     0.039 A 
ATOM     32  C   UNL A   1      42.122  21.884  25.707  1.00  0.00     0.014 A 
ATOM     33  C   UNL A   1      41.561  21.175  27.968  1.00  0.00     0.014 A 
ATOM     34  C   UNL A   1      42.418  23.154  26.187  1.00  0.00     0.010 A 
ATOM     35  C   UNL A   1      41.779  22.461  28.430  1.00  0.00     0.010 A 
ATOM     36  C   UNL A   1      42.226  23.453  27.545  1.00  0.00    -0.014 A 
BRANCH  36  37
ATOM     37  C   UNL A   1      42.531  24.796  28.076  1.00  0.00     0.031 A 
ATOM     38  C   UNL A   1      43.942  25.121  28.469  1.00  0.00     0.074 A 
ATOM     39  C   UNL A   1      41.535  25.681  28.257  1.00  0.00     0.049 A 
ATOM     40  N   UNL A   1      44.414  26.207  29.023  1.00  0.00    -0.248 NA
ATOM     41  C   UNL A   1      44.951  24.071  28.246  1.00  0.00     0.031 C 
ATOM     42  C   UNL A   1      40.121  25.439  27.962  1.00  0.00     0.029 A 
ATOM     43  N   UNL A   1      41.562  26.961  28.742  1.00  0.00    -0.354 N 
ATOM     44  C   UNL A   1      45.763  25.960  29.236  1.00  0.00     0.074 A 
ATOM     45  C   UNL A   1      46.025  24.606  28.803  1.00  0.00     0.031 C 
ATOM     46  C   UNL A   1      39.419  26.548  28.249  1.00  0.00     0.029 A 
ATOM     47  C   UNL A   1      40.328  27.563  28.771  1.00  0.00     0.049 A 
ATOM     48  H   UNL A   1      42.387  27.408  29.041  1.00  0.00     0.167 HD
ATOM     49  C   UNL A   1      46.704  26.799  29.724  1.00  0.00     0.037 A 
ATOM     50  C   UNL A   1      39.979  28.798  29.172  1.00  0.00     0.037 A 
ATOM     51  C   UNL A   1      46.440  28.159  30.103  1.00  0.00     0.049 A 
ATOM     52  C   UNL A   1      41.051  29.727  29.667  1.00  0.00     0.074 A 
ATOM     53  C   UNL A   1      47.330  29.122  30.543  1.00  0.00     0.029 A 
ATOM     54  N   UNL A   1      45.185  28.751  30.076  1.00  0.00    -0.354 N 
ATOM     55  N   UNL A   1      42.337  29.505  29.806  1.00  0.00    -0.248 NA
ATOM     56  C   UNL A   1      40.628  31.080  30.052  1.00  0.00     0.031 C 
ATOM     57  C   UNL A   1      46.607  30.292  30.805  1.00  0.00     0.029 A 
ATOM     58  C   UNL A   1      45.274  30.065  30.500  1.00  0.00     0.049 A 
ATOM     59  H   UNL A   1      44.355  28.302  29.797  1.00  0.00     0.167 HD
ATOM     60  C   UNL A   1      42.879  30.694  30.272  1.00  0.00     0.074 A 
ATOM     61  C   UNL A   1      41.785  31.638  30.379  1.00  0.00     0.031 C 
ATOM     62  C   UNL A   1      44.166  30.980  30.586  1.00  0.00     0.037 A 
BRANCH  49  63
ATOM     63  C   UNL A   1      48.098  26.265  29.858  1.00  0.00     0.057 A 
ATOM     64  C   UNL A   1      48.558  25.696  31.053  1.00  0.00     0.134 A 
ATOM     65  C   UNL A   1      48.991  26.316  28.781  1.00  0.00     0.134 A 
ATOM     66  F   UNL A   1      47.759  25.636  32.130  1.00  0.00    -0.206 F 
ATOM     67  C   UNL A   1      49.865  25.222  31.181  1.00  0.00     0.040 A 
ATOM     68  C   UNL A   1      50.292  25.822  28.889  1.00  0.00     0.040 A 
ATOM     69  F   UNL A   1      48.615  26.850  27.610  1.00  0.00    -0.206 F 
ATOM     70  C   UNL A   1      50.734  25.279  30.093  1.00  0.00     0.006 A 
ENDBRANCH  49  63
BRANCH  50  71
ATOM     71  C   UNL A   1      38.567  29.236  29.082  1.00  0.00     0.057 A 
ATOM     72  C   UNL A   1      38.037  29.708  27.876  1.00  0.00     0.134 A 
ATOM     73  C   UNL A   1      37.711  29.183  30.187  1.00  0.00     0.134 A 
ATOM     74  F   UNL A   1      38.813  29.794  26.786  1.00  0.00    -0.206 F 
ATOM     75  C   UNL A   1      36.710  30.131  27.776  1.00  0.00     0.040 A 
ATOM     76  C   UNL A   1      36.377  29.584  30.098  1.00  0.00     0.040 A 
ATOM     77  F   UNL A   1      38.157  28.729  31.368  1.00  0.00    -0.206 F 
ATOM     78  C   UNL A   1      35.875  30.064  28.890  1.00  0.00     0.006 A 
ENDBRANCH  50  71
BRANCH  62  79
ATOM     79  C   UNL A   1      44.457  32.374  31.049  1.00  0.00     0.057 A 
ATOM     80  C   UNL A   1      44.466  32.709  32.408  1.00  0.00     0.134 A 
ATOM     81  C   UNL A   1      44.773  33.379  30.126  1.00  0.00     0.134 A 
ATOM     82  F   UNL A   1      44.159  31.792  33.337  1.00  0.00    -0.206 F 
ATOM     83  C   UNL A   1      44.765  34.004  32.834  1.00  0.00     0.040 A 
ATOM     84  C   UNL A   1      45.094  34.672  30.541  1.00  0.00     0.040 A 
ATOM     85  F   UNL A   1      44.788  33.116  28.811  1.00  0.00    -0.206 F 
ATOM     86  C   UNL A   1      45.087  34.986  31.899  1.00  0.00     0.006 A 
ENDBRANCH  62  79
ENDBRANCH  36  37
ENDBRANCH  28  31
ENDBRANCH  26  27
ENDBRANCH  25  26
ENDBRANCH  24  25
ENDBRANCH   1  24
TORSDOF 16
ENDMDL
MODEL 2
REMARK VINA RESULT:     -10.9      0.455      6.240
REMARK SMILES CC(C)(C)N(CC(=O)NCCCCNC(=O)c1ccc(-c2c3nc(c(-c4c(F)cccc4F)c4ccc([nH]4)c(-c4c(F)cccc4F)c4nc(c(-c5c(F)cccc5F)c5ccc2[nH]5)C=C4)C=C3)cc1)C(=O)C1(c2ccccc2)CCC1
REMARK SMILES IDX 10 1 9 2 7 3 8 4 6 6 5 7 2 8 1 9 3 10 4 11 71 12 72 13 73 14
REMARK SMILES IDX 80 15 82 16 81 17 74 18 75 19 79 20 76 21 78 22 77 23 11 24
REMARK SMILES IDX 12 25 13 26 14 27 15 28 16 30 17 31 18 32 70 33 19 34 69 35
REMARK SMILES IDX 20 36 21 37 22 38 63 39 23 40 68 41 62 42 64 43 24 44 67 45
REMARK SMILES IDX 61 46 60 47 25 49 51 50 34 51 50 52 35 53 38 54 49 55 65 56
REMARK SMILES IDX 36 57 37 58 48 60 66 61 39 62 26 63 27 64 32 65 28 66 29 67
REMARK SMILES IDX 31 68 33 69 30 70 52 71 53 72 58 73 54 74 55 75 57 76 59 77
REMARK SMILES IDX 56 78 40 79 41 80 46 81 42 82 43 83 45 84 47 85 44 86
REMARK H PARENT 9 5 14 29 64 48 38 59
REMARK Flexibility Score: inf
ROOT
ATOM      1  C   UNL A   1      36.341  22.782  23.652  1.00  0.00     0.116 C 
ENDROOT
BRANCH   1   2
ATOM      2  N   UNL A   1      35.361  23.737  24.120  1.00  0.00    -0.355 N 
ATOM      3  C   UNL A   1      34.286  23.945  23.292  1.00  0.00     0.239 C 
ATOM      4  O   UNL A   1      34.378  24.813  22.428  1.00  0.00    -0.273 OA
ATOM      5  H   UNL A   1      35.459  24.210  24.978  1.00  0.00     0.163 HD
BRANCH   3   6
ATOM      6  C   UNL A   1      33.097  23.002  23.462  1.00  0.00     0.220 C 
BRANCH   6   7
ATOM      7  N   UNL A   1      32.063  23.601  24.300  1.00  0.00    -0.328 N 
BRANCH   7   8
ATOM      8  C   UNL A   1      31.860  23.065  25.715  1.00  0.00     0.035 C 
ATOM      9  C   UNL A   1      32.903  23.600  26.736  1.00  0.00     0.034 C 
ATOM     10  C   UNL A   1      31.945  21.527  25.757  1.00  0.00     0.034 C 
ATOM     11  C   UNL A   1      30.496  23.509  26.303  1.00  0.00     0.034 C 
ENDBRANCH   7   8
BRANCH   7  12
ATOM     12  C   UNL A   1      31.087  24.481  23.730  1.00  0.00     0.234 C 
ATOM     13  O   UNL A   1      30.193  23.934  23.047  1.00  0.00    -0.274 OA
BRANCH  12  14
ATOM     14  C   UNL A   1      30.953  26.099  23.953  1.00  0.00     0.074 C 
ATOM     15  C   UNL A   1      31.071  26.873  22.541  1.00  0.00     0.022 C 
ATOM     16  C   UNL A   1      29.428  26.562  23.873  1.00  0.00     0.022 C 
ATOM     17  C   UNL A   1      29.862  27.719  22.957  1.00  0.00     0.003 C 
BRANCH  14  18
ATOM     18  C   UNL A   1      31.796  26.840  25.160  1.00  0.00    -0.032 A 
ATOM     19  C   UNL A   1      31.176  27.259  26.363  1.00  0.00     0.005 A 
ATOM     20  C   UNL A   1      33.192  27.044  25.113  1.00  0.00     0.005 A 
ATOM     21  C   UNL A   1      31.858  27.946  27.374  1.00  0.00     0.000 A 
ATOM     22  C   UNL A   1      33.884  27.742  26.113  1.00  0.00     0.000 A 
ATOM     23  C   UNL A   1      33.211  28.210  27.236  1.00  0.00     0.000 A 
ENDBRANCH  14  18
ENDBRANCH  12  14
ENDBRANCH   7  12
ENDBRANCH   6   7
ENDBRANCH   3   6
ENDBRANCH   1   2
BRANCH   1  24
ATOM     24  C   UNL A   1      37.417  22.492  24.713  1.00  0.00     0.023 C 
BRANCH  24  25
ATOM     25  C   UNL A   1      37.927  21.051  24.730  1.00  0.00     0.023 C 
BRANCH  25  26
ATOM     26  C   UNL A   1      38.620  20.667  26.020  1.00  0.00     0.116 C 
BRANCH  26  27
ATOM     27  N   UNL A   1      39.641  19.648  25.818  1.00  0.00    -0.352 N 
ATOM     28  C   UNL A   1      40.992  19.748  25.998  1.00  0.00     0.251 C 
ATOM     29  H   UNL A   1      39.315  18.772  25.510  1.00  0.00     0.163 HD
ATOM     30  O   UNL A   1      41.742  18.835  25.672  1.00  0.00    -0.269 OA
BRANCH  28  31
ATOM     31  C   UNL A   1      41.523  20.995  26.562  1.00  0.00     0.039 A 
ATOM     32  C   UNL A   1      41.954  21.992  25.688  1.00  0.00     0.014 A 
ATOM     33  C   UNL A   1      41.515  21.192  27.946  1.00  0.00     0.014 A 
ATOM     34  C   UNL A   1      42.346  23.220  26.207  1.00  0.00     0.010 A 
ATOM     35  C   UNL A   1      41.828  22.442  28.453  1.00  0.00     0.010 A 
ATOM     36  C   UNL A   1      42.262  23.457  27.589  1.00  0.00    -0.014 A 
BRANCH  36  37
ATOM     37  C   UNL A   1      42.670  24.754  28.161  1.00  0.00     0.031 A 
ATOM     38  C   UNL A   1      41.628  25.809  28.392  1.00  0.00     0.074 A 
ATOM     39  C   UNL A   1      43.970  24.993  28.408  1.00  0.00     0.049 A 
ATOM     40  N   UNL A   1      41.777  27.037  28.813  1.00  0.00    -0.248 NA
ATOM     41  C   UNL A   1      40.237  25.448  28.069  1.00  0.00     0.031 C 
ATOM     42  C   UNL A   1      45.067  24.054  28.162  1.00  0.00     0.029 A 
ATOM     43  N   UNL A   1      44.589  26.105  28.913  1.00  0.00    -0.354 N 
ATOM     44  C   UNL A   1      40.508  27.599  28.781  1.00  0.00     0.074 A 
ATOM     45  C   UNL A   1      39.610  26.599  28.250  1.00  0.00     0.031 C 
ATOM     46  C   UNL A   1      46.223  24.623  28.542  1.00  0.00     0.029 A 
ATOM     47  C   UNL A   1      45.950  25.970  29.031  1.00  0.00     0.049 A 
ATOM     48  H   UNL A   1      44.103  26.924  29.168  1.00  0.00     0.167 HD
ATOM     49  C   UNL A   1      40.124  28.831  29.185  1.00  0.00     0.037 A 
ATOM     50  C   UNL A   1      46.867  26.841  29.488  1.00  0.00     0.037 A 
ATOM     51  C   UNL A   1      41.019  29.797  29.758  1.00  0.00     0.049 A 
ATOM     52  C   UNL A   1      46.409  28.186  29.974  1.00  0.00     0.074 A 
ATOM     53  C   UNL A   1      40.728  31.049  30.267  1.00  0.00     0.029 A 
ATOM     54  N   UNL A   1      42.386  29.609  29.905  1.00  0.00    -0.354 N 
ATOM     55  N   UNL A   1      45.195  28.686  29.998  1.00  0.00    -0.248 NA
ATOM     56  C   UNL A   1      47.441  29.086  30.504  1.00  0.00     0.031 C 
ATOM     57  C   UNL A   1      41.925  31.629  30.701  1.00  0.00     0.029 A 
ATOM     58  C   UNL A   1      42.955  30.726  30.489  1.00  0.00     0.049 A 
ATOM     59  H   UNL A   1      42.877  28.801  29.632  1.00  0.00     0.167 HD
ATOM     60  C   UNL A   1      45.315  29.947  30.565  1.00  0.00     0.074 A 
ATOM     61  C   UNL A   1      46.717  30.130  30.883  1.00  0.00     0.031 C 
ATOM     62  C   UNL A   1      44.353  30.872  30.800  1.00  0.00     0.037 A 
BRANCH  49  63
ATOM     63  C   UNL A   1      38.676  29.184  29.028  1.00  0.00     0.057 A 
ATOM     64  C   UNL A   1      38.143  29.585  27.795  1.00  0.00     0.134 A 
ATOM     65  C   UNL A   1      37.802  29.122  30.120  1.00  0.00     0.134 A 
ATOM     66  F   UNL A   1      38.932  29.685  26.714  1.00  0.00    -0.206 F 
ATOM     67  C   UNL A   1      36.799  29.936  27.660  1.00  0.00     0.040 A 
ATOM     68  C   UNL A   1      36.451  29.446  29.992  1.00  0.00     0.040 A 
ATOM     69  F   UNL A   1      38.248  28.748  31.329  1.00  0.00    -0.206 F 
ATOM     70  C   UNL A   1      35.947  29.861  28.760  1.00  0.00     0.006 A 
ENDBRANCH  49  63
BRANCH  50  71
ATOM     71  C   UNL A   1      48.296  26.451  29.544  1.00  0.00     0.057 A 
ATOM     72  C   UNL A   1      49.164  26.749  28.488  1.00  0.00     0.134 A 
ATOM     73  C   UNL A   1      48.831  25.786  30.653  1.00  0.00     0.134 A 
ATOM     74  F   UNL A   1      48.705  27.373  27.393  1.00  0.00    -0.206 F 
ATOM     75  C   UNL A   1      50.511  26.383  28.523  1.00  0.00     0.040 A 
ATOM     76  C   UNL A   1      50.180  25.432  30.710  1.00  0.00     0.040 A 
ATOM     77  F   UNL A   1      48.052  25.484  31.702  1.00  0.00    -0.206 F 
ATOM     78  C   UNL A   1      51.022  25.726  29.640  1.00  0.00     0.006 A 
ENDBRANCH  50  71
BRANCH  62  79
ATOM     79  C   UNL A   1      44.786  32.149  31.452  1.00  0.00     0.057 A 
ATOM     80  C   UNL A   1      45.174  33.263  30.699  1.00  0.00     0.134 A 
ATOM     81  C   UNL A   1      44.772  32.275  32.847  1.00  0.00     0.134 A 
ATOM     82  F   UNL A   1      45.219  33.196  29.360  1.00  0.00    -0.206 F 
ATOM     83  C   UNL A   1      45.550  34.458  31.314  1.00  0.00     0.040 A 
ATOM     84  C   UNL A   1      45.125  33.472  33.471  1.00  0.00     0.040 A 
ATOM     85  F   UNL A   1      44.402  31.245  33.621  1.00  0.00    -0.206 F 
ATOM     86  C   UNL A   1      45.519  34.565  32.703  1.00  0.00     0.006 A 
ENDBRANCH  62  79
ENDBRANCH  36  37
ENDBRANCH  28  31
ENDBRANCH  26  27
ENDBRANCH  25  26
ENDBRANCH  24  25
ENDBRANCH   1  24
TORSDOF 16
ENDMDL
MODEL 3
REMARK VINA RESULT:     -10.8      3.993      7.965
REMARK SMILES CC(C)(C)N(CC(=O)NCCCCNC(=O)c1ccc(-c2c3nc(c(-c4c(F)cccc4F)c4ccc([nH]4)c(-c4c(F)cccc4F)c4nc(c(-c5c(F)cccc5F)c5ccc2[nH]5)C=C4)C=C3)cc1)C(=O)C1(c2ccccc2)CCC1
REMARK SMILES IDX 10 1 9 2 7 3 8 4 6 6 5 7 2 8 1 9 3 10 4 11 71 12 72 13 73 14
REMARK SMILES IDX 80 15 82 16 81 17 74 18 75 19 79 20 76 21 78 22 77 23 11 24
REMARK SMILES IDX 12 25 13 26 14 27 15 28 16 30 17 31 18 32 70 33 19 34 69 35
REMARK SMILES IDX 20 36 21 37 22 38 63 39 23 40 68 41 62 42 64 43 24 44 67 45
REMARK SMILES IDX 61 46 60 47 25 49 51 50 34 51 50 52 35 53 38 54 49 55 65 56
REMARK SMILES IDX 36 57 37 58 48 60 66 61 39 62 26 63 27 64 32 65 28 66 29 67
REMARK SMILES IDX 31 68 33 69 30 70 52 71 53 72 58 73 54 74 55 75 57 76 59 77
REMARK SMILES IDX 56 78 40 79 41 80 46 81 42 82 43 83 45 84 47 85 44 86
REMARK H PARENT 9 5 14 29 64 48 38 59
REMARK Flexibility Score: inf
ROOT
ATOM      1  C   UNL A   1      36.372  22.947  23.481  1.00  0.00     0.116 C 
ENDROOT
BRANCH   1   2
ATOM      2  N   UNL A   1      35.382  23.881  23.969  1.00  0.00    -0.355 N 
ATOM      3  C   UNL A   1      34.272  24.042  23.178  1.00  0.00     0.239 C 
ATOM      4  O   UNL A   1      34.307  24.898  22.296  1.00  0.00    -0.273 OA
ATOM      5  H   UNL A   1      35.496  24.371  24.815  1.00  0.00     0.163 HD
BRANCH   3   6
ATOM      6  C   UNL A   1      33.118  23.068  23.405  1.00  0.00     0.220 C 
BRANCH   6   7
ATOM      7  N   UNL A   1      32.103  23.645  24.281  1.00  0.00    -0.328 N 
BRANCH   7   8
ATOM      8  C   UNL A   1      31.953  23.095  25.696  1.00  0.00     0.035 C 
ATOM      9  C   UNL A   1      30.570  23.403  26.338  1.00  0.00     0.034 C 
ATOM     10  C   UNL A   1      33.022  23.669  26.646  1.00  0.00     0.034 C 
ATOM     11  C   UNL A   1      32.041  21.547  25.718  1.00  0.00     0.034 C 
ENDBRANCH   7   8
BRANCH   7  12
ATOM     12  C   UNL A   1      31.097  24.516  23.750  1.00  0.00     0.234 C 
ATOM     13  O   UNL A   1      30.182  23.961  23.104  1.00  0.00    -0.274 OA
BRANCH  12  14
ATOM     14  C   UNL A   1      30.959  26.134  23.976  1.00  0.00     0.074 C 
ATOM     15  C   UNL A   1      31.060  26.910  22.564  1.00  0.00     0.022 C 
ATOM     16  C   UNL A   1      29.432  26.590  23.912  1.00  0.00     0.022 C 
ATOM     17  C   UNL A   1      29.851  27.750  22.993  1.00  0.00     0.003 C 
BRANCH  14  18
ATOM     18  C   UNL A   1      31.811  26.876  25.175  1.00  0.00    -0.032 A 
ATOM     19  C   UNL A   1      31.218  27.232  26.411  1.00  0.00     0.005 A 
ATOM     20  C   UNL A   1      33.195  27.144  25.086  1.00  0.00     0.005 A 
ATOM     21  C   UNL A   1      31.904  27.921  27.419  1.00  0.00     0.000 A 
ATOM     22  C   UNL A   1      33.891  27.843  26.083  1.00  0.00     0.000 A 
ATOM     23  C   UNL A   1      33.239  28.248  27.242  1.00  0.00     0.000 A 
ENDBRANCH  14  18
ENDBRANCH  12  14
ENDBRANCH   7  12
ENDBRANCH   6   7
ENDBRANCH   3   6
ENDBRANCH   1   2
BRANCH   1  24
ATOM     24  C   UNL A   1      37.415  22.597  24.558  1.00  0.00     0.023 C 
BRANCH  24  25
ATOM     25  C   UNL A   1      37.086  23.113  25.958  1.00  0.00     0.023 C 
BRANCH  25  26
ATOM     26  C   UNL A   1      37.990  24.237  26.420  1.00  0.00     0.116 C 
BRANCH  26  27
ATOM     27  N   UNL A   1      39.384  24.007  26.069  1.00  0.00    -0.352 N 
ATOM     28  C   UNL A   1      40.491  24.694  26.479  1.00  0.00     0.251 C 
ATOM     29  H   UNL A   1      39.551  23.256  25.454  1.00  0.00     0.163 HD
ATOM     30  O   UNL A   1      41.596  24.455  26.004  1.00  0.00    -0.269 OA
BRANCH  28  31
ATOM     31  C   UNL A   1      40.315  25.751  27.482  1.00  0.00     0.039 A 
ATOM     32  C   UNL A   1      39.459  25.515  28.557  1.00  0.00     0.014 A 
ATOM     33  C   UNL A   1      41.056  26.932  27.386  1.00  0.00     0.014 A 
ATOM     34  C   UNL A   1      39.377  26.460  29.573  1.00  0.00     0.010 A 
ATOM     35  C   UNL A   1      41.034  27.833  28.437  1.00  0.00     0.010 A 
ATOM     36  C   UNL A   1      40.181  27.611  29.528  1.00  0.00    -0.014 A 
BRANCH  36  37
ATOM     37  C   UNL A   1      40.113  28.626  30.597  1.00  0.00     0.031 A 
ATOM     38  C   UNL A   1      39.093  29.721  30.498  1.00  0.00     0.074 A 
ATOM     39  C   UNL A   1      41.001  28.589  31.605  1.00  0.00     0.049 A 
ATOM     40  N   UNL A   1      38.909  30.750  31.283  1.00  0.00    -0.248 NA
ATOM     41  C   UNL A   1      38.182  29.676  29.342  1.00  0.00     0.031 C 
ATOM     42  C   UNL A   1      42.070  27.599  31.760  1.00  0.00     0.029 A 
ATOM     43  N   UNL A   1      41.151  29.414  32.688  1.00  0.00    -0.354 N 
ATOM     44  C   UNL A   1      37.884  31.484  30.702  1.00  0.00     0.074 A 
ATOM     45  C   UNL A   1      37.520  30.815  29.473  1.00  0.00     0.031 C 
ATOM     46  C   UNL A   1      42.749  27.861  32.889  1.00  0.00     0.029 A 
ATOM     47  C   UNL A   1      42.181  29.048  33.519  1.00  0.00     0.049 A 
ATOM     48  H   UNL A   1      40.574  30.195  32.855  1.00  0.00     0.167 HD
ATOM     49  C   UNL A   1      37.283  32.602  31.167  1.00  0.00     0.037 A 
ATOM     50  C   UNL A   1      42.610  29.613  34.662  1.00  0.00     0.037 A 
ATOM     51  C   UNL A   1      37.620  33.228  32.415  1.00  0.00     0.049 A 
ATOM     52  C   UNL A   1      41.894  30.827  35.182  1.00  0.00     0.074 A 
ATOM     53  C   UNL A   1      37.029  34.322  33.020  1.00  0.00     0.029 A 
ATOM     54  N   UNL A   1      38.640  32.803  33.255  1.00  0.00    -0.354 N 
ATOM     55  N   UNL A   1      40.883  31.478  34.656  1.00  0.00    -0.248 NA
ATOM     56  C   UNL A   1      42.371  31.381  36.456  1.00  0.00     0.031 C 
ATOM     57  C   UNL A   1      37.710  34.574  34.218  1.00  0.00     0.029 A 
ATOM     58  C   UNL A   1      38.702  33.619  34.370  1.00  0.00     0.049 A 
ATOM     59  H   UNL A   1      39.231  32.036  33.081  1.00  0.00     0.167 HD
ATOM     60  C   UNL A   1      40.588  32.502  35.545  1.00  0.00     0.074 A 
ATOM     61  C   UNL A   1      41.519  32.378  36.649  1.00  0.00     0.031 C 
ATOM     62  C   UNL A   1      39.636  33.462  35.456  1.00  0.00     0.037 A 
BRANCH  49  63
ATOM     63  C   UNL A   1      36.196  33.199  30.325  1.00  0.00     0.057 A 
ATOM     64  C   UNL A   1      36.482  33.990  29.204  1.00  0.00     0.134 A 
ATOM     65  C   UNL A   1      34.849  32.979  30.634  1.00  0.00     0.134 A 
ATOM     66  F   UNL A   1      37.753  34.255  28.866  1.00  0.00    -0.206 F 
ATOM     67  C   UNL A   1      35.467  34.563  28.437  1.00  0.00     0.040 A 
ATOM     68  C   UNL A   1      33.824  33.527  29.860  1.00  0.00     0.040 A 
ATOM     69  F   UNL A   1      34.506  32.233  31.695  1.00  0.00    -0.206 F 
ATOM     70  C   UNL A   1      34.132  34.327  28.762  1.00  0.00     0.006 A 
ENDBRANCH  49  63
BRANCH  50  71
ATOM     71  C   UNL A   1      43.741  29.012  35.406  1.00  0.00     0.057 A 
ATOM     72  C   UNL A   1      45.055  29.439  35.183  1.00  0.00     0.134 A 
ATOM     73  C   UNL A   1      43.540  28.011  36.362  1.00  0.00     0.134 A 
ATOM     74  F   UNL A   1      45.310  30.386  34.269  1.00  0.00    -0.206 F 
ATOM     75  C   UNL A   1      46.133  28.878  35.871  1.00  0.00     0.040 A 
ATOM     76  C   UNL A   1      44.606  27.455  37.072  1.00  0.00     0.040 A 
ATOM     77  F   UNL A   1      42.303  27.568  36.629  1.00  0.00    -0.206 F 
ATOM     78  C   UNL A   1      45.908  27.886  36.823  1.00  0.00     0.006 A 
ENDBRANCH  50  71
BRANCH  62  79
ATOM     79  C   UNL A   1      39.541  34.431  36.593  1.00  0.00     0.057 A 
ATOM     80  C   UNL A   1      38.839  34.122  37.764  1.00  0.00     0.134 A 
ATOM     81  C   UNL A   1      40.196  35.667  36.530  1.00  0.00     0.134 A 
ATOM     82  F   UNL A   1      38.182  32.959  37.876  1.00  0.00    -0.206 F 
ATOM     83  C   UNL A   1      38.779  35.020  38.831  1.00  0.00     0.040 A 
ATOM     84  C   UNL A   1      40.161  36.563  37.599  1.00  0.00     0.040 A 
ATOM     85  F   UNL A   1      40.891  36.016  35.438  1.00  0.00    -0.206 F 
ATOM     86  C   UNL A   1      39.447  36.240  38.751  1.00  0.00     0.006 A 
ENDBRANCH  62  79
ENDBRANCH  36  37
ENDBRANCH  28  31
ENDBRANCH  26  27
ENDBRANCH  25  26
ENDBRANCH  24  25
ENDBRANCH   1  24
TORSDOF 16
ENDMDL
