MODEL 1
REMARK VINA RESULT:     -12.8      0.000      0.000
REMARK SMILES CC1(C)[C@H](C(=O)NCCCCNC(=O)c2ccc(-c3c4nc(c(-c5c(F)cccc5F)c5ccc([nH]5)c(-c5c(F)cccc5F)c5nc(c(-c6c(F)cccc6F)c6ccc3[nH]6)C=C5)C=C4)cc2)[C@@H]1C(=O)Nc1ccc(NC(=O)C2CCC2)cc1
REMARK SMILES IDX 8 1 7 2 5 3 6 4 4 6 1 7 2 8 3 9 69 10 70 11 71 12 72 13
REMARK SMILES IDX 73 15 74 16 85 17 75 18 84 19 76 20 77 21 78 22 79 24 80 25
REMARK SMILES IDX 81 26 83 27 82 28 9 29 10 30 11 31 12 32 13 33 14 35 15 36
REMARK SMILES IDX 16 37 68 38 17 39 67 40 18 41 19 42 20 43 61 44 21 45 66 46
REMARK SMILES IDX 60 47 62 48 22 49 65 50 59 51 58 52 23 54 49 55 32 56 48 57
REMARK SMILES IDX 33 58 36 59 47 60 63 61 34 62 35 63 46 65 64 66 37 67 24 68
REMARK SMILES IDX 25 69 30 70 26 71 27 72 29 73 31 74 28 75 50 76 51 77 56 78
REMARK SMILES IDX 52 79 53 80 55 81 57 82 54 83 38 84 39 85 44 86 40 87 41 88
REMARK SMILES IDX 43 89 45 90 42 91
REMARK H PARENT 7 5 72 14 77 23 12 34 62 53 36 64
REMARK Flexibility Score: inf
ROOT
ATOM      1  C   UNL A   1      32.889  29.638  25.548  1.00  0.00     0.116 C 
ENDROOT
BRANCH   1   2
ATOM      2  N   UNL A   1      32.039  29.502  24.385  1.00  0.00    -0.356 N 
ATOM      3  C   UNL A   1      31.357  28.482  23.790  1.00  0.00     0.224 C 
ATOM      4  O   UNL A   1      30.746  28.798  22.767  1.00  0.00    -0.275 OA
ATOM      5  H   UNL A   1      31.927  30.354  23.906  1.00  0.00     0.163 HD
BRANCH   3   6
ATOM      6  C   UNL A   1      31.249  27.062  24.210  1.00  0.00     0.098 C 
ATOM      7  C   UNL A   1      30.097  24.861  23.553  1.00  0.00     0.013 C 
ATOM      8  C   UNL A   1      31.228  25.838  23.310  1.00  0.00    -0.011 C 
ATOM      9  C   UNL A   1      31.560  25.955  21.844  1.00  0.00     0.013 C 
ATOM     10  C   UNL A   1      32.271  25.992  24.438  1.00  0.00     0.098 C 
BRANCH  10  11
ATOM     11  C   UNL A   1      33.732  26.098  24.251  1.00  0.00     0.228 C 
ATOM     12  O   UNL A   1      34.266  27.199  24.158  1.00  0.00    -0.274 OA
ATOM     13  N   UNL A   1      34.502  24.961  24.133  1.00  0.00    -0.326 N 
ATOM     14  H   UNL A   1      35.414  25.079  23.783  1.00  0.00     0.169 HD
BRANCH  13  15
ATOM     15  C   UNL A   1      34.116  23.658  24.460  1.00  0.00     0.041 A 
ATOM     16  C   UNL A   1      34.303  23.289  25.783  1.00  0.00     0.028 A 
ATOM     17  C   UNL A   1      33.472  22.788  23.585  1.00  0.00     0.028 A 
ATOM     18  C   UNL A   1      33.674  22.154  26.272  1.00  0.00     0.028 A 
ATOM     19  C   UNL A   1      33.015  21.548  24.061  1.00  0.00     0.028 A 
ATOM     20  C   UNL A   1      33.120  21.220  25.421  1.00  0.00     0.041 A 
BRANCH  20  21
ATOM     21  N   UNL A   1      32.654  19.975  25.852  1.00  0.00    -0.326 N 
ATOM     22  C   UNL A   1      32.849  18.677  25.419  1.00  0.00     0.227 C 
ATOM     23  H   UNL A   1      32.058  20.035  26.633  1.00  0.00     0.169 HD
ATOM     24  O   UNL A   1      32.274  17.817  26.111  1.00  0.00    -0.274 OA
BRANCH  22  25
ATOM     25  C   UNL A   1      33.692  18.251  24.187  1.00  0.00     0.079 C 
ATOM     26  C   UNL A   1      34.412  16.865  24.372  1.00  0.00     0.013 C 
ATOM     27  C   UNL A   1      33.131  17.611  22.877  1.00  0.00     0.013 C 
ATOM     28  C   UNL A   1      34.365  16.701  22.850  1.00  0.00     0.002 C 
ENDBRANCH  22  25
ENDBRANCH  20  21
ENDBRANCH  13  15
ENDBRANCH  10  11
ENDBRANCH   3   6
ENDBRANCH   1   2
BRANCH   1  29
ATOM     29  C   UNL A   1      32.086  30.064  26.773  1.00  0.00     0.023 C 
BRANCH  29  30
ATOM     30  C   UNL A   1      31.790  31.567  26.844  1.00  0.00     0.023 C 
BRANCH  30  31
ATOM     31  C   UNL A   1      32.923  32.435  27.390  1.00  0.00     0.116 C 
BRANCH  31  32
ATOM     32  N   UNL A   1      32.532  33.826  27.579  1.00  0.00    -0.352 N 
ATOM     33  C   UNL A   1      33.034  34.759  28.454  1.00  0.00     0.251 C 
ATOM     34  H   UNL A   1      31.804  34.142  26.998  1.00  0.00     0.163 HD
ATOM     35  O   UNL A   1      32.489  35.850  28.586  1.00  0.00    -0.269 OA
BRANCH  33  36
ATOM     36  C   UNL A   1      34.224  34.427  29.258  1.00  0.00     0.039 A 
ATOM     37  C   UNL A   1      34.050  33.845  30.517  1.00  0.00     0.014 A 
ATOM     38  C   UNL A   1      35.504  34.638  28.740  1.00  0.00     0.014 A 
ATOM     39  C   UNL A   1      35.164  33.382  31.218  1.00  0.00     0.010 A 
ATOM     40  C   UNL A   1      36.607  34.123  29.413  1.00  0.00     0.010 A 
ATOM     41  C   UNL A   1      36.443  33.469  30.645  1.00  0.00    -0.014 A 
BRANCH  41  42
ATOM     42  C   UNL A   1      37.621  32.829  31.280  1.00  0.00     0.031 A 
ATOM     43  C   UNL A   1      38.252  31.619  30.660  1.00  0.00     0.074 A 
ATOM     44  C   UNL A   1      38.052  33.282  32.474  1.00  0.00     0.049 A 
ATOM     45  N   UNL A   1      39.198  30.848  31.132  1.00  0.00    -0.248 NA
ATOM     46  C   UNL A   1      37.734  31.205  29.347  1.00  0.00     0.031 C 
ATOM     47  C   UNL A   1      37.492  34.427  33.198  1.00  0.00     0.029 A 
ATOM     48  N   UNL A   1      39.045  32.821  33.300  1.00  0.00    -0.354 N 
ATOM     49  C   UNL A   1      39.380  29.852  30.183  1.00  0.00     0.074 A 
ATOM     50  C   UNL A   1      38.417  30.090  29.129  1.00  0.00     0.031 C 
ATOM     51  C   UNL A   1      38.159  34.585  34.353  1.00  0.00     0.029 A 
ATOM     52  C   UNL A   1      39.159  33.530  34.472  1.00  0.00     0.049 A 
ATOM     53  H   UNL A   1      39.622  32.057  33.075  1.00  0.00     0.167 HD
ATOM     54  C   UNL A   1      40.281  28.841  30.183  1.00  0.00     0.037 A 
ATOM     55  C   UNL A   1      39.965  33.339  35.533  1.00  0.00     0.037 A 
ATOM     56  C   UNL A   1      41.251  28.621  31.224  1.00  0.00     0.049 A 
ATOM     57  C   UNL A   1      40.931  32.188  35.526  1.00  0.00     0.074 A 
ATOM     58  C   UNL A   1      42.255  27.669  31.278  1.00  0.00     0.029 A 
ATOM     59  N   UNL A   1      41.331  29.356  32.396  1.00  0.00    -0.354 N 
ATOM     60  N   UNL A   1      41.137  31.292  34.591  1.00  0.00    -0.248 NA
ATOM     61  C   UNL A   1      41.768  32.017  36.721  1.00  0.00     0.031 C 
ATOM     62  C   UNL A   1      42.917  27.803  32.504  1.00  0.00     0.029 A 
ATOM     63  C   UNL A   1      42.349  28.861  33.195  1.00  0.00     0.049 A 
ATOM     64  H   UNL A   1      40.753  30.119  32.625  1.00  0.00     0.167 HD
ATOM     65  C   UNL A   1      42.138  30.461  35.078  1.00  0.00     0.074 A 
ATOM     66  C   UNL A   1      42.507  30.968  36.383  1.00  0.00     0.031 C 
ATOM     67  C   UNL A   1      42.698  29.374  34.494  1.00  0.00     0.037 A 
BRANCH  54  68
ATOM     68  C   UNL A   1      40.258  27.897  29.018  1.00  0.00     0.057 A 
ATOM     69  C   UNL A   1      40.997  28.146  27.854  1.00  0.00     0.134 A 
ATOM     70  C   UNL A   1      39.515  26.712  29.072  1.00  0.00     0.134 A 
ATOM     71  F   UNL A   1      41.720  29.269  27.735  1.00  0.00    -0.206 F 
ATOM     72  C   UNL A   1      40.977  27.261  26.775  1.00  0.00     0.040 A 
ATOM     73  C   UNL A   1      39.507  25.808  28.009  1.00  0.00     0.040 A 
ATOM     74  F   UNL A   1      38.790  26.410  30.160  1.00  0.00    -0.206 F 
ATOM     75  C   UNL A   1      40.234  26.085  26.853  1.00  0.00     0.006 A 
ENDBRANCH  54  68
BRANCH  55  76
ATOM     76  C   UNL A   1      39.895  34.262  36.693  1.00  0.00     0.057 A 
ATOM     77  C   UNL A   1      40.691  35.411  36.744  1.00  0.00     0.134 A 
ATOM     78  C   UNL A   1      39.032  34.023  37.769  1.00  0.00     0.134 A 
ATOM     79  F   UNL A   1      41.550  35.681  35.751  1.00  0.00    -0.206 F 
ATOM     80  C   UNL A   1      40.640  36.285  37.831  1.00  0.00     0.040 A 
ATOM     81  C   UNL A   1      38.956  34.900  38.851  1.00  0.00     0.040 A 
ATOM     82  F   UNL A   1      38.239  32.942  37.775  1.00  0.00    -0.206 F 
ATOM     83  C   UNL A   1      39.767  36.034  38.886  1.00  0.00     0.006 A 
ENDBRANCH  55  76
BRANCH  67  84
ATOM     84  C   UNL A   1      43.776  28.667  35.258  1.00  0.00     0.057 A 
ATOM     85  C   UNL A   1      45.126  29.006  35.104  1.00  0.00     0.134 A 
ATOM     86  C   UNL A   1      43.459  27.673  36.193  1.00  0.00     0.134 A 
ATOM     87  F   UNL A   1      45.495  29.939  34.214  1.00  0.00    -0.206 F 
ATOM     88  C   UNL A   1      46.125  28.374  35.848  1.00  0.00     0.040 A 
ATOM     89  C   UNL A   1      44.446  27.049  36.957  1.00  0.00     0.040 A 
ATOM     90  F   UNL A   1      42.183  27.308  36.391  1.00  0.00    -0.206 F 
ATOM     91  C   UNL A   1      45.784  27.398  36.783  1.00  0.00     0.006 A 
ENDBRANCH  67  84
ENDBRANCH  41  42
ENDBRANCH  33  36
ENDBRANCH  31  32
ENDBRANCH  30  31
ENDBRANCH  29  30
ENDBRANCH   1  29
TORSDOF 15
ENDMDL
MODEL 2
REMARK VINA RESULT:     -12.7      0.514      5.970
REMARK SMILES CC1(C)[C@H](C(=O)NCCCCNC(=O)c2ccc(-c3c4nc(c(-c5c(F)cccc5F)c5ccc([nH]5)c(-c5c(F)cccc5F)c5nc(c(-c6c(F)cccc6F)c6ccc3[nH]6)C=C5)C=C4)cc2)[C@@H]1C(=O)Nc1ccc(NC(=O)C2CCC2)cc1
REMARK SMILES IDX 8 1 7 2 5 3 6 4 4 6 1 7 2 8 3 9 69 10 70 11 71 12 72 13
REMARK SMILES IDX 73 15 74 16 85 17 75 18 84 19 76 20 77 21 78 22 79 24 80 25
REMARK SMILES IDX 81 26 83 27 82 28 9 29 10 30 11 31 12 32 13 33 14 35 15 36
REMARK SMILES IDX 16 37 68 38 17 39 67 40 18 41 19 42 20 43 61 44 21 45 66 46
REMARK SMILES IDX 60 47 62 48 22 49 65 50 59 51 58 52 23 54 49 55 32 56 48 57
REMARK SMILES IDX 33 58 36 59 47 60 63 61 34 62 35 63 46 65 64 66 37 67 24 68
REMARK SMILES IDX 25 69 30 70 26 71 27 72 29 73 31 74 28 75 50 76 51 77 56 78
REMARK SMILES IDX 52 79 53 80 55 81 57 82 54 83 38 84 39 85 44 86 40 87 41 88
REMARK SMILES IDX 43 89 45 90 42 91
REMARK H PARENT 7 5 72 14 77 23 12 34 62 53 36 64
REMARK Flexibility Score: inf
ROOT
ATOM      1  C   UNL A   1      32.654  29.876  25.683  1.00  0.00     0.116 C 
ENDROOT
BRANCH   1   2
ATOM      2  N   UNL A   1      31.890  29.717  24.466  1.00  0.00    -0.356 N 
ATOM      3  C   UNL A   1      31.276  28.679  23.829  1.00  0.00     0.224 C 
ATOM      4  O   UNL A   1      30.730  28.978  22.764  1.00  0.00    -0.275 OA
ATOM      5  H   UNL A   1      31.790  30.565  23.977  1.00  0.00     0.163 HD
BRANCH   3   6
ATOM      6  C   UNL A   1      31.173  27.258  24.245  1.00  0.00     0.098 C 
ATOM      7  C   UNL A   1      30.011  25.060  23.599  1.00  0.00     0.013 C 
ATOM      8  C   UNL A   1      31.138  26.037  23.341  1.00  0.00    -0.011 C 
ATOM      9  C   UNL A   1      31.447  26.159  21.870  1.00  0.00     0.013 C 
ATOM     10  C   UNL A   1      32.199  26.187  24.454  1.00  0.00     0.098 C 
BRANCH  10  11
ATOM     11  C   UNL A   1      33.656  26.293  24.244  1.00  0.00     0.228 C 
ATOM     12  O   UNL A   1      34.189  27.394  24.142  1.00  0.00    -0.274 OA
ATOM     13  N   UNL A   1      34.425  25.156  24.115  1.00  0.00    -0.326 N 
ATOM     14  H   UNL A   1      35.332  25.273  23.752  1.00  0.00     0.169 HD
BRANCH  13  15
ATOM     15  C   UNL A   1      34.044  23.853  24.450  1.00  0.00     0.041 A 
ATOM     16  C   UNL A   1      34.477  23.398  25.687  1.00  0.00     0.028 A 
ATOM     17  C   UNL A   1      33.190  23.065  23.685  1.00  0.00     0.028 A 
ATOM     18  C   UNL A   1      33.900  22.264  26.238  1.00  0.00     0.028 A 
ATOM     19  C   UNL A   1      32.774  21.819  24.182  1.00  0.00     0.028 A 
ATOM     20  C   UNL A   1      33.135  21.406  25.473  1.00  0.00     0.041 A 
BRANCH  20  21
ATOM     21  N   UNL A   1      32.701  20.158  25.928  1.00  0.00    -0.326 N 
ATOM     22  C   UNL A   1      32.847  18.866  25.464  1.00  0.00     0.227 C 
ATOM     23  H   UNL A   1      32.178  20.212  26.760  1.00  0.00     0.169 HD
ATOM     24  O   UNL A   1      32.329  18.000  26.194  1.00  0.00    -0.274 OA
BRANCH  22  25
ATOM     25  C   UNL A   1      33.573  18.451  24.156  1.00  0.00     0.079 C 
ATOM     26  C   UNL A   1      34.486  17.181  24.324  1.00  0.00     0.013 C 
ATOM     27  C   UNL A   1      32.936  17.647  22.976  1.00  0.00     0.013 C 
ATOM     28  C   UNL A   1      34.265  16.895  22.836  1.00  0.00     0.002 C 
ENDBRANCH  22  25
ENDBRANCH  20  21
ENDBRANCH  13  15
ENDBRANCH  10  11
ENDBRANCH   3   6
ENDBRANCH   1   2
BRANCH   1  29
ATOM     29  C   UNL A   1      31.782  30.403  26.819  1.00  0.00     0.023 C 
BRANCH  29  30
ATOM     30  C   UNL A   1      31.600  31.925  26.822  1.00  0.00     0.023 C 
BRANCH  30  31
ATOM     31  C   UNL A   1      32.802  32.730  27.317  1.00  0.00     0.116 C 
BRANCH  31  32
ATOM     32  N   UNL A   1      32.470  34.114  27.626  1.00  0.00    -0.352 N 
ATOM     33  C   UNL A   1      33.011  34.947  28.577  1.00  0.00     0.251 C 
ATOM     34  H   UNL A   1      31.756  34.509  27.077  1.00  0.00     0.163 HD
ATOM     35  O   UNL A   1      32.512  36.044  28.805  1.00  0.00    -0.269 OA
BRANCH  33  36
ATOM     36  C   UNL A   1      34.186  34.496  29.346  1.00  0.00     0.039 A 
ATOM     37  C   UNL A   1      33.996  33.973  30.628  1.00  0.00     0.014 A 
ATOM     38  C   UNL A   1      35.459  34.539  28.773  1.00  0.00     0.014 A 
ATOM     39  C   UNL A   1      35.076  33.399  31.300  1.00  0.00     0.010 A 
ATOM     40  C   UNL A   1      36.520  33.914  29.419  1.00  0.00     0.010 A 
ATOM     41  C   UNL A   1      36.331  33.317  30.676  1.00  0.00    -0.014 A 
BRANCH  41  42
ATOM     42  C   UNL A   1      37.451  32.558  31.287  1.00  0.00     0.031 A 
ATOM     43  C   UNL A   1      38.091  33.040  32.553  1.00  0.00     0.074 A 
ATOM     44  C   UNL A   1      37.954  31.491  30.635  1.00  0.00     0.049 A 
ATOM     45  N   UNL A   1      39.157  32.589  33.163  1.00  0.00    -0.248 NA
ATOM     46  C   UNL A   1      37.465  34.198  33.209  1.00  0.00     0.031 C 
ATOM     47  C   UNL A   1      37.443  30.950  29.373  1.00  0.00     0.029 A 
ATOM     48  N   UNL A   1      39.023  30.684  30.933  1.00  0.00    -0.354 N 
ATOM     49  C   UNL A   1      39.338  33.414  34.264  1.00  0.00     0.074 A 
ATOM     50  C   UNL A   1      38.298  34.419  34.216  1.00  0.00     0.031 C 
ATOM     51  C   UNL A   1      38.191  29.895  29.012  1.00  0.00     0.029 A 
ATOM     52  C   UNL A   1      39.257  29.712  29.990  1.00  0.00     0.049 A 
ATOM     53  H   UNL A   1      39.568  30.791  31.744  1.00  0.00     0.167 HD
ATOM     54  C   UNL A   1      40.276  33.329  35.237  1.00  0.00     0.037 A 
ATOM     55  C   UNL A   1      40.235  28.790  29.912  1.00  0.00     0.037 A 
ATOM     56  C   UNL A   1      41.296  32.314  35.292  1.00  0.00     0.049 A 
ATOM     57  C   UNL A   1      41.286  28.739  30.984  1.00  0.00     0.074 A 
ATOM     58  C   UNL A   1      42.245  32.099  36.276  1.00  0.00     0.029 A 
ATOM     59  N   UNL A   1      41.504  31.351  34.317  1.00  0.00    -0.354 N 
ATOM     60  N   UNL A   1      41.407  29.485  32.055  1.00  0.00    -0.248 NA
ATOM     61  C   UNL A   1      42.340  27.726  30.832  1.00  0.00     0.031 C 
ATOM     62  C   UNL A   1      43.055  31.030  35.876  1.00  0.00     0.029 A 
ATOM     63  C   UNL A   1      42.586  30.557  34.661  1.00  0.00     0.049 A 
ATOM     64  H   UNL A   1      40.962  31.245  33.502  1.00  0.00     0.167 HD
ATOM     65  C   UNL A   1      42.539  29.022  32.713  1.00  0.00     0.074 A 
ATOM     66  C   UNL A   1      43.060  27.922  31.929  1.00  0.00     0.031 C 
ATOM     67  C   UNL A   1      43.096  29.471  33.865  1.00  0.00     0.037 A 
BRANCH  54  68
ATOM     68  C   UNL A   1      40.241  34.363  36.322  1.00  0.00     0.057 A 
ATOM     69  C   UNL A   1      40.956  35.563  36.218  1.00  0.00     0.134 A 
ATOM     70  C   UNL A   1      39.461  34.171  37.468  1.00  0.00     0.134 A 
ATOM     71  F   UNL A   1      41.731  35.803  35.150  1.00  0.00    -0.206 F 
ATOM     72  C   UNL A   1      40.915  36.525  37.229  1.00  0.00     0.040 A 
ATOM     73  C   UNL A   1      39.393  35.136  38.474  1.00  0.00     0.040 A 
ATOM     74  F   UNL A   1      38.748  33.045  37.627  1.00  0.00    -0.206 F 
ATOM     75  C   UNL A   1      40.128  36.315  38.358  1.00  0.00     0.006 A 
ENDBRANCH  54  68
BRANCH  55  76
ATOM     76  C   UNL A   1      40.264  27.836  28.776  1.00  0.00     0.057 A 
ATOM     77  C   UNL A   1      40.972  28.134  27.607  1.00  0.00     0.134 A 
ATOM     78  C   UNL A   1      39.594  26.608  28.832  1.00  0.00     0.134 A 
ATOM     79  F   UNL A   1      41.617  29.304  27.488  1.00  0.00    -0.206 F 
ATOM     80  C   UNL A   1      41.003  27.250  26.527  1.00  0.00     0.040 A 
ATOM     81  C   UNL A   1      39.634  25.707  27.768  1.00  0.00     0.040 A 
ATOM     82  F   UNL A   1      38.904  26.262  29.928  1.00  0.00    -0.206 F 
ATOM     83  C   UNL A   1      40.337  26.029  26.608  1.00  0.00     0.006 A 
ENDBRANCH  55  76
BRANCH  67  84
ATOM     84  C   UNL A   1      44.326  28.766  34.349  1.00  0.00     0.057 A 
ATOM     85  C   UNL A   1      45.609  29.216  34.014  1.00  0.00     0.134 A 
ATOM     86  C   UNL A   1      44.228  27.657  35.200  1.00  0.00     0.134 A 
ATOM     87  F   UNL A   1      45.768  30.263  33.191  1.00  0.00    -0.206 F 
ATOM     88  C   UNL A   1      46.754  28.581  34.500  1.00  0.00     0.040 A 
ATOM     89  C   UNL A   1      45.365  27.028  35.710  1.00  0.00     0.040 A 
ATOM     90  F   UNL A   1      43.028  27.181  35.563  1.00  0.00    -0.206 F 
ATOM     91  C   UNL A   1      46.632  27.489  35.357  1.00  0.00     0.006 A 
ENDBRANCH  67  84
ENDBRANCH  41  42
ENDBRANCH  33  36
ENDBRANCH  31  32
ENDBRANCH  30  31
ENDBRANCH  29  30
ENDBRANCH   1  29
TORSDOF 15
ENDMDL
MODEL 3
REMARK VINA RESULT:     -12.5      1.393      6.422
REMARK SMILES CC1(C)[C@H](C(=O)NCCCCNC(=O)c2ccc(-c3c4nc(c(-c5c(F)cccc5F)c5ccc([nH]5)c(-c5c(F)cccc5F)c5nc(c(-c6c(F)cccc6F)c6ccc3[nH]6)C=C5)C=C4)cc2)[C@@H]1C(=O)Nc1ccc(NC(=O)C2CCC2)cc1
REMARK SMILES IDX 8 1 7 2 5 3 6 4 4 6 1 7 2 8 3 9 69 10 70 11 71 12 72 13
REMARK SMILES IDX 73 15 74 16 85 17 75 18 84 19 76 20 77 21 78 22 79 24 80 25
REMARK SMILES IDX 81 26 83 27 82 28 9 29 10 30 11 31 12 32 13 33 14 35 15 36
REMARK SMILES IDX 16 37 68 38 17 39 67 40 18 41 19 42 20 43 61 44 21 45 66 46
REMARK SMILES IDX 60 47 62 48 22 49 65 50 59 51 58 52 23 54 49 55 32 56 48 57
REMARK SMILES IDX 33 58 36 59 47 60 63 61 34 62 35 63 46 65 64 66 37 67 24 68
REMARK SMILES IDX 25 69 30 70 26 71 27 72 29 73 31 74 28 75 50 76 51 77 56 78
REMARK SMILES IDX 52 79 53 80 55 81 57 82 54 83 38 84 39 85 44 86 40 87 41 88
REMARK SMILES IDX 43 89 45 90 42 91
REMARK H PARENT 7 5 72 14 77 23 12 34 62 53 36 64
REMARK Flexibility Score: inf
ROOT
ATOM      1  C   UNL A   1      32.607  30.057  25.608  1.00  0.00     0.116 C 
ENDROOT
BRANCH   1   2
ATOM      2  N   UNL A   1      31.752  29.590  24.538  1.00  0.00    -0.356 N 
ATOM      3  C   UNL A   1      31.642  28.443  23.809  1.00  0.00     0.224 C 
ATOM      4  O   UNL A   1      30.759  28.462  22.948  1.00  0.00    -0.275 OA
ATOM      5  H   UNL A   1      31.089  30.266  24.271  1.00  0.00     0.163 HD
BRANCH   3   6
ATOM      6  C   UNL A   1      32.429  27.189  23.917  1.00  0.00     0.098 C 
ATOM      7  C   UNL A   1      34.190  26.051  25.401  1.00  0.00     0.013 C 
ATOM      8  C   UNL A   1      32.734  26.402  25.180  1.00  0.00    -0.011 C 
ATOM      9  C   UNL A   1      32.034  26.726  26.476  1.00  0.00     0.013 C 
ATOM     10  C   UNL A   1      32.034  25.746  23.971  1.00  0.00     0.098 C 
BRANCH  10  11
ATOM     11  C   UNL A   1      30.665  25.194  23.964  1.00  0.00     0.228 C 
ATOM     12  O   UNL A   1      29.717  25.893  23.618  1.00  0.00    -0.274 OA
ATOM     13  N   UNL A   1      30.432  23.905  24.392  1.00  0.00    -0.326 N 
ATOM     14  H   UNL A   1      29.498  23.664  24.587  1.00  0.00     0.169 HD
BRANCH  13  15
ATOM     15  C   UNL A   1      31.391  22.905  24.575  1.00  0.00     0.041 A 
ATOM     16  C   UNL A   1      31.829  22.272  23.421  1.00  0.00     0.028 A 
ATOM     17  C   UNL A   1      31.989  22.606  25.796  1.00  0.00     0.028 A 
ATOM     18  C   UNL A   1      32.983  21.504  23.459  1.00  0.00     0.028 A 
ATOM     19  C   UNL A   1      33.034  21.668  25.839  1.00  0.00     0.028 A 
ATOM     20  C   UNL A   1      33.538  21.103  24.657  1.00  0.00     0.041 A 
BRANCH  20  21
ATOM     21  N   UNL A   1      34.577  20.173  24.745  1.00  0.00    -0.326 N 
ATOM     22  C   UNL A   1      35.941  20.276  24.938  1.00  0.00     0.227 C 
ATOM     23  H   UNL A   1      34.272  19.242  24.648  1.00  0.00     0.169 HD
ATOM     24  O   UNL A   1      36.533  19.182  24.995  1.00  0.00    -0.274 OA
BRANCH  22  25
ATOM     25  C   UNL A   1      36.738  21.602  25.077  1.00  0.00     0.079 C 
ATOM     26  C   UNL A   1      36.655  22.516  23.800  1.00  0.00     0.013 C 
ATOM     27  C   UNL A   1      36.254  22.880  25.835  1.00  0.00     0.013 C 
ATOM     28  C   UNL A   1      36.882  23.721  24.717  1.00  0.00     0.002 C 
ENDBRANCH  22  25
ENDBRANCH  20  21
ENDBRANCH  13  15
ENDBRANCH  10  11
ENDBRANCH   3   6
ENDBRANCH   1   2
BRANCH   1  29
ATOM     29  C   UNL A   1      31.788  30.505  26.814  1.00  0.00     0.023 C 
BRANCH  29  30
ATOM     30  C   UNL A   1      31.563  32.020  26.898  1.00  0.00     0.023 C 
BRANCH  30  31
ATOM     31  C   UNL A   1      32.783  32.845  27.306  1.00  0.00     0.116 C 
BRANCH  31  32
ATOM     32  N   UNL A   1      32.453  34.228  27.622  1.00  0.00    -0.352 N 
ATOM     33  C   UNL A   1      32.988  35.052  28.583  1.00  0.00     0.251 C 
ATOM     34  H   UNL A   1      31.746  34.630  27.069  1.00  0.00     0.163 HD
ATOM     35  O   UNL A   1      32.491  36.150  28.813  1.00  0.00    -0.269 OA
BRANCH  33  36
ATOM     36  C   UNL A   1      34.154  34.592  29.360  1.00  0.00     0.039 A 
ATOM     37  C   UNL A   1      33.955  34.104  30.654  1.00  0.00     0.014 A 
ATOM     38  C   UNL A   1      35.426  34.592  28.784  1.00  0.00     0.014 A 
ATOM     39  C   UNL A   1      35.023  33.520  31.337  1.00  0.00     0.010 A 
ATOM     40  C   UNL A   1      36.474  33.957  29.443  1.00  0.00     0.010 A 
ATOM     41  C   UNL A   1      36.274  33.394  30.713  1.00  0.00    -0.014 A 
BRANCH  41  42
ATOM     42  C   UNL A   1      37.377  32.623  31.339  1.00  0.00     0.031 A 
ATOM     43  C   UNL A   1      37.996  33.092  32.621  1.00  0.00     0.074 A 
ATOM     44  C   UNL A   1      37.885  31.558  30.689  1.00  0.00     0.049 A 
ATOM     45  N   UNL A   1      39.047  32.629  33.247  1.00  0.00    -0.248 NA
ATOM     46  C   UNL A   1      37.365  34.249  33.273  1.00  0.00     0.031 C 
ATOM     47  C   UNL A   1      37.394  31.029  29.414  1.00  0.00     0.029 A 
ATOM     48  N   UNL A   1      38.943  30.741  31.001  1.00  0.00    -0.354 N 
ATOM     49  C   UNL A   1      39.214  33.445  34.358  1.00  0.00     0.074 A 
ATOM     50  C   UNL A   1      38.181  34.457  34.297  1.00  0.00     0.031 C 
ATOM     51  C   UNL A   1      38.142  29.971  29.060  1.00  0.00     0.029 A 
ATOM     52  C   UNL A   1      39.189  29.775  30.056  1.00  0.00     0.049 A 
ATOM     53  H   UNL A   1      39.474  30.838  31.824  1.00  0.00     0.167 HD
ATOM     54  C   UNL A   1      40.133  33.346  35.347  1.00  0.00     0.037 A 
ATOM     55  C   UNL A   1      40.162  28.846  29.989  1.00  0.00     0.037 A 
ATOM     56  C   UNL A   1      41.145  32.324  35.414  1.00  0.00     0.049 A 
ATOM     57  C   UNL A   1      41.192  28.781  31.080  1.00  0.00     0.074 A 
ATOM     58  C   UNL A   1      42.074  32.096  36.414  1.00  0.00     0.029 A 
ATOM     59  N   UNL A   1      41.365  31.367  34.436  1.00  0.00    -0.354 N 
ATOM     60  N   UNL A   1      41.298  29.518  32.159  1.00  0.00    -0.248 NA
ATOM     61  C   UNL A   1      42.242  27.762  30.941  1.00  0.00     0.031 C 
ATOM     62  C   UNL A   1      42.884  31.025  36.021  1.00  0.00     0.029 A 
ATOM     63  C   UNL A   1      42.435  30.564  34.794  1.00  0.00     0.049 A 
ATOM     64  H   UNL A   1      40.837  31.271  33.610  1.00  0.00     0.167 HD
ATOM     65  C   UNL A   1      42.414  29.043  32.835  1.00  0.00     0.074 A 
ATOM     66  C   UNL A   1      42.943  27.945  32.053  1.00  0.00     0.031 C 
ATOM     67  C   UNL A   1      42.952  29.480  34.000  1.00  0.00     0.037 A 
BRANCH  54  68
ATOM     68  C   UNL A   1      40.084  34.373  36.439  1.00  0.00     0.057 A 
ATOM     69  C   UNL A   1      39.353  34.162  37.615  1.00  0.00     0.134 A 
ATOM     70  C   UNL A   1      40.797  35.572  36.326  1.00  0.00     0.134 A 
ATOM     71  F   UNL A   1      38.639  33.038  37.780  1.00  0.00    -0.206 F 
ATOM     72  C   UNL A   1      39.316  35.118  38.631  1.00  0.00     0.040 A 
ATOM     73  C   UNL A   1      40.786  36.525  37.346  1.00  0.00     0.040 A 
ATOM     74  F   UNL A   1      41.521  35.834  35.228  1.00  0.00    -0.206 F 
ATOM     75  C   UNL A   1      40.038  36.302  38.500  1.00  0.00     0.006 A 
ENDBRANCH  54  68
BRANCH  55  76
ATOM     76  C   UNL A   1      40.206  27.900  28.847  1.00  0.00     0.057 A 
ATOM     77  C   UNL A   1      40.918  28.212  27.685  1.00  0.00     0.134 A 
ATOM     78  C   UNL A   1      39.545  26.667  28.890  1.00  0.00     0.134 A 
ATOM     79  F   UNL A   1      41.555  29.388  27.578  1.00  0.00    -0.206 F 
ATOM     80  C   UNL A   1      40.964  27.336  26.600  1.00  0.00     0.040 A 
ATOM     81  C   UNL A   1      39.599  25.773  27.821  1.00  0.00     0.040 A 
ATOM     82  F   UNL A   1      38.850  26.308  29.980  1.00  0.00    -0.206 F 
ATOM     83  C   UNL A   1      40.308  26.109  26.668  1.00  0.00     0.006 A 
ENDBRANCH  55  76
BRANCH  67  84
ATOM     84  C   UNL A   1      44.168  28.763  34.503  1.00  0.00     0.057 A 
ATOM     85  C   UNL A   1      44.066  27.612  35.294  1.00  0.00     0.134 A 
ATOM     86  C   UNL A   1      45.452  29.197  34.151  1.00  0.00     0.134 A 
ATOM     87  F   UNL A   1      42.864  27.155  35.675  1.00  0.00    -0.206 F 
ATOM     88  C   UNL A   1      45.200  26.922  35.726  1.00  0.00     0.040 A 
ATOM     89  C   UNL A   1      46.593  28.505  34.560  1.00  0.00     0.040 A 
ATOM     90  F   UNL A   1      45.617  30.290  33.391  1.00  0.00    -0.206 F 
ATOM     91  C   UNL A   1      46.468  27.365  35.352  1.00  0.00     0.006 A 
ENDBRANCH  67  84
ENDBRANCH  41  42
ENDBRANCH  33  36
ENDBRANCH  31  32
ENDBRANCH  30  31
ENDBRANCH  29  30
ENDBRANCH   1  29
TORSDOF 15
ENDMDL
