MODEL 1
REMARK VINA RESULT:     -12.2      0.000      0.000
REMARK SMILES CCOC(=O)c1c(-c2cccc3ccccc23)csc1NC(=O)[C@H]1CC=CC[C@H]1C(=O)NCCCCNC(=O)c1ccc(-c2c3nc(c(-c4c(F)cccc4F)c4ccc([nH]4)c(-c4c(F)cccc4F)c4nc(c(-c5c(F)cccc5F)c5ccc2[nH]5)C=C4)C=C3)cc1
REMARK SMILES IDX 33 1 32 2 30 3 31 4 29 6 24 7 25 8 26 9 28 10 27 11 22 12
REMARK SMILES IDX 21 13 23 15 20 16 6 17 7 18 18 19 19 20 4 21 5 22 3 23 2 24
REMARK SMILES IDX 1 25 8 26 9 27 17 28 10 29 12 30 16 31 11 32 13 33 15 34
REMARK SMILES IDX 14 35 34 36 35 37 36 38 37 39 38 40 39 42 40 43 41 44 93 45
REMARK SMILES IDX 42 46 92 47 43 48 44 49 45 50 86 51 46 52 91 53 85 54 87 55
REMARK SMILES IDX 47 56 90 57 84 58 83 59 48 61 74 62 57 63 73 64 58 65 61 66
REMARK SMILES IDX 72 67 88 68 59 69 60 70 71 72 89 73 62 74 49 75 50 76 55 77
REMARK SMILES IDX 51 78 52 79 54 80 56 81 53 82 75 83 76 84 81 85 77 86 78 87
REMARK SMILES IDX 80 88 82 89 79 90 63 91 64 92 69 93 65 94 66 95 68 96 70 97
REMARK SMILES IDX 67 98
REMARK H PARENT 32 5 21 14 37 41 87 60 61 71
REMARK Flexibility Score: inf
ROOT
ATOM      1  C   UNL A   1      34.250  28.527  26.723  1.00  0.00     0.116 C 
ENDROOT
BRANCH   1   2
ATOM      2  N   UNL A   1      33.026  27.831  27.080  1.00  0.00    -0.356 N 
ATOM      3  C   UNL A   1      31.948  27.467  26.345  1.00  0.00     0.224 C 
ATOM      4  O   UNL A   1      31.036  26.891  26.947  1.00  0.00    -0.275 OA
ATOM      5  H   UNL A   1      32.970  27.578  28.030  1.00  0.00     0.163 HD
BRANCH   3   6
ATOM      6  C   UNL A   1      31.836  27.712  24.849  1.00  0.00     0.095 C 
ATOM      7  C   UNL A   1      31.539  26.476  23.965  1.00  0.00     0.095 C 
ATOM      8  C   UNL A   1      31.455  26.896  22.476  1.00  0.00     0.041 C 
ATOM      9  C   UNL A   1      30.713  28.176  22.221  1.00  0.00    -0.030 C 
ATOM     10  C   UNL A   1      31.086  29.021  24.537  1.00  0.00     0.041 C 
ATOM     11  C   UNL A   1      30.537  29.121  23.151  1.00  0.00    -0.030 C 
BRANCH   7  12
ATOM     12  C   UNL A   1      30.298  25.644  24.272  1.00  0.00     0.229 C 
ATOM     13  N   UNL A   1      30.279  24.346  24.683  1.00  0.00    -0.317 N 
ATOM     14  H   UNL A   1      29.414  23.908  24.509  1.00  0.00     0.170 HD
ATOM     15  O   UNL A   1      29.174  26.152  24.140  1.00  0.00    -0.274 OA
BRANCH  13  16
ATOM     16  C   UNL A   1      31.191  23.495  25.290  1.00  0.00     0.110 A 
ATOM     17  C   UNL A   1      31.995  22.573  24.614  1.00  0.00     0.102 A 
ATOM     18  C   UNL A   1      32.806  21.809  25.541  1.00  0.00     0.010 A 
ATOM     19  C   UNL A   1      32.547  22.171  26.848  1.00  0.00     0.076 A 
ATOM     20  S   UNL A   1      31.415  23.436  26.961  1.00  0.00    -0.125 S 
BRANCH  17  21
ATOM     21  C   UNL A   1      31.964  22.429  23.148  1.00  0.00     0.341 C 
ATOM     22  O   UNL A   1      31.487  21.449  22.600  1.00  0.00    -0.246 OA
BRANCH  21  23
ATOM     23  O   UNL A   1      32.552  23.472  22.490  1.00  0.00    -0.462 OA
BRANCH  23  24
ATOM     24  C   UNL A   1      33.984  23.563  22.566  1.00  0.00     0.230 C 
ATOM     25  C   UNL A   1      34.458  24.820  23.274  1.00  0.00     0.049 C 
ENDBRANCH  23  24
ENDBRANCH  21  23
ENDBRANCH  17  21
BRANCH  18  26
ATOM     26  C   UNL A   1      33.825  20.792  25.244  1.00  0.00    -0.009 A 
ATOM     27  C   UNL A   1      33.392  19.499  24.899  1.00  0.00     0.009 A 
ATOM     28  C   UNL A   1      35.219  21.096  25.272  1.00  0.00    -0.010 A 
ATOM     29  C   UNL A   1      34.314  18.503  24.588  1.00  0.00     0.001 A 
ATOM     30  C   UNL A   1      36.139  20.082  24.908  1.00  0.00    -0.018 A 
ATOM     31  C   UNL A   1      35.758  22.357  25.639  1.00  0.00     0.009 A 
ATOM     32  C   UNL A   1      35.676  18.797  24.588  1.00  0.00     0.009 A 
ATOM     33  C   UNL A   1      37.515  20.364  24.861  1.00  0.00     0.009 A 
ATOM     34  C   UNL A   1      37.123  22.630  25.563  1.00  0.00     0.001 A 
ATOM     35  C   UNL A   1      38.002  21.635  25.167  1.00  0.00     0.001 A 
ENDBRANCH  18  26
ENDBRANCH  13  16
ENDBRANCH   7  12
ENDBRANCH   3   6
ENDBRANCH   1   2
BRANCH   1  36
ATOM     36  C   UNL A   1      34.395  29.822  27.499  1.00  0.00     0.023 C 
BRANCH  36  37
ATOM     37  C   UNL A   1      33.795  31.036  26.822  1.00  0.00     0.023 C 
BRANCH  37  38
ATOM     38  C   UNL A   1      32.492  31.462  27.453  1.00  0.00     0.116 C 
BRANCH  38  39
ATOM     39  N   UNL A   1      32.331  32.915  27.462  1.00  0.00    -0.352 N 
ATOM     40  C   UNL A   1      33.072  33.880  28.098  1.00  0.00     0.251 C 
ATOM     41  H   UNL A   1      31.576  33.252  26.929  1.00  0.00     0.163 HD
ATOM     42  O   UNL A   1      32.662  35.032  28.178  1.00  0.00    -0.269 OA
BRANCH  40  43
ATOM     43  C   UNL A   1      34.359  33.503  28.709  1.00  0.00     0.039 A 
ATOM     44  C   UNL A   1      34.376  32.771  29.897  1.00  0.00     0.014 A 
ATOM     45  C   UNL A   1      35.549  33.837  28.064  1.00  0.00     0.014 A 
ATOM     46  C   UNL A   1      35.595  32.311  30.395  1.00  0.00     0.010 A 
ATOM     47  C   UNL A   1      36.733  33.251  28.473  1.00  0.00     0.010 A 
ATOM     48  C   UNL A   1      36.776  32.516  29.665  1.00  0.00    -0.014 A 
BRANCH  48  49
ATOM     49  C   UNL A   1      38.096  32.051  30.147  1.00  0.00     0.031 A 
ATOM     50  C   UNL A   1      38.668  30.776  29.582  1.00  0.00     0.074 A 
ATOM     51  C   UNL A   1      38.726  32.711  31.136  1.00  0.00     0.049 A 
ATOM     52  N   UNL A   1      39.732  30.113  29.948  1.00  0.00    -0.248 NA
ATOM     53  C   UNL A   1      37.911  30.132  28.491  1.00  0.00     0.031 C 
ATOM     54  C   UNL A   1      38.242  33.926  31.797  1.00  0.00     0.029 A 
ATOM     55  N   UNL A   1      39.913  32.444  31.767  1.00  0.00    -0.354 N 
ATOM     56  C   UNL A   1      39.746  28.966  29.164  1.00  0.00     0.074 A 
ATOM     57  C   UNL A   1      38.554  28.984  28.352  1.00  0.00     0.031 C 
ATOM     58  C   UNL A   1      39.142  34.317  32.714  1.00  0.00     0.029 A 
ATOM     59  C   UNL A   1      40.241  33.358  32.739  1.00  0.00     0.049 A 
ATOM     60  H   UNL A   1      40.479  31.669  31.545  1.00  0.00     0.167 HD
ATOM     61  C   UNL A   1      40.688  27.998  29.102  1.00  0.00     0.037 A 
ATOM     62  C   UNL A   1      41.309  33.405  33.559  1.00  0.00     0.037 A 
ATOM     63  C   UNL A   1      41.906  28.024  29.865  1.00  0.00     0.049 A 
ATOM     64  C   UNL A   1      42.350  32.323  33.454  1.00  0.00     0.074 A 
ATOM     65  C   UNL A   1      42.972  27.146  29.813  1.00  0.00     0.029 A 
ATOM     66  N   UNL A   1      42.218  28.986  30.813  1.00  0.00    -0.354 N 
ATOM     67  N   UNL A   1      42.392  31.286  32.652  1.00  0.00    -0.248 NA
ATOM     68  C   UNL A   1      43.496  32.419  34.370  1.00  0.00     0.031 C 
ATOM     69  C   UNL A   1      43.909  27.549  30.768  1.00  0.00     0.029 A 
ATOM     70  C   UNL A   1      43.451  28.708  31.373  1.00  0.00     0.049 A 
ATOM     71  H   UNL A   1      41.646  29.752  31.052  1.00  0.00     0.167 HD
ATOM     72  C   UNL A   1      43.584  30.632  32.936  1.00  0.00     0.074 A 
ATOM     73  C   UNL A   1      44.240  31.396  33.976  1.00  0.00     0.031 C 
ATOM     74  C   UNL A   1      44.092  29.500  32.391  1.00  0.00     0.037 A 
BRANCH  61  75
ATOM     75  C   UNL A   1      40.449  26.844  28.174  1.00  0.00     0.057 A 
ATOM     76  C   UNL A   1      39.596  25.783  28.508  1.00  0.00     0.134 A 
ATOM     77  C   UNL A   1      41.046  26.816  26.908  1.00  0.00     0.134 A 
ATOM     78  F   UNL A   1      39.006  25.739  29.712  1.00  0.00    -0.206 F 
ATOM     79  C   UNL A   1      39.363  24.728  27.625  1.00  0.00     0.040 A 
ATOM     80  C   UNL A   1      40.797  25.782  26.005  1.00  0.00     0.040 A 
ATOM     81  F   UNL A   1      41.874  27.800  26.523  1.00  0.00    -0.206 F 
ATOM     82  C   UNL A   1      39.956  24.731  26.365  1.00  0.00     0.006 A 
ENDBRANCH  61  75
BRANCH  62  83
ATOM     83  C   UNL A   1      41.471  34.519  34.529  1.00  0.00     0.057 A 
ATOM     84  C   UNL A   1      40.971  34.414  35.834  1.00  0.00     0.134 A 
ATOM     85  C   UNL A   1      42.083  35.726  34.172  1.00  0.00     0.134 A 
ATOM     86  F   UNL A   1      40.360  33.288  36.233  1.00  0.00    -0.206 F 
ATOM     87  C   UNL A   1      41.039  35.478  36.734  1.00  0.00     0.040 A 
ATOM     88  C   UNL A   1      42.184  36.789  35.072  1.00  0.00     0.040 A 
ATOM     89  F   UNL A   1      42.592  35.892  32.943  1.00  0.00    -0.206 F 
ATOM     90  C   UNL A   1      41.648  36.671  36.353  1.00  0.00     0.006 A 
ENDBRANCH  62  83
BRANCH  74  91
ATOM     91  C   UNL A   1      45.442  29.053  32.867  1.00  0.00     0.057 A 
ATOM     92  C   UNL A   1      45.594  28.150  33.926  1.00  0.00     0.134 A 
ATOM     93  C   UNL A   1      46.604  29.495  32.219  1.00  0.00     0.134 A 
ATOM     94  F   UNL A   1      44.522  27.698  34.593  1.00  0.00    -0.206 F 
ATOM     95  C   UNL A   1      46.855  27.723  34.343  1.00  0.00     0.040 A 
ATOM     96  C   UNL A   1      47.867  29.050  32.605  1.00  0.00     0.040 A 
ATOM     97  F   UNL A   1      46.526  30.349  31.188  1.00  0.00    -0.206 F 
ATOM     98  C   UNL A   1      47.996  28.167  33.675  1.00  0.00     0.006 A 
ENDBRANCH  74  91
ENDBRANCH  48  49
ENDBRANCH  40  43
ENDBRANCH  38  39
ENDBRANCH  37  38
ENDBRANCH  36  37
ENDBRANCH   1  36
TORSDOF 17
ENDMDL
MODEL 2
REMARK VINA RESULT:     -11.8      3.762      5.312
REMARK SMILES CCOC(=O)c1c(-c2cccc3ccccc23)csc1NC(=O)[C@H]1CC=CC[C@H]1C(=O)NCCCCNC(=O)c1ccc(-c2c3nc(c(-c4c(F)cccc4F)c4ccc([nH]4)c(-c4c(F)cccc4F)c4nc(c(-c5c(F)cccc5F)c5ccc2[nH]5)C=C4)C=C3)cc1
REMARK SMILES IDX 33 1 32 2 30 3 31 4 29 6 24 7 25 8 26 9 28 10 27 11 22 12
REMARK SMILES IDX 21 13 23 15 20 16 6 17 7 18 18 19 19 20 4 21 5 22 3 23 2 24
REMARK SMILES IDX 1 25 8 26 9 27 17 28 10 29 12 30 16 31 11 32 13 33 15 34
REMARK SMILES IDX 14 35 34 36 35 37 36 38 37 39 38 40 39 42 40 43 41 44 93 45
REMARK SMILES IDX 42 46 92 47 43 48 44 49 45 50 86 51 46 52 91 53 85 54 87 55
REMARK SMILES IDX 47 56 90 57 84 58 83 59 48 61 74 62 57 63 73 64 58 65 61 66
REMARK SMILES IDX 72 67 88 68 59 69 60 70 71 72 89 73 62 74 49 75 50 76 55 77
REMARK SMILES IDX 51 78 52 79 54 80 56 81 53 82 75 83 76 84 81 85 77 86 78 87
REMARK SMILES IDX 80 88 82 89 79 90 63 91 64 92 69 93 65 94 66 95 68 96 70 97
REMARK SMILES IDX 67 98
REMARK H PARENT 32 5 21 14 37 41 87 60 61 71
REMARK Flexibility Score: inf
ROOT
ATOM      1  C   UNL A   1      33.859  29.186  27.111  1.00  0.00     0.116 C 
ENDROOT
BRANCH   1   2
ATOM      2  N   UNL A   1      32.774  28.268  27.406  1.00  0.00    -0.356 N 
ATOM      3  C   UNL A   1      31.825  27.708  26.616  1.00  0.00     0.224 C 
ATOM      4  O   UNL A   1      31.010  26.965  27.171  1.00  0.00    -0.275 OA
ATOM      5  H   UNL A   1      32.716  28.003  28.352  1.00  0.00     0.163 HD
BRANCH   3   6
ATOM      6  C   UNL A   1      31.749  27.935  25.115  1.00  0.00     0.095 C 
ATOM      7  C   UNL A   1      31.627  26.671  24.229  1.00  0.00     0.095 C 
ATOM      8  C   UNL A   1      31.558  27.075  22.734  1.00  0.00     0.041 C 
ATOM      9  C   UNL A   1      30.690  28.264  22.440  1.00  0.00    -0.030 C 
ATOM     10  C   UNL A   1      30.871  29.152  24.763  1.00  0.00     0.041 C 
ATOM     11  C   UNL A   1      30.373  29.186  23.356  1.00  0.00    -0.030 C 
BRANCH   7  12
ATOM     12  C   UNL A   1      30.474  25.708  24.490  1.00  0.00     0.229 C 
ATOM     13  N   UNL A   1      30.582  24.411  24.893  1.00  0.00    -0.317 N 
ATOM     14  H   UNL A   1      29.776  23.885  24.689  1.00  0.00     0.170 HD
ATOM     15  O   UNL A   1      29.306  26.093  24.327  1.00  0.00    -0.274 OA
BRANCH  13  16
ATOM     16  C   UNL A   1      31.562  23.658  25.523  1.00  0.00     0.110 A 
ATOM     17  C   UNL A   1      32.603  22.995  24.868  1.00  0.00     0.102 A 
ATOM     18  C   UNL A   1      33.429  22.263  25.807  1.00  0.00     0.010 A 
ATOM     19  C   UNL A   1      32.951  22.387  27.097  1.00  0.00     0.076 A 
ATOM     20  S   UNL A   1      31.592  23.405  27.190  1.00  0.00    -0.125 S 
BRANCH  17  21
ATOM     21  C   UNL A   1      32.777  23.053  23.406  1.00  0.00     0.341 C 
ATOM     22  O   UNL A   1      33.734  23.602  22.885  1.00  0.00    -0.246 OA
BRANCH  21  23
ATOM     23  O   UNL A   1      31.751  22.472  22.716  1.00  0.00    -0.462 OA
BRANCH  23  24
ATOM     24  C   UNL A   1      32.085  21.356  21.873  1.00  0.00     0.230 C 
ATOM     25  C   UNL A   1      32.090  20.035  22.620  1.00  0.00     0.049 C 
ENDBRANCH  23  24
ENDBRANCH  21  23
ENDBRANCH  17  21
BRANCH  18  26
ATOM     26  C   UNL A   1      34.653  21.493  25.544  1.00  0.00    -0.009 A 
ATOM     27  C   UNL A   1      34.520  20.171  25.080  1.00  0.00     0.009 A 
ATOM     28  C   UNL A   1      35.950  22.060  25.723  1.00  0.00    -0.010 A 
ATOM     29  C   UNL A   1      35.646  19.404  24.796  1.00  0.00     0.001 A 
ATOM     30  C   UNL A   1      37.082  21.278  25.384  1.00  0.00    -0.018 A 
ATOM     31  C   UNL A   1      36.193  23.368  26.217  1.00  0.00     0.009 A 
ATOM     32  C   UNL A   1      36.916  19.958  24.942  1.00  0.00     0.009 A 
ATOM     33  C   UNL A   1      38.372  21.827  25.485  1.00  0.00     0.009 A 
ATOM     34  C   UNL A   1      37.476  23.909  26.287  1.00  0.00     0.001 A 
ATOM     35  C   UNL A   1      38.566  23.140  25.914  1.00  0.00     0.001 A 
ENDBRANCH  18  26
ENDBRANCH  13  16
ENDBRANCH   7  12
ENDBRANCH   3   6
ENDBRANCH   1   2
BRANCH   1  36
ATOM     36  C   UNL A   1      33.386  30.627  27.142  1.00  0.00     0.023 C 
BRANCH  36  37
ATOM     37  C   UNL A   1      34.295  31.576  27.893  1.00  0.00     0.023 C 
BRANCH  37  38
ATOM     38  C   UNL A   1      35.538  30.894  28.412  1.00  0.00     0.116 C 
BRANCH  38  39
ATOM     39  N   UNL A   1      35.530  30.764  29.868  1.00  0.00    -0.352 N 
ATOM     40  C   UNL A   1      36.420  30.135  30.703  1.00  0.00     0.251 C 
ATOM     41  H   UNL A   1      34.768  31.195  30.319  1.00  0.00     0.163 HD
ATOM     42  O   UNL A   1      36.140  29.932  31.878  1.00  0.00    -0.269 OA
BRANCH  40  43
ATOM     43  C   UNL A   1      37.711  29.681  30.155  1.00  0.00     0.039 A 
ATOM     44  C   UNL A   1      38.057  29.995  28.840  1.00  0.00     0.014 A 
ATOM     45  C   UNL A   1      38.599  28.987  30.975  1.00  0.00     0.014 A 
ATOM     46  C   UNL A   1      39.332  29.672  28.376  1.00  0.00     0.010 A 
ATOM     47  C   UNL A   1      39.907  28.809  30.566  1.00  0.00     0.010 A 
ATOM     48  C   UNL A   1      40.277  29.112  29.249  1.00  0.00    -0.014 A 
BRANCH  48  49
ATOM     49  C   UNL A   1      41.643  28.748  28.809  1.00  0.00     0.031 A 
ATOM     50  C   UNL A   1      41.902  27.341  28.336  1.00  0.00     0.074 A 
ATOM     51  C   UNL A   1      42.648  29.637  28.917  1.00  0.00     0.049 A 
ATOM     52  N   UNL A   1      43.036  26.765  28.035  1.00  0.00    -0.248 NA
ATOM     53  C   UNL A   1      40.734  26.444  28.238  1.00  0.00     0.031 C 
ATOM     54  C   UNL A   1      42.526  31.010  29.413  1.00  0.00     0.029 A 
ATOM     55  N   UNL A   1      43.981  29.509  28.623  1.00  0.00    -0.354 N 
ATOM     56  C   UNL A   1      42.719  25.441  27.754  1.00  0.00     0.074 A 
ATOM     57  C   UNL A   1      41.304  25.278  27.985  1.00  0.00     0.031 C 
ATOM     58  C   UNL A   1      43.727  31.608  29.353  1.00  0.00     0.029 A 
ATOM     59  C   UNL A   1      44.710  30.650  28.862  1.00  0.00     0.049 A 
ATOM     60  H   UNL A   1      44.379  28.680  28.274  1.00  0.00     0.167 HD
ATOM     61  C   UNL A   1      43.531  24.456  27.309  1.00  0.00     0.037 A 
ATOM     62  C   UNL A   1      46.028  30.883  28.704  1.00  0.00     0.037 A 
ATOM     63  C   UNL A   1      44.925  24.647  27.016  1.00  0.00     0.049 A 
ATOM     64  C   UNL A   1      46.903  29.772  28.191  1.00  0.00     0.074 A 
ATOM     65  C   UNL A   1      45.821  23.745  26.473  1.00  0.00     0.029 A 
ATOM     66  N   UNL A   1      45.619  25.826  27.237  1.00  0.00    -0.354 N 
ATOM     67  N   UNL A   1      46.578  28.548  27.851  1.00  0.00    -0.248 NA
ATOM     68  C   UNL A   1      48.333  30.076  28.036  1.00  0.00     0.031 C 
ATOM     69  C   UNL A   1      47.073  24.364  26.412  1.00  0.00     0.029 A 
ATOM     70  C   UNL A   1      46.942  25.667  26.865  1.00  0.00     0.049 A 
ATOM     71  H   UNL A   1      45.230  26.653  27.604  1.00  0.00     0.167 HD
ATOM     72  C   UNL A   1      47.750  27.951  27.405  1.00  0.00     0.074 A 
ATOM     73  C   UNL A   1      48.791  28.952  27.506  1.00  0.00     0.031 C 
ATOM     74  C   UNL A   1      47.952  26.689  26.954  1.00  0.00     0.037 A 
BRANCH  61  75
ATOM     75  C   UNL A   1      42.935  23.096  27.099  1.00  0.00     0.057 A 
ATOM     76  C   UNL A   1      42.640  22.239  28.168  1.00  0.00     0.134 A 
ATOM     77  C   UNL A   1      42.610  22.655  25.811  1.00  0.00     0.134 A 
ATOM     78  F   UNL A   1      42.942  22.592  29.426  1.00  0.00    -0.206 F 
ATOM     79  C   UNL A   1      42.062  20.986  27.960  1.00  0.00     0.040 A 
ATOM     80  C   UNL A   1      42.004  21.417  25.593  1.00  0.00     0.040 A 
ATOM     81  F   UNL A   1      42.865  23.426  24.742  1.00  0.00    -0.206 F 
ATOM     82  C   UNL A   1      41.732  20.576  26.670  1.00  0.00     0.006 A 
ENDBRANCH  61  75
BRANCH  62  83
ATOM     83  C   UNL A   1      46.601  32.221  29.006  1.00  0.00     0.057 A 
ATOM     84  C   UNL A   1      47.108  32.515  30.278  1.00  0.00     0.134 A 
ATOM     85  C   UNL A   1      46.619  33.247  28.054  1.00  0.00     0.134 A 
ATOM     86  F   UNL A   1      47.105  31.579  31.238  1.00  0.00    -0.206 F 
ATOM     87  C   UNL A   1      47.574  33.789  30.606  1.00  0.00     0.040 A 
ATOM     88  C   UNL A   1      47.110  34.519  28.359  1.00  0.00     0.040 A 
ATOM     89  F   UNL A   1      46.160  33.032  26.813  1.00  0.00    -0.206 F 
ATOM     90  C   UNL A   1      47.577  34.796  29.643  1.00  0.00     0.006 A 
ENDBRANCH  62  83
BRANCH  74  91
ATOM     91  C   UNL A   1      49.333  26.339  26.485  1.00  0.00     0.057 A 
ATOM     92  C   UNL A   1      50.228  25.617  27.285  1.00  0.00     0.134 A 
ATOM     93  C   UNL A   1      49.752  26.686  25.193  1.00  0.00     0.134 A 
ATOM     94  F   UNL A   1      49.890  25.264  28.534  1.00  0.00    -0.206 F 
ATOM     95  C   UNL A   1      51.501  25.277  26.826  1.00  0.00     0.040 A 
ATOM     96  C   UNL A   1      51.009  26.323  24.713  1.00  0.00     0.040 A 
ATOM     97  F   UNL A   1      48.938  27.365  24.372  1.00  0.00    -0.206 F 
ATOM     98  C   UNL A   1      51.891  25.622  25.534  1.00  0.00     0.006 A 
ENDBRANCH  74  91
ENDBRANCH  48  49
ENDBRANCH  40  43
ENDBRANCH  38  39
ENDBRANCH  37  38
ENDBRANCH  36  37
ENDBRANCH   1  36
TORSDOF 17
ENDMDL
MODEL 3
REMARK VINA RESULT:     -11.7      3.768      7.429
REMARK SMILES CCOC(=O)c1c(-c2cccc3ccccc23)csc1NC(=O)[C@H]1CC=CC[C@H]1C(=O)NCCCCNC(=O)c1ccc(-c2c3nc(c(-c4c(F)cccc4F)c4ccc([nH]4)c(-c4c(F)cccc4F)c4nc(c(-c5c(F)cccc5F)c5ccc2[nH]5)C=C4)C=C3)cc1
REMARK SMILES IDX 33 1 32 2 30 3 31 4 29 6 24 7 25 8 26 9 28 10 27 11 22 12
REMARK SMILES IDX 21 13 23 15 20 16 6 17 7 18 18 19 19 20 4 21 5 22 3 23 2 24
REMARK SMILES IDX 1 25 8 26 9 27 17 28 10 29 12 30 16 31 11 32 13 33 15 34
REMARK SMILES IDX 14 35 34 36 35 37 36 38 37 39 38 40 39 42 40 43 41 44 93 45
REMARK SMILES IDX 42 46 92 47 43 48 44 49 45 50 86 51 46 52 91 53 85 54 87 55
REMARK SMILES IDX 47 56 90 57 84 58 83 59 48 61 74 62 57 63 73 64 58 65 61 66
REMARK SMILES IDX 72 67 88 68 59 69 60 70 71 72 89 73 62 74 49 75 50 76 55 77
REMARK SMILES IDX 51 78 52 79 54 80 56 81 53 82 75 83 76 84 81 85 77 86 78 87
REMARK SMILES IDX 80 88 82 89 79 90 63 91 64 92 69 93 65 94 66 95 68 96 70 97
REMARK SMILES IDX 67 98
REMARK H PARENT 32 5 21 14 37 41 87 60 61 71
REMARK Flexibility Score: inf
ROOT
ATOM      1  C   UNL A   1      31.874  30.309  26.812  1.00  0.00     0.116 C 
ENDROOT
BRANCH   1   2
ATOM      2  N   UNL A   1      31.592  28.920  27.126  1.00  0.00    -0.356 N 
ATOM      3  C   UNL A   1      31.398  27.837  26.335  1.00  0.00     0.224 C 
ATOM      4  O   UNL A   1      31.153  26.770  26.907  1.00  0.00    -0.275 OA
ATOM      5  H   UNL A   1      31.530  28.730  28.090  1.00  0.00     0.163 HD
BRANCH   3   6
ATOM      6  C   UNL A   1      31.493  27.884  24.819  1.00  0.00     0.095 C 
ATOM      7  C   UNL A   1      31.458  26.523  24.081  1.00  0.00     0.095 C 
ATOM      8  C   UNL A   1      31.562  26.747  22.550  1.00  0.00     0.041 C 
ATOM      9  C   UNL A   1      30.746  27.890  22.021  1.00  0.00    -0.030 C 
ATOM     10  C   UNL A   1      30.674  29.048  24.228  1.00  0.00     0.041 C 
ATOM     11  C   UNL A   1      30.338  28.914  22.780  1.00  0.00    -0.030 C 
BRANCH   7  12
ATOM     12  C   UNL A   1      30.272  25.596  24.322  1.00  0.00     0.229 C 
ATOM     13  N   UNL A   1      30.335  24.282  24.677  1.00  0.00    -0.317 N 
ATOM     14  H   UNL A   1      29.507  23.794  24.464  1.00  0.00     0.170 HD
ATOM     15  O   UNL A   1      29.118  26.030  24.188  1.00  0.00    -0.274 OA
BRANCH  13  16
ATOM     16  C   UNL A   1      31.293  23.470  25.267  1.00  0.00     0.110 A 
ATOM     17  C   UNL A   1      32.158  22.621  24.572  1.00  0.00     0.102 A 
ATOM     18  C   UNL A   1      33.006  21.879  25.483  1.00  0.00     0.010 A 
ATOM     19  C   UNL A   1      32.713  22.182  26.798  1.00  0.00     0.076 A 
ATOM     20  S   UNL A   1      31.505  23.370  26.937  1.00  0.00    -0.125 S 
BRANCH  17  21
ATOM     21  C   UNL A   1      32.150  22.522  23.102  1.00  0.00     0.341 C 
ATOM     22  O   UNL A   1      31.777  21.517  22.519  1.00  0.00    -0.246 OA
BRANCH  21  23
ATOM     23  O   UNL A   1      32.633  23.640  22.482  1.00  0.00    -0.462 OA
BRANCH  23  24
ATOM     24  C   UNL A   1      34.061  23.744  22.353  1.00  0.00     0.230 C 
ATOM     25  C   UNL A   1      34.699  24.529  23.485  1.00  0.00     0.049 C 
ENDBRANCH  23  24
ENDBRANCH  21  23
ENDBRANCH  17  21
BRANCH  18  26
ATOM     26  C   UNL A   1      34.089  20.937  25.166  1.00  0.00    -0.009 A 
ATOM     27  C   UNL A   1      35.413  21.410  25.201  1.00  0.00     0.009 A 
ATOM     28  C   UNL A   1      33.827  19.569  24.855  1.00  0.00    -0.010 A 
ATOM     29  C   UNL A   1      36.478  20.555  24.929  1.00  0.00     0.001 A 
ATOM     30  C   UNL A   1      34.926  18.705  24.627  1.00  0.00    -0.018 A 
ATOM     31  C   UNL A   1      32.529  19.002  24.760  1.00  0.00     0.009 A 
ATOM     32  C   UNL A   1      36.234  19.213  24.650  1.00  0.00     0.009 A 
ATOM     33  C   UNL A   1      34.709  17.338  24.382  1.00  0.00     0.009 A 
ATOM     34  C   UNL A   1      32.329  17.639  24.543  1.00  0.00     0.001 A 
ATOM     35  C   UNL A   1      33.420  16.805  24.361  1.00  0.00     0.001 A 
ENDBRANCH  18  26
ENDBRANCH  13  16
ENDBRANCH   7  12
ENDBRANCH   3   6
ENDBRANCH   1   2
BRANCH   1  36
ATOM     36  C   UNL A   1      33.286  30.690  27.217  1.00  0.00     0.023 C 
BRANCH  36  37
ATOM     37  C   UNL A   1      34.354  29.706  26.793  1.00  0.00     0.023 C 
BRANCH  37  38
ATOM     38  C   UNL A   1      35.281  29.339  27.926  1.00  0.00     0.116 C 
BRANCH  38  39
ATOM     39  N   UNL A   1      35.196  30.283  29.038  1.00  0.00    -0.352 N 
ATOM     40  C   UNL A   1      36.155  30.675  29.939  1.00  0.00     0.251 C 
ATOM     41  H   UNL A   1      34.314  30.704  29.158  1.00  0.00     0.163 HD
ATOM     42  O   UNL A   1      35.850  31.306  30.943  1.00  0.00    -0.269 OA
BRANCH  40  43
ATOM     43  C   UNL A   1      37.559  30.299  29.693  1.00  0.00     0.039 A 
ATOM     44  C   UNL A   1      38.334  29.789  30.735  1.00  0.00     0.014 A 
ATOM     45  C   UNL A   1      38.084  30.407  28.406  1.00  0.00     0.014 A 
ATOM     46  C   UNL A   1      39.618  29.317  30.461  1.00  0.00     0.010 A 
ATOM     47  C   UNL A   1      39.289  29.800  28.109  1.00  0.00     0.010 A 
ATOM     48  C   UNL A   1      40.087  29.284  29.139  1.00  0.00    -0.014 A 
BRANCH  48  49
ATOM     49  C   UNL A   1      41.441  28.797  28.792  1.00  0.00     0.031 A 
ATOM     50  C   UNL A   1      42.584  29.780  28.771  1.00  0.00     0.074 A 
ATOM     51  C   UNL A   1      41.624  27.517  28.417  1.00  0.00     0.049 A 
ATOM     52  N   UNL A   1      43.815  29.608  28.369  1.00  0.00    -0.248 NA
ATOM     53  C   UNL A   1      42.287  31.156  29.213  1.00  0.00     0.031 C 
ATOM     54  C   UNL A   1      40.583  26.489  28.347  1.00  0.00     0.029 A 
ATOM     55  N   UNL A   1      42.760  26.864  28.012  1.00  0.00    -0.354 N 
ATOM     56  C   UNL A   1      44.419  30.856  28.474  1.00  0.00     0.074 A 
ATOM     57  C   UNL A   1      43.408  31.789  28.909  1.00  0.00     0.031 C 
ATOM     58  C   UNL A   1      41.135  25.328  27.960  1.00  0.00     0.029 A 
ATOM     59  C   UNL A   1      42.557  25.539  27.709  1.00  0.00     0.049 A 
ATOM     60  H   UNL A   1      43.638  27.303  27.944  1.00  0.00     0.167 HD
ATOM     61  C   UNL A   1      45.712  31.187  28.258  1.00  0.00     0.037 A 
ATOM     62  C   UNL A   1      43.426  24.607  27.273  1.00  0.00     0.037 A 
ATOM     63  C   UNL A   1      46.726  30.237  27.893  1.00  0.00     0.049 A 
ATOM     64  C   UNL A   1      44.863  25.003  27.059  1.00  0.00     0.074 A 
ATOM     65  C   UNL A   1      48.083  30.444  27.740  1.00  0.00     0.029 A 
ATOM     66  N   UNL A   1      46.487  28.897  27.630  1.00  0.00    -0.354 N 
ATOM     67  N   UNL A   1      45.440  26.167  27.239  1.00  0.00    -0.248 NA
ATOM     68  C   UNL A   1      45.773  23.951  26.582  1.00  0.00     0.031 C 
ATOM     69  C   UNL A   1      48.661  29.238  27.334  1.00  0.00     0.029 A 
ATOM     70  C   UNL A   1      47.671  28.269  27.290  1.00  0.00     0.049 A 
ATOM     71  H   UNL A   1      45.607  28.458  27.678  1.00  0.00     0.167 HD
ATOM     72  C   UNL A   1      46.783  25.978  26.939  1.00  0.00     0.074 A 
ATOM     73  C   UNL A   1      46.936  24.585  26.577  1.00  0.00     0.031 C 
ATOM     74  C   UNL A   1      47.799  26.874  26.957  1.00  0.00     0.037 A 
BRANCH  61  75
ATOM     75  C   UNL A   1      46.105  32.625  28.426  1.00  0.00     0.057 A 
ATOM     76  C   UNL A   1      46.538  33.140  29.655  1.00  0.00     0.134 A 
ATOM     77  C   UNL A   1      46.095  33.496  27.330  1.00  0.00     0.134 A 
ATOM     78  F   UNL A   1      46.555  32.364  30.750  1.00  0.00    -0.206 F 
ATOM     79  C   UNL A   1      46.926  34.474  29.793  1.00  0.00     0.040 A 
ATOM     80  C   UNL A   1      46.509  34.823  27.448  1.00  0.00     0.040 A 
ATOM     81  F   UNL A   1      45.693  33.069  26.123  1.00  0.00    -0.206 F 
ATOM     82  C   UNL A   1      46.922  35.317  28.684  1.00  0.00     0.006 A 
ENDBRANCH  61  75
BRANCH  62  83
ATOM     83  C   UNL A   1      42.983  23.210  27.033  1.00  0.00     0.057 A 
ATOM     84  C   UNL A   1      42.753  22.335  28.102  1.00  0.00     0.134 A 
ATOM     85  C   UNL A   1      42.821  22.699  25.740  1.00  0.00     0.134 A 
ATOM     86  F   UNL A   1      42.906  22.760  29.365  1.00  0.00    -0.206 F 
ATOM     87  C   UNL A   1      42.417  20.996  27.897  1.00  0.00     0.040 A 
ATOM     88  C   UNL A   1      42.456  21.369  25.519  1.00  0.00     0.040 A 
ATOM     89  F   UNL A   1      43.013  23.483  24.670  1.00  0.00    -0.206 F 
ATOM     90  C   UNL A   1      42.267  20.510  26.600  1.00  0.00     0.006 A 
ENDBRANCH  62  83
BRANCH  74  91
ATOM     91  C   UNL A   1      49.172  26.364  26.631  1.00  0.00     0.057 A 
ATOM     92  C   UNL A   1      49.958  25.693  27.575  1.00  0.00     0.134 A 
ATOM     93  C   UNL A   1      49.690  26.503  25.336  1.00  0.00     0.134 A 
ATOM     94  F   UNL A   1      49.523  25.537  28.834  1.00  0.00    -0.206 F 
ATOM     95  C   UNL A   1      51.223  25.202  27.251  1.00  0.00     0.040 A 
ATOM     96  C   UNL A   1      50.938  25.988  24.991  1.00  0.00     0.040 A 
ATOM     97  F   UNL A   1      48.981  27.123  24.381  1.00  0.00    -0.206 F 
ATOM     98  C   UNL A   1      51.713  25.341  25.953  1.00  0.00     0.006 A 
ENDBRANCH  74  91
ENDBRANCH  48  49
ENDBRANCH  40  43
ENDBRANCH  38  39
ENDBRANCH  37  38
ENDBRANCH  36  37
ENDBRANCH   1  36
TORSDOF 17
ENDMDL
