MODEL 1
REMARK VINA RESULT:     -11.9      0.000      0.000
REMARK SMILES C[C@@H](CNc1cccc(F)c1C(=O)NCCCCNC(=O)c1ccc(-c2c3nc(c(-c4c(F)cccc4F)c4ccc([nH]4)c(-c4c(F)cccc4F)c4nc(c(-c5c(F)cccc5F)c5ccc2[nH]5)C=C4)C=C3)cc1)[NH+]1CCCCC1
REMARK SMILES IDX 15 1 14 2 12 3 13 4 11 6 5 7 6 8 7 9 9 10 8 11 10 12 4 13
REMARK SMILES IDX 3 15 2 16 1 17 76 18 77 19 81 20 78 22 80 23 79 24 16 25
REMARK SMILES IDX 17 26 18 27 19 28 20 29 21 31 22 32 23 33 75 34 24 35 74 36
REMARK SMILES IDX 25 37 26 38 27 39 68 40 28 41 73 42 67 43 69 44 29 45 72 46
REMARK SMILES IDX 66 47 65 48 30 50 56 51 39 52 55 53 40 54 43 55 54 56 70 57
REMARK SMILES IDX 41 58 42 59 53 61 71 62 44 63 31 64 32 65 37 66 33 67 34 68
REMARK SMILES IDX 36 69 38 70 35 71 57 72 58 73 63 74 59 75 60 76 62 77 64 78
REMARK SMILES IDX 61 79 45 80 46 81 51 82 47 83 48 84 50 85 52 86 49 87
REMARK H PARENT 14 5 4 14 76 21 19 30 69 49 43 60
REMARK Flexibility Score: inf
ROOT
ATOM      1  C   UNL A   1      33.283  29.874  26.776  1.00  0.00     0.116 C 
ENDROOT
BRANCH   1   2
ATOM      2  N   UNL A   1      33.672  29.536  25.421  1.00  0.00    -0.352 N 
ATOM      3  C   UNL A   1      33.524  28.398  24.667  1.00  0.00     0.256 C 
ATOM      4  O   UNL A   1      34.052  28.418  23.551  1.00  0.00    -0.269 OA
ATOM      5  H   UNL A   1      34.132  30.266  24.948  1.00  0.00     0.163 HD
BRANCH   3   6
ATOM      6  C   UNL A   1      32.695  27.219  25.064  1.00  0.00     0.098 A 
ATOM      7  C   UNL A   1      31.330  27.189  24.660  1.00  0.00     0.050 A 
ATOM      8  C   UNL A   1      30.531  26.106  25.066  1.00  0.00     0.027 A 
ATOM      9  C   UNL A   1      31.042  25.077  25.856  1.00  0.00     0.005 A 
ATOM     10  C   UNL A   1      33.197  26.148  25.806  1.00  0.00     0.138 A 
ATOM     11  C   UNL A   1      32.378  25.100  26.225  1.00  0.00     0.040 A 
ATOM     12  F   UNL A   1      34.490  26.059  26.136  1.00  0.00    -0.206 F 
BRANCH   7  13
ATOM     13  N   UNL A   1      30.768  28.252  23.958  1.00  0.00    -0.378 N 
ATOM     14  H   UNL A   1      31.145  29.149  24.110  1.00  0.00     0.160 HD
BRANCH  13  15
ATOM     15  C   UNL A   1      29.664  28.135  23.018  1.00  0.00     0.177 C 
BRANCH  15  16
ATOM     16  C   UNL A   1      28.559  29.229  23.238  1.00  0.00     0.200 C 
ATOM     17  C   UNL A   1      27.178  28.538  23.251  1.00  0.00     0.077 C 
BRANCH  16  18
ATOM     18  N   UNL A   1      28.639  30.518  22.475  1.00  0.00    -0.331 N 
ATOM     19  C   UNL A   1      27.998  30.490  21.155  1.00  0.00     0.262 C 
ATOM     20  C   UNL A   1      28.284  31.724  23.231  1.00  0.00     0.262 C 
ATOM     21  H   UNL A   1      29.642  30.593  22.305  1.00  0.00     0.348 HD
ATOM     22  C   UNL A   1      28.225  31.752  20.325  1.00  0.00     0.062 C 
ATOM     23  C   UNL A   1      28.533  33.011  22.437  1.00  0.00     0.062 C 
ATOM     24  C   UNL A   1      27.807  32.989  21.102  1.00  0.00     0.012 C 
ENDBRANCH  16  18
ENDBRANCH  15  16
ENDBRANCH  13  15
ENDBRANCH   7  13
ENDBRANCH   3   6
ENDBRANCH   1   2
BRANCH   1  25
ATOM     25  C   UNL A   1      31.825  30.344  26.803  1.00  0.00     0.023 C 
BRANCH  25  26
ATOM     26  C   UNL A   1      31.651  31.863  26.709  1.00  0.00     0.023 C 
BRANCH  26  27
ATOM     27  C   UNL A   1      32.786  32.672  27.321  1.00  0.00     0.116 C 
BRANCH  27  28
ATOM     28  N   UNL A   1      32.404  34.042  27.630  1.00  0.00    -0.352 N 
ATOM     29  C   UNL A   1      32.962  34.904  28.547  1.00  0.00     0.251 C 
ATOM     30  H   UNL A   1      31.646  34.400  27.115  1.00  0.00     0.163 HD
ATOM     31  O   UNL A   1      32.462  35.993  28.766  1.00  0.00    -0.269 OA
BRANCH  29  32
ATOM     32  C   UNL A   1      34.163  34.471  29.294  1.00  0.00     0.039 A 
ATOM     33  C   UNL A   1      34.000  33.922  30.568  1.00  0.00     0.014 A 
ATOM     34  C   UNL A   1      35.433  34.577  28.722  1.00  0.00     0.014 A 
ATOM     35  C   UNL A   1      35.109  33.413  31.245  1.00  0.00     0.010 A 
ATOM     36  C   UNL A   1      36.526  34.015  29.371  1.00  0.00     0.010 A 
ATOM     37  C   UNL A   1      36.373  33.424  30.636  1.00  0.00    -0.014 A 
BRANCH  37  38
ATOM     38  C   UNL A   1      37.560  32.831  31.297  1.00  0.00     0.031 A 
ATOM     39  C   UNL A   1      38.238  31.641  30.681  1.00  0.00     0.074 A 
ATOM     40  C   UNL A   1      37.974  33.307  32.486  1.00  0.00     0.049 A 
ATOM     41  N   UNL A   1      39.191  30.890  31.167  1.00  0.00    -0.248 NA
ATOM     42  C   UNL A   1      37.759  31.224  29.352  1.00  0.00     0.031 C 
ATOM     43  C   UNL A   1      37.380  34.440  33.198  1.00  0.00     0.029 A 
ATOM     44  N   UNL A   1      38.984  32.886  33.315  1.00  0.00    -0.354 N 
ATOM     45  C   UNL A   1      39.409  29.899  30.219  1.00  0.00     0.074 A 
ATOM     46  C   UNL A   1      38.463  30.120  29.147  1.00  0.00     0.031 C 
ATOM     47  C   UNL A   1      38.048  34.634  34.347  1.00  0.00     0.029 A 
ATOM     48  C   UNL A   1      39.087  33.617  34.473  1.00  0.00     0.049 A 
ATOM     49  H   UNL A   1      39.577  32.131  33.099  1.00  0.00     0.167 HD
ATOM     50  C   UNL A   1      40.329  28.907  30.234  1.00  0.00     0.037 A 
ATOM     51  C   UNL A   1      39.918  33.473  35.523  1.00  0.00     0.037 A 
ATOM     52  C   UNL A   1      41.293  28.714  31.283  1.00  0.00     0.049 A 
ATOM     53  C   UNL A   1      40.930  32.364  35.517  1.00  0.00     0.074 A 
ATOM     54  C   UNL A   1      42.299  27.766  31.363  1.00  0.00     0.029 A 
ATOM     55  N   UNL A   1      41.379  29.490  32.428  1.00  0.00    -0.354 N 
ATOM     56  N   UNL A   1      41.145  31.450  34.602  1.00  0.00    -0.248 NA
ATOM     57  C   UNL A   1      41.814  32.260  36.688  1.00  0.00     0.031 C 
ATOM     58  C   UNL A   1      42.974  27.950  32.573  1.00  0.00     0.029 A 
ATOM     59  C   UNL A   1      42.414  29.036  33.227  1.00  0.00     0.049 A 
ATOM     60  H   UNL A   1      40.790  30.251  32.642  1.00  0.00     0.167 HD
ATOM     61  C   UNL A   1      42.202  30.681  35.071  1.00  0.00     0.074 A 
ATOM     62  C   UNL A   1      42.590  31.237  36.351  1.00  0.00     0.031 C 
ATOM     63  C   UNL A   1      42.797  29.612  34.490  1.00  0.00     0.037 A 
BRANCH  50  64
ATOM     64  C   UNL A   1      40.346  27.959  29.073  1.00  0.00     0.057 A 
ATOM     65  C   UNL A   1      41.112  28.236  27.934  1.00  0.00     0.134 A 
ATOM     66  C   UNL A   1      39.563  26.797  29.060  1.00  0.00     0.134 A 
ATOM     67  F   UNL A   1      41.880  29.334  27.879  1.00  0.00    -0.206 F 
ATOM     68  C   UNL A   1      41.092  27.395  26.820  1.00  0.00     0.040 A 
ATOM     69  C   UNL A   1      39.554  25.936  27.963  1.00  0.00     0.040 A 
ATOM     70  F   UNL A   1      38.817  26.470  30.127  1.00  0.00    -0.206 F 
ATOM     71  C   UNL A   1      40.314  26.239  26.834  1.00  0.00     0.006 A 
ENDBRANCH  50  64
BRANCH  51  72
ATOM     72  C   UNL A   1      39.842  34.429  36.656  1.00  0.00     0.057 A 
ATOM     73  C   UNL A   1      40.527  35.650  36.636  1.00  0.00     0.134 A 
ATOM     74  C   UNL A   1      39.094  34.126  37.799  1.00  0.00     0.134 A 
ATOM     75  F   UNL A   1      41.265  35.995  35.571  1.00  0.00    -0.206 F 
ATOM     76  C   UNL A   1      40.482  36.529  37.720  1.00  0.00     0.040 A 
ATOM     77  C   UNL A   1      39.025  35.004  38.882  1.00  0.00     0.040 A 
ATOM     78  F   UNL A   1      38.403  32.978  37.868  1.00  0.00    -0.206 F 
ATOM     79  C   UNL A   1      39.726  36.208  38.846  1.00  0.00     0.006 A 
ENDBRANCH  51  72
BRANCH  63  80
ATOM     80  C   UNL A   1      43.953  28.983  35.207  1.00  0.00     0.057 A 
ATOM     81  C   UNL A   1      43.733  28.016  36.196  1.00  0.00     0.134 A 
ATOM     82  C   UNL A   1      45.269  29.406  34.990  1.00  0.00     0.134 A 
ATOM     83  F   UNL A   1      42.492  27.579  36.457  1.00  0.00    -0.206 F 
ATOM     84  C   UNL A   1      44.783  27.504  36.959  1.00  0.00     0.040 A 
ATOM     85  C   UNL A   1      46.330  28.886  35.733  1.00  0.00     0.040 A 
ATOM     86  F   UNL A   1      45.543  30.323  34.050  1.00  0.00    -0.206 F 
ATOM     87  C   UNL A   1      46.086  27.940  36.728  1.00  0.00     0.006 A 
ENDBRANCH  63  80
ENDBRANCH  37  38
ENDBRANCH  29  32
ENDBRANCH  27  28
ENDBRANCH  26  27
ENDBRANCH  25  26
ENDBRANCH   1  25
TORSDOF 15
ENDMDL
MODEL 2
REMARK VINA RESULT:     -11.8      1.137      6.328
REMARK SMILES C[C@@H](CNc1cccc(F)c1C(=O)NCCCCNC(=O)c1ccc(-c2c3nc(c(-c4c(F)cccc4F)c4ccc([nH]4)c(-c4c(F)cccc4F)c4nc(c(-c5c(F)cccc5F)c5ccc2[nH]5)C=C4)C=C3)cc1)[NH+]1CCCCC1
REMARK SMILES IDX 15 1 14 2 12 3 13 4 11 6 5 7 6 8 7 9 9 10 8 11 10 12 4 13
REMARK SMILES IDX 3 15 2 16 1 17 76 18 77 19 81 20 78 22 80 23 79 24 16 25
REMARK SMILES IDX 17 26 18 27 19 28 20 29 21 31 22 32 23 33 75 34 24 35 74 36
REMARK SMILES IDX 25 37 26 38 27 39 68 40 28 41 73 42 67 43 69 44 29 45 72 46
REMARK SMILES IDX 66 47 65 48 30 50 56 51 39 52 55 53 40 54 43 55 54 56 70 57
REMARK SMILES IDX 41 58 42 59 53 61 71 62 44 63 31 64 32 65 37 66 33 67 34 68
REMARK SMILES IDX 36 69 38 70 35 71 57 72 58 73 63 74 59 75 60 76 62 77 64 78
REMARK SMILES IDX 61 79 45 80 46 81 51 82 47 83 48 84 50 85 52 86 49 87
REMARK H PARENT 14 5 4 14 76 21 19 30 69 49 43 60
REMARK Flexibility Score: inf
ROOT
ATOM      1  C   UNL A   1      33.102  29.988  26.089  1.00  0.00     0.116 C 
ENDROOT
BRANCH   1   2
ATOM      2  N   UNL A   1      33.599  29.478  24.827  1.00  0.00    -0.352 N 
ATOM      3  C   UNL A   1      33.542  28.240  24.237  1.00  0.00     0.256 C 
ATOM      4  O   UNL A   1      34.149  28.121  23.169  1.00  0.00    -0.269 OA
ATOM      5  H   UNL A   1      34.072  30.151  24.287  1.00  0.00     0.163 HD
BRANCH   3   6
ATOM      6  C   UNL A   1      32.721  27.096  24.742  1.00  0.00     0.098 A 
ATOM      7  C   UNL A   1      31.372  26.988  24.297  1.00  0.00     0.050 A 
ATOM      8  C   UNL A   1      30.580  25.942  24.802  1.00  0.00     0.027 A 
ATOM      9  C   UNL A   1      31.080  25.025  25.724  1.00  0.00     0.005 A 
ATOM     10  C   UNL A   1      33.216  26.131  25.622  1.00  0.00     0.138 A 
ATOM     11  C   UNL A   1      32.401  25.121  26.134  1.00  0.00     0.040 A 
ATOM     12  F   UNL A   1      34.496  26.111  26.003  1.00  0.00    -0.206 F 
BRANCH   7  13
ATOM     13  N   UNL A   1      30.816  27.948  23.457  1.00  0.00    -0.378 N 
ATOM     14  H   UNL A   1      31.349  28.756  23.272  1.00  0.00     0.160 HD
BRANCH  13  15
ATOM     15  C   UNL A   1      29.507  27.846  22.832  1.00  0.00     0.177 C 
BRANCH  15  16
ATOM     16  C   UNL A   1      28.536  29.003  23.263  1.00  0.00     0.200 C 
ATOM     17  C   UNL A   1      27.100  28.439  23.338  1.00  0.00     0.077 C 
BRANCH  16  18
ATOM     18  N   UNL A   1      28.676  30.354  22.628  1.00  0.00    -0.331 N 
ATOM     19  C   UNL A   1      27.976  30.505  21.346  1.00  0.00     0.262 C 
ATOM     20  C   UNL A   1      28.444  31.499  23.516  1.00  0.00     0.262 C 
ATOM     21  H   UNL A   1      29.672  30.379  22.414  1.00  0.00     0.348 HD
ATOM     22  C   UNL A   1      28.257  31.827  20.633  1.00  0.00     0.062 C 
ATOM     23  C   UNL A   1      28.750  32.840  22.840  1.00  0.00     0.062 C 
ATOM     24  C   UNL A   1      27.966  33.004  21.549  1.00  0.00     0.012 C 
ENDBRANCH  16  18
ENDBRANCH  15  16
ENDBRANCH  13  15
ENDBRANCH   7  13
ENDBRANCH   3   6
ENDBRANCH   1   2
BRANCH   1  25
ATOM     25  C   UNL A   1      31.708  30.594  25.898  1.00  0.00     0.023 C 
BRANCH  25  26
ATOM     26  C   UNL A   1      31.454  31.864  26.715  1.00  0.00     0.023 C 
BRANCH  26  27
ATOM     27  C   UNL A   1      32.713  32.607  27.143  1.00  0.00     0.116 C 
BRANCH  27  28
ATOM     28  N   UNL A   1      32.448  33.970  27.579  1.00  0.00    -0.352 N 
ATOM     29  C   UNL A   1      33.120  34.718  28.518  1.00  0.00     0.251 C 
ATOM     30  H   UNL A   1      31.686  34.416  27.142  1.00  0.00     0.163 HD
ATOM     31  O   UNL A   1      32.711  35.816  28.851  1.00  0.00    -0.269 OA
BRANCH  29  32
ATOM     32  C   UNL A   1      34.330  34.149  29.149  1.00  0.00     0.039 A 
ATOM     33  C   UNL A   1      34.186  33.379  30.305  1.00  0.00     0.014 A 
ATOM     34  C   UNL A   1      35.590  34.351  28.581  1.00  0.00     0.014 A 
ATOM     35  C   UNL A   1      35.303  32.749  30.856  1.00  0.00     0.010 A 
ATOM     36  C   UNL A   1      36.690  33.673  29.094  1.00  0.00     0.010 A 
ATOM     37  C   UNL A   1      36.556  32.864  30.234  1.00  0.00    -0.014 A 
BRANCH  37  38
ATOM     38  C   UNL A   1      37.749  32.153  30.751  1.00  0.00     0.031 A 
ATOM     39  C   UNL A   1      38.508  32.721  31.916  1.00  0.00     0.074 A 
ATOM     40  C   UNL A   1      38.197  31.048  30.124  1.00  0.00     0.049 A 
ATOM     41  N   UNL A   1      39.649  32.337  32.425  1.00  0.00    -0.248 NA
ATOM     42  C   UNL A   1      37.916  33.896  32.578  1.00  0.00     0.031 C 
ATOM     43  C   UNL A   1      37.562  30.416  28.966  1.00  0.00     0.029 A 
ATOM     44  N   UNL A   1      39.302  30.270  30.364  1.00  0.00    -0.354 N 
ATOM     45  C   UNL A   1      39.925  33.234  33.448  1.00  0.00     0.074 A 
ATOM     46  C   UNL A   1      38.852  34.205  33.463  1.00  0.00     0.031 C 
ATOM     47  C   UNL A   1      38.278  29.337  28.609  1.00  0.00     0.029 A 
ATOM     48  C   UNL A   1      39.442  29.226  29.483  1.00  0.00     0.049 A 
ATOM     49  H   UNL A   1      39.933  30.444  31.099  1.00  0.00     0.167 HD
ATOM     50  C   UNL A   1      40.969  33.236  34.308  1.00  0.00     0.037 A 
ATOM     51  C   UNL A   1      40.408  28.293  29.384  1.00  0.00     0.037 A 
ATOM     52  C   UNL A   1      42.013  32.247  34.315  1.00  0.00     0.049 A 
ATOM     53  C   UNL A   1      41.557  28.316  30.350  1.00  0.00     0.074 A 
ATOM     54  C   UNL A   1      43.087  32.136  35.181  1.00  0.00     0.029 A 
ATOM     55  N   UNL A   1      42.106  31.193  33.420  1.00  0.00    -0.354 N 
ATOM     56  N   UNL A   1      41.792  29.153  31.331  1.00  0.00    -0.248 NA
ATOM     57  C   UNL A   1      42.578  27.268  30.198  1.00  0.00     0.031 C 
ATOM     58  C   UNL A   1      43.848  31.031  34.789  1.00  0.00     0.029 A 
ATOM     59  C   UNL A   1      43.226  30.432  33.705  1.00  0.00     0.049 A 
ATOM     60  H   UNL A   1      41.471  31.013  32.689  1.00  0.00     0.167 HD
ATOM     61  C   UNL A   1      42.969  28.721  31.928  1.00  0.00     0.074 A 
ATOM     62  C   UNL A   1      43.400  27.543  31.203  1.00  0.00     0.031 C 
ATOM     63  C   UNL A   1      43.631  29.254  32.983  1.00  0.00     0.037 A 
BRANCH  50  64
ATOM     64  C   UNL A   1      41.029  34.336  35.326  1.00  0.00     0.057 A 
ATOM     65  C   UNL A   1      40.419  34.187  36.577  1.00  0.00     0.134 A 
ATOM     66  C   UNL A   1      41.644  35.563  35.047  1.00  0.00     0.134 A 
ATOM     67  F   UNL A   1      39.808  33.038  36.906  1.00  0.00    -0.206 F 
ATOM     68  C   UNL A   1      40.413  35.221  37.513  1.00  0.00     0.040 A 
ATOM     69  C   UNL A   1      41.666  36.597  35.984  1.00  0.00     0.040 A 
ATOM     70  F   UNL A   1      42.257  35.763  33.870  1.00  0.00    -0.206 F 
ATOM     71  C   UNL A   1      41.041  36.430  37.218  1.00  0.00     0.006 A 
ENDBRANCH  50  64
BRANCH  51  72
ATOM     72  C   UNL A   1      40.308  27.240  28.343  1.00  0.00     0.057 A 
ATOM     73  C   UNL A   1      40.944  27.369  27.103  1.00  0.00     0.134 A 
ATOM     74  C   UNL A   1      39.548  26.085  28.563  1.00  0.00     0.134 A 
ATOM     75  F   UNL A   1      41.681  28.456  26.830  1.00  0.00    -0.206 F 
ATOM     76  C   UNL A   1      40.817  26.394  26.112  1.00  0.00     0.040 A 
ATOM     77  C   UNL A   1      39.428  25.093  27.589  1.00  0.00     0.040 A 
ATOM     78  F   UNL A   1      38.931  25.899  29.739  1.00  0.00    -0.206 F 
ATOM     79  C   UNL A   1      40.059  25.249  26.356  1.00  0.00     0.006 A 
ENDBRANCH  51  72
BRANCH  63  80
ATOM     80  C   UNL A   1      44.874  28.558  33.449  1.00  0.00     0.057 A 
ATOM     81  C   UNL A   1      46.116  28.870  32.882  1.00  0.00     0.134 A 
ATOM     82  C   UNL A   1      44.826  27.516  34.382  1.00  0.00     0.134 A 
ATOM     83  F   UNL A   1      46.223  29.852  31.975  1.00  0.00    -0.206 F 
ATOM     84  C   UNL A   1      47.267  28.155  33.213  1.00  0.00     0.040 A 
ATOM     85  C   UNL A   1      45.975  26.806  34.736  1.00  0.00     0.040 A 
ATOM     86  F   UNL A   1      43.667  27.177  34.966  1.00  0.00    -0.206 F 
ATOM     87  C   UNL A   1      47.198  27.119  34.143  1.00  0.00     0.006 A 
ENDBRANCH  63  80
ENDBRANCH  37  38
ENDBRANCH  29  32
ENDBRANCH  27  28
ENDBRANCH  26  27
ENDBRANCH  25  26
ENDBRANCH   1  25
TORSDOF 15
ENDMDL
MODEL 3
REMARK VINA RESULT:     -11.6      5.382     10.260
REMARK SMILES C[C@@H](CNc1cccc(F)c1C(=O)NCCCCNC(=O)c1ccc(-c2c3nc(c(-c4c(F)cccc4F)c4ccc([nH]4)c(-c4c(F)cccc4F)c4nc(c(-c5c(F)cccc5F)c5ccc2[nH]5)C=C4)C=C3)cc1)[NH+]1CCCCC1
REMARK SMILES IDX 15 1 14 2 12 3 13 4 11 6 5 7 6 8 7 9 9 10 8 11 10 12 4 13
REMARK SMILES IDX 3 15 2 16 1 17 76 18 77 19 81 20 78 22 80 23 79 24 16 25
REMARK SMILES IDX 17 26 18 27 19 28 20 29 21 31 22 32 23 33 75 34 24 35 74 36
REMARK SMILES IDX 25 37 26 38 27 39 68 40 28 41 73 42 67 43 69 44 29 45 72 46
REMARK SMILES IDX 66 47 65 48 30 50 56 51 39 52 55 53 40 54 43 55 54 56 70 57
REMARK SMILES IDX 41 58 42 59 53 61 71 62 44 63 31 64 32 65 37 66 33 67 34 68
REMARK SMILES IDX 36 69 38 70 35 71 57 72 58 73 63 74 59 75 60 76 62 77 64 78
REMARK SMILES IDX 61 79 45 80 46 81 51 82 47 83 48 84 50 85 52 86 49 87
REMARK H PARENT 14 5 4 14 76 21 19 30 69 49 43 60
REMARK Flexibility Score: inf
ROOT
ATOM      1  C   UNL A   1      35.754  22.643  24.477  1.00  0.00     0.116 C 
ENDROOT
BRANCH   1   2
ATOM      2  N   UNL A   1      34.997  23.101  23.329  1.00  0.00    -0.352 N 
ATOM      3  C   UNL A   1      33.806  23.772  23.207  1.00  0.00     0.256 C 
ATOM      4  O   UNL A   1      33.397  23.942  22.054  1.00  0.00    -0.269 OA
ATOM      5  H   UNL A   1      35.421  22.889  22.466  1.00  0.00     0.163 HD
BRANCH   3   6
ATOM      6  C   UNL A   1      33.057  24.385  24.346  1.00  0.00     0.098 A 
ATOM      7  C   UNL A   1      32.016  23.626  24.954  1.00  0.00     0.050 A 
ATOM      8  C   UNL A   1      31.277  24.212  25.996  1.00  0.00     0.027 A 
ATOM      9  C   UNL A   1      31.534  25.510  26.436  1.00  0.00     0.005 A 
ATOM     10  C   UNL A   1      33.333  25.661  24.843  1.00  0.00     0.138 A 
ATOM     11  C   UNL A   1      32.565  26.234  25.857  1.00  0.00     0.040 A 
ATOM     12  F   UNL A   1      34.357  26.391  24.391  1.00  0.00    -0.206 F 
BRANCH   7  13
ATOM     13  N   UNL A   1      31.670  22.369  24.468  1.00  0.00    -0.378 N 
ATOM     14  H   UNL A   1      31.049  22.330  23.704  1.00  0.00     0.160 HD
BRANCH  13  15
ATOM     15  C   UNL A   1      32.157  21.108  25.007  1.00  0.00     0.177 C 
BRANCH  15  16
ATOM     16  C   UNL A   1      32.860  20.214  23.924  1.00  0.00     0.200 C 
ATOM     17  C   UNL A   1      32.123  20.398  22.580  1.00  0.00     0.077 C 
BRANCH  16  18
ATOM     18  N   UNL A   1      33.247  18.808  24.272  1.00  0.00    -0.331 N 
ATOM     19  C   UNL A   1      32.528  18.240  25.419  1.00  0.00     0.262 C 
ATOM     20  C   UNL A   1      33.308  17.870  23.145  1.00  0.00     0.262 C 
ATOM     21  H   UNL A   1      34.214  18.929  24.572  1.00  0.00     0.348 HD
ATOM     22  C   UNL A   1      33.043  16.871  25.862  1.00  0.00     0.062 C 
ATOM     23  C   UNL A   1      33.853  16.496  23.550  1.00  0.00     0.062 C 
ATOM     24  C   UNL A   1      33.054  15.897  24.695  1.00  0.00     0.012 C 
ENDBRANCH  16  18
ENDBRANCH  15  16
ENDBRANCH  13  15
ENDBRANCH   7  13
ENDBRANCH   3   6
ENDBRANCH   1   2
BRANCH   1  25
ATOM     25  C   UNL A   1      37.119  22.112  24.029  1.00  0.00     0.023 C 
BRANCH  25  26
ATOM     26  C   UNL A   1      37.509  20.768  24.652  1.00  0.00     0.023 C 
BRANCH  26  27
ATOM     27  C   UNL A   1      38.570  20.856  25.740  1.00  0.00     0.116 C 
BRANCH  27  28
ATOM     28  N   UNL A   1      39.541  19.774  25.676  1.00  0.00    -0.352 N 
ATOM     29  C   UNL A   1      40.874  19.794  26.016  1.00  0.00     0.251 C 
ATOM     30  H   UNL A   1      39.197  18.913  25.346  1.00  0.00     0.163 HD
ATOM     31  O   UNL A   1      41.588  18.829  25.807  1.00  0.00    -0.269 OA
BRANCH  29  32
ATOM     32  C   UNL A   1      41.441  21.026  26.606  1.00  0.00     0.039 A 
ATOM     33  C   UNL A   1      41.979  21.993  25.755  1.00  0.00     0.014 A 
ATOM     34  C   UNL A   1      41.407  21.233  27.987  1.00  0.00     0.014 A 
ATOM     35  C   UNL A   1      42.424  23.205  26.284  1.00  0.00     0.010 A 
ATOM     36  C   UNL A   1      41.794  22.464  28.506  1.00  0.00     0.010 A 
ATOM     37  C   UNL A   1      42.301  23.462  27.659  1.00  0.00    -0.014 A 
BRANCH  37  38
ATOM     38  C   UNL A   1      42.699  24.764  28.246  1.00  0.00     0.031 A 
ATOM     39  C   UNL A   1      41.665  25.831  28.460  1.00  0.00     0.074 A 
ATOM     40  C   UNL A   1      43.997  25.014  28.506  1.00  0.00     0.049 A 
ATOM     41  N   UNL A   1      41.827  27.077  28.822  1.00  0.00    -0.248 NA
ATOM     42  C   UNL A   1      40.265  25.453  28.206  1.00  0.00     0.031 C 
ATOM     43  C   UNL A   1      45.097  24.067  28.314  1.00  0.00     0.029 A 
ATOM     44  N   UNL A   1      44.612  26.148  28.974  1.00  0.00    -0.354 N 
ATOM     45  C   UNL A   1      40.557  27.638  28.815  1.00  0.00     0.074 A 
ATOM     46  C   UNL A   1      39.640  26.609  28.376  1.00  0.00     0.031 C 
ATOM     47  C   UNL A   1      46.249  24.655  28.678  1.00  0.00     0.029 A 
ATOM     48  C   UNL A   1      45.975  26.028  29.088  1.00  0.00     0.049 A 
ATOM     49  H   UNL A   1      44.121  26.970  29.205  1.00  0.00     0.167 HD
ATOM     50  C   UNL A   1      40.188  28.893  29.162  1.00  0.00     0.037 A 
ATOM     51  C   UNL A   1      46.900  26.930  29.468  1.00  0.00     0.037 A 
ATOM     52  C   UNL A   1      41.097  29.901  29.635  1.00  0.00     0.049 A 
ATOM     53  C   UNL A   1      46.467  28.317  29.848  1.00  0.00     0.074 A 
ATOM     54  C   UNL A   1      40.811  31.187  30.059  1.00  0.00     0.029 A 
ATOM     55  N   UNL A   1      42.468  29.732  29.757  1.00  0.00    -0.354 N 
ATOM     56  N   UNL A   1      45.259  28.827  29.864  1.00  0.00    -0.248 NA
ATOM     57  C   UNL A   1      47.520  29.256  30.261  1.00  0.00     0.031 C 
ATOM     58  C   UNL A   1      42.014  31.807  30.409  1.00  0.00     0.029 A 
ATOM     59  C   UNL A   1      43.043  30.894  30.240  1.00  0.00     0.049 A 
ATOM     60  H   UNL A   1      42.959  28.908  29.533  1.00  0.00     0.167 HD
ATOM     61  C   UNL A   1      45.403  30.134  30.311  1.00  0.00     0.074 A 
ATOM     62  C   UNL A   1      46.814  30.339  30.561  1.00  0.00     0.031 C 
ATOM     63  C   UNL A   1      44.448  31.076  30.499  1.00  0.00     0.037 A 
BRANCH  50  64
ATOM     64  C   UNL A   1      38.734  29.243  29.056  1.00  0.00     0.057 A 
ATOM     65  C   UNL A   1      37.894  29.159  30.173  1.00  0.00     0.134 A 
ATOM     66  C   UNL A   1      38.154  29.614  27.836  1.00  0.00     0.134 A 
ATOM     67  F   UNL A   1      38.385  28.805  31.370  1.00  0.00    -0.206 F 
ATOM     68  C   UNL A   1      36.528  29.423  30.079  1.00  0.00     0.040 A 
ATOM     69  C   UNL A   1      36.794  29.905  27.734  1.00  0.00     0.040 A 
ATOM     70  F   UNL A   1      38.909  29.726  26.731  1.00  0.00    -0.206 F 
ATOM     71  C   UNL A   1      35.974  29.801  28.857  1.00  0.00     0.006 A 
ENDBRANCH  50  64
BRANCH  51  72
ATOM     72  C   UNL A   1      48.329  26.533  29.534  1.00  0.00     0.057 A 
ATOM     73  C   UNL A   1      48.871  25.923  30.671  1.00  0.00     0.134 A 
ATOM     74  C   UNL A   1      49.191  26.782  28.460  1.00  0.00     0.134 A 
ATOM     75  F   UNL A   1      48.097  25.664  31.735  1.00  0.00    -0.206 F 
ATOM     76  C   UNL A   1      50.224  25.585  30.742  1.00  0.00     0.040 A 
ATOM     77  C   UNL A   1      50.541  26.432  28.510  1.00  0.00     0.040 A 
ATOM     78  F   UNL A   1      48.724  27.349  27.338  1.00  0.00    -0.206 F 
ATOM     79  C   UNL A   1      51.062  25.837  29.658  1.00  0.00     0.006 A 
ENDBRANCH  51  72
BRANCH  63  80
ATOM     80  C   UNL A   1      44.880  32.409  31.029  1.00  0.00     0.057 A 
ATOM     81  C   UNL A   1      45.286  33.424  30.153  1.00  0.00     0.134 A 
ATOM     82  C   UNL A   1      44.989  32.653  32.403  1.00  0.00     0.134 A 
ATOM     83  F   UNL A   1      45.215  33.246  28.825  1.00  0.00    -0.206 F 
ATOM     84  C   UNL A   1      45.804  34.630  30.626  1.00  0.00     0.040 A 
ATOM     85  C   UNL A   1      45.487  33.863  32.888  1.00  0.00     0.040 A 
ATOM     86  F   UNL A   1      44.607  31.723  33.291  1.00  0.00    -0.206 F 
ATOM     87  C   UNL A   1      45.906  34.851  31.997  1.00  0.00     0.006 A 
ENDBRANCH  63  80
ENDBRANCH  37  38
ENDBRANCH  29  32
ENDBRANCH  27  28
ENDBRANCH  26  27
ENDBRANCH  25  26
ENDBRANCH   1  25
TORSDOF 15
ENDMDL
