MODEL 1
REMARK VINA RESULT:     -12.1      0.000      0.000
REMARK SMILES C[C@H](C(=O)NCCCCNC(=O)c1ccc(-c2c3nc(c(-c4c(F)cccc4F)c4ccc([nH]4)c(-c4c(F)cccc4F)c4nc(c(-c5c(F)cccc5F)c5ccc2[nH]5)C=C4)C=C3)cc1)c1cccc(C(=O)c2ccccc2)c1
REMARK SMILES IDX 7 1 6 2 5 3 3 4 4 5 2 7 1 8 67 9 68 10 80 11 69 12 71 13
REMARK SMILES IDX 70 14 72 15 73 16 74 17 75 18 79 19 76 20 78 21 77 22 8 23
REMARK SMILES IDX 9 24 10 25 11 26 12 28 13 29 14 30 66 31 15 32 65 33 16 34
REMARK SMILES IDX 17 35 18 36 59 37 19 38 64 39 58 40 60 41 20 42 63 43 57 44
REMARK SMILES IDX 56 45 21 47 47 48 30 49 46 50 31 51 34 52 45 53 61 54 32 55
REMARK SMILES IDX 33 56 44 58 62 59 35 60 22 61 23 62 28 63 24 64 25 65 27 66
REMARK SMILES IDX 29 67 26 68 48 69 49 70 54 71 50 72 51 73 53 74 55 75 52 76
REMARK SMILES IDX 36 77 37 78 42 79 38 80 39 81 41 82 43 83 40 84
REMARK H PARENT 5 6 10 27 60 46 34 57
REMARK Flexibility Score: inf
ROOT
ATOM      1  C   UNL A   1      31.709  30.637  26.348  1.00  0.00     0.023 C 
ENDROOT
BRANCH   1   2
ATOM      2  C   UNL A   1      33.172  30.213  26.277  1.00  0.00     0.116 C 
BRANCH   2   3
ATOM      3  N   UNL A   1      33.379  28.785  26.434  1.00  0.00    -0.356 N 
ATOM      4  C   UNL A   1      33.261  27.763  25.539  1.00  0.00     0.227 C 
ATOM      5  O   UNL A   1      33.688  26.660  25.896  1.00  0.00    -0.274 OA
ATOM      6  H   UNL A   1      33.650  28.508  27.338  1.00  0.00     0.163 HD
BRANCH   4   7
ATOM      7  C   UNL A   1      32.581  27.929  24.181  1.00  0.00     0.105 C 
ATOM      8  C   UNL A   1      33.513  27.403  23.078  1.00  0.00     0.023 C 
BRANCH   7   9
ATOM      9  C   UNL A   1      31.147  27.421  24.046  1.00  0.00    -0.035 A 
ATOM     10  C   UNL A   1      30.786  26.074  24.193  1.00  0.00     0.004 A 
ATOM     11  C   UNL A   1      30.122  28.349  23.770  1.00  0.00     0.016 A 
ATOM     12  C   UNL A   1      29.478  25.653  23.948  1.00  0.00     0.001 A 
ATOM     13  C   UNL A   1      28.805  27.939  23.519  1.00  0.00     0.023 A 
ATOM     14  C   UNL A   1      28.497  26.578  23.593  1.00  0.00     0.012 A 
BRANCH  13  15
ATOM     15  C   UNL A   1      27.700  28.897  23.216  1.00  0.00     0.193 C 
ATOM     16  O   UNL A   1      26.534  28.591  23.451  1.00  0.00    -0.289 OA
BRANCH  15  17
ATOM     17  C   UNL A   1      27.965  30.255  22.692  1.00  0.00     0.022 A 
ATOM     18  C   UNL A   1      28.022  30.424  21.306  1.00  0.00     0.012 A 
ATOM     19  C   UNL A   1      28.175  31.343  23.546  1.00  0.00     0.012 A 
ATOM     20  C   UNL A   1      28.237  31.694  20.771  1.00  0.00     0.001 A 
ATOM     21  C   UNL A   1      28.382  32.613  23.006  1.00  0.00     0.001 A 
ATOM     22  C   UNL A   1      28.405  32.789  21.621  1.00  0.00     0.000 A 
ENDBRANCH  15  17
ENDBRANCH  13  15
ENDBRANCH   7   9
ENDBRANCH   4   7
ENDBRANCH   2   3
ENDBRANCH   1   2
BRANCH   1  23
ATOM     23  C   UNL A   1      31.444  32.071  26.804  1.00  0.00     0.023 C 
BRANCH  23  24
ATOM     24  C   UNL A   1      32.665  32.971  26.959  1.00  0.00     0.116 C 
BRANCH  24  25
ATOM     25  N   UNL A   1      32.378  34.227  27.629  1.00  0.00    -0.352 N 
ATOM     26  C   UNL A   1      32.997  34.829  28.697  1.00  0.00     0.251 C 
ATOM     27  H   UNL A   1      31.617  34.729  27.258  1.00  0.00     0.163 HD
ATOM     28  O   UNL A   1      32.517  35.864  29.161  1.00  0.00    -0.269 OA
BRANCH  26  29
ATOM     29  C   UNL A   1      34.205  34.243  29.326  1.00  0.00     0.039 A 
ATOM     30  C   UNL A   1      34.030  33.370  30.405  1.00  0.00     0.014 A 
ATOM     31  C   UNL A   1      35.498  34.557  28.898  1.00  0.00     0.014 A 
ATOM     32  C   UNL A   1      35.138  32.763  31.003  1.00  0.00     0.010 A 
ATOM     33  C   UNL A   1      36.599  33.894  29.447  1.00  0.00     0.010 A 
ATOM     34  C   UNL A   1      36.431  32.989  30.506  1.00  0.00    -0.014 A 
BRANCH  34  35
ATOM     35  C   UNL A   1      37.600  32.270  31.080  1.00  0.00     0.031 A 
ATOM     36  C   UNL A   1      38.096  32.585  32.465  1.00  0.00     0.074 A 
ATOM     37  C   UNL A   1      38.242  31.348  30.336  1.00  0.00     0.049 A 
ATOM     38  N   UNL A   1      39.096  32.055  33.124  1.00  0.00    -0.248 NA
ATOM     39  C   UNL A   1      37.391  33.647  33.198  1.00  0.00     0.031 C 
ATOM     40  C   UNL A   1      37.907  30.992  28.955  1.00  0.00     0.029 A 
ATOM     41  N   UNL A   1      39.312  30.542  30.636  1.00  0.00    -0.354 N 
ATOM     42  C   UNL A   1      39.141  32.717  34.344  1.00  0.00     0.074 A 
ATOM     43  C   UNL A   1      38.105  33.728  34.312  1.00  0.00     0.031 C 
ATOM     44  C   UNL A   1      38.738  30.023  28.538  1.00  0.00     0.029 A 
ATOM     45  C   UNL A   1      39.676  29.704  29.609  1.00  0.00     0.049 A 
ATOM     46  H   UNL A   1      39.775  30.561  31.505  1.00  0.00     0.167 HD
ATOM     47  C   UNL A   1      39.951  32.490  35.407  1.00  0.00     0.037 A 
ATOM     48  C   UNL A   1      40.652  28.779  29.539  1.00  0.00     0.037 A 
ATOM     49  C   UNL A   1      40.974  31.477  35.450  1.00  0.00     0.049 A 
ATOM     50  C   UNL A   1      41.521  28.528  30.739  1.00  0.00     0.074 A 
ATOM     51  C   UNL A   1      41.820  31.148  36.496  1.00  0.00     0.029 A 
ATOM     52  N   UNL A   1      41.289  30.626  34.402  1.00  0.00    -0.354 N 
ATOM     53  N   UNL A   1      41.506  29.120  31.908  1.00  0.00    -0.248 NA
ATOM     54  C   UNL A   1      42.532  27.469  30.613  1.00  0.00     0.031 C 
ATOM     55  C   UNL A   1      42.665  30.118  36.071  1.00  0.00     0.029 A 
ATOM     56  C   UNL A   1      42.320  29.778  34.773  1.00  0.00     0.049 A 
ATOM     57  H   UNL A   1      40.844  30.624  33.524  1.00  0.00     0.167 HD
ATOM     58  C   UNL A   1      42.489  28.493  32.663  1.00  0.00     0.074 A 
ATOM     59  C   UNL A   1      43.064  27.460  31.827  1.00  0.00     0.031 C 
ATOM     60  C   UNL A   1      42.883  28.754  33.933  1.00  0.00     0.037 A 
BRANCH  47  61
ATOM     61  C   UNL A   1      39.748  33.345  36.623  1.00  0.00     0.057 A 
ATOM     62  C   UNL A   1      40.487  34.519  36.824  1.00  0.00     0.134 A 
ATOM     63  C   UNL A   1      38.785  33.016  37.584  1.00  0.00     0.134 A 
ATOM     64  F   UNL A   1      41.434  34.884  35.946  1.00  0.00    -0.206 F 
ATOM     65  C   UNL A   1      40.289  35.324  37.946  1.00  0.00     0.040 A 
ATOM     66  C   UNL A   1      38.560  33.827  38.699  1.00  0.00     0.040 A 
ATOM     67  F   UNL A   1      38.038  31.910  37.450  1.00  0.00    -0.206 F 
ATOM     68  C   UNL A   1      39.318  34.982  38.884  1.00  0.00     0.006 A 
ENDBRANCH  47  61
BRANCH  48  69
ATOM     69  C   UNL A   1      40.842  27.995  28.293  1.00  0.00     0.057 A 
ATOM     70  C   UNL A   1      40.221  26.753  28.118  1.00  0.00     0.134 A 
ATOM     71  C   UNL A   1      41.657  28.463  27.256  1.00  0.00     0.134 A 
ATOM     72  F   UNL A   1      39.445  26.245  29.087  1.00  0.00    -0.206 F 
ATOM     73  C   UNL A   1      40.421  25.992  26.965  1.00  0.00     0.040 A 
ATOM     74  C   UNL A   1      41.846  27.723  26.088  1.00  0.00     0.040 A 
ATOM     75  F   UNL A   1      42.271  29.649  27.360  1.00  0.00    -0.206 F 
ATOM     76  C   UNL A   1      41.234  26.480  25.944  1.00  0.00     0.006 A 
ENDBRANCH  48  69
BRANCH  60  77
ATOM     77  C   UNL A   1      43.972  27.892  34.498  1.00  0.00     0.057 A 
ATOM     78  C   UNL A   1      43.689  26.728  35.224  1.00  0.00     0.134 A 
ATOM     79  C   UNL A   1      45.319  28.223  34.305  1.00  0.00     0.134 A 
ATOM     80  F   UNL A   1      42.420  26.364  35.456  1.00  0.00    -0.206 F 
ATOM     81  C   UNL A   1      44.708  25.939  35.762  1.00  0.00     0.040 A 
ATOM     82  C   UNL A   1      46.347  27.429  34.816  1.00  0.00     0.040 A 
ATOM     83  F   UNL A   1      45.659  29.321  33.612  1.00  0.00    -0.206 F 
ATOM     84  C   UNL A   1      46.042  26.287  35.555  1.00  0.00     0.006 A 
ENDBRANCH  60  77
ENDBRANCH  34  35
ENDBRANCH  26  29
ENDBRANCH  24  25
ENDBRANCH  23  24
ENDBRANCH   1  23
TORSDOF 14
ENDMDL
MODEL 2
REMARK VINA RESULT:     -12.0      4.896      9.187
REMARK SMILES C[C@H](C(=O)NCCCCNC(=O)c1ccc(-c2c3nc(c(-c4c(F)cccc4F)c4ccc([nH]4)c(-c4c(F)cccc4F)c4nc(c(-c5c(F)cccc5F)c5ccc2[nH]5)C=C4)C=C3)cc1)c1cccc(C(=O)c2ccccc2)c1
REMARK SMILES IDX 7 1 6 2 5 3 3 4 4 5 2 7 1 8 67 9 68 10 80 11 69 12 71 13
REMARK SMILES IDX 70 14 72 15 73 16 74 17 75 18 79 19 76 20 78 21 77 22 8 23
REMARK SMILES IDX 9 24 10 25 11 26 12 28 13 29 14 30 66 31 15 32 65 33 16 34
REMARK SMILES IDX 17 35 18 36 59 37 19 38 64 39 58 40 60 41 20 42 63 43 57 44
REMARK SMILES IDX 56 45 21 47 47 48 30 49 46 50 31 51 34 52 45 53 61 54 32 55
REMARK SMILES IDX 33 56 44 58 62 59 35 60 22 61 23 62 28 63 24 64 25 65 27 66
REMARK SMILES IDX 29 67 26 68 48 69 49 70 54 71 50 72 51 73 53 74 55 75 52 76
REMARK SMILES IDX 36 77 37 78 42 79 38 80 39 81 41 82 43 83 40 84
REMARK H PARENT 5 6 10 27 60 46 34 57
REMARK Flexibility Score: inf
ROOT
ATOM      1  C   UNL A   1      36.249  20.319  25.021  1.00  0.00     0.023 C 
ENDROOT
BRANCH   1   2
ATOM      2  C   UNL A   1      35.188  19.296  24.628  1.00  0.00     0.116 C 
BRANCH   2   3
ATOM      3  N   UNL A   1      33.877  19.562  25.190  1.00  0.00    -0.356 N 
ATOM      4  C   UNL A   1      32.917  20.461  24.829  1.00  0.00     0.227 C 
ATOM      5  O   UNL A   1      31.811  20.338  25.365  1.00  0.00    -0.274 OA
ATOM      6  H   UNL A   1      33.641  19.001  25.962  1.00  0.00     0.163 HD
BRANCH   4   7
ATOM      7  C   UNL A   1      33.185  21.611  23.859  1.00  0.00     0.105 C 
ATOM      8  C   UNL A   1      32.084  21.641  22.788  1.00  0.00     0.023 C 
BRANCH   7   9
ATOM      9  C   UNL A   1      33.474  22.985  24.461  1.00  0.00    -0.035 A 
ATOM     10  C   UNL A   1      34.764  23.514  24.598  1.00  0.00     0.004 A 
ATOM     11  C   UNL A   1      32.389  23.777  24.892  1.00  0.00     0.016 A 
ATOM     12  C   UNL A   1      34.974  24.727  25.257  1.00  0.00     0.001 A 
ATOM     13  C   UNL A   1      32.587  24.996  25.557  1.00  0.00     0.023 A 
ATOM     14  C   UNL A   1      33.893  25.454  25.752  1.00  0.00     0.012 A 
BRANCH  13  15
ATOM     15  C   UNL A   1      31.460  25.853  26.034  1.00  0.00     0.193 C 
ATOM     16  O   UNL A   1      30.446  25.339  26.500  1.00  0.00    -0.289 OA
BRANCH  15  17
ATOM     17  C   UNL A   1      31.546  27.330  26.028  1.00  0.00     0.022 A 
ATOM     18  C   UNL A   1      31.887  27.971  27.223  1.00  0.00     0.012 A 
ATOM     19  C   UNL A   1      31.276  28.077  24.878  1.00  0.00     0.012 A 
ATOM     20  C   UNL A   1      32.010  29.360  27.252  1.00  0.00     0.001 A 
ATOM     21  C   UNL A   1      31.408  29.466  24.911  1.00  0.00     0.001 A 
ATOM     22  C   UNL A   1      31.782  30.105  26.094  1.00  0.00     0.000 A 
ENDBRANCH  15  17
ENDBRANCH  13  15
ENDBRANCH   7   9
ENDBRANCH   4   7
ENDBRANCH   2   3
ENDBRANCH   1   2
BRANCH   1  23
ATOM     23  C   UNL A   1      37.693  19.958  24.677  1.00  0.00     0.023 C 
BRANCH  23  24
ATOM     24  C   UNL A   1      38.746  20.299  25.727  1.00  0.00     0.116 C 
BRANCH  24  25
ATOM     25  N   UNL A   1      39.852  19.358  25.766  1.00  0.00    -0.352 N 
ATOM     26  C   UNL A   1      41.165  19.540  26.125  1.00  0.00     0.251 C 
ATOM     27  H   UNL A   1      39.624  18.440  25.491  1.00  0.00     0.163 HD
ATOM     28  O   UNL A   1      41.957  18.607  25.988  1.00  0.00    -0.269 OA
BRANCH  26  29
ATOM     29  C   UNL A   1      41.658  20.843  26.633  1.00  0.00     0.039 A 
ATOM     30  C   UNL A   1      42.102  21.790  25.704  1.00  0.00     0.014 A 
ATOM     31  C   UNL A   1      41.718  21.138  27.998  1.00  0.00     0.014 A 
ATOM     32  C   UNL A   1      42.537  23.045  26.136  1.00  0.00     0.010 A 
ATOM     33  C   UNL A   1      42.083  22.417  28.424  1.00  0.00     0.010 A 
ATOM     34  C   UNL A   1      42.496  23.387  27.497  1.00  0.00    -0.014 A 
BRANCH  34  35
ATOM     35  C   UNL A   1      42.869  24.754  27.948  1.00  0.00     0.031 A 
ATOM     36  C   UNL A   1      41.819  25.807  28.170  1.00  0.00     0.074 A 
ATOM     37  C   UNL A   1      44.169  25.061  28.128  1.00  0.00     0.049 A 
ATOM     38  N   UNL A   1      41.963  27.048  28.565  1.00  0.00    -0.248 NA
ATOM     39  C   UNL A   1      40.426  25.427  27.893  1.00  0.00     0.031 C 
ATOM     40  C   UNL A   1      45.293  24.155  27.885  1.00  0.00     0.029 A 
ATOM     41  N   UNL A   1      44.765  26.222  28.555  1.00  0.00    -0.354 N 
ATOM     42  C   UNL A   1      40.686  27.594  28.583  1.00  0.00     0.074 A 
ATOM     43  C   UNL A   1      39.784  26.568  28.103  1.00  0.00     0.031 C 
ATOM     44  C   UNL A   1      46.439  24.785  28.192  1.00  0.00     0.029 A 
ATOM     45  C   UNL A   1      46.134  26.144  28.629  1.00  0.00     0.049 A 
ATOM     46  H   UNL A   1      44.258  27.034  28.787  1.00  0.00     0.167 HD
ATOM     47  C   UNL A   1      40.293  28.826  28.986  1.00  0.00     0.037 A 
ATOM     48  C   UNL A   1      47.044  27.059  29.012  1.00  0.00     0.037 A 
ATOM     49  C   UNL A   1      41.183  29.846  29.477  1.00  0.00     0.049 A 
ATOM     50  C   UNL A   1      46.580  28.411  29.479  1.00  0.00     0.074 A 
ATOM     51  C   UNL A   1      40.872  31.113  29.943  1.00  0.00     0.029 A 
ATOM     52  N   UNL A   1      42.560  29.716  29.570  1.00  0.00    -0.354 N 
ATOM     53  N   UNL A   1      45.362  28.887  29.550  1.00  0.00    -0.248 NA
ATOM     54  C   UNL A   1      47.620  29.346  29.933  1.00  0.00     0.031 C 
ATOM     55  C   UNL A   1      42.064  31.758  30.291  1.00  0.00     0.029 A 
ATOM     56  C   UNL A   1      43.114  30.880  30.078  1.00  0.00     0.049 A 
ATOM     57  H   UNL A   1      43.070  28.914  29.313  1.00  0.00     0.167 HD
ATOM     58  C   UNL A   1      45.485  30.168  30.075  1.00  0.00     0.074 A 
ATOM     59  C   UNL A   1      46.895  30.384  30.325  1.00  0.00     0.031 C 
ATOM     60  C   UNL A   1      44.518  31.083  30.322  1.00  0.00     0.037 A 
BRANCH  47  61
ATOM     61  C   UNL A   1      38.825  29.133  28.931  1.00  0.00     0.057 A 
ATOM     62  C   UNL A   1      38.013  29.030  30.069  1.00  0.00     0.134 A 
ATOM     63  C   UNL A   1      38.223  29.571  27.745  1.00  0.00     0.134 A 
ATOM     64  F   UNL A   1      38.525  28.604  31.233  1.00  0.00    -0.206 F 
ATOM     65  C   UNL A   1      36.650  29.330  30.023  1.00  0.00     0.040 A 
ATOM     66  C   UNL A   1      36.866  29.898  27.694  1.00  0.00     0.040 A 
ATOM     67  F   UNL A   1      38.944  29.699  26.622  1.00  0.00    -0.206 F 
ATOM     68  C   UNL A   1      36.076  29.773  28.835  1.00  0.00     0.006 A 
ENDBRANCH  47  61
BRANCH  48  69
ATOM     69  C   UNL A   1      48.489  26.720  29.000  1.00  0.00     0.057 A 
ATOM     70  C   UNL A   1      49.093  26.092  30.095  1.00  0.00     0.134 A 
ATOM     71  C   UNL A   1      49.299  27.026  27.901  1.00  0.00     0.134 A 
ATOM     72  F   UNL A   1      48.370  25.793  31.185  1.00  0.00    -0.206 F 
ATOM     73  C   UNL A   1      50.458  25.801  30.108  1.00  0.00     0.040 A 
ATOM     74  C   UNL A   1      50.660  26.718  27.891  1.00  0.00     0.040 A 
ATOM     75  F   UNL A   1      48.777  27.620  26.819  1.00  0.00    -0.206 F 
ATOM     76  C   UNL A   1      51.245  26.111  29.000  1.00  0.00     0.006 A 
ENDBRANCH  48  69
BRANCH  60  77
ATOM     77  C   UNL A   1      44.953  32.391  30.913  1.00  0.00     0.057 A 
ATOM     78  C   UNL A   1      45.311  33.481  30.109  1.00  0.00     0.134 A 
ATOM     79  C   UNL A   1      45.003  32.566  32.302  1.00  0.00     0.134 A 
ATOM     80  F   UNL A   1      45.299  33.372  28.772  1.00  0.00    -0.206 F 
ATOM     81  C   UNL A   1      45.732  34.690  30.666  1.00  0.00     0.040 A 
ATOM     82  C   UNL A   1      45.398  33.778  32.871  1.00  0.00     0.040 A 
ATOM     83  F   UNL A   1      44.665  31.565  33.128  1.00  0.00    -0.206 F 
ATOM     84  C   UNL A   1      45.772  34.842  32.051  1.00  0.00     0.006 A 
ENDBRANCH  60  77
ENDBRANCH  34  35
ENDBRANCH  26  29
ENDBRANCH  24  25
ENDBRANCH  23  24
ENDBRANCH   1  23
TORSDOF 14
ENDMDL
MODEL 3
REMARK VINA RESULT:     -11.9      5.061      9.730
REMARK SMILES C[C@H](C(=O)NCCCCNC(=O)c1ccc(-c2c3nc(c(-c4c(F)cccc4F)c4ccc([nH]4)c(-c4c(F)cccc4F)c4nc(c(-c5c(F)cccc5F)c5ccc2[nH]5)C=C4)C=C3)cc1)c1cccc(C(=O)c2ccccc2)c1
REMARK SMILES IDX 7 1 6 2 5 3 3 4 4 5 2 7 1 8 67 9 68 10 80 11 69 12 71 13
REMARK SMILES IDX 70 14 72 15 73 16 74 17 75 18 79 19 76 20 78 21 77 22 8 23
REMARK SMILES IDX 9 24 10 25 11 26 12 28 13 29 14 30 66 31 15 32 65 33 16 34
REMARK SMILES IDX 17 35 18 36 59 37 19 38 64 39 58 40 60 41 20 42 63 43 57 44
REMARK SMILES IDX 56 45 21 47 47 48 30 49 46 50 31 51 34 52 45 53 61 54 32 55
REMARK SMILES IDX 33 56 44 58 62 59 35 60 22 61 23 62 28 63 24 64 25 65 27 66
REMARK SMILES IDX 29 67 26 68 48 69 49 70 54 71 50 72 51 73 53 74 55 75 52 76
REMARK SMILES IDX 36 77 37 78 42 79 38 80 39 81 41 82 43 83 40 84
REMARK H PARENT 5 6 10 27 60 46 34 57
REMARK Flexibility Score: inf
ROOT
ATOM      1  C   UNL A   1      38.875  22.444  26.357  1.00  0.00     0.023 C 
ENDROOT
BRANCH   1   2
ATOM      2  C   UNL A   1      37.658  23.250  25.911  1.00  0.00     0.116 C 
BRANCH   2   3
ATOM      3  N   UNL A   1      37.411  23.199  24.482  1.00  0.00    -0.356 N 
ATOM      4  C   UNL A   1      36.360  22.695  23.775  1.00  0.00     0.227 C 
ATOM      5  O   UNL A   1      36.321  22.962  22.569  1.00  0.00    -0.274 OA
ATOM      6  H   UNL A   1      38.123  23.594  23.929  1.00  0.00     0.163 HD
BRANCH   4   7
ATOM      7  C   UNL A   1      35.301  21.790  24.403  1.00  0.00     0.105 C 
ATOM      8  C   UNL A   1      35.969  20.506  24.918  1.00  0.00     0.023 C 
BRANCH   7   9
ATOM      9  C   UNL A   1      34.351  22.419  25.420  1.00  0.00    -0.035 A 
ATOM     10  C   UNL A   1      34.122  21.888  26.697  1.00  0.00     0.004 A 
ATOM     11  C   UNL A   1      33.674  23.606  25.072  1.00  0.00     0.016 A 
ATOM     12  C   UNL A   1      33.159  22.443  27.541  1.00  0.00     0.001 A 
ATOM     13  C   UNL A   1      32.703  24.173  25.910  1.00  0.00     0.023 A 
ATOM     14  C   UNL A   1      32.439  23.568  27.142  1.00  0.00     0.012 A 
BRANCH  13  15
ATOM     15  C   UNL A   1      31.962  25.423  25.565  1.00  0.00     0.193 C 
ATOM     16  O   UNL A   1      30.993  25.380  24.811  1.00  0.00    -0.289 OA
BRANCH  15  17
ATOM     17  C   UNL A   1      32.316  26.731  26.159  1.00  0.00     0.022 A 
ATOM     18  C   UNL A   1      33.610  27.217  25.951  1.00  0.00     0.012 A 
ATOM     19  C   UNL A   1      31.402  27.460  26.926  1.00  0.00     0.012 A 
ATOM     20  C   UNL A   1      33.974  28.461  26.467  1.00  0.00     0.001 A 
ATOM     21  C   UNL A   1      31.769  28.708  27.434  1.00  0.00     0.001 A 
ATOM     22  C   UNL A   1      33.050  29.210  27.198  1.00  0.00     0.000 A 
ENDBRANCH  15  17
ENDBRANCH  13  15
ENDBRANCH   7   9
ENDBRANCH   4   7
ENDBRANCH   2   3
ENDBRANCH   1   2
BRANCH   1  23
ATOM     23  C   UNL A   1      39.244  21.244  25.487  1.00  0.00     0.023 C 
BRANCH  23  24
ATOM     24  C   UNL A   1      39.433  19.914  26.209  1.00  0.00     0.116 C 
BRANCH  24  25
ATOM     25  N   UNL A   1      40.659  19.225  25.845  1.00  0.00    -0.352 N 
ATOM     26  C   UNL A   1      41.968  19.631  25.931  1.00  0.00     0.251 C 
ATOM     27  H   UNL A   1      40.532  18.321  25.476  1.00  0.00     0.163 HD
ATOM     28  O   UNL A   1      42.850  18.907  25.469  1.00  0.00    -0.269 OA
BRANCH  26  29
ATOM     29  C   UNL A   1      42.340  20.935  26.531  1.00  0.00     0.039 A 
ATOM     30  C   UNL A   1      42.792  21.949  25.680  1.00  0.00     0.014 A 
ATOM     31  C   UNL A   1      42.281  21.168  27.908  1.00  0.00     0.014 A 
ATOM     32  C   UNL A   1      43.114  23.207  26.197  1.00  0.00     0.010 A 
ATOM     33  C   UNL A   1      42.532  22.446  28.414  1.00  0.00     0.010 A 
ATOM     34  C   UNL A   1      42.951  23.480  27.564  1.00  0.00    -0.014 A 
BRANCH  34  35
ATOM     35  C   UNL A   1      43.204  24.845  28.100  1.00  0.00     0.031 A 
ATOM     36  C   UNL A   1      44.598  25.295  28.440  1.00  0.00     0.074 A 
ATOM     37  C   UNL A   1      42.165  25.677  28.310  1.00  0.00     0.049 A 
ATOM     38  N   UNL A   1      45.001  26.449  28.913  1.00  0.00    -0.248 NA
ATOM     39  C   UNL A   1      45.678  24.316  28.249  1.00  0.00     0.031 C 
ATOM     40  C   UNL A   1      40.756  25.345  28.084  1.00  0.00     0.029 A 
ATOM     41  N   UNL A   1      42.132  26.972  28.765  1.00  0.00    -0.354 N 
ATOM     42  C   UNL A   1      46.376  26.335  29.074  1.00  0.00     0.074 A 
ATOM     43  C   UNL A   1      46.731  24.980  28.704  1.00  0.00     0.031 C 
ATOM     44  C   UNL A   1      40.001  26.416  28.376  1.00  0.00     0.029 A 
ATOM     45  C   UNL A   1      40.865  27.501  28.830  1.00  0.00     0.049 A 
ATOM     46  H   UNL A   1      42.939  27.475  29.019  1.00  0.00     0.167 HD
ATOM     47  C   UNL A   1      47.268  27.276  29.466  1.00  0.00     0.037 A 
ATOM     48  C   UNL A   1      40.446  28.723  29.208  1.00  0.00     0.037 A 
ATOM     49  C   UNL A   1      46.923  28.629  29.821  1.00  0.00     0.049 A 
ATOM     50  C   UNL A   1      41.457  29.758  29.615  1.00  0.00     0.074 A 
ATOM     51  C   UNL A   1      47.762  29.664  30.195  1.00  0.00     0.029 A 
ATOM     52  N   UNL A   1      45.633  29.135  29.841  1.00  0.00    -0.354 N 
ATOM     53  N   UNL A   1      42.761  29.652  29.699  1.00  0.00    -0.248 NA
ATOM     54  C   UNL A   1      40.938  31.088  29.966  1.00  0.00     0.031 C 
ATOM     55  C   UNL A   1      46.977  30.789  30.470  1.00  0.00     0.029 A 
ATOM     56  C   UNL A   1      45.652  30.466  30.229  1.00  0.00     0.049 A 
ATOM     57  H   UNL A   1      44.822  28.626  29.613  1.00  0.00     0.167 HD
ATOM     58  C   UNL A   1      43.218  30.903  30.092  1.00  0.00     0.074 A 
ATOM     59  C   UNL A   1      42.055  31.758  30.206  1.00  0.00     0.031 C 
ATOM     60  C   UNL A   1      44.488  31.306  30.339  1.00  0.00     0.037 A 
BRANCH  47  61
ATOM     61  C   UNL A   1      48.714  26.878  29.513  1.00  0.00     0.057 A 
ATOM     62  C   UNL A   1      49.557  27.050  28.406  1.00  0.00     0.134 A 
ATOM     63  C   UNL A   1      49.281  26.355  30.681  1.00  0.00     0.134 A 
ATOM     64  F   UNL A   1      49.073  27.535  27.253  1.00  0.00    -0.206 F 
ATOM     65  C   UNL A   1      50.906  26.695  28.453  1.00  0.00     0.040 A 
ATOM     66  C   UNL A   1      50.635  26.020  30.748  1.00  0.00     0.040 A 
ATOM     67  F   UNL A   1      48.533  26.172  31.779  1.00  0.00    -0.206 F 
ATOM     68  C   UNL A   1      51.450  26.185  29.629  1.00  0.00     0.006 A 
ENDBRANCH  47  61
BRANCH  48  69
ATOM     69  C   UNL A   1      38.998  29.049  29.190  1.00  0.00     0.057 A 
ATOM     70  C   UNL A   1      38.363  29.456  28.012  1.00  0.00     0.134 A 
ATOM     71  C   UNL A   1      38.221  28.973  30.351  1.00  0.00     0.134 A 
ATOM     72  F   UNL A   1      39.062  29.567  26.872  1.00  0.00    -0.206 F 
ATOM     73  C   UNL A   1      37.010  29.799  27.992  1.00  0.00     0.040 A 
ATOM     74  C   UNL A   1      36.862  29.289  30.340  1.00  0.00     0.040 A 
ATOM     75  F   UNL A   1      38.770  28.582  31.510  1.00  0.00    -0.206 F 
ATOM     76  C   UNL A   1      36.255  29.712  29.160  1.00  0.00     0.006 A 
ENDBRANCH  48  69
BRANCH  60  77
ATOM     77  C   UNL A   1      44.683  32.739  30.736  1.00  0.00     0.057 A 
ATOM     78  C   UNL A   1      44.873  33.749  29.784  1.00  0.00     0.134 A 
ATOM     79  C   UNL A   1      44.668  33.116  32.085  1.00  0.00     0.134 A 
ATOM     80  F   UNL A   1      44.911  33.451  28.477  1.00  0.00    -0.206 F 
ATOM     81  C   UNL A   1      45.070  35.078  30.162  1.00  0.00     0.040 A 
ATOM     82  C   UNL A   1      44.839  34.445  32.474  1.00  0.00     0.040 A 
ATOM     83  F   UNL A   1      44.483  32.199  33.047  1.00  0.00    -0.206 F 
ATOM     84  C   UNL A   1      45.049  35.430  31.510  1.00  0.00     0.006 A 
ENDBRANCH  60  77
ENDBRANCH  34  35
ENDBRANCH  26  29
ENDBRANCH  24  25
ENDBRANCH  23  24
ENDBRANCH   1  23
TORSDOF 14
ENDMDL
