MODEL 1
REMARK VINA RESULT:     -11.0      0.000      0.000
REMARK SMILES C[N@H+](CC(=O)NCCCCNC(=O)c1ccc(-c2c3nc(c(-c4c(F)cccc4F)c4ccc([nH]4)c(-c4c(F)cccc4F)c4nc(c(-c5c(F)cccc5F)c5ccc2[nH]5)C=C4)C=C3)cc1)Cc1nc(-c2ccsc2)no1
REMARK SMILES IDX 7 1 6 2 4 3 5 4 3 6 2 7 1 8 68 10 69 11 70 12 78 13 71 14
REMARK SMILES IDX 77 15 72 16 73 17 76 18 74 19 75 20 8 21 9 22 10 23 11 24
REMARK SMILES IDX 12 25 13 27 14 28 15 29 67 30 16 31 66 32 17 33 18 34 19 35
REMARK SMILES IDX 60 36 20 37 65 38 59 39 61 40 21 41 64 42 58 43 57 44 22 46
REMARK SMILES IDX 48 47 31 48 47 49 32 50 35 51 46 52 62 53 33 54 34 55 45 57
REMARK SMILES IDX 63 58 36 59 23 60 24 61 29 62 25 63 26 64 28 65 30 66 27 67
REMARK SMILES IDX 49 68 50 69 55 70 51 71 52 72 54 73 56 74 53 75 37 76 38 77
REMARK SMILES IDX 43 78 39 79 40 80 42 81 44 82 41 83
REMARK H PARENT 6 5 2 9 11 26 61 45 35 56
REMARK Flexibility Score: inf
ROOT
ATOM      1  C   UNL A   1      32.558  29.870  25.853  1.00  0.00     0.116 C 
ENDROOT
BRANCH   1   2
ATOM      2  N   UNL A   1      33.265  29.766  24.593  1.00  0.00    -0.351 N 
ATOM      3  C   UNL A   1      33.662  28.637  23.931  1.00  0.00     0.275 C 
ATOM      4  O   UNL A   1      34.165  28.755  22.811  1.00  0.00    -0.269 OA
ATOM      5  H   UNL A   1      33.489  30.620  24.156  1.00  0.00     0.163 HD
BRANCH   3   6
ATOM      6  C   UNL A   1      33.477  27.261  24.580  1.00  0.00     0.363 C 
BRANCH   6   7
ATOM      7  N   UNL A   1      32.356  26.547  23.983  1.00  0.00    -0.322 N 
ATOM      8  C   UNL A   1      32.607  25.485  23.042  1.00  0.00     0.333 C 
ATOM      9  H   UNL A   1      32.201  27.277  23.287  1.00  0.00     0.348 HD
BRANCH   7  10
ATOM     10  C   UNL A   1      31.037  26.630  24.604  1.00  0.00     0.364 C 
BRANCH  10  11
ATOM     11  C   UNL A   1      30.081  27.497  23.852  1.00  0.00     0.282 A 
ATOM     12  N   UNL A   1      30.249  28.692  23.322  1.00  0.00    -0.186 NA
ATOM     13  O   UNL A   1      28.803  27.028  23.731  1.00  0.00    -0.333 OA
ATOM     14  C   UNL A   1      28.973  29.005  22.929  1.00  0.00     0.203 A 
ATOM     15  N   UNL A   1      28.064  28.044  23.125  1.00  0.00    -0.057 NA
BRANCH  14  16
ATOM     16  C   UNL A   1      28.660  30.338  22.415  1.00  0.00     0.033 A 
ATOM     17  C   UNL A   1      28.852  31.523  23.189  1.00  0.00     0.024 A 
ATOM     18  C   UNL A   1      28.199  30.620  21.148  1.00  0.00     0.077 A 
ATOM     19  C   UNL A   1      28.530  32.662  22.483  1.00  0.00     0.065 A 
ATOM     20  S   UNL A   1      27.988  32.301  20.899  1.00  0.00    -0.152 S 
ENDBRANCH  14  16
ENDBRANCH  10  11
ENDBRANCH   7  10
ENDBRANCH   6   7
ENDBRANCH   3   6
ENDBRANCH   1   2
BRANCH   1  21
ATOM     21  C   UNL A   1      31.369  30.829  25.800  1.00  0.00     0.023 C 
BRANCH  21  22
ATOM     22  C   UNL A   1      31.376  31.927  26.854  1.00  0.00     0.023 C 
BRANCH  22  23
ATOM     23  C   UNL A   1      32.650  32.743  26.927  1.00  0.00     0.116 C 
BRANCH  23  24
ATOM     24  N   UNL A   1      32.477  34.028  27.587  1.00  0.00    -0.352 N 
ATOM     25  C   UNL A   1      33.192  34.557  28.638  1.00  0.00     0.251 C 
ATOM     26  H   UNL A   1      31.753  34.593  27.235  1.00  0.00     0.163 HD
ATOM     27  O   UNL A   1      32.846  35.603  29.159  1.00  0.00    -0.269 OA
BRANCH  25  28
ATOM     28  C   UNL A   1      34.371  33.820  29.145  1.00  0.00     0.039 A 
ATOM     29  C   UNL A   1      35.648  34.258  28.788  1.00  0.00     0.014 A 
ATOM     30  C   UNL A   1      34.213  32.719  29.988  1.00  0.00     0.014 A 
ATOM     31  C   UNL A   1      36.767  33.612  29.315  1.00  0.00     0.010 A 
ATOM     32  C   UNL A   1      35.321  32.152  30.600  1.00  0.00     0.010 A 
ATOM     33  C   UNL A   1      36.611  32.567  30.241  1.00  0.00    -0.014 A 
BRANCH  33  34
ATOM     34  C   UNL A   1      37.779  31.835  30.786  1.00  0.00     0.031 A 
ATOM     35  C   UNL A   1      38.268  32.156  32.173  1.00  0.00     0.074 A 
ATOM     36  C   UNL A   1      38.426  30.930  30.026  1.00  0.00     0.049 A 
ATOM     37  N   UNL A   1      39.307  31.688  32.817  1.00  0.00    -0.248 NA
ATOM     38  C   UNL A   1      37.511  33.173  32.924  1.00  0.00     0.031 C 
ATOM     39  C   UNL A   1      38.080  30.574  28.649  1.00  0.00     0.029 A 
ATOM     40  N   UNL A   1      39.515  30.146  30.309  1.00  0.00    -0.354 N 
ATOM     41  C   UNL A   1      39.337  32.368  34.027  1.00  0.00     0.074 A 
ATOM     42  C   UNL A   1      38.263  33.332  34.001  1.00  0.00     0.031 C 
ATOM     43  C   UNL A   1      38.920  29.617  28.220  1.00  0.00     0.029 A 
ATOM     44  C   UNL A   1      39.882  29.319  29.277  1.00  0.00     0.049 A 
ATOM     45  H   UNL A   1      39.990  30.175  31.172  1.00  0.00     0.167 HD
ATOM     46  C   UNL A   1      40.162  32.181  35.084  1.00  0.00     0.037 A 
ATOM     47  C   UNL A   1      40.881  28.420  29.198  1.00  0.00     0.037 A 
ATOM     48  C   UNL A   1      41.201  31.189  35.120  1.00  0.00     0.049 A 
ATOM     49  C   UNL A   1      41.775  28.217  30.391  1.00  0.00     0.074 A 
ATOM     50  C   UNL A   1      42.058  30.874  36.159  1.00  0.00     0.029 A 
ATOM     51  N   UNL A   1      41.519  30.346  34.066  1.00  0.00    -0.354 N 
ATOM     52  N   UNL A   1      41.751  28.820  31.556  1.00  0.00    -0.248 NA
ATOM     53  C   UNL A   1      42.826  27.198  30.264  1.00  0.00     0.031 C 
ATOM     54  C   UNL A   1      42.923  29.867  35.719  1.00  0.00     0.029 A 
ATOM     55  C   UNL A   1      42.568  29.518  34.425  1.00  0.00     0.049 A 
ATOM     56  H   UNL A   1      41.066  30.337  33.192  1.00  0.00     0.167 HD
ATOM     57  C   UNL A   1      42.756  28.230  32.311  1.00  0.00     0.074 A 
ATOM     58  C   UNL A   1      43.363  27.215  31.475  1.00  0.00     0.031 C 
ATOM     59  C   UNL A   1      43.143  28.501  33.582  1.00  0.00     0.037 A 
BRANCH  46  60
ATOM     60  C   UNL A   1      39.960  33.062  36.283  1.00  0.00     0.057 A 
ATOM     61  C   UNL A   1      39.030  32.749  37.286  1.00  0.00     0.134 A 
ATOM     62  C   UNL A   1      40.711  34.233  36.447  1.00  0.00     0.134 A 
ATOM     63  F   UNL A   1      38.265  31.650  37.184  1.00  0.00    -0.206 F 
ATOM     64  C   UNL A   1      38.832  33.583  38.387  1.00  0.00     0.040 A 
ATOM     65  C   UNL A   1      40.544  35.059  37.560  1.00  0.00     0.040 A 
ATOM     66  F   UNL A   1      41.620  34.593  35.529  1.00  0.00    -0.206 F 
ATOM     67  C   UNL A   1      39.595  34.738  38.530  1.00  0.00     0.006 A 
ENDBRANCH  46  60
BRANCH  47  68
ATOM     68  C   UNL A   1      41.066  27.616  27.963  1.00  0.00     0.057 A 
ATOM     69  C   UNL A   1      41.864  28.083  26.911  1.00  0.00     0.134 A 
ATOM     70  C   UNL A   1      40.445  26.373  27.796  1.00  0.00     0.134 A 
ATOM     71  F   UNL A   1      42.474  29.274  27.003  1.00  0.00    -0.206 F 
ATOM     72  C   UNL A   1      42.017  27.356  25.729  1.00  0.00     0.040 A 
ATOM     73  C   UNL A   1      40.610  25.623  26.630  1.00  0.00     0.040 A 
ATOM     74  F   UNL A   1      39.675  25.864  28.769  1.00  0.00    -0.206 F 
ATOM     75  C   UNL A   1      41.392  26.119  25.588  1.00  0.00     0.006 A 
ENDBRANCH  47  68
BRANCH  59  76
ATOM     76  C   UNL A   1      44.236  27.654  34.164  1.00  0.00     0.057 A 
ATOM     77  C   UNL A   1      43.987  26.382  34.696  1.00  0.00     0.134 A 
ATOM     78  C   UNL A   1      45.563  28.101  34.149  1.00  0.00     0.134 A 
ATOM     79  F   UNL A   1      42.737  25.900  34.749  1.00  0.00    -0.206 F 
ATOM     80  C   UNL A   1      45.017  25.599  35.219  1.00  0.00     0.040 A 
ATOM     81  C   UNL A   1      46.604  27.315  34.641  1.00  0.00     0.040 A 
ATOM     82  F   UNL A   1      45.871  29.305  33.642  1.00  0.00    -0.206 F 
ATOM     83  C   UNL A   1      46.331  26.062  35.185  1.00  0.00     0.006 A 
ENDBRANCH  59  76
ENDBRANCH  33  34
ENDBRANCH  25  28
ENDBRANCH  23  24
ENDBRANCH  22  23
ENDBRANCH  21  22
ENDBRANCH   1  21
TORSDOF 15
ENDMDL
MODEL 2
REMARK VINA RESULT:     -11.0      5.583      9.709
REMARK SMILES C[N@H+](CC(=O)NCCCCNC(=O)c1ccc(-c2c3nc(c(-c4c(F)cccc4F)c4ccc([nH]4)c(-c4c(F)cccc4F)c4nc(c(-c5c(F)cccc5F)c5ccc2[nH]5)C=C4)C=C3)cc1)Cc1nc(-c2ccsc2)no1
REMARK SMILES IDX 7 1 6 2 4 3 5 4 3 6 2 7 1 8 68 10 69 11 70 12 78 13 71 14
REMARK SMILES IDX 77 15 72 16 73 17 76 18 74 19 75 20 8 21 9 22 10 23 11 24
REMARK SMILES IDX 12 25 13 27 14 28 15 29 67 30 16 31 66 32 17 33 18 34 19 35
REMARK SMILES IDX 60 36 20 37 65 38 59 39 61 40 21 41 64 42 58 43 57 44 22 46
REMARK SMILES IDX 48 47 31 48 47 49 32 50 35 51 46 52 62 53 33 54 34 55 45 57
REMARK SMILES IDX 63 58 36 59 23 60 24 61 29 62 25 63 26 64 28 65 30 66 27 67
REMARK SMILES IDX 49 68 50 69 55 70 51 71 52 72 54 73 56 74 53 75 37 76 38 77
REMARK SMILES IDX 43 78 39 79 40 80 42 81 44 82 41 83
REMARK H PARENT 6 5 2 9 11 26 61 45 35 56
REMARK Flexibility Score: inf
ROOT
ATOM      1  C   UNL A   1      36.158  21.794  25.815  1.00  0.00     0.116 C 
ENDROOT
BRANCH   1   2
ATOM      2  N   UNL A   1      35.236  21.668  26.925  1.00  0.00    -0.351 N 
ATOM      3  C   UNL A   1      34.161  22.456  27.233  1.00  0.00     0.275 C 
ATOM      4  O   UNL A   1      33.433  22.120  28.169  1.00  0.00    -0.269 OA
ATOM      5  H   UNL A   1      35.405  20.916  27.538  1.00  0.00     0.163 HD
BRANCH   3   6
ATOM      6  C   UNL A   1      33.881  23.725  26.420  1.00  0.00     0.363 C 
BRANCH   6   7
ATOM      7  N   UNL A   1      32.630  23.607  25.682  1.00  0.00    -0.322 N 
ATOM      8  C   UNL A   1      31.421  24.161  26.235  1.00  0.00     0.333 C 
ATOM      9  H   UNL A   1      32.474  22.652  26.006  1.00  0.00     0.348 HD
BRANCH   7  10
ATOM     10  C   UNL A   1      32.663  23.293  24.256  1.00  0.00     0.364 C 
BRANCH  10  11
ATOM     11  C   UNL A   1      32.487  21.838  23.966  1.00  0.00     0.282 A 
ATOM     12  N   UNL A   1      32.725  20.783  24.719  1.00  0.00    -0.186 NA
ATOM     13  O   UNL A   1      32.073  21.518  22.703  1.00  0.00    -0.333 OA
ATOM     14  C   UNL A   1      32.523  19.756  23.833  1.00  0.00     0.203 A 
ATOM     15  N   UNL A   1      32.111  20.125  22.616  1.00  0.00    -0.057 NA
BRANCH  14  16
ATOM     16  C   UNL A   1      32.832  18.377  24.211  1.00  0.00     0.033 A 
ATOM     17  C   UNL A   1      33.475  17.464  23.320  1.00  0.00     0.024 A 
ATOM     18  C   UNL A   1      32.595  17.813  25.445  1.00  0.00     0.077 A 
ATOM     19  C   UNL A   1      33.702  16.239  23.909  1.00  0.00     0.065 A 
ATOM     20  S   UNL A   1      33.133  16.189  25.524  1.00  0.00    -0.152 S 
ENDBRANCH  14  16
ENDBRANCH  10  11
ENDBRANCH   7  10
ENDBRANCH   6   7
ENDBRANCH   3   6
ENDBRANCH   1   2
BRANCH   1  21
ATOM     21  C   UNL A   1      36.199  20.556  24.921  1.00  0.00     0.023 C 
BRANCH  21  22
ATOM     22  C   UNL A   1      37.590  20.003  24.645  1.00  0.00     0.023 C 
BRANCH  22  23
ATOM     23  C   UNL A   1      38.634  20.332  25.692  1.00  0.00     0.116 C 
BRANCH  23  24
ATOM     24  N   UNL A   1      39.733  19.381  25.732  1.00  0.00    -0.352 N 
ATOM     25  C   UNL A   1      41.046  19.598  26.086  1.00  0.00     0.251 C 
ATOM     26  H   UNL A   1      39.509  18.459  25.470  1.00  0.00     0.163 HD
ATOM     27  O   UNL A   1      41.879  18.719  25.953  1.00  0.00    -0.269 OA
BRANCH  25  28
ATOM     28  C   UNL A   1      41.436  20.928  26.605  1.00  0.00     0.039 A 
ATOM     29  C   UNL A   1      41.401  21.155  27.982  1.00  0.00     0.014 A 
ATOM     30  C   UNL A   1      41.859  21.935  25.735  1.00  0.00     0.014 A 
ATOM     31  C   UNL A   1      41.832  22.383  28.487  1.00  0.00     0.010 A 
ATOM     32  C   UNL A   1      42.393  23.110  26.245  1.00  0.00     0.010 A 
ATOM     33  C   UNL A   1      42.350  23.362  27.622  1.00  0.00    -0.014 A 
BRANCH  33  34
ATOM     34  C   UNL A   1      42.775  24.690  28.124  1.00  0.00     0.031 A 
ATOM     35  C   UNL A   1      41.737  25.756  28.357  1.00  0.00     0.074 A 
ATOM     36  C   UNL A   1      44.081  24.955  28.317  1.00  0.00     0.049 A 
ATOM     37  N   UNL A   1      41.894  27.001  28.727  1.00  0.00    -0.248 NA
ATOM     38  C   UNL A   1      40.335  25.383  28.101  1.00  0.00     0.031 C 
ATOM     39  C   UNL A   1      45.183  24.022  28.073  1.00  0.00     0.029 A 
ATOM     40  N   UNL A   1      44.702  26.094  28.763  1.00  0.00    -0.354 N 
ATOM     41  C   UNL A   1      40.622  27.558  28.722  1.00  0.00     0.074 A 
ATOM     42  C   UNL A   1      39.714  26.543  28.243  1.00  0.00     0.031 C 
ATOM     43  C   UNL A   1      46.342  24.616  28.405  1.00  0.00     0.029 A 
ATOM     44  C   UNL A   1      46.067  25.978  28.851  1.00  0.00     0.049 A 
ATOM     45  H   UNL A   1      44.214  26.917  28.998  1.00  0.00     0.167 HD
ATOM     46  C   UNL A   1      40.237  28.793  29.118  1.00  0.00     0.037 A 
ATOM     47  C   UNL A   1      46.990  26.874  29.250  1.00  0.00     0.037 A 
ATOM     48  C   UNL A   1      41.140  29.784  29.636  1.00  0.00     0.049 A 
ATOM     49  C   UNL A   1      46.536  28.236  29.702  1.00  0.00     0.074 A 
ATOM     50  C   UNL A   1      40.850  31.047  30.120  1.00  0.00     0.029 A 
ATOM     51  N   UNL A   1      42.512  29.617  29.741  1.00  0.00    -0.354 N 
ATOM     52  N   UNL A   1      45.321  28.728  29.757  1.00  0.00    -0.248 NA
ATOM     53  C   UNL A   1      47.581  29.162  30.162  1.00  0.00     0.031 C 
ATOM     54  C   UNL A   1      42.054  31.661  30.481  1.00  0.00     0.029 A 
ATOM     55  C   UNL A   1      43.086  30.759  30.272  1.00  0.00     0.049 A 
ATOM     56  H   UNL A   1      43.005  28.806  29.479  1.00  0.00     0.167 HD
ATOM     57  C   UNL A   1      45.451  30.005  30.289  1.00  0.00     0.074 A 
ATOM     58  C   UNL A   1      46.862  30.205  30.551  1.00  0.00     0.031 C 
ATOM     59  C   UNL A   1      44.491  30.928  30.541  1.00  0.00     0.037 A 
BRANCH  46  60
ATOM     60  C   UNL A   1      38.777  29.129  29.014  1.00  0.00     0.057 A 
ATOM     61  C   UNL A   1      38.198  29.559  27.811  1.00  0.00     0.134 A 
ATOM     62  C   UNL A   1      37.933  29.009  30.126  1.00  0.00     0.134 A 
ATOM     63  F   UNL A   1      38.952  29.711  26.711  1.00  0.00    -0.206 F 
ATOM     64  C   UNL A   1      36.844  29.889  27.726  1.00  0.00     0.040 A 
ATOM     65  C   UNL A   1      36.572  29.307  30.046  1.00  0.00     0.040 A 
ATOM     66  F   UNL A   1      38.418  28.600  31.308  1.00  0.00    -0.206 F 
ATOM     67  C   UNL A   1      36.026  29.756  28.845  1.00  0.00     0.006 A 
ENDBRANCH  46  60
BRANCH  47  68
ATOM     68  C   UNL A   1      48.427  26.503  29.279  1.00  0.00     0.057 A 
ATOM     69  C   UNL A   1      48.981  25.843  30.383  1.00  0.00     0.134 A 
ATOM     70  C   UNL A   1      49.285  26.806  28.214  1.00  0.00     0.134 A 
ATOM     71  F   UNL A   1      48.214  25.539  31.442  1.00  0.00    -0.206 F 
ATOM     72  C   UNL A   1      50.338  25.521  30.440  1.00  0.00     0.040 A 
ATOM     73  C   UNL A   1      50.639  26.466  28.247  1.00  0.00     0.040 A 
ATOM     74  F   UNL A   1      48.817  27.428  27.123  1.00  0.00    -0.206 F 
ATOM     75  C   UNL A   1      51.171  25.830  29.367  1.00  0.00     0.006 A 
ENDBRANCH  47  68
BRANCH  59  76
ATOM     76  C   UNL A   1      44.926  32.214  31.179  1.00  0.00     0.057 A 
ATOM     77  C   UNL A   1      45.286  33.337  30.422  1.00  0.00     0.134 A 
ATOM     78  C   UNL A   1      44.942  32.343  32.575  1.00  0.00     0.134 A 
ATOM     79  F   UNL A   1      45.301  33.276  29.082  1.00  0.00    -0.206 F 
ATOM     80  C   UNL A   1      45.672  34.531  31.030  1.00  0.00     0.040 A 
ATOM     81  C   UNL A   1      45.298  33.541  33.193  1.00  0.00     0.040 A 
ATOM     82  F   UNL A   1      44.597  31.310  33.358  1.00  0.00    -0.206 F 
ATOM     83  C   UNL A   1      45.672  34.637  32.420  1.00  0.00     0.006 A 
ENDBRANCH  59  76
ENDBRANCH  33  34
ENDBRANCH  25  28
ENDBRANCH  23  24
ENDBRANCH  22  23
ENDBRANCH  21  22
ENDBRANCH   1  21
TORSDOF 15
ENDMDL
MODEL 3
REMARK VINA RESULT:     -10.9      0.898      6.312
REMARK SMILES C[N@H+](CC(=O)NCCCCNC(=O)c1ccc(-c2c3nc(c(-c4c(F)cccc4F)c4ccc([nH]4)c(-c4c(F)cccc4F)c4nc(c(-c5c(F)cccc5F)c5ccc2[nH]5)C=C4)C=C3)cc1)Cc1nc(-c2ccsc2)no1
REMARK SMILES IDX 7 1 6 2 4 3 5 4 3 6 2 7 1 8 68 10 69 11 70 12 78 13 71 14
REMARK SMILES IDX 77 15 72 16 73 17 76 18 74 19 75 20 8 21 9 22 10 23 11 24
REMARK SMILES IDX 12 25 13 27 14 28 15 29 67 30 16 31 66 32 17 33 18 34 19 35
REMARK SMILES IDX 60 36 20 37 65 38 59 39 61 40 21 41 64 42 58 43 57 44 22 46
REMARK SMILES IDX 48 47 31 48 47 49 32 50 35 51 46 52 62 53 33 54 34 55 45 57
REMARK SMILES IDX 63 58 36 59 23 60 24 61 29 62 25 63 26 64 28 65 30 66 27 67
REMARK SMILES IDX 49 68 50 69 55 70 51 71 52 72 54 73 56 74 53 75 37 76 38 77
REMARK SMILES IDX 43 78 39 79 40 80 42 81 44 82 41 83
REMARK H PARENT 6 5 2 9 11 26 61 45 35 56
REMARK Flexibility Score: inf
ROOT
ATOM      1  C   UNL A   1      32.906  29.702  25.693  1.00  0.00     0.116 C 
ENDROOT
BRANCH   1   2
ATOM      2  N   UNL A   1      33.401  29.651  24.332  1.00  0.00    -0.351 N 
ATOM      3  C   UNL A   1      33.668  28.551  23.564  1.00  0.00     0.275 C 
ATOM      4  O   UNL A   1      33.986  28.717  22.385  1.00  0.00    -0.269 OA
ATOM      5  H   UNL A   1      33.565  30.522  23.903  1.00  0.00     0.163 HD
BRANCH   3   6
ATOM      6  C   UNL A   1      33.566  27.147  24.172  1.00  0.00     0.363 C 
BRANCH   6   7
ATOM      7  N   UNL A   1      32.476  26.393  23.567  1.00  0.00    -0.322 N 
ATOM      8  C   UNL A   1      32.764  25.421  22.543  1.00  0.00     0.333 C 
ATOM      9  H   UNL A   1      32.237  27.155  22.933  1.00  0.00     0.348 HD
BRANCH   7  10
ATOM     10  C   UNL A   1      31.183  26.330  24.242  1.00  0.00     0.364 C 
BRANCH  10  11
ATOM     11  C   UNL A   1      30.169  27.265  23.667  1.00  0.00     0.282 A 
ATOM     12  N   UNL A   1      30.318  28.461  23.133  1.00  0.00    -0.186 NA
ATOM     13  O   UNL A   1      28.863  26.869  23.752  1.00  0.00    -0.333 OA
ATOM     14  C   UNL A   1      29.015  28.852  22.958  1.00  0.00     0.203 A 
ATOM     15  N   UNL A   1      28.095  27.938  23.288  1.00  0.00    -0.057 NA
BRANCH  14  16
ATOM     16  C   UNL A   1      28.700  30.211  22.520  1.00  0.00     0.033 A 
ATOM     17  C   UNL A   1      28.758  31.334  23.402  1.00  0.00     0.024 A 
ATOM     18  C   UNL A   1      28.363  30.581  21.236  1.00  0.00     0.077 A 
ATOM     19  C   UNL A   1      28.464  32.516  22.756  1.00  0.00     0.065 A 
ATOM     20  S   UNL A   1      28.107  32.269  21.099  1.00  0.00    -0.152 S 
ENDBRANCH  14  16
ENDBRANCH  10  11
ENDBRANCH   7  10
ENDBRANCH   6   7
ENDBRANCH   3   6
ENDBRANCH   1   2
BRANCH   1  21
ATOM     21  C   UNL A   1      31.453  30.163  25.789  1.00  0.00     0.023 C 
BRANCH  21  22
ATOM     22  C   UNL A   1      31.258  31.590  26.285  1.00  0.00     0.023 C 
BRANCH  22  23
ATOM     23  C   UNL A   1      32.473  32.217  26.937  1.00  0.00     0.116 C 
BRANCH  23  24
ATOM     24  N   UNL A   1      32.262  33.597  27.345  1.00  0.00    -0.352 N 
ATOM     25  C   UNL A   1      32.989  34.350  28.239  1.00  0.00     0.251 C 
ATOM     26  H   UNL A   1      31.497  34.053  26.926  1.00  0.00     0.163 HD
ATOM     27  O   UNL A   1      32.613  35.462  28.565  1.00  0.00    -0.269 OA
BRANCH  25  28
ATOM     28  C   UNL A   1      34.223  33.775  28.822  1.00  0.00     0.039 A 
ATOM     29  C   UNL A   1      35.459  34.297  28.439  1.00  0.00     0.014 A 
ATOM     30  C   UNL A   1      34.152  32.744  29.760  1.00  0.00     0.014 A 
ATOM     31  C   UNL A   1      36.624  33.809  29.033  1.00  0.00     0.010 A 
ATOM     32  C   UNL A   1      35.297  32.340  30.430  1.00  0.00     0.010 A 
ATOM     33  C   UNL A   1      36.549  32.841  30.048  1.00  0.00    -0.014 A 
BRANCH  33  34
ATOM     34  C   UNL A   1      37.770  32.273  30.668  1.00  0.00     0.031 A 
ATOM     35  C   UNL A   1      38.419  31.065  30.043  1.00  0.00     0.074 A 
ATOM     36  C   UNL A   1      38.261  32.800  31.805  1.00  0.00     0.049 A 
ATOM     37  N   UNL A   1      39.448  30.370  30.455  1.00  0.00    -0.248 NA
ATOM     38  C   UNL A   1      37.802  30.543  28.811  1.00  0.00     0.031 C 
ATOM     39  C   UNL A   1      37.689  33.934  32.533  1.00  0.00     0.029 A 
ATOM     40  N   UNL A   1      39.357  32.446  32.550  1.00  0.00    -0.354 N 
ATOM     41  C   UNL A   1      39.582  29.325  29.550  1.00  0.00     0.074 A 
ATOM     42  C   UNL A   1      38.488  29.430  28.612  1.00  0.00     0.031 C 
ATOM     43  C   UNL A   1      38.458  34.203  33.601  1.00  0.00     0.029 A 
ATOM     44  C   UNL A   1      39.555  33.242  33.651  1.00  0.00     0.049 A 
ATOM     45  H   UNL A   1      39.946  31.692  32.317  1.00  0.00     0.167 HD
ATOM     46  C   UNL A   1      40.550  28.382  29.481  1.00  0.00     0.037 A 
ATOM     47  C   UNL A   1      40.517  33.198  34.592  1.00  0.00     0.037 A 
ATOM     48  C   UNL A   1      41.659  28.309  30.391  1.00  0.00     0.049 A 
ATOM     49  C   UNL A   1      41.593  32.151  34.485  1.00  0.00     0.074 A 
ATOM     50  C   UNL A   1      42.729  27.432  30.381  1.00  0.00     0.029 A 
ATOM     51  N   UNL A   1      41.843  29.155  31.475  1.00  0.00    -0.354 N 
ATOM     52  N   UNL A   1      41.747  31.209  33.585  1.00  0.00    -0.248 NA
ATOM     53  C   UNL A   1      42.639  32.171  35.517  1.00  0.00     0.031 C 
ATOM     54  C   UNL A   1      43.540  27.721  31.483  1.00  0.00     0.029 A 
ATOM     55  C   UNL A   1      43.003  28.813  32.148  1.00  0.00     0.049 A 
ATOM     56  H   UNL A   1      41.240  29.890  31.727  1.00  0.00     0.167 HD
ATOM     57  C   UNL A   1      42.921  30.548  33.921  1.00  0.00     0.074 A 
ATOM     58  C   UNL A   1      43.446  31.206  35.100  1.00  0.00     0.031 C 
ATOM     59  C   UNL A   1      43.515  29.495  33.309  1.00  0.00     0.037 A 
BRANCH  46  60
ATOM     60  C   UNL A   1      40.450  27.367  28.379  1.00  0.00     0.057 A 
ATOM     61  C   UNL A   1      39.674  26.206  28.507  1.00  0.00     0.134 A 
ATOM     62  C   UNL A   1      41.128  27.556  27.167  1.00  0.00     0.134 A 
ATOM     63  F   UNL A   1      39.011  25.954  29.647  1.00  0.00    -0.206 F 
ATOM     64  C   UNL A   1      39.603  25.256  27.486  1.00  0.00     0.040 A 
ATOM     65  C   UNL A   1      41.039  26.630  26.128  1.00  0.00     0.040 A 
ATOM     66  F   UNL A   1      41.886  28.646  26.974  1.00  0.00    -0.206 F 
ATOM     67  C   UNL A   1      40.281  25.471  26.289  1.00  0.00     0.006 A 
ENDBRANCH  46  60
BRANCH  47  68
ATOM     68  C   UNL A   1      40.532  34.195  35.692  1.00  0.00     0.057 A 
ATOM     69  C   UNL A   1      39.862  33.952  36.897  1.00  0.00     0.134 A 
ATOM     70  C   UNL A   1      41.203  35.418  35.564  1.00  0.00     0.134 A 
ATOM     71  F   UNL A   1      39.188  32.805  37.075  1.00  0.00    -0.206 F 
ATOM     72  C   UNL A   1      39.836  34.896  37.925  1.00  0.00     0.040 A 
ATOM     73  C   UNL A   1      41.207  36.360  36.595  1.00  0.00     0.040 A 
ATOM     74  F   UNL A   1      41.872  35.710  34.440  1.00  0.00    -0.206 F 
ATOM     75  C   UNL A   1      40.513  36.103  37.776  1.00  0.00     0.006 A 
ENDBRANCH  47  68
BRANCH  59  76
ATOM     76  C   UNL A   1      44.824  29.023  33.870  1.00  0.00     0.057 A 
ATOM     77  C   UNL A   1      44.899  28.014  34.839  1.00  0.00     0.134 A 
ATOM     78  C   UNL A   1      46.031  29.558  33.398  1.00  0.00     0.134 A 
ATOM     79  F   UNL A   1      43.781  27.468  35.339  1.00  0.00    -0.206 F 
ATOM     80  C   UNL A   1      46.125  27.575  35.339  1.00  0.00     0.040 A 
ATOM     81  C   UNL A   1      47.263  29.106  33.869  1.00  0.00     0.040 A 
ATOM     82  F   UNL A   1      46.030  30.518  32.461  1.00  0.00    -0.206 F 
ATOM     83  C   UNL A   1      47.312  28.116  34.848  1.00  0.00     0.006 A 
ENDBRANCH  59  76
ENDBRANCH  33  34
ENDBRANCH  25  28
ENDBRANCH  23  24
ENDBRANCH  22  23
ENDBRANCH  21  22
ENDBRANCH   1  21
TORSDOF 15
ENDMDL
