MODEL 1
REMARK VINA RESULT:     -11.1      0.000      0.000
REMARK SMILES C[C@@H](C(=O)NCCCCNC(=O)c1ccc(-c2c3nc(c(-c4c(F)cccc4F)c4ccc([nH]4)c(-c4c(F)cccc4F)c4nc(c(-c5c(F)cccc5F)c5ccc2[nH]5)C=C4)C=C3)cc1)c1ccn(C(F)F)c(=O)c1
REMARK SMILES IDX 7 1 6 2 5 3 3 4 4 5 2 7 1 8 67 9 68 10 76 11 69 12 74 13
REMARK SMILES IDX 70 14 75 15 71 16 72 17 73 18 8 19 9 20 10 21 11 22 12 24
REMARK SMILES IDX 13 25 14 26 66 27 15 28 65 29 16 30 17 31 18 32 59 33 19 34
REMARK SMILES IDX 64 35 58 36 60 37 20 38 63 39 57 40 56 41 21 43 47 44 30 45
REMARK SMILES IDX 46 46 31 47 34 48 45 49 61 50 32 51 33 52 44 54 62 55 35 56
REMARK SMILES IDX 22 57 23 58 28 59 24 60 25 61 27 62 29 63 26 64 48 65 49 66
REMARK SMILES IDX 54 67 50 68 51 69 53 70 55 71 52 72 36 73 37 74 42 75 38 76
REMARK SMILES IDX 39 77 41 78 43 79 40 80
REMARK H PARENT 5 6 10 23 60 42 34 53
REMARK Flexibility Score: inf
ROOT
ATOM      1  C   UNL A   1      36.509  20.126  24.999  1.00  0.00     0.023 C 
ENDROOT
BRANCH   1   2
ATOM      2  C   UNL A   1      36.165  21.615  24.933  1.00  0.00     0.116 C 
BRANCH   2   3
ATOM      3  N   UNL A   1      35.207  21.977  25.957  1.00  0.00    -0.356 N 
ATOM      4  C   UNL A   1      33.846  22.071  25.896  1.00  0.00     0.227 C 
ATOM      5  O   UNL A   1      33.273  22.479  26.907  1.00  0.00    -0.274 OA
ATOM      6  H   UNL A   1      35.599  22.190  26.834  1.00  0.00     0.163 HD
BRANCH   4   7
ATOM      7  C   UNL A   1      33.096  21.626  24.623  1.00  0.00     0.105 C 
ATOM      8  C   UNL A   1      31.729  22.303  24.464  1.00  0.00     0.023 C 
BRANCH   7   9
ATOM      9  C   UNL A   1      32.929  20.111  24.590  1.00  0.00    -0.029 A 
ATOM     10  C   UNL A   1      32.900  19.396  25.852  1.00  0.00     0.023 A 
ATOM     11  C   UNL A   1      32.882  19.404  23.445  1.00  0.00     0.076 A 
ATOM     12  C   UNL A   1      32.902  18.057  25.872  1.00  0.00     0.095 A 
ATOM     13  C   UNL A   1      32.882  17.917  23.449  1.00  0.00     0.255 A 
ATOM     14  N   UNL A   1      32.913  17.322  24.699  1.00  0.00    -0.258 N 
ATOM     15  O   UNL A   1      32.894  17.329  22.372  1.00  0.00    -0.269 OA
BRANCH  14  16
ATOM     16  C   UNL A   1      33.012  15.888  24.731  1.00  0.00     0.451 C 
ATOM     17  F   UNL A   1      34.176  15.480  25.292  1.00  0.00    -0.185 F 
ATOM     18  F   UNL A   1      31.991  15.355  25.449  1.00  0.00    -0.185 F 
ENDBRANCH  14  16
ENDBRANCH   7   9
ENDBRANCH   4   7
ENDBRANCH   2   3
ENDBRANCH   1   2
BRANCH   1  19
ATOM     19  C   UNL A   1      37.965  19.791  24.665  1.00  0.00     0.023 C 
BRANCH  19  20
ATOM     20  C   UNL A   1      38.970  20.103  25.767  1.00  0.00     0.116 C 
BRANCH  20  21
ATOM     21  N   UNL A   1      40.091  19.179  25.790  1.00  0.00    -0.352 N 
ATOM     22  C   UNL A   1      41.410  19.426  26.081  1.00  0.00     0.251 C 
ATOM     23  H   UNL A   1      39.875  18.245  25.567  1.00  0.00     0.163 HD
ATOM     24  O   UNL A   1      42.249  18.545  25.917  1.00  0.00    -0.269 OA
BRANCH  22  25
ATOM     25  C   UNL A   1      41.823  20.762  26.559  1.00  0.00     0.039 A 
ATOM     26  C   UNL A   1      42.008  21.783  25.623  1.00  0.00     0.014 A 
ATOM     27  C   UNL A   1      42.029  21.011  27.918  1.00  0.00     0.014 A 
ATOM     28  C   UNL A   1      42.348  23.065  26.057  1.00  0.00     0.010 A 
ATOM     29  C   UNL A   1      42.289  22.306  28.355  1.00  0.00     0.010 A 
ATOM     30  C   UNL A   1      42.461  23.346  27.429  1.00  0.00    -0.014 A 
BRANCH  30  31
ATOM     31  C   UNL A   1      42.774  24.716  27.908  1.00  0.00     0.031 A 
ATOM     32  C   UNL A   1      44.199  25.124  28.158  1.00  0.00     0.074 A 
ATOM     33  C   UNL A   1      41.770  25.578  28.162  1.00  0.00     0.049 A 
ATOM     34  N   UNL A   1      44.668  26.262  28.605  1.00  0.00    -0.248 NA
ATOM     35  C   UNL A   1      45.233  24.110  27.899  1.00  0.00     0.031 C 
ATOM     36  C   UNL A   1      40.344  25.289  28.005  1.00  0.00     0.029 A 
ATOM     37  N   UNL A   1      41.798  26.875  28.611  1.00  0.00    -0.354 N 
ATOM     38  C   UNL A   1      46.044  26.097  28.691  1.00  0.00     0.074 A 
ATOM     39  C   UNL A   1      46.330  24.730  28.310  1.00  0.00     0.031 C 
ATOM     40  C   UNL A   1      39.636  26.386  28.318  1.00  0.00     0.029 A 
ATOM     41  C   UNL A   1      40.553  27.442  28.735  1.00  0.00     0.049 A 
ATOM     42  H   UNL A   1      42.631  27.354  28.825  1.00  0.00     0.167 HD
ATOM     43  C   UNL A   1      46.989  27.006  29.031  1.00  0.00     0.037 A 
ATOM     44  C   UNL A   1      40.192  28.675  29.138  1.00  0.00     0.037 A 
ATOM     45  C   UNL A   1      46.704  28.370  29.391  1.00  0.00     0.049 A 
ATOM     46  C   UNL A   1      41.259  29.662  29.525  1.00  0.00     0.074 A 
ATOM     47  C   UNL A   1      47.593  29.386  29.695  1.00  0.00     0.029 A 
ATOM     48  N   UNL A   1      45.430  28.908  29.502  1.00  0.00    -0.354 N 
ATOM     49  N   UNL A   1      42.562  29.516  29.529  1.00  0.00    -0.248 NA
ATOM     50  C   UNL A   1      40.803  30.991  29.957  1.00  0.00     0.031 C 
ATOM     51  C   UNL A   1      46.856  30.524  30.041  1.00  0.00     0.029 A 
ATOM     52  C   UNL A   1      45.509  30.234  29.894  1.00  0.00     0.049 A 
ATOM     53  H   UNL A   1      44.593  28.419  29.327  1.00  0.00     0.167 HD
ATOM     54  C   UNL A   1      43.082  30.740  29.928  1.00  0.00     0.074 A 
ATOM     55  C   UNL A   1      41.953  31.621  30.144  1.00  0.00     0.031 C 
ATOM     56  C   UNL A   1      44.377  31.103  30.098  1.00  0.00     0.037 A 
BRANCH  43  57
ATOM     57  C   UNL A   1      48.421  26.548  29.029  1.00  0.00     0.057 A 
ATOM     58  C   UNL A   1      49.026  26.002  30.170  1.00  0.00     0.134 A 
ATOM     59  C   UNL A   1      49.198  26.635  27.868  1.00  0.00     0.134 A 
ATOM     60  F   UNL A   1      48.341  25.900  31.319  1.00  0.00    -0.206 F 
ATOM     61  C   UNL A   1      50.360  25.591  30.165  1.00  0.00     0.040 A 
ATOM     62  C   UNL A   1      50.525  26.199  27.842  1.00  0.00     0.040 A 
ATOM     63  F   UNL A   1      48.682  27.142  26.738  1.00  0.00    -0.206 F 
ATOM     64  C   UNL A   1      51.111  25.683  28.996  1.00  0.00     0.006 A 
ENDBRANCH  43  57
BRANCH  44  65
ATOM     65  C   UNL A   1      38.758  29.061  29.166  1.00  0.00     0.057 A 
ATOM     66  C   UNL A   1      38.126  29.562  28.022  1.00  0.00     0.134 A 
ATOM     67  C   UNL A   1      37.992  28.955  30.332  1.00  0.00     0.134 A 
ATOM     68  F   UNL A   1      38.812  29.705  26.879  1.00  0.00    -0.206 F 
ATOM     69  C   UNL A   1      36.790  29.965  28.041  1.00  0.00     0.040 A 
ATOM     70  C   UNL A   1      36.646  29.328  30.358  1.00  0.00     0.040 A 
ATOM     71  F   UNL A   1      38.535  28.475  31.460  1.00  0.00    -0.206 F 
ATOM     72  C   UNL A   1      36.044  29.845  29.213  1.00  0.00     0.006 A 
ENDBRANCH  44  65
BRANCH  56  73
ATOM     73  C   UNL A   1      44.645  32.526  30.495  1.00  0.00     0.057 A 
ATOM     74  C   UNL A   1      44.787  32.911  31.833  1.00  0.00     0.134 A 
ATOM     75  C   UNL A   1      44.787  33.521  29.518  1.00  0.00     0.134 A 
ATOM     76  F   UNL A   1      44.651  32.011  32.819  1.00  0.00    -0.206 F 
ATOM     77  C   UNL A   1      45.032  34.239  32.189  1.00  0.00     0.040 A 
ATOM     78  C   UNL A   1      45.063  34.846  29.859  1.00  0.00     0.040 A 
ATOM     79  F   UNL A   1      44.672  33.220  28.217  1.00  0.00    -0.206 F 
ATOM     80  C   UNL A   1      45.178  35.210  31.199  1.00  0.00     0.006 A 
ENDBRANCH  56  73
ENDBRANCH  30  31
ENDBRANCH  22  25
ENDBRANCH  20  21
ENDBRANCH  19  20
ENDBRANCH   1  19
TORSDOF 13
ENDMDL
MODEL 2
REMARK VINA RESULT:     -11.1      5.906     10.366
REMARK SMILES C[C@@H](C(=O)NCCCCNC(=O)c1ccc(-c2c3nc(c(-c4c(F)cccc4F)c4ccc([nH]4)c(-c4c(F)cccc4F)c4nc(c(-c5c(F)cccc5F)c5ccc2[nH]5)C=C4)C=C3)cc1)c1ccn(C(F)F)c(=O)c1
REMARK SMILES IDX 7 1 6 2 5 3 3 4 4 5 2 7 1 8 67 9 68 10 76 11 69 12 74 13
REMARK SMILES IDX 70 14 75 15 71 16 72 17 73 18 8 19 9 20 10 21 11 22 12 24
REMARK SMILES IDX 13 25 14 26 66 27 15 28 65 29 16 30 17 31 18 32 59 33 19 34
REMARK SMILES IDX 64 35 58 36 60 37 20 38 63 39 57 40 56 41 21 43 47 44 30 45
REMARK SMILES IDX 46 46 31 47 34 48 45 49 61 50 32 51 33 52 44 54 62 55 35 56
REMARK SMILES IDX 22 57 23 58 28 59 24 60 25 61 27 62 29 63 26 64 48 65 49 66
REMARK SMILES IDX 54 67 50 68 51 69 53 70 55 71 52 72 36 73 37 74 42 75 38 76
REMARK SMILES IDX 39 77 41 78 43 79 40 80
REMARK H PARENT 5 6 10 23 60 42 34 53
REMARK Flexibility Score: inf
ROOT
ATOM      1  C   UNL A   1      31.565  30.680  25.859  1.00  0.00     0.023 C 
ENDROOT
BRANCH   1   2
ATOM      2  C   UNL A   1      32.799  29.841  26.195  1.00  0.00     0.116 C 
BRANCH   2   3
ATOM      3  N   UNL A   1      33.630  29.641  25.026  1.00  0.00    -0.356 N 
ATOM      4  C   UNL A   1      33.684  28.592  24.154  1.00  0.00     0.227 C 
ATOM      5  O   UNL A   1      34.547  28.645  23.276  1.00  0.00    -0.274 OA
ATOM      6  H   UNL A   1      34.254  30.377  24.830  1.00  0.00     0.163 HD
BRANCH   4   7
ATOM      7  C   UNL A   1      32.663  27.441  24.263  1.00  0.00     0.105 C 
ATOM      8  C   UNL A   1      33.168  26.129  23.652  1.00  0.00     0.023 C 
BRANCH   7   9
ATOM      9  C   UNL A   1      31.334  27.830  23.623  1.00  0.00    -0.029 A 
ATOM     10  C   UNL A   1      31.312  28.965  22.720  1.00  0.00     0.023 A 
ATOM     11  C   UNL A   1      30.173  27.214  23.916  1.00  0.00     0.076 A 
ATOM     12  C   UNL A   1      30.149  29.434  22.250  1.00  0.00     0.095 A 
ATOM     13  C   UNL A   1      28.873  27.720  23.400  1.00  0.00     0.255 A 
ATOM     14  N   UNL A   1      28.946  28.842  22.593  1.00  0.00    -0.258 N 
ATOM     15  O   UNL A   1      27.844  27.149  23.746  1.00  0.00    -0.269 OA
BRANCH  14  16
ATOM     16  C   UNL A   1      27.698  29.411  22.160  1.00  0.00     0.451 C 
ATOM     17  F   UNL A   1      27.146  30.193  23.119  1.00  0.00    -0.185 F 
ATOM     18  F   UNL A   1      27.879  30.172  21.052  1.00  0.00    -0.185 F 
ENDBRANCH  14  16
ENDBRANCH   7   9
ENDBRANCH   4   7
ENDBRANCH   2   3
ENDBRANCH   1   2
BRANCH   1  19
ATOM     19  C   UNL A   1      31.410  31.952  26.698  1.00  0.00     0.023 C 
BRANCH  19  20
ATOM     20  C   UNL A   1      32.716  32.618  27.111  1.00  0.00     0.116 C 
BRANCH  20  21
ATOM     21  N   UNL A   1      32.525  33.952  27.654  1.00  0.00    -0.352 N 
ATOM     22  C   UNL A   1      33.207  34.580  28.667  1.00  0.00     0.251 C 
ATOM     23  H   UNL A   1      31.806  34.481  27.237  1.00  0.00     0.163 HD
ATOM     24  O   UNL A   1      32.817  35.666  29.087  1.00  0.00    -0.269 OA
BRANCH  22  25
ATOM     25  C   UNL A   1      34.391  33.934  29.272  1.00  0.00     0.039 A 
ATOM     26  C   UNL A   1      34.198  33.002  30.294  1.00  0.00     0.014 A 
ATOM     27  C   UNL A   1      35.683  34.242  28.838  1.00  0.00     0.014 A 
ATOM     28  C   UNL A   1      35.297  32.341  30.844  1.00  0.00     0.010 A 
ATOM     29  C   UNL A   1      36.769  33.525  29.330  1.00  0.00     0.010 A 
ATOM     30  C   UNL A   1      36.590  32.574  30.346  1.00  0.00    -0.014 A 
BRANCH  30  31
ATOM     31  C   UNL A   1      37.763  31.843  30.887  1.00  0.00     0.031 A 
ATOM     32  C   UNL A   1      38.288  32.163  32.260  1.00  0.00     0.074 A 
ATOM     33  C   UNL A   1      38.386  30.924  30.124  1.00  0.00     0.049 A 
ATOM     34  N   UNL A   1      39.317  31.656  32.890  1.00  0.00    -0.248 NA
ATOM     35  C   UNL A   1      37.581  33.211  33.011  1.00  0.00     0.031 C 
ATOM     36  C   UNL A   1      38.004  30.556  28.759  1.00  0.00     0.029 A 
ATOM     37  N   UNL A   1      39.476  30.132  30.388  1.00  0.00    -0.354 N 
ATOM     38  C   UNL A   1      39.386  32.329  34.104  1.00  0.00     0.074 A 
ATOM     39  C   UNL A   1      38.334  33.323  34.095  1.00  0.00     0.031 C 
ATOM     40  C   UNL A   1      38.824  29.588  28.319  1.00  0.00     0.029 A 
ATOM     41  C   UNL A   1      39.811  29.293  29.353  1.00  0.00     0.049 A 
ATOM     42  H   UNL A   1      39.971  30.162  31.238  1.00  0.00     0.167 HD
ATOM     43  C   UNL A   1      40.230  32.123  35.143  1.00  0.00     0.037 A 
ATOM     44  C   UNL A   1      40.803  28.388  29.250  1.00  0.00     0.037 A 
ATOM     45  C   UNL A   1      41.264  31.121  35.156  1.00  0.00     0.049 A 
ATOM     46  C   UNL A   1      41.737  28.188  30.411  1.00  0.00     0.074 A 
ATOM     47  C   UNL A   1      42.133  30.793  36.181  1.00  0.00     0.029 A 
ATOM     48  N   UNL A   1      41.570  30.288  34.090  1.00  0.00    -0.354 N 
ATOM     49  N   UNL A   1      41.743  28.779  31.582  1.00  0.00    -0.248 NA
ATOM     50  C   UNL A   1      42.800  27.188  30.239  1.00  0.00     0.031 C 
ATOM     51  C   UNL A   1      43.001  29.797  35.717  1.00  0.00     0.029 A 
ATOM     52  C   UNL A   1      42.632  29.464  34.424  1.00  0.00     0.049 A 
ATOM     53  H   UNL A   1      41.102  30.284  33.224  1.00  0.00     0.167 HD
ATOM     54  C   UNL A   1      42.783  28.199  32.296  1.00  0.00     0.074 A 
ATOM     55  C   UNL A   1      43.376  27.201  31.432  1.00  0.00     0.031 C 
ATOM     56  C   UNL A   1      43.208  28.468  33.556  1.00  0.00     0.037 A 
BRANCH  43  57
ATOM     57  C   UNL A   1      40.069  33.004  36.350  1.00  0.00     0.057 A 
ATOM     58  C   UNL A   1      39.135  32.719  37.356  1.00  0.00     0.134 A 
ATOM     59  C   UNL A   1      40.872  34.138  36.520  1.00  0.00     0.134 A 
ATOM     60  F   UNL A   1      38.326  31.654  37.251  1.00  0.00    -0.206 F 
ATOM     61  C   UNL A   1      38.982  33.549  38.468  1.00  0.00     0.040 A 
ATOM     62  C   UNL A   1      40.749  34.959  37.643  1.00  0.00     0.040 A 
ATOM     63  F   UNL A   1      41.791  34.468  35.600  1.00  0.00    -0.206 F 
ATOM     64  C   UNL A   1      39.795  34.669  38.617  1.00  0.00     0.006 A 
ENDBRANCH  43  57
BRANCH  44  65
ATOM     65  C   UNL A   1      40.947  27.577  28.014  1.00  0.00     0.057 A 
ATOM     66  C   UNL A   1      41.710  28.038  26.936  1.00  0.00     0.134 A 
ATOM     67  C   UNL A   1      40.316  26.336  27.874  1.00  0.00     0.134 A 
ATOM     68  F   UNL A   1      42.324  29.229  27.003  1.00  0.00    -0.206 F 
ATOM     69  C   UNL A   1      41.825  27.305  25.753  1.00  0.00     0.040 A 
ATOM     70  C   UNL A   1      40.444  25.579  26.707  1.00  0.00     0.040 A 
ATOM     71  F   UNL A   1      39.577  25.833  28.874  1.00  0.00    -0.206 F 
ATOM     72  C   UNL A   1      41.192  26.069  25.638  1.00  0.00     0.006 A 
ENDBRANCH  44  65
BRANCH  56  73
ATOM     73  C   UNL A   1      44.340  27.638  34.090  1.00  0.00     0.057 A 
ATOM     74  C   UNL A   1      45.675  28.050  33.996  1.00  0.00     0.134 A 
ATOM     75  C   UNL A   1      44.085  26.418  34.732  1.00  0.00     0.134 A 
ATOM     76  F   UNL A   1      45.989  29.202  33.382  1.00  0.00    -0.206 F 
ATOM     77  C   UNL A   1      46.718  27.267  34.493  1.00  0.00     0.040 A 
ATOM     78  C   UNL A   1      45.116  25.642  35.261  1.00  0.00     0.040 A 
ATOM     79  F   UNL A   1      42.829  25.968  34.865  1.00  0.00    -0.206 F 
ATOM     80  C   UNL A   1      46.438  26.061  35.135  1.00  0.00     0.006 A 
ENDBRANCH  56  73
ENDBRANCH  30  31
ENDBRANCH  22  25
ENDBRANCH  20  21
ENDBRANCH  19  20
ENDBRANCH   1  19
TORSDOF 13
ENDMDL
MODEL 3
REMARK VINA RESULT:     -11.0      2.961      3.878
REMARK SMILES C[C@@H](C(=O)NCCCCNC(=O)c1ccc(-c2c3nc(c(-c4c(F)cccc4F)c4ccc([nH]4)c(-c4c(F)cccc4F)c4nc(c(-c5c(F)cccc5F)c5ccc2[nH]5)C=C4)C=C3)cc1)c1ccn(C(F)F)c(=O)c1
REMARK SMILES IDX 7 1 6 2 5 3 3 4 4 5 2 7 1 8 67 9 68 10 76 11 69 12 74 13
REMARK SMILES IDX 70 14 75 15 71 16 72 17 73 18 8 19 9 20 10 21 11 22 12 24
REMARK SMILES IDX 13 25 14 26 66 27 15 28 65 29 16 30 17 31 18 32 59 33 19 34
REMARK SMILES IDX 64 35 58 36 60 37 20 38 63 39 57 40 56 41 21 43 47 44 30 45
REMARK SMILES IDX 46 46 31 47 34 48 45 49 61 50 32 51 33 52 44 54 62 55 35 56
REMARK SMILES IDX 22 57 23 58 28 59 24 60 25 61 27 62 29 63 26 64 48 65 49 66
REMARK SMILES IDX 54 67 50 68 51 69 53 70 55 71 52 72 36 73 37 74 42 75 38 76
REMARK SMILES IDX 39 77 41 78 43 79 40 80
REMARK H PARENT 5 6 10 23 60 42 34 53
REMARK Flexibility Score: inf
ROOT
ATOM      1  C   UNL A   1      38.807  22.477  26.195  1.00  0.00     0.023 C 
ENDROOT
BRANCH   1   2
ATOM      2  C   UNL A   1      37.559  23.273  25.810  1.00  0.00     0.116 C 
BRANCH   2   3
ATOM      3  N   UNL A   1      37.337  23.240  24.379  1.00  0.00    -0.356 N 
ATOM      4  C   UNL A   1      36.173  23.158  23.671  1.00  0.00     0.227 C 
ATOM      5  O   UNL A   1      36.275  23.069  22.446  1.00  0.00    -0.274 OA
ATOM      6  H   UNL A   1      38.154  23.282  23.832  1.00  0.00     0.163 HD
BRANCH   4   7
ATOM      7  C   UNL A   1      34.816  23.230  24.400  1.00  0.00     0.105 C 
ATOM      8  C   UNL A   1      33.773  22.262  23.828  1.00  0.00     0.023 C 
BRANCH   7   9
ATOM      9  C   UNL A   1      34.264  24.652  24.384  1.00  0.00    -0.029 A 
ATOM     10  C   UNL A   1      33.822  25.203  23.118  1.00  0.00     0.023 A 
ATOM     11  C   UNL A   1      34.238  25.439  25.477  1.00  0.00     0.076 A 
ATOM     12  C   UNL A   1      33.468  26.491  23.026  1.00  0.00     0.095 A 
ATOM     13  C   UNL A   1      33.845  26.870  25.394  1.00  0.00     0.255 A 
ATOM     14  N   UNL A   1      33.494  27.322  24.133  1.00  0.00    -0.258 N 
ATOM     15  O   UNL A   1      33.894  27.551  26.413  1.00  0.00    -0.269 OA
BRANCH  14  16
ATOM     16  C   UNL A   1      33.204  28.725  24.005  1.00  0.00     0.451 C 
ATOM     17  F   UNL A   1      33.766  29.252  22.890  1.00  0.00    -0.185 F 
ATOM     18  F   UNL A   1      31.865  28.932  23.937  1.00  0.00    -0.185 F 
ENDBRANCH  14  16
ENDBRANCH   7   9
ENDBRANCH   4   7
ENDBRANCH   2   3
ENDBRANCH   1   2
BRANCH   1  19
ATOM     19  C   UNL A   1      38.993  21.168  25.421  1.00  0.00     0.023 C 
BRANCH  19  20
ATOM     20  C   UNL A   1      39.249  19.938  26.283  1.00  0.00     0.116 C 
BRANCH  20  21
ATOM     21  N   UNL A   1      40.448  19.214  25.896  1.00  0.00    -0.352 N 
ATOM     22  C   UNL A   1      41.754  19.635  25.909  1.00  0.00     0.251 C 
ATOM     23  H   UNL A   1      40.304  18.293  25.581  1.00  0.00     0.163 HD
ATOM     24  O   UNL A   1      42.631  18.931  25.415  1.00  0.00    -0.269 OA
BRANCH  22  25
ATOM     25  C   UNL A   1      42.101  20.951  26.487  1.00  0.00     0.039 A 
ATOM     26  C   UNL A   1      42.499  21.979  25.629  1.00  0.00     0.014 A 
ATOM     27  C   UNL A   1      42.037  21.173  27.865  1.00  0.00     0.014 A 
ATOM     28  C   UNL A   1      42.780  23.243  26.147  1.00  0.00     0.010 A 
ATOM     29  C   UNL A   1      42.240  22.454  28.371  1.00  0.00     0.010 A 
ATOM     30  C   UNL A   1      42.624  23.500  27.520  1.00  0.00    -0.014 A 
BRANCH  30  31
ATOM     31  C   UNL A   1      42.873  24.853  28.079  1.00  0.00     0.031 A 
ATOM     32  C   UNL A   1      44.260  25.256  28.498  1.00  0.00     0.074 A 
ATOM     33  C   UNL A   1      41.841  25.701  28.255  1.00  0.00     0.049 A 
ATOM     34  N   UNL A   1      44.668  26.378  29.034  1.00  0.00    -0.248 NA
ATOM     35  C   UNL A   1      45.323  24.256  28.316  1.00  0.00     0.031 C 
ATOM     36  C   UNL A   1      40.442  25.413  27.933  1.00  0.00     0.029 A 
ATOM     37  N   UNL A   1      41.811  26.981  28.751  1.00  0.00    -0.354 N 
ATOM     38  C   UNL A   1      46.029  26.215  29.262  1.00  0.00     0.074 A 
ATOM     39  C   UNL A   1      46.364  24.864  28.865  1.00  0.00     0.031 C 
ATOM     40  C   UNL A   1      39.696  26.496  28.208  1.00  0.00     0.029 A 
ATOM     41  C   UNL A   1      40.555  27.539  28.759  1.00  0.00     0.049 A 
ATOM     42  H   UNL A   1      42.612  27.455  29.071  1.00  0.00     0.167 HD
ATOM     43  C   UNL A   1      46.925  27.114  29.736  1.00  0.00     0.037 A 
ATOM     44  C   UNL A   1      40.143  28.755  29.166  1.00  0.00     0.037 A 
ATOM     45  C   UNL A   1      46.592  28.463  30.113  1.00  0.00     0.049 A 
ATOM     46  C   UNL A   1      41.155  29.730  29.702  1.00  0.00     0.074 A 
ATOM     47  C   UNL A   1      47.436  29.470  30.548  1.00  0.00     0.029 A 
ATOM     48  N   UNL A   1      45.309  28.992  30.104  1.00  0.00    -0.354 N 
ATOM     49  N   UNL A   1      42.451  29.588  29.842  1.00  0.00    -0.248 NA
ATOM     50  C   UNL A   1      40.645  31.040  30.131  1.00  0.00     0.031 C 
ATOM     51  C   UNL A   1      46.657  30.592  30.853  1.00  0.00     0.029 A 
ATOM     52  C   UNL A   1      45.336  30.303  30.550  1.00  0.00     0.049 A 
ATOM     53  H   UNL A   1      44.500  28.507  29.822  1.00  0.00     0.167 HD
ATOM     54  C   UNL A   1      42.915  30.799  30.339  1.00  0.00     0.074 A 
ATOM     55  C   UNL A   1      41.764  31.667  30.464  1.00  0.00     0.031 C 
ATOM     56  C   UNL A   1      44.182  31.159  30.662  1.00  0.00     0.037 A 
BRANCH  43  57
ATOM     57  C   UNL A   1      48.351  26.662  29.873  1.00  0.00     0.057 A 
ATOM     58  C   UNL A   1      48.823  26.038  31.036  1.00  0.00     0.134 A 
ATOM     59  C   UNL A   1      49.260  26.834  28.822  1.00  0.00     0.134 A 
ATOM     60  F   UNL A   1      48.008  25.851  32.085  1.00  0.00    -0.206 F 
ATOM     61  C   UNL A   1      50.152  25.632  31.161  1.00  0.00     0.040 A 
ATOM     62  C   UNL A   1      50.585  26.404  28.923  1.00  0.00     0.040 A 
ATOM     63  F   UNL A   1      48.877  27.418  27.677  1.00  0.00    -0.206 F 
ATOM     64  C   UNL A   1      51.036  25.809  30.100  1.00  0.00     0.006 A 
ENDBRANCH  43  57
BRANCH  44  65
ATOM     65  C   UNL A   1      38.712  29.134  29.053  1.00  0.00     0.057 A 
ATOM     66  C   UNL A   1      38.178  29.571  27.835  1.00  0.00     0.134 A 
ATOM     67  C   UNL A   1      37.850  29.085  30.154  1.00  0.00     0.134 A 
ATOM     68  F   UNL A   1      38.960  29.658  26.748  1.00  0.00    -0.206 F 
ATOM     69  C   UNL A   1      36.845  29.968  27.719  1.00  0.00     0.040 A 
ATOM     70  C   UNL A   1      36.507  29.452  30.046  1.00  0.00     0.040 A 
ATOM     71  F   UNL A   1      38.296  28.667  31.347  1.00  0.00    -0.206 F 
ATOM     72  C   UNL A   1      36.004  29.905  28.828  1.00  0.00     0.006 A 
ENDBRANCH  44  65
BRANCH  56  73
ATOM     73  C   UNL A   1      44.394  32.568  31.137  1.00  0.00     0.057 A 
ATOM     74  C   UNL A   1      44.364  32.908  32.495  1.00  0.00     0.134 A 
ATOM     75  C   UNL A   1      44.659  33.595  30.221  1.00  0.00     0.134 A 
ATOM     76  F   UNL A   1      44.104  31.976  33.425  1.00  0.00    -0.206 F 
ATOM     77  C   UNL A   1      44.559  34.223  32.923  1.00  0.00     0.040 A 
ATOM     78  C   UNL A   1      44.886  34.906  30.638  1.00  0.00     0.040 A 
ATOM     79  F   UNL A   1      44.711  33.337  28.906  1.00  0.00    -0.206 F 
ATOM     80  C   UNL A   1      44.828  35.225  31.993  1.00  0.00     0.006 A 
ENDBRANCH  56  73
ENDBRANCH  30  31
ENDBRANCH  22  25
ENDBRANCH  20  21
ENDBRANCH  19  20
ENDBRANCH   1  19
TORSDOF 13
ENDMDL
