MODEL 1
REMARK VINA RESULT:     -12.1      0.000      0.000
REMARK SMILES O=C(NCCCCNC(=O)c1cc(/C=C/c2cc(O)cc(O)c2)ccc1O)c1ccc(-c2c3nc(c(-c4c(F)cccc4F)c4ccc([nH]4)c(-c4c(F)cccc4F)c4nc(c(-c5c(F)cccc5F)c5ccc2[nH]5)C=C4)C=C3)cc1
REMARK SMILES IDX 6 1 5 2 4 3 3 4 1 5 2 6 28 8 29 9 81 10 30 11 80 12 31 13
REMARK SMILES IDX 32 14 33 15 74 16 34 17 79 18 73 19 75 20 35 21 78 22 72 23
REMARK SMILES IDX 71 24 36 26 62 27 45 28 61 29 46 30 49 31 60 32 76 33 47 34
REMARK SMILES IDX 48 35 59 37 77 38 50 39 37 40 38 41 43 42 39 43 40 44 42 45
REMARK SMILES IDX 44 46 41 47 63 48 64 49 69 50 65 51 66 52 68 53 70 54 67 55
REMARK SMILES IDX 51 56 52 57 57 58 53 59 54 60 56 61 58 62 55 63 7 64 8 65
REMARK SMILES IDX 9 66 10 68 11 69 12 70 26 71 13 72 25 73 24 74 27 75 14 77
REMARK SMILES IDX 15 78 16 79 17 80 23 81 18 82 21 83 20 84 19 85 22 87
REMARK H PARENT 3 7 75 25 49 36 8 67 27 76 19 86 22 88
REMARK Flexibility Score: inf
ROOT
ATOM      1  C   UNL A   1      36.263  20.242  25.005  1.00  0.00     0.023 C 
ENDROOT
BRANCH   1   2
ATOM      2  C   UNL A   1      37.672  19.780  24.640  1.00  0.00     0.023 C 
BRANCH   2   3
ATOM      3  C   UNL A   1      38.760  20.201  25.616  1.00  0.00     0.116 C 
BRANCH   3   4
ATOM      4  N   UNL A   1      39.844  19.234  25.699  1.00  0.00    -0.352 N 
ATOM      5  O   UNL A   1      41.980  18.535  25.912  1.00  0.00    -0.269 OA
ATOM      6  C   UNL A   1      41.157  19.436  26.042  1.00  0.00     0.251 C 
ATOM      7  H   UNL A   1      39.601  18.305  25.478  1.00  0.00     0.163 HD
BRANCH   6   8
ATOM      8  C   UNL A   1      41.582  20.755  26.557  1.00  0.00     0.039 A 
ATOM      9  C   UNL A   1      41.987  21.762  25.676  1.00  0.00     0.014 A 
ATOM     10  C   UNL A   1      41.559  20.991  27.935  1.00  0.00     0.014 A 
ATOM     11  C   UNL A   1      42.480  22.961  26.177  1.00  0.00     0.010 A 
ATOM     12  C   UNL A   1      41.975  22.229  28.431  1.00  0.00     0.010 A 
ATOM     13  C   UNL A   1      42.447  23.219  27.556  1.00  0.00    -0.014 A 
BRANCH  13  14
ATOM     14  C   UNL A   1      42.781  24.578  28.045  1.00  0.00     0.031 A 
ATOM     15  C   UNL A   1      41.719  25.607  28.299  1.00  0.00     0.074 A 
ATOM     16  C   UNL A   1      44.081  24.873  28.245  1.00  0.00     0.049 A 
ATOM     17  N   UNL A   1      41.859  26.847  28.695  1.00  0.00    -0.248 NA
ATOM     18  C   UNL A   1      40.322  25.202  28.077  1.00  0.00     0.031 C 
ATOM     19  C   UNL A   1      45.198  23.952  28.008  1.00  0.00     0.029 A 
ATOM     20  N   UNL A   1      44.688  26.018  28.689  1.00  0.00    -0.354 N 
ATOM     21  C   UNL A   1      40.577  27.377  28.751  1.00  0.00     0.074 A 
ATOM     22  C   UNL A   1      39.668  26.328  28.337  1.00  0.00     0.031 C 
ATOM     23  C   UNL A   1      46.348  24.561  28.328  1.00  0.00     0.029 A 
ATOM     24  C   UNL A   1      46.058  25.931  28.727  1.00  0.00     0.049 A 
ATOM     25  H   UNL A   1      44.189  26.825  28.955  1.00  0.00     0.167 HD
ATOM     26  C   UNL A   1      40.201  28.626  29.116  1.00  0.00     0.037 A 
ATOM     27  C   UNL A   1      46.986  26.863  29.012  1.00  0.00     0.037 A 
ATOM     28  C   UNL A   1      41.115  29.653  29.550  1.00  0.00     0.049 A 
ATOM     29  C   UNL A   1      46.535  28.246  29.379  1.00  0.00     0.074 A 
ATOM     30  C   UNL A   1      40.822  30.920  30.024  1.00  0.00     0.029 A 
ATOM     31  N   UNL A   1      42.497  29.537  29.551  1.00  0.00    -0.354 N 
ATOM     32  N   UNL A   1      45.315  28.709  29.499  1.00  0.00    -0.248 NA
ATOM     33  C   UNL A   1      47.586  29.237  29.638  1.00  0.00     0.031 C 
ATOM     34  C   UNL A   1      42.027  31.591  30.254  1.00  0.00     0.029 A 
ATOM     35  C   UNL A   1      43.070  30.725  29.971  1.00  0.00     0.049 A 
ATOM     36  H   UNL A   1      42.996  28.728  29.292  1.00  0.00     0.167 HD
ATOM     37  C   UNL A   1      45.451  30.043  29.852  1.00  0.00     0.074 A 
ATOM     38  C   UNL A   1      46.871  30.306  29.957  1.00  0.00     0.031 C 
ATOM     39  C   UNL A   1      44.486  30.972  30.060  1.00  0.00     0.037 A 
BRANCH  26  40
ATOM     40  C   UNL A   1      38.746  28.979  29.055  1.00  0.00     0.057 A 
ATOM     41  C   UNL A   1      37.910  28.879  30.174  1.00  0.00     0.134 A 
ATOM     42  C   UNL A   1      38.199  29.533  27.888  1.00  0.00     0.134 A 
ATOM     43  F   UNL A   1      38.368  28.355  31.320  1.00  0.00    -0.206 F 
ATOM     44  C   UNL A   1      36.583  29.313  30.133  1.00  0.00     0.040 A 
ATOM     45  C   UNL A   1      36.882  29.988  27.841  1.00  0.00     0.040 A 
ATOM     46  F   UNL A   1      38.950  29.666  26.784  1.00  0.00    -0.206 F 
ATOM     47  C   UNL A   1      36.069  29.881  28.968  1.00  0.00     0.006 A 
ENDBRANCH  26  40
BRANCH  27  48
ATOM     48  C   UNL A   1      48.428  26.530  28.909  1.00  0.00     0.057 A 
ATOM     49  C   UNL A   1      49.126  26.681  27.708  1.00  0.00     0.134 A 
ATOM     50  C   UNL A   1      49.138  26.038  30.012  1.00  0.00     0.134 A 
ATOM     51  F   UNL A   1      48.497  27.131  26.613  1.00  0.00    -0.206 F 
ATOM     52  C   UNL A   1      50.475  26.334  27.599  1.00  0.00     0.040 A 
ATOM     53  C   UNL A   1      50.493  25.716  29.927  1.00  0.00     0.040 A 
ATOM     54  F   UNL A   1      48.527  25.878  31.196  1.00  0.00    -0.206 F 
ATOM     55  C   UNL A   1      51.162  25.854  28.713  1.00  0.00     0.006 A 
ENDBRANCH  27  48
BRANCH  39  56
ATOM     56  C   UNL A   1      44.941  32.352  30.422  1.00  0.00     0.057 A 
ATOM     57  C   UNL A   1      45.133  33.339  29.446  1.00  0.00     0.134 A 
ATOM     58  C   UNL A   1      45.161  32.709  31.758  1.00  0.00     0.134 A 
ATOM     59  F   UNL A   1      44.956  33.054  28.147  1.00  0.00    -0.206 F 
ATOM     60  C   UNL A   1      45.546  34.627  29.785  1.00  0.00     0.040 A 
ATOM     61  C   UNL A   1      45.548  34.001  32.112  1.00  0.00     0.040 A 
ATOM     62  F   UNL A   1      44.989  31.811  32.740  1.00  0.00    -0.206 F 
ATOM     63  C   UNL A   1      45.748  34.963  31.124  1.00  0.00     0.006 A 
ENDBRANCH  39  56
ENDBRANCH  13  14
ENDBRANCH   6   8
ENDBRANCH   3   4
ENDBRANCH   2   3
ENDBRANCH   1   2
BRANCH   1  64
ATOM     64  C   UNL A   1      35.853  21.596  24.435  1.00  0.00     0.116 C 
BRANCH  64  65
ATOM     65  N   UNL A   1      36.590  22.698  25.025  1.00  0.00    -0.352 N 
ATOM     66  C   UNL A   1      36.114  23.732  25.792  1.00  0.00     0.255 C 
ATOM     67  H   UNL A   1      37.559  22.705  24.854  1.00  0.00     0.163 HD
ATOM     68  O   UNL A   1      36.877  24.618  26.169  1.00  0.00    -0.269 OA
BRANCH  66  69
ATOM     69  C   UNL A   1      34.671  23.840  26.084  1.00  0.00     0.082 A 
ATOM     70  C   UNL A   1      33.977  24.874  25.439  1.00  0.00     0.025 A 
ATOM     71  C   UNL A   1      34.003  22.989  26.967  1.00  0.00     0.128 A 
ATOM     72  C   UNL A   1      32.600  25.041  25.629  1.00  0.00    -0.025 A 
ATOM     73  C   UNL A   1      32.631  23.131  27.154  1.00  0.00     0.047 A 
ATOM     74  C   UNL A   1      31.937  24.144  26.483  1.00  0.00     0.012 A 
BRANCH  71  75
ATOM     75  O   UNL A   1      34.681  22.014  27.642  1.00  0.00    -0.507 OA
ATOM     76  H   UNL A   1      34.892  21.207  27.214  1.00  0.00     0.293 HD
ENDBRANCH  71  75
BRANCH  72  77
ATOM     77  C   UNL A   1      31.817  26.112  24.987  1.00  0.00     0.009 C 
ATOM     78  C   UNL A   1      30.805  25.935  24.120  1.00  0.00     0.009 C 
BRANCH  78  79
ATOM     79  C   UNL A   1      30.082  27.046  23.488  1.00  0.00    -0.018 A 
ATOM     80  C   UNL A   1      28.692  27.180  23.611  1.00  0.00     0.054 A 
ATOM     81  C   UNL A   1      30.812  28.033  22.809  1.00  0.00     0.054 A 
ATOM     82  C   UNL A   1      28.051  28.278  23.041  1.00  0.00     0.119 A 
ATOM     83  C   UNL A   1      30.148  29.119  22.245  1.00  0.00     0.119 A 
ATOM     84  C   UNL A   1      28.769  29.249  22.354  1.00  0.00     0.092 A 
BRANCH  82  85
ATOM     85  O   UNL A   1      26.700  28.443  23.146  1.00  0.00    -0.508 OA
ATOM     86  H   UNL A   1      26.256  29.046  22.584  1.00  0.00     0.293 HD
ENDBRANCH  82  85
BRANCH  83  87
ATOM     87  O   UNL A   1      30.827  30.094  21.575  1.00  0.00    -0.508 OA
ATOM     88  H   UNL A   1      31.764  30.076  21.542  1.00  0.00     0.293 HD
ENDBRANCH  83  87
ENDBRANCH  78  79
ENDBRANCH  72  77
ENDBRANCH  66  69
ENDBRANCH  64  65
ENDBRANCH   1  64
TORSDOF 16
ENDMDL
MODEL 2
REMARK VINA RESULT:     -11.6      4.052      9.047
REMARK SMILES O=C(NCCCCNC(=O)c1cc(/C=C/c2cc(O)cc(O)c2)ccc1O)c1ccc(-c2c3nc(c(-c4c(F)cccc4F)c4ccc([nH]4)c(-c4c(F)cccc4F)c4nc(c(-c5c(F)cccc5F)c5ccc2[nH]5)C=C4)C=C3)cc1
REMARK SMILES IDX 6 1 5 2 4 3 3 4 1 5 2 6 28 8 29 9 81 10 30 11 80 12 31 13
REMARK SMILES IDX 32 14 33 15 74 16 34 17 79 18 73 19 75 20 35 21 78 22 72 23
REMARK SMILES IDX 71 24 36 26 62 27 45 28 61 29 46 30 49 31 60 32 76 33 47 34
REMARK SMILES IDX 48 35 59 37 77 38 50 39 37 40 38 41 43 42 39 43 40 44 42 45
REMARK SMILES IDX 44 46 41 47 63 48 64 49 69 50 65 51 66 52 68 53 70 54 67 55
REMARK SMILES IDX 51 56 52 57 57 58 53 59 54 60 56 61 58 62 55 63 7 64 8 65
REMARK SMILES IDX 9 66 10 68 11 69 12 70 26 71 13 72 25 73 24 74 27 75 14 77
REMARK SMILES IDX 15 78 16 79 17 80 23 81 18 82 21 83 20 84 19 85 22 87
REMARK H PARENT 3 7 75 25 49 36 8 67 27 76 19 86 22 88
REMARK Flexibility Score: inf
ROOT
ATOM      1  C   UNL A   1      32.005  28.866  23.123  1.00  0.00     0.023 C 
ENDROOT
BRANCH   1   2
ATOM      2  C   UNL A   1      33.452  28.611  23.536  1.00  0.00     0.023 C 
BRANCH   2   3
ATOM      3  C   UNL A   1      33.782  28.965  24.979  1.00  0.00     0.116 C 
BRANCH   3   4
ATOM      4  N   UNL A   1      32.907  29.995  25.518  1.00  0.00    -0.352 N 
ATOM      5  O   UNL A   1      32.137  31.459  27.055  1.00  0.00    -0.269 OA
ATOM      6  C   UNL A   1      33.050  30.736  26.664  1.00  0.00     0.251 C 
ATOM      7  H   UNL A   1      32.100  30.187  24.986  1.00  0.00     0.163 HD
BRANCH   6   8
ATOM      8  C   UNL A   1      34.306  30.649  27.437  1.00  0.00     0.039 A 
ATOM      9  C   UNL A   1      34.727  29.426  27.967  1.00  0.00     0.014 A 
ATOM     10  C   UNL A   1      35.078  31.800  27.620  1.00  0.00     0.014 A 
ATOM     11  C   UNL A   1      35.855  29.376  28.777  1.00  0.00     0.010 A 
ATOM     12  C   UNL A   1      36.259  31.730  28.364  1.00  0.00     0.010 A 
ATOM     13  C   UNL A   1      36.650  30.519  28.956  1.00  0.00    -0.014 A 
BRANCH  13  14
ATOM     14  C   UNL A   1      37.955  30.391  29.647  1.00  0.00     0.031 A 
ATOM     15  C   UNL A   1      39.114  29.674  29.018  1.00  0.00     0.074 A 
ATOM     16  C   UNL A   1      38.071  30.932  30.877  1.00  0.00     0.049 A 
ATOM     17  N   UNL A   1      40.305  29.452  29.514  1.00  0.00    -0.248 NA
ATOM     18  C   UNL A   1      38.915  29.130  27.666  1.00  0.00     0.031 C 
ATOM     19  C   UNL A   1      36.998  31.632  31.591  1.00  0.00     0.029 A 
ATOM     20  N   UNL A   1      39.130  30.980  31.745  1.00  0.00    -0.354 N 
ATOM     21  C   UNL A   1      40.991  28.728  28.548  1.00  0.00     0.074 A 
ATOM     22  C   UNL A   1      40.080  28.536  27.439  1.00  0.00     0.031 C 
ATOM     23  C   UNL A   1      37.460  32.057  32.775  1.00  0.00     0.029 A 
ATOM     24  C   UNL A   1      38.835  31.602  32.933  1.00  0.00     0.049 A 
ATOM     25  H   UNL A   1      40.017  30.604  31.535  1.00  0.00     0.167 HD
ATOM     26  C   UNL A   1      42.265  28.270  28.591  1.00  0.00     0.037 A 
ATOM     27  C   UNL A   1      39.575  31.757  34.046  1.00  0.00     0.037 A 
ATOM     28  C   UNL A   1      43.169  28.491  29.693  1.00  0.00     0.049 A 
ATOM     29  C   UNL A   1      40.970  31.206  34.071  1.00  0.00     0.074 A 
ATOM     30  C   UNL A   1      44.505  28.142  29.791  1.00  0.00     0.029 A 
ATOM     31  N   UNL A   1      42.827  29.103  30.889  1.00  0.00    -0.354 N 
ATOM     32  N   UNL A   1      41.629  30.590  33.121  1.00  0.00    -0.248 NA
ATOM     33  C   UNL A   1      41.720  31.363  35.324  1.00  0.00     0.031 C 
ATOM     34  C   UNL A   1      44.955  28.490  31.069  1.00  0.00     0.029 A 
ATOM     35  C   UNL A   1      43.913  29.099  31.748  1.00  0.00     0.049 A 
ATOM     36  H   UNL A   1      41.943  29.484  31.096  1.00  0.00     0.167 HD
ATOM     37  C   UNL A   1      42.871  30.288  33.658  1.00  0.00     0.074 A 
ATOM     38  C   UNL A   1      42.885  30.817  35.006  1.00  0.00     0.031 C 
ATOM     39  C   UNL A   1      43.906  29.622  33.090  1.00  0.00     0.037 A 
BRANCH  26  40
ATOM     40  C   UNL A   1      42.774  27.468  27.431  1.00  0.00     0.057 A 
ATOM     41  C   UNL A   1      43.471  28.059  26.370  1.00  0.00     0.134 A 
ATOM     42  C   UNL A   1      42.662  26.071  27.432  1.00  0.00     0.134 A 
ATOM     43  F   UNL A   1      43.612  29.391  26.306  1.00  0.00    -0.206 F 
ATOM     44  C   UNL A   1      44.035  27.288  25.350  1.00  0.00     0.040 A 
ATOM     45  C   UNL A   1      43.236  25.289  26.430  1.00  0.00     0.040 A 
ATOM     46  F   UNL A   1      42.014  25.443  28.425  1.00  0.00    -0.206 F 
ATOM     47  C   UNL A   1      43.929  25.898  25.385  1.00  0.00     0.006 A 
ENDBRANCH  26  40
BRANCH  27  48
ATOM     48  C   UNL A   1      38.990  32.415  35.240  1.00  0.00     0.057 A 
ATOM     49  C   UNL A   1      39.080  33.798  35.427  1.00  0.00     0.134 A 
ATOM     50  C   UNL A   1      38.337  31.670  36.232  1.00  0.00     0.134 A 
ATOM     51  F   UNL A   1      39.708  34.562  34.522  1.00  0.00    -0.206 F 
ATOM     52  C   UNL A   1      38.562  34.415  36.567  1.00  0.00     0.040 A 
ATOM     53  C   UNL A   1      37.787  32.277  37.361  1.00  0.00     0.040 A 
ATOM     54  F   UNL A   1      38.211  30.340  36.107  1.00  0.00    -0.206 F 
ATOM     55  C   UNL A   1      37.910  33.653  37.536  1.00  0.00     0.006 A 
ENDBRANCH  27  48
BRANCH  39  56
ATOM     56  C   UNL A   1      45.132  29.434  33.928  1.00  0.00     0.057 A 
ATOM     57  C   UNL A   1      45.319  28.282  34.704  1.00  0.00     0.134 A 
ATOM     58  C   UNL A   1      46.150  30.396  33.939  1.00  0.00     0.134 A 
ATOM     59  F   UNL A   1      44.372  27.332  34.749  1.00  0.00    -0.206 F 
ATOM     60  C   UNL A   1      46.467  28.102  35.475  1.00  0.00     0.040 A 
ATOM     61  C   UNL A   1      47.314  30.215  34.686  1.00  0.00     0.040 A 
ATOM     62  F   UNL A   1      46.034  31.518  33.214  1.00  0.00    -0.206 F 
ATOM     63  C   UNL A   1      47.472  29.069  35.462  1.00  0.00     0.006 A 
ENDBRANCH  39  56
ENDBRANCH  13  14
ENDBRANCH   6   8
ENDBRANCH   3   4
ENDBRANCH   2   3
ENDBRANCH   1   2
BRANCH   1  64
ATOM     64  C   UNL A   1      31.324  27.716  22.388  1.00  0.00     0.116 C 
BRANCH  64  65
ATOM     65  N   UNL A   1      29.988  27.447  22.884  1.00  0.00    -0.352 N 
ATOM     66  C   UNL A   1      29.603  26.591  23.886  1.00  0.00     0.255 C 
ATOM     67  H   UNL A   1      29.260  27.943  22.445  1.00  0.00     0.163 HD
ATOM     68  O   UNL A   1      28.411  26.445  24.143  1.00  0.00    -0.269 OA
BRANCH  66  69
ATOM     69  C   UNL A   1      30.607  25.771  24.591  1.00  0.00     0.082 A 
ATOM     70  C   UNL A   1      30.821  24.477  24.094  1.00  0.00     0.025 A 
ATOM     71  C   UNL A   1      31.312  26.218  25.710  1.00  0.00     0.128 A 
ATOM     72  C   UNL A   1      31.773  23.633  24.676  1.00  0.00    -0.025 A 
ATOM     73  C   UNL A   1      32.275  25.397  26.292  1.00  0.00     0.047 A 
ATOM     74  C   UNL A   1      32.506  24.119  25.771  1.00  0.00     0.012 A 
BRANCH  71  75
ATOM     75  O   UNL A   1      31.072  27.456  26.236  1.00  0.00    -0.507 OA
ATOM     76  H   UNL A   1      31.552  27.748  26.986  1.00  0.00     0.293 HD
ENDBRANCH  71  75
BRANCH  72  77
ATOM     77  C   UNL A   1      32.037  22.261  24.204  1.00  0.00     0.009 C 
ATOM     78  C   UNL A   1      32.651  21.293  24.906  1.00  0.00     0.009 C 
BRANCH  78  79
ATOM     79  C   UNL A   1      32.913  19.951  24.368  1.00  0.00    -0.018 A 
ATOM     80  C   UNL A   1      32.165  19.429  23.304  1.00  0.00     0.054 A 
ATOM     81  C   UNL A   1      33.985  19.210  24.886  1.00  0.00     0.054 A 
ATOM     82  C   UNL A   1      32.481  18.173  22.788  1.00  0.00     0.119 A 
ATOM     83  C   UNL A   1      34.279  17.956  24.356  1.00  0.00     0.119 A 
ATOM     84  C   UNL A   1      33.532  17.430  23.309  1.00  0.00     0.092 A 
BRANCH  82  85
ATOM     85  O   UNL A   1      31.777  17.638  21.748  1.00  0.00    -0.508 OA
ATOM     86  H   UNL A   1      32.020  17.837  20.866  1.00  0.00     0.293 HD
ENDBRANCH  82  85
BRANCH  83  87
ATOM     87  O   UNL A   1      35.312  17.207  24.839  1.00  0.00    -0.508 OA
ATOM     88  H   UNL A   1      36.059  17.034  24.300  1.00  0.00     0.293 HD
ENDBRANCH  83  87
ENDBRANCH  78  79
ENDBRANCH  72  77
ENDBRANCH  66  69
ENDBRANCH  64  65
ENDBRANCH   1  64
TORSDOF 16
ENDMDL
MODEL 3
REMARK VINA RESULT:     -11.6      2.733      8.024
REMARK SMILES O=C(NCCCCNC(=O)c1cc(/C=C/c2cc(O)cc(O)c2)ccc1O)c1ccc(-c2c3nc(c(-c4c(F)cccc4F)c4ccc([nH]4)c(-c4c(F)cccc4F)c4nc(c(-c5c(F)cccc5F)c5ccc2[nH]5)C=C4)C=C3)cc1
REMARK SMILES IDX 6 1 5 2 4 3 3 4 1 5 2 6 28 8 29 9 81 10 30 11 80 12 31 13
REMARK SMILES IDX 32 14 33 15 74 16 34 17 79 18 73 19 75 20 35 21 78 22 72 23
REMARK SMILES IDX 71 24 36 26 62 27 45 28 61 29 46 30 49 31 60 32 76 33 47 34
REMARK SMILES IDX 48 35 59 37 77 38 50 39 37 40 38 41 43 42 39 43 40 44 42 45
REMARK SMILES IDX 44 46 41 47 63 48 64 49 69 50 65 51 66 52 68 53 70 54 67 55
REMARK SMILES IDX 51 56 52 57 57 58 53 59 54 60 56 61 58 62 55 63 7 64 8 65
REMARK SMILES IDX 9 66 10 68 11 69 12 70 26 71 13 72 25 73 24 74 27 75 14 77
REMARK SMILES IDX 15 78 16 79 17 80 23 81 18 82 21 83 20 84 19 85 22 87
REMARK H PARENT 3 7 75 25 49 36 8 67 27 76 19 86 22 88
REMARK Flexibility Score: inf
ROOT
ATOM      1  C   UNL A   1      32.572  29.353  25.313  1.00  0.00     0.023 C 
ENDROOT
BRANCH   1   2
ATOM      2  C   UNL A   1      33.941  28.846  25.758  1.00  0.00     0.023 C 
BRANCH   2   3
ATOM      3  C   UNL A   1      34.130  28.744  27.265  1.00  0.00     0.116 C 
BRANCH   3   4
ATOM      4  N   UNL A   1      34.014  30.031  27.933  1.00  0.00    -0.352 N 
ATOM      5  O   UNL A   1      34.635  31.711  29.308  1.00  0.00    -0.269 OA
ATOM      6  C   UNL A   1      34.947  30.701  28.684  1.00  0.00     0.251 C 
ATOM      7  H   UNL A   1      33.145  30.484  27.832  1.00  0.00     0.163 HD
BRANCH   6   8
ATOM      8  C   UNL A   1      36.333  30.191  28.750  1.00  0.00     0.039 A 
ATOM      9  C   UNL A   1      37.192  30.335  27.657  1.00  0.00     0.014 A 
ATOM     10  C   UNL A   1      36.781  29.576  29.922  1.00  0.00     0.014 A 
ATOM     11  C   UNL A   1      38.458  29.763  27.693  1.00  0.00     0.010 A 
ATOM     12  C   UNL A   1      38.084  29.077  29.987  1.00  0.00     0.010 A 
ATOM     13  C   UNL A   1      38.928  29.159  28.869  1.00  0.00    -0.014 A 
BRANCH  13  14
ATOM     14  C   UNL A   1      40.350  28.745  28.950  1.00  0.00     0.031 A 
ATOM     15  C   UNL A   1      40.806  27.395  28.481  1.00  0.00     0.074 A 
ATOM     16  C   UNL A   1      41.231  29.621  29.475  1.00  0.00     0.049 A 
ATOM     17  N   UNL A   1      42.008  26.879  28.518  1.00  0.00    -0.248 NA
ATOM     18  C   UNL A   1      39.789  26.504  27.901  1.00  0.00     0.031 C 
ATOM     19  C   UNL A   1      40.889  30.954  29.983  1.00  0.00     0.029 A 
ATOM     20  N   UNL A   1      42.583  29.530  29.672  1.00  0.00    -0.354 N 
ATOM     21  C   UNL A   1      41.892  25.600  27.989  1.00  0.00     0.074 A 
ATOM     22  C   UNL A   1      40.498  25.411  27.646  1.00  0.00     0.031 C 
ATOM     23  C   UNL A   1      42.003  31.562  30.412  1.00  0.00     0.029 A 
ATOM     24  C   UNL A   1      43.123  30.640  30.273  1.00  0.00     0.049 A 
ATOM     25  H   UNL A   1      43.116  28.745  29.407  1.00  0.00     0.167 HD
ATOM     26  C   UNL A   1      42.866  24.676  27.808  1.00  0.00     0.037 A 
ATOM     27  C   UNL A   1      44.375  30.879  30.705  1.00  0.00     0.037 A 
ATOM     28  C   UNL A   1      44.255  24.888  28.131  1.00  0.00     0.049 A 
ATOM     29  C   UNL A   1      45.420  29.819  30.520  1.00  0.00     0.074 A 
ATOM     30  C   UNL A   1      45.328  24.044  27.903  1.00  0.00     0.029 A 
ATOM     31  N   UNL A   1      44.759  26.015  28.762  1.00  0.00    -0.354 N 
ATOM     32  N   UNL A   1      45.309  28.644  29.949  1.00  0.00    -0.248 NA
ATOM     33  C   UNL A   1      46.759  30.111  31.047  1.00  0.00     0.031 C 
ATOM     34  C   UNL A   1      46.472  24.634  28.449  1.00  0.00     0.029 A 
ATOM     35  C   UNL A   1      46.120  25.867  28.974  1.00  0.00     0.049 A 
ATOM     36  H   UNL A   1      44.229  26.802  29.021  1.00  0.00     0.167 HD
ATOM     37  C   UNL A   1      46.562  28.059  30.045  1.00  0.00     0.074 A 
ATOM     38  C   UNL A   1      47.426  29.020  30.699  1.00  0.00     0.031 C 
ATOM     39  C   UNL A   1      46.961  26.830  29.636  1.00  0.00     0.037 A 
BRANCH  26  40
ATOM     40  C   UNL A   1      42.483  23.338  27.251  1.00  0.00     0.057 A 
ATOM     41  C   UNL A   1      42.613  23.036  25.890  1.00  0.00     0.134 A 
ATOM     42  C   UNL A   1      42.085  22.302  28.107  1.00  0.00     0.134 A 
ATOM     43  F   UNL A   1      42.986  23.982  25.016  1.00  0.00    -0.206 F 
ATOM     44  C   UNL A   1      42.357  21.753  25.400  1.00  0.00     0.040 A 
ATOM     45  C   UNL A   1      41.845  21.012  27.634  1.00  0.00     0.040 A 
ATOM     46  F   UNL A   1      41.951  22.522  29.424  1.00  0.00    -0.206 F 
ATOM     47  C   UNL A   1      41.984  20.734  26.275  1.00  0.00     0.006 A 
ENDBRANCH  26  40
BRANCH  27  48
ATOM     48  C   UNL A   1      44.690  32.152  31.399  1.00  0.00     0.057 A 
ATOM     49  C   UNL A   1      45.173  33.262  30.700  1.00  0.00     0.134 A 
ATOM     50  C   UNL A   1      44.528  32.282  32.785  1.00  0.00     0.134 A 
ATOM     51  F   UNL A   1      45.367  33.194  29.376  1.00  0.00    -0.206 F 
ATOM     52  C   UNL A   1      45.505  34.449  31.356  1.00  0.00     0.040 A 
ATOM     53  C   UNL A   1      44.825  33.471  33.450  1.00  0.00     0.040 A 
ATOM     54  F   UNL A   1      44.060  31.255  33.512  1.00  0.00    -0.206 F 
ATOM     55  C   UNL A   1      45.326  34.556  32.735  1.00  0.00     0.006 A 
ENDBRANCH  27  48
BRANCH  39  56
ATOM     56  C   UNL A   1      48.392  26.464  29.887  1.00  0.00     0.057 A 
ATOM     57  C   UNL A   1      49.400  26.777  28.966  1.00  0.00     0.134 A 
ATOM     58  C   UNL A   1      48.771  25.821  31.071  1.00  0.00     0.134 A 
ATOM     59  F   UNL A   1      49.097  27.377  27.805  1.00  0.00    -0.206 F 
ATOM     60  C   UNL A   1      50.733  26.446  29.206  1.00  0.00     0.040 A 
ATOM     61  C   UNL A   1      50.105  25.509  31.335  1.00  0.00     0.040 A 
ATOM     62  F   UNL A   1      47.854  25.499  31.996  1.00  0.00    -0.206 F 
ATOM     63  C   UNL A   1      51.090  25.816  30.398  1.00  0.00     0.006 A 
ENDBRANCH  39  56
ENDBRANCH  13  14
ENDBRANCH   6   8
ENDBRANCH   3   4
ENDBRANCH   2   3
ENDBRANCH   1   2
BRANCH   1  64
ATOM     64  C   UNL A   1      31.412  28.391  25.547  1.00  0.00     0.116 C 
BRANCH  64  65
ATOM     65  N   UNL A   1      30.414  28.450  24.496  1.00  0.00    -0.352 N 
ATOM     66  C   UNL A   1      30.369  27.749  23.317  1.00  0.00     0.255 C 
ATOM     67  H   UNL A   1      29.669  29.076  24.648  1.00  0.00     0.163 HD
ATOM     68  O   UNL A   1      29.470  27.964  22.508  1.00  0.00    -0.269 OA
BRANCH  66  69
ATOM     69  C   UNL A   1      31.452  26.807  22.969  1.00  0.00     0.082 A 
ATOM     70  C   UNL A   1      31.252  25.465  23.323  1.00  0.00     0.025 A 
ATOM     71  C   UNL A   1      32.635  27.199  22.340  1.00  0.00     0.128 A 
ATOM     72  C   UNL A   1      32.208  24.491  23.010  1.00  0.00    -0.025 A 
ATOM     73  C   UNL A   1      33.589  26.241  22.007  1.00  0.00     0.047 A 
ATOM     74  C   UNL A   1      33.369  24.898  22.334  1.00  0.00     0.012 A 
BRANCH  71  75
ATOM     75  O   UNL A   1      32.863  28.513  22.041  1.00  0.00    -0.507 OA
ATOM     76  H   UNL A   1      33.496  28.742  21.389  1.00  0.00     0.293 HD
ENDBRANCH  71  75
BRANCH  72  77
ATOM     77  C   UNL A   1      32.059  23.067  23.363  1.00  0.00     0.009 C 
ATOM     78  C   UNL A   1      33.059  22.175  23.471  1.00  0.00     0.009 C 
BRANCH  78  79
ATOM     79  C   UNL A   1      32.844  20.759  23.796  1.00  0.00    -0.018 A 
ATOM     80  C   UNL A   1      32.961  20.282  25.109  1.00  0.00     0.054 A 
ATOM     81  C   UNL A   1      32.440  19.883  22.778  1.00  0.00     0.054 A 
ATOM     82  C   UNL A   1      32.696  18.942  25.383  1.00  0.00     0.119 A 
ATOM     83  C   UNL A   1      32.184  18.547  23.076  1.00  0.00     0.119 A 
ATOM     84  C   UNL A   1      32.312  18.068  24.375  1.00  0.00     0.092 A 
BRANCH  82  85
ATOM     85  O   UNL A   1      32.795  18.446  26.651  1.00  0.00    -0.508 OA
ATOM     86  H   UNL A   1      33.635  18.367  27.059  1.00  0.00     0.293 HD
ENDBRANCH  82  85
BRANCH  83  87
ATOM     87  O   UNL A   1      31.795  17.667  22.109  1.00  0.00    -0.508 OA
ATOM     88  H   UNL A   1      32.353  17.498  21.376  1.00  0.00     0.293 HD
ENDBRANCH  83  87
ENDBRANCH  78  79
ENDBRANCH  72  77
ENDBRANCH  66  69
ENDBRANCH  64  65
ENDBRANCH   1  64
TORSDOF 16
ENDMDL
