MODEL 1
REMARK VINA RESULT:     -11.8      0.000      0.000
REMARK SMILES CCc1cccc(C)c1Nc1ccccc1CC(=O)NCCCCNC(=O)c1ccc(-c2c3nc(c(-c4c(F)cccc4F)c4ccc([nH]4)c(-c4c(F)cccc4F)c4nc(c(-c5c(F)cccc5F)c5ccc2[nH]5)C=C4)C=C3)cc1
REMARK SMILES IDX 21 1 20 2 18 3 19 4 17 6 16 7 11 8 12 9 13 10 15 11 14 12
REMARK SMILES IDX 10 13 9 15 3 16 4 17 5 18 7 19 6 20 8 21 2 22 1 23 22 24
REMARK SMILES IDX 23 25 24 26 25 27 26 28 27 30 28 31 29 32 81 33 30 34 80 35
REMARK SMILES IDX 31 36 32 37 33 38 74 39 34 40 79 41 73 42 75 43 35 44 78 45
REMARK SMILES IDX 72 46 71 47 36 49 62 50 45 51 61 52 46 53 49 54 60 55 76 56
REMARK SMILES IDX 47 57 48 58 59 60 77 61 50 62 37 63 38 64 43 65 39 66 40 67
REMARK SMILES IDX 42 68 44 69 41 70 63 71 64 72 69 73 65 74 66 75 68 76 70 77
REMARK SMILES IDX 67 78 51 79 52 80 57 81 53 82 54 83 56 84 58 85 55 86
REMARK H PARENT 20 5 10 14 25 29 75 48 49 59
REMARK Flexibility Score: inf
ROOT
ATOM      1  C   UNL A   1      32.941  28.746  27.495  1.00  0.00     0.116 C 
ENDROOT
BRANCH   1   2
ATOM      2  N   UNL A   1      31.838  27.920  27.038  1.00  0.00    -0.356 N 
ATOM      3  C   UNL A   1      31.785  26.668  26.504  1.00  0.00     0.224 C 
ATOM      4  O   UNL A   1      30.674  26.124  26.512  1.00  0.00    -0.275 OA
ATOM      5  H   UNL A   1      30.957  28.348  27.132  1.00  0.00     0.163 HD
BRANCH   3   6
ATOM      6  C   UNL A   1      33.014  25.893  26.075  1.00  0.00     0.137 C 
BRANCH   6   7
ATOM      7  C   UNL A   1      33.037  25.282  24.689  1.00  0.00    -0.015 A 
ATOM      8  C   UNL A   1      33.559  24.004  24.387  1.00  0.00     0.042 A 
ATOM      9  C   UNL A   1      33.581  23.588  23.038  1.00  0.00     0.026 A 
ATOM     10  C   UNL A   1      33.116  24.402  22.007  1.00  0.00     0.002 A 
ATOM     11  C   UNL A   1      32.624  26.112  23.621  1.00  0.00     0.006 A 
ATOM     12  C   UNL A   1      32.645  25.673  22.298  1.00  0.00     0.000 A 
BRANCH   8  13
ATOM     13  N   UNL A   1      34.039  23.074  25.338  1.00  0.00    -0.355 N 
ATOM     14  H   UNL A   1      33.516  23.043  26.172  1.00  0.00     0.167 HD
BRANCH  13  15
ATOM     15  C   UNL A   1      35.134  22.180  25.309  1.00  0.00     0.045 A 
ATOM     16  C   UNL A   1      34.934  20.787  25.167  1.00  0.00    -0.024 A 
ATOM     17  C   UNL A   1      36.059  19.967  24.906  1.00  0.00     0.006 A 
ATOM     18  C   UNL A   1      37.350  20.478  24.864  1.00  0.00     0.001 A 
ATOM     19  C   UNL A   1      36.462  22.649  25.460  1.00  0.00    -0.027 A 
ATOM     20  C   UNL A   1      37.554  21.809  25.182  1.00  0.00     0.005 A 
ATOM     21  C   UNL A   1      36.756  24.008  26.030  1.00  0.00     0.046 C 
BRANCH  16  22
ATOM     22  C   UNL A   1      33.633  20.011  25.287  1.00  0.00     0.034 C 
ATOM     23  C   UNL A   1      32.507  20.181  24.280  1.00  0.00     0.009 C 
ENDBRANCH  16  22
ENDBRANCH  13  15
ENDBRANCH   8  13
ENDBRANCH   6   7
ENDBRANCH   3   6
ENDBRANCH   1   2
BRANCH   1  24
ATOM     24  C   UNL A   1      33.304  29.916  26.571  1.00  0.00     0.023 C 
BRANCH  24  25
ATOM     25  C   UNL A   1      34.019  31.092  27.234  1.00  0.00     0.023 C 
BRANCH  25  26
ATOM     26  C   UNL A   1      34.555  30.831  28.629  1.00  0.00     0.116 C 
BRANCH  26  27
ATOM     27  N   UNL A   1      35.705  31.669  28.974  1.00  0.00    -0.352 N 
ATOM     28  C   UNL A   1      37.037  31.302  29.103  1.00  0.00     0.251 C 
ATOM     29  H   UNL A   1      35.505  32.619  29.137  1.00  0.00     0.163 HD
ATOM     30  O   UNL A   1      37.905  32.123  29.333  1.00  0.00    -0.269 OA
BRANCH  28  31
ATOM     31  C   UNL A   1      37.388  29.896  28.799  1.00  0.00     0.039 A 
ATOM     32  C   UNL A   1      37.571  29.054  29.899  1.00  0.00     0.014 A 
ATOM     33  C   UNL A   1      37.920  29.582  27.552  1.00  0.00     0.014 A 
ATOM     34  C   UNL A   1      38.550  28.074  29.829  1.00  0.00     0.010 A 
ATOM     35  C   UNL A   1      38.966  28.681  27.514  1.00  0.00     0.010 A 
ATOM     36  C   UNL A   1      39.341  28.003  28.682  1.00  0.00    -0.014 A 
BRANCH  36  37
ATOM     37  C   UNL A   1      40.663  27.385  28.690  1.00  0.00     0.031 A 
ATOM     38  C   UNL A   1      40.805  25.940  28.426  1.00  0.00     0.074 A 
ATOM     39  C   UNL A   1      41.759  28.149  28.899  1.00  0.00     0.049 A 
ATOM     40  N   UNL A   1      41.822  25.228  28.773  1.00  0.00    -0.248 NA
ATOM     41  C   UNL A   1      39.748  25.162  27.796  1.00  0.00     0.031 C 
ATOM     42  C   UNL A   1      43.156  27.768  28.699  1.00  0.00     0.029 A 
ATOM     43  N   UNL A   1      41.828  29.384  29.564  1.00  0.00    -0.354 N 
ATOM     44  C   UNL A   1      41.690  23.986  28.191  1.00  0.00     0.074 A 
ATOM     45  C   UNL A   1      40.350  23.978  27.655  1.00  0.00     0.031 C 
ATOM     46  C   UNL A   1      43.932  28.559  29.455  1.00  0.00     0.029 A 
ATOM     47  C   UNL A   1      43.054  29.383  30.265  1.00  0.00     0.049 A 
ATOM     48  H   UNL A   1      41.157  30.104  29.545  1.00  0.00     0.167 HD
ATOM     49  C   UNL A   1      42.780  23.167  28.128  1.00  0.00     0.037 A 
ATOM     50  C   UNL A   1      43.098  29.462  31.626  1.00  0.00     0.037 A 
ATOM     51  C   UNL A   1      43.885  23.704  28.926  1.00  0.00     0.049 A 
ATOM     52  C   UNL A   1      43.739  28.268  32.295  1.00  0.00     0.074 A 
ATOM     53  C   UNL A   1      45.027  24.422  28.604  1.00  0.00     0.029 A 
ATOM     54  N   UNL A   1      43.742  23.801  30.307  1.00  0.00    -0.354 N 
ATOM     55  N   UNL A   1      43.958  27.128  31.699  1.00  0.00    -0.248 NA
ATOM     56  C   UNL A   1      44.151  28.252  33.697  1.00  0.00     0.031 C 
ATOM     57  C   UNL A   1      45.526  25.012  29.793  1.00  0.00     0.029 A 
ATOM     58  C   UNL A   1      44.703  24.637  30.841  1.00  0.00     0.049 A 
ATOM     59  H   UNL A   1      43.050  23.337  30.832  1.00  0.00     0.167 HD
ATOM     60  C   UNL A   1      44.474  26.233  32.600  1.00  0.00     0.074 A 
ATOM     61  C   UNL A   1      44.608  26.994  33.827  1.00  0.00     0.031 C 
ATOM     62  C   UNL A   1      44.727  24.933  32.266  1.00  0.00     0.037 A 
BRANCH  49  63
ATOM     63  C   UNL A   1      42.934  22.053  27.106  1.00  0.00     0.057 A 
ATOM     64  C   UNL A   1      42.176  20.867  27.211  1.00  0.00     0.134 A 
ATOM     65  C   UNL A   1      43.865  22.034  26.053  1.00  0.00     0.134 A 
ATOM     66  F   UNL A   1      41.163  20.752  28.081  1.00  0.00    -0.206 F 
ATOM     67  C   UNL A   1      42.418  19.728  26.429  1.00  0.00     0.040 A 
ATOM     68  C   UNL A   1      44.155  20.887  25.298  1.00  0.00     0.040 A 
ATOM     69  F   UNL A   1      44.495  23.142  25.650  1.00  0.00    -0.206 F 
ATOM     70  C   UNL A   1      43.440  19.719  25.496  1.00  0.00     0.006 A 
ENDBRANCH  49  63
BRANCH  50  71
ATOM     71  C   UNL A   1      42.019  30.298  32.209  1.00  0.00     0.057 A 
ATOM     72  C   UNL A   1      42.151  31.696  32.149  1.00  0.00     0.134 A 
ATOM     73  C   UNL A   1      40.745  29.788  32.468  1.00  0.00     0.134 A 
ATOM     74  F   UNL A   1      43.349  32.250  31.906  1.00  0.00    -0.206 F 
ATOM     75  C   UNL A   1      41.045  32.546  32.232  1.00  0.00     0.040 A 
ATOM     76  C   UNL A   1      39.630  30.631  32.556  1.00  0.00     0.040 A 
ATOM     77  F   UNL A   1      40.538  28.465  32.519  1.00  0.00    -0.206 F 
ATOM     78  C   UNL A   1      39.773  32.010  32.400  1.00  0.00     0.006 A 
ENDBRANCH  50  71
BRANCH  62  79
ATOM     79  C   UNL A   1      45.090  23.836  33.235  1.00  0.00     0.057 A 
ATOM     80  C   UNL A   1      46.359  23.685  33.814  1.00  0.00     0.134 A 
ATOM     81  C   UNL A   1      44.096  22.963  33.731  1.00  0.00     0.134 A 
ATOM     82  F   UNL A   1      47.367  24.518  33.521  1.00  0.00    -0.206 F 
ATOM     83  C   UNL A   1      46.635  22.700  34.773  1.00  0.00     0.040 A 
ATOM     84  C   UNL A   1      44.348  22.012  34.724  1.00  0.00     0.040 A 
ATOM     85  F   UNL A   1      42.831  23.014  33.287  1.00  0.00    -0.206 F 
ATOM     86  C   UNL A   1      45.626  21.867  35.239  1.00  0.00     0.006 A 
ENDBRANCH  62  79
ENDBRANCH  36  37
ENDBRANCH  28  31
ENDBRANCH  26  27
ENDBRANCH  25  26
ENDBRANCH  24  25
ENDBRANCH   1  24
TORSDOF 15
ENDMDL
MODEL 2
REMARK VINA RESULT:     -11.7      1.011      1.793
REMARK SMILES CCc1cccc(C)c1Nc1ccccc1CC(=O)NCCCCNC(=O)c1ccc(-c2c3nc(c(-c4c(F)cccc4F)c4ccc([nH]4)c(-c4c(F)cccc4F)c4nc(c(-c5c(F)cccc5F)c5ccc2[nH]5)C=C4)C=C3)cc1
REMARK SMILES IDX 21 1 20 2 18 3 19 4 17 6 16 7 11 8 12 9 13 10 15 11 14 12
REMARK SMILES IDX 10 13 9 15 3 16 4 17 5 18 7 19 6 20 8 21 2 22 1 23 22 24
REMARK SMILES IDX 23 25 24 26 25 27 26 28 27 30 28 31 29 32 81 33 30 34 80 35
REMARK SMILES IDX 31 36 32 37 33 38 74 39 34 40 79 41 73 42 75 43 35 44 78 45
REMARK SMILES IDX 72 46 71 47 36 49 62 50 45 51 61 52 46 53 49 54 60 55 76 56
REMARK SMILES IDX 47 57 48 58 59 60 77 61 50 62 37 63 38 64 43 65 39 66 40 67
REMARK SMILES IDX 42 68 44 69 41 70 63 71 64 72 69 73 65 74 66 75 68 76 70 77
REMARK SMILES IDX 67 78 51 79 52 80 57 81 53 82 54 83 56 84 58 85 55 86
REMARK H PARENT 20 5 10 14 25 29 75 48 49 59
REMARK Flexibility Score: inf
ROOT
ATOM      1  C   UNL A   1      32.940  29.203  27.182  1.00  0.00     0.116 C 
ENDROOT
BRANCH   1   2
ATOM      2  N   UNL A   1      31.827  28.282  27.034  1.00  0.00    -0.356 N 
ATOM      3  C   UNL A   1      31.751  26.993  26.601  1.00  0.00     0.224 C 
ATOM      4  O   UNL A   1      30.712  26.387  26.890  1.00  0.00    -0.275 OA
ATOM      5  H   UNL A   1      30.959  28.664  27.297  1.00  0.00     0.163 HD
BRANCH   3   6
ATOM      6  C   UNL A   1      32.909  26.261  25.954  1.00  0.00     0.137 C 
BRANCH   6   7
ATOM      7  C   UNL A   1      32.948  26.159  24.444  1.00  0.00    -0.015 A 
ATOM      8  C   UNL A   1      32.740  24.965  23.717  1.00  0.00     0.042 A 
ATOM      9  C   UNL A   1      32.876  25.000  22.312  1.00  0.00     0.026 A 
ATOM     10  C   UNL A   1      33.218  26.168  21.632  1.00  0.00     0.002 A 
ATOM     11  C   UNL A   1      33.350  27.317  23.738  1.00  0.00     0.006 A 
ATOM     12  C   UNL A   1      33.466  27.328  22.349  1.00  0.00     0.000 A 
BRANCH   8  13
ATOM     13  N   UNL A   1      32.366  23.723  24.280  1.00  0.00    -0.355 N 
ATOM     14  H   UNL A   1      31.595  23.296  23.842  1.00  0.00     0.167 HD
BRANCH  13  15
ATOM     15  C   UNL A   1      32.900  22.982  25.360  1.00  0.00     0.045 A 
ATOM     16  C   UNL A   1      34.180  22.385  25.272  1.00  0.00    -0.024 A 
ATOM     17  C   UNL A   1      34.764  21.863  26.452  1.00  0.00     0.006 A 
ATOM     18  C   UNL A   1      34.087  21.851  27.665  1.00  0.00     0.001 A 
ATOM     19  C   UNL A   1      32.154  22.783  26.547  1.00  0.00    -0.027 A 
ATOM     20  C   UNL A   1      32.770  22.272  27.702  1.00  0.00     0.005 A 
ATOM     21  C   UNL A   1      30.667  22.996  26.586  1.00  0.00     0.046 C 
BRANCH  16  22
ATOM     22  C   UNL A   1      35.040  22.194  24.034  1.00  0.00     0.034 C 
ATOM     23  C   UNL A   1      35.973  23.283  23.533  1.00  0.00     0.009 C 
ENDBRANCH  16  22
ENDBRANCH  13  15
ENDBRANCH   8  13
ENDBRANCH   6   7
ENDBRANCH   3   6
ENDBRANCH   1   2
BRANCH   1  24
ATOM     24  C   UNL A   1      32.565  30.690  27.130  1.00  0.00     0.023 C 
BRANCH  24  25
ATOM     25  C   UNL A   1      33.606  31.659  27.688  1.00  0.00     0.023 C 
BRANCH  25  26
ATOM     26  C   UNL A   1      35.043  31.178  27.637  1.00  0.00     0.116 C 
BRANCH  26  27
ATOM     27  N   UNL A   1      35.898  31.795  28.653  1.00  0.00    -0.352 N 
ATOM     28  C   UNL A   1      36.965  31.236  29.343  1.00  0.00     0.251 C 
ATOM     29  H   UNL A   1      35.688  32.731  28.876  1.00  0.00     0.163 HD
ATOM     30  O   UNL A   1      37.635  31.891  30.119  1.00  0.00    -0.269 OA
BRANCH  28  31
ATOM     31  C   UNL A   1      37.357  29.853  28.986  1.00  0.00     0.039 A 
ATOM     32  C   UNL A   1      37.540  28.969  30.053  1.00  0.00     0.014 A 
ATOM     33  C   UNL A   1      37.920  29.606  27.738  1.00  0.00     0.014 A 
ATOM     34  C   UNL A   1      38.544  28.018  29.960  1.00  0.00     0.010 A 
ATOM     35  C   UNL A   1      38.988  28.733  27.682  1.00  0.00     0.010 A 
ATOM     36  C   UNL A   1      39.358  28.015  28.828  1.00  0.00    -0.014 A 
BRANCH  36  37
ATOM     37  C   UNL A   1      40.695  27.429  28.836  1.00  0.00     0.031 A 
ATOM     38  C   UNL A   1      40.877  25.999  28.520  1.00  0.00     0.074 A 
ATOM     39  C   UNL A   1      41.768  28.210  29.094  1.00  0.00     0.049 A 
ATOM     40  N   UNL A   1      41.906  25.299  28.857  1.00  0.00    -0.248 NA
ATOM     41  C   UNL A   1      39.851  25.221  27.841  1.00  0.00     0.031 C 
ATOM     42  C   UNL A   1      43.177  27.872  28.905  1.00  0.00     0.029 A 
ATOM     43  N   UNL A   1      41.794  29.421  29.807  1.00  0.00    -0.354 N 
ATOM     44  C   UNL A   1      41.814  24.078  28.226  1.00  0.00     0.074 A 
ATOM     45  C   UNL A   1      40.484  24.059  27.665  1.00  0.00     0.031 C 
ATOM     46  C   UNL A   1      43.920  28.651  29.705  1.00  0.00     0.029 A 
ATOM     47  C   UNL A   1      43.008  29.422  30.530  1.00  0.00     0.049 A 
ATOM     48  H   UNL A   1      41.106  30.124  29.803  1.00  0.00     0.167 HD
ATOM     49  C   UNL A   1      42.925  23.288  28.150  1.00  0.00     0.037 A 
ATOM     50  C   UNL A   1      43.027  29.449  31.893  1.00  0.00     0.037 A 
ATOM     51  C   UNL A   1      44.002  23.821  28.988  1.00  0.00     0.049 A 
ATOM     52  C   UNL A   1      43.685  28.246  32.528  1.00  0.00     0.074 A 
ATOM     53  C   UNL A   1      45.132  24.578  28.715  1.00  0.00     0.029 A 
ATOM     54  N   UNL A   1      43.833  23.861  30.369  1.00  0.00    -0.354 N 
ATOM     55  N   UNL A   1      43.943  27.136  31.892  1.00  0.00    -0.248 NA
ATOM     56  C   UNL A   1      44.074  28.185  33.935  1.00  0.00     0.031 C 
ATOM     57  C   UNL A   1      45.595  25.134  29.935  1.00  0.00     0.029 A 
ATOM     58  C   UNL A   1      44.764  24.699  30.952  1.00  0.00     0.049 A 
ATOM     59  H   UNL A   1      43.144  23.360  30.863  1.00  0.00     0.167 HD
ATOM     60  C   UNL A   1      44.465  26.218  32.767  1.00  0.00     0.074 A 
ATOM     61  C   UNL A   1      44.559  26.934  34.025  1.00  0.00     0.031 C 
ATOM     62  C   UNL A   1      44.756  24.939  32.388  1.00  0.00     0.037 A 
BRANCH  49  63
ATOM     63  C   UNL A   1      43.125  22.219  27.090  1.00  0.00     0.057 A 
ATOM     64  C   UNL A   1      42.388  21.016  27.130  1.00  0.00     0.134 A 
ATOM     65  C   UNL A   1      44.079  22.260  26.059  1.00  0.00     0.134 A 
ATOM     66  F   UNL A   1      41.357  20.847  27.970  1.00  0.00    -0.206 F 
ATOM     67  C   UNL A   1      42.669  19.914  26.310  1.00  0.00     0.040 A 
ATOM     68  C   UNL A   1      44.409  21.149  25.266  1.00  0.00     0.040 A 
ATOM     69  F   UNL A   1      44.696  23.394  25.715  1.00  0.00    -0.206 F 
ATOM     70  C   UNL A   1      43.713  19.961  25.401  1.00  0.00     0.006 A 
ENDBRANCH  49  63
BRANCH  50  71
ATOM     71  C   UNL A   1      41.918  30.235  32.488  1.00  0.00     0.057 A 
ATOM     72  C   UNL A   1      40.800  29.542  32.987  1.00  0.00     0.134 A 
ATOM     73  C   UNL A   1      42.088  31.556  32.908  1.00  0.00     0.134 A 
ATOM     74  F   UNL A   1      40.579  28.270  32.620  1.00  0.00    -0.206 F 
ATOM     75  C   UNL A   1      39.952  30.102  33.946  1.00  0.00     0.040 A 
ATOM     76  C   UNL A   1      41.242  32.128  33.866  1.00  0.00     0.040 A 
ATOM     77  F   UNL A   1      43.142  32.273  32.491  1.00  0.00    -0.206 F 
ATOM     78  C   UNL A   1      40.194  31.389  34.416  1.00  0.00     0.006 A 
ENDBRANCH  50  71
BRANCH  62  79
ATOM     79  C   UNL A   1      45.130  23.814  33.321  1.00  0.00     0.057 A 
ATOM     80  C   UNL A   1      46.384  23.685  33.935  1.00  0.00     0.134 A 
ATOM     81  C   UNL A   1      44.155  22.884  33.745  1.00  0.00     0.134 A 
ATOM     82  F   UNL A   1      47.368  24.567  33.713  1.00  0.00    -0.206 F 
ATOM     83  C   UNL A   1      46.667  22.669  34.860  1.00  0.00     0.040 A 
ATOM     84  C   UNL A   1      44.411  21.899  34.703  1.00  0.00     0.040 A 
ATOM     85  F   UNL A   1      42.904  22.907  33.260  1.00  0.00    -0.206 F 
ATOM     86  C   UNL A   1      45.677  21.779  35.255  1.00  0.00     0.006 A 
ENDBRANCH  62  79
ENDBRANCH  36  37
ENDBRANCH  28  31
ENDBRANCH  26  27
ENDBRANCH  25  26
ENDBRANCH  24  25
ENDBRANCH   1  24
TORSDOF 15
ENDMDL
MODEL 3
REMARK VINA RESULT:     -11.2      1.965      3.023
REMARK SMILES CCc1cccc(C)c1Nc1ccccc1CC(=O)NCCCCNC(=O)c1ccc(-c2c3nc(c(-c4c(F)cccc4F)c4ccc([nH]4)c(-c4c(F)cccc4F)c4nc(c(-c5c(F)cccc5F)c5ccc2[nH]5)C=C4)C=C3)cc1
REMARK SMILES IDX 21 1 20 2 18 3 19 4 17 6 16 7 11 8 12 9 13 10 15 11 14 12
REMARK SMILES IDX 10 13 9 15 3 16 4 17 5 18 7 19 6 20 8 21 2 22 1 23 22 24
REMARK SMILES IDX 23 25 24 26 25 27 26 28 27 30 28 31 29 32 81 33 30 34 80 35
REMARK SMILES IDX 31 36 32 37 33 38 74 39 34 40 79 41 73 42 75 43 35 44 78 45
REMARK SMILES IDX 72 46 71 47 36 49 62 50 45 51 61 52 46 53 49 54 60 55 76 56
REMARK SMILES IDX 47 57 48 58 59 60 77 61 50 62 37 63 38 64 43 65 39 66 40 67
REMARK SMILES IDX 42 68 44 69 41 70 63 71 64 72 69 73 65 74 66 75 68 76 70 77
REMARK SMILES IDX 67 78 51 79 52 80 57 81 53 82 54 83 56 84 58 85 55 86
REMARK H PARENT 20 5 10 14 25 29 75 48 49 59
REMARK Flexibility Score: inf
ROOT
ATOM      1  C   UNL A   1      34.130  28.931  27.503  1.00  0.00     0.116 C 
ENDROOT
BRANCH   1   2
ATOM      2  N   UNL A   1      32.793  28.430  27.769  1.00  0.00    -0.356 N 
ATOM      3  C   UNL A   1      31.889  27.765  26.997  1.00  0.00     0.224 C 
ATOM      4  O   UNL A   1      30.971  27.202  27.604  1.00  0.00    -0.275 OA
ATOM      5  H   UNL A   1      32.479  28.604  28.685  1.00  0.00     0.163 HD
BRANCH   3   6
ATOM      6  C   UNL A   1      32.057  27.563  25.505  1.00  0.00     0.137 C 
BRANCH   6   7
ATOM      7  C   UNL A   1      30.978  28.081  24.578  1.00  0.00    -0.015 A 
ATOM      8  C   UNL A   1      30.175  27.265  23.749  1.00  0.00     0.042 A 
ATOM      9  C   UNL A   1      29.253  27.889  22.880  1.00  0.00     0.026 A 
ATOM     10  C   UNL A   1      29.126  29.276  22.812  1.00  0.00     0.002 A 
ATOM     11  C   UNL A   1      30.871  29.486  24.449  1.00  0.00     0.006 A 
ATOM     12  C   UNL A   1      29.944  30.077  23.592  1.00  0.00     0.000 A 
BRANCH   8  13
ATOM     13  N   UNL A   1      30.189  25.851  23.738  1.00  0.00    -0.355 N 
ATOM     14  H   UNL A   1      29.311  25.438  23.905  1.00  0.00     0.167 HD
BRANCH  13  15
ATOM     15  C   UNL A   1      31.236  24.924  23.531  1.00  0.00     0.045 A 
ATOM     16  C   UNL A   1      31.485  23.887  24.460  1.00  0.00    -0.024 A 
ATOM     17  C   UNL A   1      32.380  22.852  24.093  1.00  0.00     0.006 A 
ATOM     18  C   UNL A   1      33.072  22.870  22.889  1.00  0.00     0.001 A 
ATOM     19  C   UNL A   1      32.091  25.029  22.407  1.00  0.00    -0.027 A 
ATOM     20  C   UNL A   1      32.959  23.977  22.067  1.00  0.00     0.005 A 
ATOM     21  C   UNL A   1      32.190  26.299  21.611  1.00  0.00     0.046 C 
BRANCH  16  22
ATOM     22  C   UNL A   1      30.924  23.734  25.865  1.00  0.00     0.034 C 
ATOM     23  C   UNL A   1      31.831  23.632  27.079  1.00  0.00     0.009 C 
ENDBRANCH  16  22
ENDBRANCH  13  15
ENDBRANCH   8  13
ENDBRANCH   6   7
ENDBRANCH   3   6
ENDBRANCH   1   2
BRANCH   1  24
ATOM     24  C   UNL A   1      34.185  30.297  26.806  1.00  0.00     0.023 C 
BRANCH  24  25
ATOM     25  C   UNL A   1      34.034  31.515  27.716  1.00  0.00     0.023 C 
BRANCH  25  26
ATOM     26  C   UNL A   1      35.313  32.272  28.016  1.00  0.00     0.116 C 
BRANCH  26  27
ATOM     27  N   UNL A   1      35.571  32.430  29.449  1.00  0.00    -0.352 N 
ATOM     28  C   UNL A   1      36.241  31.570  30.309  1.00  0.00     0.251 C 
ATOM     29  H   UNL A   1      35.224  33.256  29.856  1.00  0.00     0.163 HD
ATOM     30  O   UNL A   1      36.441  31.861  31.473  1.00  0.00    -0.269 OA
BRANCH  28  31
ATOM     31  C   UNL A   1      36.839  30.349  29.721  1.00  0.00     0.039 A 
ATOM     32  C   UNL A   1      37.013  29.268  30.589  1.00  0.00     0.014 A 
ATOM     33  C   UNL A   1      37.561  30.448  28.536  1.00  0.00     0.014 A 
ATOM     34  C   UNL A   1      38.133  28.466  30.431  1.00  0.00     0.010 A 
ATOM     35  C   UNL A   1      38.730  29.719  28.439  1.00  0.00     0.010 A 
ATOM     36  C   UNL A   1      39.059  28.800  29.444  1.00  0.00    -0.014 A 
BRANCH  36  37
ATOM     37  C   UNL A   1      40.450  28.360  29.506  1.00  0.00     0.031 A 
ATOM     38  C   UNL A   1      40.838  27.053  28.942  1.00  0.00     0.074 A 
ATOM     39  C   UNL A   1      41.386  29.174  30.045  1.00  0.00     0.049 A 
ATOM     40  N   UNL A   1      41.905  26.404  29.263  1.00  0.00    -0.248 NA
ATOM     41  C   UNL A   1      39.992  26.336  28.000  1.00  0.00     0.031 C 
ATOM     42  C   UNL A   1      42.838  29.024  29.973  1.00  0.00     0.029 A 
ATOM     43  N   UNL A   1      41.190  30.205  30.979  1.00  0.00    -0.354 N 
ATOM     44  C   UNL A   1      42.030  25.339  28.399  1.00  0.00     0.074 A 
ATOM     45  C   UNL A   1      40.778  25.305  27.682  1.00  0.00     0.031 C 
ATOM     46  C   UNL A   1      43.393  29.689  30.997  1.00  0.00     0.029 A 
ATOM     47  C   UNL A   1      42.313  30.176  31.835  1.00  0.00     0.049 A 
ATOM     48  H   UNL A   1      40.425  30.822  31.026  1.00  0.00     0.167 HD
ATOM     49  C   UNL A   1      43.231  24.696  28.312  1.00  0.00     0.037 A 
ATOM     50  C   UNL A   1      42.187  29.920  33.168  1.00  0.00     0.037 A 
ATOM     51  C   UNL A   1      44.142  25.147  29.367  1.00  0.00     0.049 A 
ATOM     52  C   UNL A   1      42.919  28.683  33.634  1.00  0.00     0.074 A 
ATOM     53  C   UNL A   1      45.192  26.053  29.391  1.00  0.00     0.029 A 
ATOM     54  N   UNL A   1      43.828  24.881  30.696  1.00  0.00    -0.354 N 
ATOM     55  N   UNL A   1      43.375  27.761  32.831  1.00  0.00    -0.248 NA
ATOM     56  C   UNL A   1      43.165  28.369  35.039  1.00  0.00     0.031 C 
ATOM     57  C   UNL A   1      45.455  26.385  30.745  1.00  0.00     0.029 A 
ATOM     58  C   UNL A   1      44.583  25.667  31.544  1.00  0.00     0.049 A 
ATOM     59  H   UNL A   1      43.158  24.222  30.992  1.00  0.00     0.167 HD
ATOM     60  C   UNL A   1      43.914  26.738  33.569  1.00  0.00     0.074 A 
ATOM     61  C   UNL A   1      43.788  27.181  34.944  1.00  0.00     0.031 C 
ATOM     62  C   UNL A   1      44.397  25.601  32.987  1.00  0.00     0.037 A 
BRANCH  49  63
ATOM     63  C   UNL A   1      43.669  23.897  27.097  1.00  0.00     0.057 A 
ATOM     64  C   UNL A   1      44.359  24.519  26.034  1.00  0.00     0.134 A 
ATOM     65  C   UNL A   1      43.373  22.543  26.860  1.00  0.00     0.134 A 
ATOM     66  F   UNL A   1      44.825  25.771  26.132  1.00  0.00    -0.206 F 
ATOM     67  C   UNL A   1      44.606  23.890  24.804  1.00  0.00     0.040 A 
ATOM     68  C   UNL A   1      43.566  21.915  25.619  1.00  0.00     0.040 A 
ATOM     69  F   UNL A   1      42.946  21.735  27.834  1.00  0.00    -0.206 F 
ATOM     70  C   UNL A   1      44.171  22.595  24.576  1.00  0.00     0.006 A 
ENDBRANCH  49  63
BRANCH  50  71
ATOM     71  C   UNL A   1      40.934  30.451  33.761  1.00  0.00     0.057 A 
ATOM     72  C   UNL A   1      40.878  31.816  34.093  1.00  0.00     0.134 A 
ATOM     73  C   UNL A   1      39.720  29.769  33.659  1.00  0.00     0.134 A 
ATOM     74  F   UNL A   1      42.010  32.528  34.208  1.00  0.00    -0.206 F 
ATOM     75  C   UNL A   1      39.664  32.498  34.209  1.00  0.00     0.040 A 
ATOM     76  C   UNL A   1      38.497  30.442  33.777  1.00  0.00     0.040 A 
ATOM     77  F   UNL A   1      39.693  28.471  33.326  1.00  0.00    -0.206 F 
ATOM     78  C   UNL A   1      38.467  31.816  34.015  1.00  0.00     0.006 A 
ENDBRANCH  50  71
BRANCH  62  79
ATOM     79  C   UNL A   1      44.808  24.349  33.721  1.00  0.00     0.057 A 
ATOM     80  C   UNL A   1      43.909  23.379  34.188  1.00  0.00     0.134 A 
ATOM     81  C   UNL A   1      46.174  24.014  33.852  1.00  0.00     0.134 A 
ATOM     82  F   UNL A   1      42.586  23.514  34.025  1.00  0.00    -0.206 F 
ATOM     83  C   UNL A   1      44.336  22.189  34.795  1.00  0.00     0.040 A 
ATOM     84  C   UNL A   1      46.610  22.808  34.409  1.00  0.00     0.040 A 
ATOM     85  F   UNL A   1      47.144  24.837  33.424  1.00  0.00    -0.206 F 
ATOM     86  C   UNL A   1      45.689  21.895  34.897  1.00  0.00     0.006 A 
ENDBRANCH  62  79
ENDBRANCH  36  37
ENDBRANCH  28  31
ENDBRANCH  26  27
ENDBRANCH  25  26
ENDBRANCH  24  25
ENDBRANCH   1  24
TORSDOF 15
ENDMDL
