MODEL 1
REMARK VINA RESULT:     -12.2      0.000      0.000
REMARK SMILES O=C(NCCCCNC(=O)[C@@H]1C=C[C@H](NC(=O)c2ccc(CO)cc2)C1)c1ccc(-c2c3nc(c(-c4c(F)cccc4F)c4ccc([nH]4)c(-c4c(F)cccc4F)c4nc(c(-c5c(F)cccc5F)c5ccc2[nH]5)C=C4)C=C3)cc1
REMARK SMILES IDX 6 1 5 2 4 3 3 4 1 5 2 6 27 8 28 9 80 10 29 11 79 12 30 13
REMARK SMILES IDX 31 14 32 15 73 16 33 17 78 18 72 19 74 20 34 21 77 22 71 23
REMARK SMILES IDX 70 24 35 26 61 27 44 28 60 29 45 30 48 31 59 32 75 33 46 34
REMARK SMILES IDX 47 35 58 37 76 38 49 39 36 40 37 41 42 42 38 43 39 44 41 45
REMARK SMILES IDX 43 46 40 47 62 48 63 49 68 50 64 51 65 52 67 53 69 54 66 55
REMARK SMILES IDX 50 56 51 57 56 58 52 59 53 60 55 61 57 62 54 63 7 64 8 65
REMARK SMILES IDX 9 66 10 68 11 69 12 70 26 71 13 72 14 73 15 74 16 75 17 77
REMARK SMILES IDX 18 78 19 79 25 80 20 81 24 82 21 83 22 84 23 85
REMARK H PARENT 3 7 74 25 48 36 8 67 15 76 23 86
REMARK Flexibility Score: inf
ROOT
ATOM      1  C   UNL A   1      31.847  30.525  26.319  1.00  0.00     0.023 C 
ENDROOT
BRANCH   1   2
ATOM      2  C   UNL A   1      31.511  31.912  26.860  1.00  0.00     0.023 C 
BRANCH   2   3
ATOM      3  C   UNL A   1      32.702  32.761  27.280  1.00  0.00     0.116 C 
BRANCH   3   4
ATOM      4  N   UNL A   1      32.345  34.114  27.683  1.00  0.00    -0.352 N 
ATOM      5  O   UNL A   1      32.528  36.045  28.839  1.00  0.00    -0.269 OA
ATOM      6  C   UNL A   1      32.987  34.945  28.567  1.00  0.00     0.251 C 
ATOM      7  H   UNL A   1      31.534  34.482  27.265  1.00  0.00     0.163 HD
BRANCH   6   8
ATOM      8  C   UNL A   1      34.218  34.466  29.223  1.00  0.00     0.039 A 
ATOM      9  C   UNL A   1      35.464  34.649  28.615  1.00  0.00     0.014 A 
ATOM     10  C   UNL A   1      34.104  33.777  30.430  1.00  0.00     0.014 A 
ATOM     11  C   UNL A   1      36.583  34.024  29.151  1.00  0.00     0.010 A 
ATOM     12  C   UNL A   1      35.240  33.210  31.003  1.00  0.00     0.010 A 
ATOM     13  C   UNL A   1      36.479  33.303  30.350  1.00  0.00    -0.014 A 
BRANCH  13  14
ATOM     14  C   UNL A   1      37.680  32.683  30.949  1.00  0.00     0.031 A 
ATOM     15  C   UNL A   1      38.330  31.494  30.306  1.00  0.00     0.074 A 
ATOM     16  C   UNL A   1      38.159  33.183  32.103  1.00  0.00     0.049 A 
ATOM     17  N   UNL A   1      39.314  30.753  30.746  1.00  0.00    -0.248 NA
ATOM     18  C   UNL A   1      37.797  31.073  29.001  1.00  0.00     0.031 C 
ATOM     19  C   UNL A   1      37.604  34.337  32.812  1.00  0.00     0.029 A 
ATOM     20  N   UNL A   1      39.207  32.779  32.887  1.00  0.00    -0.354 N 
ATOM     21  C   UNL A   1      39.500  29.763  29.792  1.00  0.00     0.074 A 
ATOM     22  C   UNL A   1      38.518  29.989  28.752  1.00  0.00     0.031 C 
ATOM     23  C   UNL A   1      38.318  34.552  33.925  1.00  0.00     0.029 A 
ATOM     24  C   UNL A   1      39.338  33.515  34.037  1.00  0.00     0.049 A 
ATOM     25  H   UNL A   1      39.804  32.034  32.648  1.00  0.00     0.167 HD
ATOM     26  C   UNL A   1      40.408  28.758  29.788  1.00  0.00     0.037 A 
ATOM     27  C   UNL A   1      40.161  33.350  35.087  1.00  0.00     0.037 A 
ATOM     28  C   UNL A   1      41.390  28.555  30.823  1.00  0.00     0.049 A 
ATOM     29  C   UNL A   1      41.140  32.217  35.075  1.00  0.00     0.074 A 
ATOM     30  C   UNL A   1      42.384  27.595  30.894  1.00  0.00     0.029 A 
ATOM     31  N   UNL A   1      41.495  29.326  31.972  1.00  0.00    -0.354 N 
ATOM     32  N   UNL A   1      41.323  31.298  34.157  1.00  0.00    -0.248 NA
ATOM     33  C   UNL A   1      42.024  32.091  36.241  1.00  0.00     0.031 C 
ATOM     34  C   UNL A   1      43.065  27.761  32.106  1.00  0.00     0.029 A 
ATOM     35  C   UNL A   1      42.523  28.850  32.770  1.00  0.00     0.049 A 
ATOM     36  H   UNL A   1      40.924  30.098  32.189  1.00  0.00     0.167 HD
ATOM     37  C   UNL A   1      42.353  30.496  34.623  1.00  0.00     0.074 A 
ATOM     38  C   UNL A   1      42.759  31.040  35.904  1.00  0.00     0.031 C 
ATOM     39  C   UNL A   1      42.913  29.409  34.039  1.00  0.00     0.037 A 
BRANCH  26  40
ATOM     40  C   UNL A   1      40.358  27.784  28.649  1.00  0.00     0.057 A 
ATOM     41  C   UNL A   1      41.057  28.000  27.454  1.00  0.00     0.134 A 
ATOM     42  C   UNL A   1      39.616  26.601  28.757  1.00  0.00     0.134 A 
ATOM     43  F   UNL A   1      41.777  29.119  27.281  1.00  0.00    -0.206 F 
ATOM     44  C   UNL A   1      40.997  27.088  26.398  1.00  0.00     0.040 A 
ATOM     45  C   UNL A   1      39.568  25.670  27.717  1.00  0.00     0.040 A 
ATOM     46  F   UNL A   1      38.929  26.328  29.877  1.00  0.00    -0.206 F 
ATOM     47  C   UNL A   1      40.254  25.916  26.530  1.00  0.00     0.006 A 
ENDBRANCH  26  40
BRANCH  27  48
ATOM     48  C   UNL A   1      40.059  34.284  36.232  1.00  0.00     0.057 A 
ATOM     49  C   UNL A   1      40.702  35.525  36.211  1.00  0.00     0.134 A 
ATOM     50  C   UNL A   1      39.254  33.988  37.340  1.00  0.00     0.134 A 
ATOM     51  F   UNL A   1      41.492  35.858  35.180  1.00  0.00    -0.206 F 
ATOM     52  C   UNL A   1      40.546  36.443  37.249  1.00  0.00     0.040 A 
ATOM     53  C   UNL A   1      39.071  34.905  38.375  1.00  0.00     0.040 A 
ATOM     54  F   UNL A   1      38.601  32.818  37.408  1.00  0.00    -0.206 F 
ATOM     55  C   UNL A   1      39.720  36.138  38.331  1.00  0.00     0.006 A 
ENDBRANCH  27  48
BRANCH  39  56
ATOM     56  C   UNL A   1      44.048  28.754  34.765  1.00  0.00     0.057 A 
ATOM     57  C   UNL A   1      43.838  27.697  35.659  1.00  0.00     0.134 A 
ATOM     58  C   UNL A   1      45.369  29.150  34.523  1.00  0.00     0.134 A 
ATOM     59  F   UNL A   1      42.595  27.283  35.943  1.00  0.00    -0.206 F 
ATOM     60  C   UNL A   1      44.906  27.061  36.294  1.00  0.00     0.040 A 
ATOM     61  C   UNL A   1      46.446  28.509  35.135  1.00  0.00     0.040 A 
ATOM     62  F   UNL A   1      45.634  30.154  33.673  1.00  0.00    -0.206 F 
ATOM     63  C   UNL A   1      46.214  27.462  36.026  1.00  0.00     0.006 A 
ENDBRANCH  39  56
ENDBRANCH  13  14
ENDBRANCH   6   8
ENDBRANCH   3   4
ENDBRANCH   2   3
ENDBRANCH   1   2
BRANCH   1  64
ATOM     64  C   UNL A   1      31.209  30.166  24.982  1.00  0.00     0.116 C 
BRANCH  64  65
ATOM     65  N   UNL A   1      32.133  29.525  24.073  1.00  0.00    -0.356 N 
ATOM     66  C   UNL A   1      32.507  28.230  23.929  1.00  0.00     0.227 C 
ATOM     67  H   UNL A   1      32.570  30.143  23.443  1.00  0.00     0.163 HD
ATOM     68  O   UNL A   1      33.218  27.973  22.949  1.00  0.00    -0.274 OA
BRANCH  66  69
ATOM     69  C   UNL A   1      32.226  27.116  24.954  1.00  0.00     0.103 C 
ATOM     70  C   UNL A   1      33.197  26.764  26.029  1.00  0.00    -0.016 C 
ATOM     71  C   UNL A   1      32.040  25.787  24.208  1.00  0.00     0.047 C 
ATOM     72  C   UNL A   1      33.674  25.521  25.898  1.00  0.00    -0.006 C 
ATOM     73  C   UNL A   1      33.099  24.803  24.720  1.00  0.00     0.106 C 
BRANCH  73  74
ATOM     74  N   UNL A   1      34.162  24.553  23.769  1.00  0.00    -0.346 N 
ATOM     75  C   UNL A   1      34.678  23.349  23.350  1.00  0.00     0.251 C 
ATOM     76  H   UNL A   1      34.570  25.354  23.367  1.00  0.00     0.164 HD
ATOM     77  O   UNL A   1      35.635  23.311  22.585  1.00  0.00    -0.269 OA
BRANCH  75  78
ATOM     78  C   UNL A   1      34.114  22.095  23.886  1.00  0.00     0.039 A 
ATOM     79  C   UNL A   1      32.864  21.675  23.429  1.00  0.00     0.014 A 
ATOM     80  C   UNL A   1      34.806  21.335  24.829  1.00  0.00     0.014 A 
ATOM     81  C   UNL A   1      32.357  20.440  23.840  1.00  0.00     0.007 A 
ATOM     82  C   UNL A   1      34.319  20.087  25.211  1.00  0.00     0.007 A 
ATOM     83  C   UNL A   1      33.104  19.616  24.697  1.00  0.00    -0.023 A 
BRANCH  83  84
ATOM     84  C   UNL A   1      32.600  18.253  25.090  1.00  0.00     0.191 C 
BRANCH  84  85
ATOM     85  O   UNL A   1      32.589  18.096  26.500  1.00  0.00    -0.392 OA
ATOM     86  H   UNL A   1      33.458  18.333  26.858  1.00  0.00     0.211 HD
ENDBRANCH  84  85
ENDBRANCH  83  84
ENDBRANCH  75  78
ENDBRANCH  73  74
ENDBRANCH  66  69
ENDBRANCH  64  65
ENDBRANCH   1  64
TORSDOF 15
ENDMDL
MODEL 2
REMARK VINA RESULT:     -12.0      5.043     10.470
REMARK SMILES O=C(NCCCCNC(=O)[C@@H]1C=C[C@H](NC(=O)c2ccc(CO)cc2)C1)c1ccc(-c2c3nc(c(-c4c(F)cccc4F)c4ccc([nH]4)c(-c4c(F)cccc4F)c4nc(c(-c5c(F)cccc5F)c5ccc2[nH]5)C=C4)C=C3)cc1
REMARK SMILES IDX 6 1 5 2 4 3 3 4 1 5 2 6 27 8 28 9 80 10 29 11 79 12 30 13
REMARK SMILES IDX 31 14 32 15 73 16 33 17 78 18 72 19 74 20 34 21 77 22 71 23
REMARK SMILES IDX 70 24 35 26 61 27 44 28 60 29 45 30 48 31 59 32 75 33 46 34
REMARK SMILES IDX 47 35 58 37 76 38 49 39 36 40 37 41 42 42 38 43 39 44 41 45
REMARK SMILES IDX 43 46 40 47 62 48 63 49 68 50 64 51 65 52 67 53 69 54 66 55
REMARK SMILES IDX 50 56 51 57 56 58 52 59 53 60 55 61 57 62 54 63 7 64 8 65
REMARK SMILES IDX 9 66 10 68 11 69 12 70 26 71 13 72 14 73 15 74 16 75 17 77
REMARK SMILES IDX 18 78 19 79 25 80 20 81 24 82 21 83 22 84 23 85
REMARK H PARENT 3 7 74 25 48 36 8 67 15 76 23 86
REMARK Flexibility Score: inf
ROOT
ATOM      1  C   UNL A   1      37.141  21.178  24.722  1.00  0.00     0.023 C 
ENDROOT
BRANCH   1   2
ATOM      2  C   UNL A   1      38.014  19.959  25.008  1.00  0.00     0.023 C 
BRANCH   2   3
ATOM      3  C   UNL A   1      39.232  20.213  25.885  1.00  0.00     0.116 C 
BRANCH   3   4
ATOM      4  N   UNL A   1      40.226  19.151  25.829  1.00  0.00    -0.352 N 
ATOM      5  O   UNL A   1      42.286  18.236  25.961  1.00  0.00    -0.269 OA
ATOM      6  C   UNL A   1      41.570  19.216  26.104  1.00  0.00     0.251 C 
ATOM      7  H   UNL A   1      39.889  18.267  25.558  1.00  0.00     0.163 HD
BRANCH   6   8
ATOM      8  C   UNL A   1      42.143  20.506  26.530  1.00  0.00     0.039 A 
ATOM      9  C   UNL A   1      42.177  20.857  27.882  1.00  0.00     0.014 A 
ATOM     10  C   UNL A   1      42.595  21.389  25.549  1.00  0.00     0.014 A 
ATOM     11  C   UNL A   1      42.541  22.148  28.244  1.00  0.00     0.010 A 
ATOM     12  C   UNL A   1      43.027  22.660  25.921  1.00  0.00     0.010 A 
ATOM     13  C   UNL A   1      42.971  23.057  27.266  1.00  0.00    -0.014 A 
BRANCH  13  14
ATOM     14  C   UNL A   1      43.410  24.414  27.657  1.00  0.00     0.031 A 
ATOM     15  C   UNL A   1      42.410  25.455  28.065  1.00  0.00     0.074 A 
ATOM     16  C   UNL A   1      44.721  24.709  27.605  1.00  0.00     0.049 A 
ATOM     17  N   UNL A   1      42.599  26.722  28.328  1.00  0.00    -0.248 NA
ATOM     18  C   UNL A   1      41.010  25.017  28.184  1.00  0.00     0.031 C 
ATOM     19  C   UNL A   1      45.779  23.772  27.222  1.00  0.00     0.029 A 
ATOM     20  N   UNL A   1      45.386  25.880  27.858  1.00  0.00    -0.354 N 
ATOM     21  C   UNL A   1      41.343  27.241  28.612  1.00  0.00     0.074 A 
ATOM     22  C   UNL A   1      40.396  26.155  28.478  1.00  0.00     0.031 C 
ATOM     23  C   UNL A   1      46.961  24.402  27.270  1.00  0.00     0.029 A 
ATOM     24  C   UNL A   1      46.735  25.799  27.624  1.00  0.00     0.049 A 
ATOM     25  H   UNL A   1      44.938  26.697  28.175  1.00  0.00     0.167 HD
ATOM     26  C   UNL A   1      41.016  28.511  28.951  1.00  0.00     0.037 A 
ATOM     27  C   UNL A   1      47.682  26.752  27.651  1.00  0.00     0.037 A 
ATOM     28  C   UNL A   1      41.972  29.579  29.096  1.00  0.00     0.049 A 
ATOM     29  C   UNL A   1      47.295  28.156  28.005  1.00  0.00     0.074 A 
ATOM     30  C   UNL A   1      41.751  30.890  29.480  1.00  0.00     0.029 A 
ATOM     31  N   UNL A   1      43.334  29.456  28.856  1.00  0.00    -0.354 N 
ATOM     32  N   UNL A   1      46.108  28.632  28.293  1.00  0.00    -0.248 NA
ATOM     33  C   UNL A   1      48.371  29.154  28.033  1.00  0.00     0.031 C 
ATOM     34  C   UNL A   1      42.974  31.571  29.432  1.00  0.00     0.029 A 
ATOM     35  C   UNL A   1      43.963  30.673  29.060  1.00  0.00     0.049 A 
ATOM     36  H   UNL A   1      43.786  28.627  28.580  1.00  0.00     0.167 HD
ATOM     37  C   UNL A   1      46.294  29.981  28.556  1.00  0.00     0.074 A 
ATOM     38  C   UNL A   1      47.711  30.245  28.396  1.00  0.00     0.031 C 
ATOM     39  C   UNL A   1      45.374  30.914  28.901  1.00  0.00     0.037 A 
BRANCH  26  40
ATOM     40  C   UNL A   1      39.563  28.820  29.157  1.00  0.00     0.057 A 
ATOM     41  C   UNL A   1      38.947  28.707  30.411  1.00  0.00     0.134 A 
ATOM     42  C   UNL A   1      38.771  29.257  28.087  1.00  0.00     0.134 A 
ATOM     43  F   UNL A   1      39.646  28.282  31.474  1.00  0.00    -0.206 F 
ATOM     44  C   UNL A   1      37.592  28.991  30.587  1.00  0.00     0.040 A 
ATOM     45  C   UNL A   1      37.420  29.567  28.256  1.00  0.00     0.040 A 
ATOM     46  F   UNL A   1      39.298  29.394  26.861  1.00  0.00    -0.206 F 
ATOM     47  C   UNL A   1      36.825  29.428  29.508  1.00  0.00     0.006 A 
ENDBRANCH  26  40
BRANCH  27  48
ATOM     48  C   UNL A   1      49.077  26.388  27.312  1.00  0.00     0.057 A 
ATOM     49  C   UNL A   1      49.581  26.580  26.023  1.00  0.00     0.134 A 
ATOM     50  C   UNL A   1      49.960  25.910  28.290  1.00  0.00     0.134 A 
ATOM     51  F   UNL A   1      48.779  27.027  25.045  1.00  0.00    -0.206 F 
ATOM     52  C   UNL A   1      50.916  26.315  25.715  1.00  0.00     0.040 A 
ATOM     53  C   UNL A   1      51.302  25.662  28.003  1.00  0.00     0.040 A 
ATOM     54  F   UNL A   1      49.537  25.721  29.549  1.00  0.00    -0.206 F 
ATOM     55  C   UNL A   1      51.783  25.864  26.710  1.00  0.00     0.006 A 
ENDBRANCH  27  48
BRANCH  39  56
ATOM     56  C   UNL A   1      45.875  32.301  29.160  1.00  0.00     0.057 A 
ATOM     57  C   UNL A   1      45.947  33.261  28.145  1.00  0.00     0.134 A 
ATOM     58  C   UNL A   1      46.235  32.695  30.455  1.00  0.00     0.134 A 
ATOM     59  F   UNL A   1      45.629  32.940  26.881  1.00  0.00    -0.206 F 
ATOM     60  C   UNL A   1      46.368  34.566  28.406  1.00  0.00     0.040 A 
ATOM     61  C   UNL A   1      46.639  34.001  30.734  1.00  0.00     0.040 A 
ATOM     62  F   UNL A   1      46.183  31.821  31.472  1.00  0.00    -0.206 F 
ATOM     63  C   UNL A   1      46.708  34.940  29.706  1.00  0.00     0.006 A 
ENDBRANCH  39  56
ENDBRANCH  13  14
ENDBRANCH   6   8
ENDBRANCH   3   4
ENDBRANCH   2   3
ENDBRANCH   1   2
BRANCH   1  64
ATOM     64  C   UNL A   1      36.043  21.457  25.742  1.00  0.00     0.116 C 
BRANCH  64  65
ATOM     65  N   UNL A   1      34.770  20.883  25.367  1.00  0.00    -0.356 N 
ATOM     66  C   UNL A   1      33.870  21.226  24.412  1.00  0.00     0.227 C 
ATOM     67  H   UNL A   1      34.508  20.101  25.904  1.00  0.00     0.163 HD
ATOM     68  O   UNL A   1      32.930  20.439  24.241  1.00  0.00    -0.274 OA
BRANCH  66  69
ATOM     69  C   UNL A   1      33.869  22.561  23.645  1.00  0.00     0.103 C 
ATOM     70  C   UNL A   1      34.469  23.802  24.214  1.00  0.00    -0.016 C 
ATOM     71  C   UNL A   1      32.417  22.975  23.367  1.00  0.00     0.047 C 
ATOM     72  C   UNL A   1      33.558  24.758  24.424  1.00  0.00    -0.006 C 
ATOM     73  C   UNL A   1      32.180  24.342  24.022  1.00  0.00     0.106 C 
BRANCH  73  74
ATOM     74  N   UNL A   1      31.352  24.278  25.208  1.00  0.00    -0.346 N 
ATOM     75  C   UNL A   1      30.445  25.198  25.677  1.00  0.00     0.251 C 
ATOM     76  H   UNL A   1      31.453  23.464  25.753  1.00  0.00     0.164 HD
ATOM     77  O   UNL A   1      29.873  25.023  26.747  1.00  0.00    -0.269 OA
BRANCH  75  78
ATOM     78  C   UNL A   1      30.216  26.441  24.914  1.00  0.00     0.039 A 
ATOM     79  C   UNL A   1      31.053  27.532  25.147  1.00  0.00     0.014 A 
ATOM     80  C   UNL A   1      29.186  26.536  23.977  1.00  0.00     0.014 A 
ATOM     81  C   UNL A   1      30.924  28.682  24.365  1.00  0.00     0.007 A 
ATOM     82  C   UNL A   1      29.080  27.667  23.172  1.00  0.00     0.007 A 
ATOM     83  C   UNL A   1      29.968  28.738  23.339  1.00  0.00    -0.023 A 
BRANCH  83  84
ATOM     84  C   UNL A   1      29.867  29.944  22.443  1.00  0.00     0.191 C 
BRANCH  84  85
ATOM     85  O   UNL A   1      30.938  29.984  21.512  1.00  0.00    -0.392 OA
ATOM     86  H   UNL A   1      30.638  29.632  20.659  1.00  0.00     0.211 HD
ENDBRANCH  84  85
ENDBRANCH  83  84
ENDBRANCH  75  78
ENDBRANCH  73  74
ENDBRANCH  66  69
ENDBRANCH  64  65
ENDBRANCH   1  64
TORSDOF 15
ENDMDL
MODEL 3
REMARK VINA RESULT:     -12.0      4.989     10.483
REMARK SMILES O=C(NCCCCNC(=O)[C@@H]1C=C[C@H](NC(=O)c2ccc(CO)cc2)C1)c1ccc(-c2c3nc(c(-c4c(F)cccc4F)c4ccc([nH]4)c(-c4c(F)cccc4F)c4nc(c(-c5c(F)cccc5F)c5ccc2[nH]5)C=C4)C=C3)cc1
REMARK SMILES IDX 6 1 5 2 4 3 3 4 1 5 2 6 27 8 28 9 80 10 29 11 79 12 30 13
REMARK SMILES IDX 31 14 32 15 73 16 33 17 78 18 72 19 74 20 34 21 77 22 71 23
REMARK SMILES IDX 70 24 35 26 61 27 44 28 60 29 45 30 48 31 59 32 75 33 46 34
REMARK SMILES IDX 47 35 58 37 76 38 49 39 36 40 37 41 42 42 38 43 39 44 41 45
REMARK SMILES IDX 43 46 40 47 62 48 63 49 68 50 64 51 65 52 67 53 69 54 66 55
REMARK SMILES IDX 50 56 51 57 56 58 52 59 53 60 55 61 57 62 54 63 7 64 8 65
REMARK SMILES IDX 9 66 10 68 11 69 12 70 26 71 13 72 14 73 15 74 16 75 17 77
REMARK SMILES IDX 18 78 19 79 25 80 20 81 24 82 21 83 22 84 23 85
REMARK H PARENT 3 7 74 25 48 36 8 67 15 76 23 86
REMARK Flexibility Score: inf
ROOT
ATOM      1  C   UNL A   1      37.054  20.598  24.794  1.00  0.00     0.023 C 
ENDROOT
BRANCH   1   2
ATOM      2  C   UNL A   1      38.175  19.564  24.824  1.00  0.00     0.023 C 
BRANCH   2   3
ATOM      3  C   UNL A   1      39.171  19.705  25.967  1.00  0.00     0.116 C 
BRANCH   3   4
ATOM      4  N   UNL A   1      40.367  18.892  25.807  1.00  0.00    -0.352 N 
ATOM      5  O   UNL A   1      42.583  18.459  25.742  1.00  0.00    -0.269 OA
ATOM      6  C   UNL A   1      41.682  19.256  25.964  1.00  0.00     0.251 C 
ATOM      7  H   UNL A   1      40.213  17.954  25.551  1.00  0.00     0.163 HD
BRANCH   6   8
ATOM      8  C   UNL A   1      41.990  20.642  26.359  1.00  0.00     0.039 A 
ATOM      9  C   UNL A   1      42.160  21.636  25.392  1.00  0.00     0.014 A 
ATOM     10  C   UNL A   1      42.166  20.924  27.715  1.00  0.00     0.014 A 
ATOM     11  C   UNL A   1      42.637  22.884  25.771  1.00  0.00     0.010 A 
ATOM     12  C   UNL A   1      42.578  22.197  28.100  1.00  0.00     0.010 A 
ATOM     13  C   UNL A   1      42.847  23.174  27.128  1.00  0.00    -0.014 A 
BRANCH  13  14
ATOM     14  C   UNL A   1      43.304  24.520  27.537  1.00  0.00     0.031 A 
ATOM     15  C   UNL A   1      42.321  25.558  27.992  1.00  0.00     0.074 A 
ATOM     16  C   UNL A   1      44.616  24.807  27.459  1.00  0.00     0.049 A 
ATOM     17  N   UNL A   1      42.526  26.818  28.276  1.00  0.00    -0.248 NA
ATOM     18  C   UNL A   1      40.922  25.127  28.135  1.00  0.00     0.031 C 
ATOM     19  C   UNL A   1      45.657  23.871  27.031  1.00  0.00     0.029 A 
ATOM     20  N   UNL A   1      45.295  25.968  27.721  1.00  0.00    -0.354 N 
ATOM     21  C   UNL A   1      41.282  27.339  28.602  1.00  0.00     0.074 A 
ATOM     22  C   UNL A   1      40.324  26.262  28.468  1.00  0.00     0.031 C 
ATOM     23  C   UNL A   1      46.844  24.493  27.064  1.00  0.00     0.029 A 
ATOM     24  C   UNL A   1      46.637  25.883  27.453  1.00  0.00     0.049 A 
ATOM     25  H   UNL A   1      44.861  26.781  28.067  1.00  0.00     0.167 HD
ATOM     26  C   UNL A   1      40.971  28.604  28.977  1.00  0.00     0.037 A 
ATOM     27  C   UNL A   1      47.592  26.829  27.477  1.00  0.00     0.037 A 
ATOM     28  C   UNL A   1      41.939  29.662  29.121  1.00  0.00     0.049 A 
ATOM     29  C   UNL A   1      47.223  28.227  27.870  1.00  0.00     0.074 A 
ATOM     30  C   UNL A   1      41.736  30.966  29.537  1.00  0.00     0.029 A 
ATOM     31  N   UNL A   1      43.293  29.535  28.845  1.00  0.00    -0.354 N 
ATOM     32  N   UNL A   1      46.047  28.705  28.197  1.00  0.00    -0.248 NA
ATOM     33  C   UNL A   1      48.306  29.217  27.893  1.00  0.00     0.031 C 
ATOM     34  C   UNL A   1      42.962  31.639  29.475  1.00  0.00     0.029 A 
ATOM     35  C   UNL A   1      43.935  30.744  29.060  1.00  0.00     0.049 A 
ATOM     36  H   UNL A   1      43.733  28.709  28.541  1.00  0.00     0.167 HD
ATOM     37  C   UNL A   1      46.249  30.046  28.484  1.00  0.00     0.074 A 
ATOM     38  C   UNL A   1      47.663  30.305  28.295  1.00  0.00     0.031 C 
ATOM     39  C   UNL A   1      45.344  30.978  28.871  1.00  0.00     0.037 A 
BRANCH  26  40
ATOM     40  C   UNL A   1      39.526  28.918  29.224  1.00  0.00     0.057 A 
ATOM     41  C   UNL A   1      38.672  29.349  28.200  1.00  0.00     0.134 A 
ATOM     42  C   UNL A   1      38.974  28.765  30.502  1.00  0.00     0.134 A 
ATOM     43  F   UNL A   1      39.141  29.528  26.955  1.00  0.00    -0.206 F 
ATOM     44  C   UNL A   1      37.329  29.645  28.444  1.00  0.00     0.040 A 
ATOM     45  C   UNL A   1      37.627  29.034  30.754  1.00  0.00     0.040 A 
ATOM     46  F   UNL A   1      39.733  28.349  31.527  1.00  0.00    -0.206 F 
ATOM     47  C   UNL A   1      36.802  29.483  29.725  1.00  0.00     0.006 A 
ENDBRANCH  26  40
BRANCH  27  48
ATOM     48  C   UNL A   1      48.975  26.463  27.096  1.00  0.00     0.057 A 
ATOM     49  C   UNL A   1      49.891  26.012  28.051  1.00  0.00     0.134 A 
ATOM     50  C   UNL A   1      49.388  26.483  25.758  1.00  0.00     0.134 A 
ATOM     51  F   UNL A   1      49.554  25.980  29.348  1.00  0.00    -0.206 F 
ATOM     52  C   UNL A   1      51.171  25.588  27.688  1.00  0.00     0.040 A 
ATOM     53  C   UNL A   1      50.656  26.041  25.378  1.00  0.00     0.040 A 
ATOM     54  F   UNL A   1      48.547  26.891  24.796  1.00  0.00    -0.206 F 
ATOM     55  C   UNL A   1      51.552  25.593  26.347  1.00  0.00     0.006 A 
ENDBRANCH  27  48
BRANCH  39  56
ATOM     56  C   UNL A   1      45.861  32.356  29.148  1.00  0.00     0.057 A 
ATOM     57  C   UNL A   1      46.308  32.734  30.419  1.00  0.00     0.134 A 
ATOM     58  C   UNL A   1      45.963  33.297  28.115  1.00  0.00     0.134 A 
ATOM     59  F   UNL A   1      46.222  31.882  31.452  1.00  0.00    -0.206 F 
ATOM     60  C   UNL A   1      46.834  34.005  30.656  1.00  0.00     0.040 A 
ATOM     61  C   UNL A   1      46.505  34.563  28.334  1.00  0.00     0.040 A 
ATOM     62  F   UNL A   1      45.555  32.992  26.873  1.00  0.00    -0.206 F 
ATOM     63  C   UNL A   1      46.940  34.920  29.609  1.00  0.00     0.006 A 
ENDBRANCH  39  56
ENDBRANCH  13  14
ENDBRANCH   6   8
ENDBRANCH   3   4
ENDBRANCH   2   3
ENDBRANCH   1   2
BRANCH   1  64
ATOM     64  C   UNL A   1      35.637  20.037  24.821  1.00  0.00     0.116 C 
BRANCH  64  65
ATOM     65  N   UNL A   1      34.795  20.683  25.802  1.00  0.00    -0.356 N 
ATOM     66  C   UNL A   1      33.887  21.685  25.694  1.00  0.00     0.227 C 
ATOM     67  H   UNL A   1      34.901  20.333  26.716  1.00  0.00     0.163 HD
ATOM     68  O   UNL A   1      33.212  21.921  26.705  1.00  0.00    -0.274 OA
BRANCH  66  69
ATOM     69  C   UNL A   1      33.742  22.611  24.472  1.00  0.00     0.103 C 
ATOM     70  C   UNL A   1      34.645  23.776  24.250  1.00  0.00    -0.016 C 
ATOM     71  C   UNL A   1      32.348  23.253  24.497  1.00  0.00     0.047 C 
ATOM     72  C   UNL A   1      33.992  24.943  24.298  1.00  0.00    -0.006 C 
ATOM     73  C   UNL A   1      32.528  24.776  24.546  1.00  0.00     0.106 C 
BRANCH  73  74
ATOM     74  N   UNL A   1      32.209  25.353  25.835  1.00  0.00    -0.346 N 
ATOM     75  C   UNL A   1      31.515  26.506  26.115  1.00  0.00     0.251 C 
ATOM     76  H   UNL A   1      32.534  24.851  26.618  1.00  0.00     0.164 HD
ATOM     77  O   UNL A   1      31.393  26.896  27.271  1.00  0.00    -0.269 OA
BRANCH  75  78
ATOM     78  C   UNL A   1      30.974  27.313  25.005  1.00  0.00     0.039 A 
ATOM     79  C   UNL A   1      29.863  26.834  24.310  1.00  0.00     0.014 A 
ATOM     80  C   UNL A   1      31.553  28.531  24.648  1.00  0.00     0.014 A 
ATOM     81  C   UNL A   1      29.269  27.628  23.326  1.00  0.00     0.007 A 
ATOM     82  C   UNL A   1      30.939  29.339  23.693  1.00  0.00     0.007 A 
ATOM     83  C   UNL A   1      29.775  28.906  23.044  1.00  0.00    -0.023 A 
BRANCH  83  84
ATOM     84  C   UNL A   1      29.100  29.799  22.037  1.00  0.00     0.191 C 
BRANCH  84  85
ATOM     85  O   UNL A   1      30.017  30.242  21.048  1.00  0.00    -0.392 OA
ATOM     86  H   UNL A   1      30.116  31.206  21.109  1.00  0.00     0.211 HD
ENDBRANCH  84  85
ENDBRANCH  83  84
ENDBRANCH  75  78
ENDBRANCH  73  74
ENDBRANCH  66  69
ENDBRANCH  64  65
ENDBRANCH   1  64
TORSDOF 15
ENDMDL
