MODEL 1
REMARK VINA RESULT:     -12.3      0.000      0.000
REMARK SMILES C[C@H](CN(Cc1ccccc1)C(=O)c1cc2ccccc2oc1=O)C(=O)NCCCCNC(=O)c1ccc(-c2c3nc(c(-c4c(F)cccc4F)c4ccc([nH]4)c(-c4c(F)cccc4F)c4nc(c(-c5c(F)cccc5F)c5ccc2[nH]5)C=C4)C=C3)cc1
REMARK SMILES IDX 28 1 27 2 25 3 26 4 2 6 1 7 3 8 4 9 5 10 6 11 7 12 11 13
REMARK SMILES IDX 8 14 10 15 9 16 12 17 13 18 14 19 15 20 23 21 16 22 22 23
REMARK SMILES IDX 24 24 17 25 21 26 18 27 20 28 19 29 29 30 30 31 31 32 32 33
REMARK SMILES IDX 33 34 34 36 35 37 36 38 88 39 37 40 87 41 38 42 39 43 40 44
REMARK SMILES IDX 81 45 41 46 86 47 80 48 82 49 42 50 85 51 79 52 78 53 43 55
REMARK SMILES IDX 69 56 52 57 68 58 53 59 56 60 67 61 83 62 54 63 55 64 66 66
REMARK SMILES IDX 84 67 57 68 44 69 45 70 50 71 46 72 47 73 49 74 51 75 48 76
REMARK SMILES IDX 70 77 71 78 76 79 72 80 73 81 75 82 77 83 74 84 58 85 59 86
REMARK SMILES IDX 64 87 60 88 61 89 63 90 65 91 62 92
REMARK H PARENT 27 5 32 35 82 54 56 65
REMARK Flexibility Score: inf
ROOT
ATOM      1  C   UNL A   1      37.785  23.934  26.033  1.00  0.00     0.116 C 
ENDROOT
BRANCH   1   2
ATOM      2  N   UNL A   1      37.695  23.522  24.641  1.00  0.00    -0.356 N 
ATOM      3  C   UNL A   1      36.795  22.631  24.110  1.00  0.00     0.224 C 
ATOM      4  O   UNL A   1      36.365  22.895  22.980  1.00  0.00    -0.275 OA
ATOM      5  H   UNL A   1      38.344  23.922  24.018  1.00  0.00     0.163 HD
BRANCH   3   6
ATOM      6  C   UNL A   1      36.373  21.299  24.765  1.00  0.00     0.095 C 
ATOM      7  C   UNL A   1      37.437  20.207  24.746  1.00  0.00     0.020 C 
BRANCH   6   8
ATOM      8  C   UNL A   1      34.921  20.824  24.684  1.00  0.00     0.133 C 
BRANCH   8   9
ATOM      9  N   UNL A   1      33.743  21.710  24.879  1.00  0.00    -0.333 N 
BRANCH   9  10
ATOM     10  C   UNL A   1      32.703  21.510  23.831  1.00  0.00     0.155 C 
BRANCH  10  11
ATOM     11  C   UNL A   1      32.231  22.786  23.152  1.00  0.00    -0.029 A 
ATOM     12  C   UNL A   1      33.158  23.515  22.386  1.00  0.00     0.005 A 
ATOM     13  C   UNL A   1      30.971  23.350  23.396  1.00  0.00     0.005 A 
ATOM     14  C   UNL A   1      32.890  24.824  21.993  1.00  0.00     0.000 A 
ATOM     15  C   UNL A   1      30.694  24.656  22.977  1.00  0.00     0.000 A 
ATOM     16  C   UNL A   1      31.664  25.402  22.306  1.00  0.00     0.000 A 
ENDBRANCH  10  11
ENDBRANCH   9  10
BRANCH   9  17
ATOM     17  C   UNL A   1      33.238  22.107  26.130  1.00  0.00     0.261 C 
ATOM     18  O   UNL A   1      33.307  21.371  27.120  1.00  0.00    -0.269 OA
BRANCH  17  19
ATOM     19  C   UNL A   1      32.758  23.491  26.389  1.00  0.00     0.126 A 
ATOM     20  C   UNL A   1      33.683  24.448  26.200  1.00  0.00     0.033 A 
ATOM     21  C   UNL A   1      31.479  23.895  26.967  1.00  0.00     0.349 A 
ATOM     22  C   UNL A   1      33.273  25.807  25.899  1.00  0.00     0.018 A 
ATOM     23  O   UNL A   1      31.097  25.229  26.759  1.00  0.00    -0.422 OA
ATOM     24  O   UNL A   1      30.774  23.112  27.608  1.00  0.00    -0.246 OA
ATOM     25  C   UNL A   1      34.088  26.646  25.125  1.00  0.00     0.012 A 
ATOM     26  C   UNL A   1      31.943  26.126  26.074  1.00  0.00     0.138 A 
ATOM     27  C   UNL A   1      33.568  27.771  24.499  1.00  0.00     0.001 A 
ATOM     28  C   UNL A   1      31.410  27.268  25.484  1.00  0.00     0.048 A 
ATOM     29  C   UNL A   1      32.224  28.077  24.677  1.00  0.00     0.004 A 
ENDBRANCH  17  19
ENDBRANCH   9  17
ENDBRANCH   8   9
ENDBRANCH   6   8
ENDBRANCH   3   6
ENDBRANCH   1   2
BRANCH   1  30
ATOM     30  C   UNL A   1      39.062  23.648  26.835  1.00  0.00     0.023 C 
BRANCH  30  31
ATOM     31  C   UNL A   1      39.822  22.296  26.548  1.00  0.00     0.023 C 
BRANCH  31  32
ATOM     32  C   UNL A   1      41.358  22.065  26.742  1.00  0.00     0.116 C 
BRANCH  32  33
ATOM     33  N   UNL A   1      42.226  22.569  25.664  1.00  0.00    -0.352 N 
ATOM     34  C   UNL A   1      42.837  23.802  25.531  1.00  0.00     0.251 C 
ATOM     35  H   UNL A   1      42.395  21.934  24.931  1.00  0.00     0.163 HD
ATOM     36  O   UNL A   1      43.421  24.124  24.492  1.00  0.00    -0.269 OA
BRANCH  34  37
ATOM     37  C   UNL A   1      42.803  24.762  26.647  1.00  0.00     0.039 A 
ATOM     38  C   UNL A   1      42.857  26.132  26.397  1.00  0.00     0.014 A 
ATOM     39  C   UNL A   1      42.719  24.294  27.957  1.00  0.00     0.014 A 
ATOM     40  C   UNL A   1      42.678  27.031  27.453  1.00  0.00     0.010 A 
ATOM     41  C   UNL A   1      42.470  25.187  29.001  1.00  0.00     0.010 A 
ATOM     42  C   UNL A   1      42.406  26.567  28.754  1.00  0.00    -0.014 A 
BRANCH  42  43
ATOM     43  C   UNL A   1      41.970  27.518  29.818  1.00  0.00     0.031 A 
ATOM     44  C   UNL A   1      40.768  28.403  29.644  1.00  0.00     0.074 A 
ATOM     45  C   UNL A   1      42.701  27.608  30.951  1.00  0.00     0.049 A 
ATOM     46  N   UNL A   1      40.238  29.249  30.493  1.00  0.00    -0.248 NA
ATOM     47  C   UNL A   1      40.082  28.347  28.346  1.00  0.00     0.031 C 
ATOM     48  C   UNL A   1      43.928  26.856  31.225  1.00  0.00     0.029 A 
ATOM     49  N   UNL A   1      42.520  28.362  32.085  1.00  0.00    -0.354 N 
ATOM     50  C   UNL A   1      39.156  29.822  29.836  1.00  0.00     0.074 A 
ATOM     51  C   UNL A   1      39.142  29.271  28.497  1.00  0.00     0.031 C 
ATOM     52  C   UNL A   1      44.360  27.149  32.461  1.00  0.00     0.029 A 
ATOM     53  C   UNL A   1      43.465  28.136  33.058  1.00  0.00     0.049 A 
ATOM     54  H   UNL A   1      41.781  29.004  32.191  1.00  0.00     0.167 HD
ATOM     55  C   UNL A   1      38.244  30.707  30.309  1.00  0.00     0.037 A 
ATOM     56  C   UNL A   1      43.598  28.658  34.293  1.00  0.00     0.037 A 
ATOM     57  C   UNL A   1      38.251  31.250  31.644  1.00  0.00     0.049 A 
ATOM     58  C   UNL A   1      42.578  29.648  34.789  1.00  0.00     0.074 A 
ATOM     59  C   UNL A   1      37.335  32.106  32.231  1.00  0.00     0.029 A 
ATOM     60  N   UNL A   1      39.230  31.003  32.595  1.00  0.00    -0.354 N 
ATOM     61  N   UNL A   1      41.508  30.104  34.187  1.00  0.00    -0.248 NA
ATOM     62  C   UNL A   1      42.783  30.189  36.140  1.00  0.00     0.031 C 
ATOM     63  C   UNL A   1      37.788  32.421  33.517  1.00  0.00     0.029 A 
ATOM     64  C   UNL A   1      38.955  31.713  33.753  1.00  0.00     0.049 A 
ATOM     65  H   UNL A   1      40.005  30.410  32.467  1.00  0.00     0.167 HD
ATOM     66  C   UNL A   1      40.895  30.958  35.096  1.00  0.00     0.074 A 
ATOM     67  C   UNL A   1      41.704  30.944  36.295  1.00  0.00     0.031 C 
ATOM     68  C   UNL A   1      39.761  31.688  34.948  1.00  0.00     0.037 A 
BRANCH  55  69
ATOM     69  C   UNL A   1      37.152  31.144  29.375  1.00  0.00     0.057 A 
ATOM     70  C   UNL A   1      36.057  30.319  29.079  1.00  0.00     0.134 A 
ATOM     71  C   UNL A   1      37.170  32.419  28.796  1.00  0.00     0.134 A 
ATOM     72  F   UNL A   1      35.979  29.083  29.596  1.00  0.00    -0.206 F 
ATOM     73  C   UNL A   1      35.039  30.735  28.219  1.00  0.00     0.040 A 
ATOM     74  C   UNL A   1      36.143  32.858  27.958  1.00  0.00     0.040 A 
ATOM     75  F   UNL A   1      38.179  33.268  29.046  1.00  0.00    -0.206 F 
ATOM     76  C   UNL A   1      35.077  32.010  27.660  1.00  0.00     0.006 A 
ENDBRANCH  55  69
BRANCH  56  77
ATOM     77  C   UNL A   1      44.723  28.236  35.170  1.00  0.00     0.057 A 
ATOM     78  C   UNL A   1      44.553  27.236  36.136  1.00  0.00     0.134 A 
ATOM     79  C   UNL A   1      45.983  28.840  35.087  1.00  0.00     0.134 A 
ATOM     80  F   UNL A   1      43.365  26.632  36.280  1.00  0.00    -0.206 F 
ATOM     81  C   UNL A   1      45.584  26.872  37.004  1.00  0.00     0.040 A 
ATOM     82  C   UNL A   1      47.033  28.466  35.928  1.00  0.00     0.040 A 
ATOM     83  F   UNL A   1      46.216  29.799  34.178  1.00  0.00    -0.206 F 
ATOM     84  C   UNL A   1      46.831  27.485  36.899  1.00  0.00     0.006 A 
ENDBRANCH  56  77
BRANCH  68  85
ATOM     85  C   UNL A   1      39.306  32.504  36.124  1.00  0.00     0.057 A 
ATOM     86  C   UNL A   1      39.726  33.826  36.319  1.00  0.00     0.134 A 
ATOM     87  C   UNL A   1      38.400  31.971  37.051  1.00  0.00     0.134 A 
ATOM     88  F   UNL A   1      40.602  34.393  35.476  1.00  0.00    -0.206 F 
ATOM     89  C   UNL A   1      39.279  34.580  37.406  1.00  0.00     0.040 A 
ATOM     90  C   UNL A   1      37.924  32.726  38.125  1.00  0.00     0.040 A 
ATOM     91  F   UNL A   1      37.949  30.714  36.920  1.00  0.00    -0.206 F 
ATOM     92  C   UNL A   1      38.370  34.033  38.308  1.00  0.00     0.006 A 
ENDBRANCH  68  85
ENDBRANCH  42  43
ENDBRANCH  34  37
ENDBRANCH  32  33
ENDBRANCH  31  32
ENDBRANCH  30  31
ENDBRANCH   1  30
TORSDOF 17
ENDMDL
MODEL 2
REMARK VINA RESULT:     -12.3      3.661      7.234
REMARK SMILES C[C@H](CN(Cc1ccccc1)C(=O)c1cc2ccccc2oc1=O)C(=O)NCCCCNC(=O)c1ccc(-c2c3nc(c(-c4c(F)cccc4F)c4ccc([nH]4)c(-c4c(F)cccc4F)c4nc(c(-c5c(F)cccc5F)c5ccc2[nH]5)C=C4)C=C3)cc1
REMARK SMILES IDX 28 1 27 2 25 3 26 4 2 6 1 7 3 8 4 9 5 10 6 11 7 12 11 13
REMARK SMILES IDX 8 14 10 15 9 16 12 17 13 18 14 19 15 20 23 21 16 22 22 23
REMARK SMILES IDX 24 24 17 25 21 26 18 27 20 28 19 29 29 30 30 31 31 32 32 33
REMARK SMILES IDX 33 34 34 36 35 37 36 38 88 39 37 40 87 41 38 42 39 43 40 44
REMARK SMILES IDX 81 45 41 46 86 47 80 48 82 49 42 50 85 51 79 52 78 53 43 55
REMARK SMILES IDX 69 56 52 57 68 58 53 59 56 60 67 61 83 62 54 63 55 64 66 66
REMARK SMILES IDX 84 67 57 68 44 69 45 70 50 71 46 72 47 73 49 74 51 75 48 76
REMARK SMILES IDX 70 77 71 78 76 79 72 80 73 81 75 82 77 83 74 84 58 85 59 86
REMARK SMILES IDX 64 87 60 88 61 89 63 90 65 91 62 92
REMARK H PARENT 27 5 32 35 82 54 56 65
REMARK Flexibility Score: inf
ROOT
ATOM      1  C   UNL A   1      35.646  22.896  23.908  1.00  0.00     0.116 C 
ENDROOT
BRANCH   1   2
ATOM      2  N   UNL A   1      35.007  22.875  25.214  1.00  0.00    -0.356 N 
ATOM      3  C   UNL A   1      34.330  21.820  25.774  1.00  0.00     0.224 C 
ATOM      4  O   UNL A   1      34.476  21.662  26.994  1.00  0.00    -0.275 OA
ATOM      5  H   UNL A   1      35.065  23.699  25.750  1.00  0.00     0.163 HD
BRANCH   3   6
ATOM      6  C   UNL A   1      33.342  20.902  25.026  1.00  0.00     0.095 C 
ATOM      7  C   UNL A   1      33.922  19.568  24.568  1.00  0.00     0.020 C 
BRANCH   6   8
ATOM      8  C   UNL A   1      32.254  21.502  24.132  1.00  0.00     0.133 C 
BRANCH   8   9
ATOM      9  N   UNL A   1      31.629  22.832  24.362  1.00  0.00    -0.333 N 
BRANCH   9  10
ATOM     10  C   UNL A   1      31.045  23.407  23.118  1.00  0.00     0.155 C 
BRANCH  10  11
ATOM     11  C   UNL A   1      31.617  24.757  22.713  1.00  0.00    -0.029 A 
ATOM     12  C   UNL A   1      32.984  24.832  22.395  1.00  0.00     0.005 A 
ATOM     13  C   UNL A   1      30.883  25.947  22.809  1.00  0.00     0.005 A 
ATOM     14  C   UNL A   1      33.633  26.063  22.313  1.00  0.00     0.000 A 
ATOM     15  C   UNL A   1      31.531  27.182  22.699  1.00  0.00     0.000 A 
ATOM     16  C   UNL A   1      32.909  27.238  22.484  1.00  0.00     0.000 A 
ENDBRANCH  10  11
ENDBRANCH   9  10
BRANCH   9  17
ATOM     17  C   UNL A   1      30.967  23.211  25.543  1.00  0.00     0.261 C 
ATOM     18  O   UNL A   1      30.376  22.388  26.249  1.00  0.00    -0.269 OA
BRANCH  17  19
ATOM     19  C   UNL A   1      31.084  24.581  26.114  1.00  0.00     0.126 A 
ATOM     20  C   UNL A   1      32.347  24.987  26.337  1.00  0.00     0.033 A 
ATOM     21  C   UNL A   1      30.006  25.440  26.596  1.00  0.00     0.349 A 
ATOM     22  C   UNL A   1      32.658  26.403  26.378  1.00  0.00     0.018 A 
ATOM     23  O   UNL A   1      30.307  26.804  26.723  1.00  0.00    -0.422 OA
ATOM     24  O   UNL A   1      28.893  24.992  26.882  1.00  0.00    -0.246 OA
ATOM     25  C   UNL A   1      33.926  26.868  25.997  1.00  0.00     0.012 A 
ATOM     26  C   UNL A   1      31.603  27.288  26.447  1.00  0.00     0.138 A 
ATOM     27  C   UNL A   1      34.125  28.198  25.648  1.00  0.00     0.001 A 
ATOM     28  C   UNL A   1      31.790  28.631  26.136  1.00  0.00     0.048 A 
ATOM     29  C   UNL A   1      33.051  29.078  25.714  1.00  0.00     0.004 A 
ENDBRANCH  17  19
ENDBRANCH   9  17
ENDBRANCH   8   9
ENDBRANCH   6   8
ENDBRANCH   3   6
ENDBRANCH   1   2
BRANCH   1  30
ATOM     30  C   UNL A   1      37.030  22.259  23.722  1.00  0.00     0.023 C 
BRANCH  30  31
ATOM     31  C   UNL A   1      37.411  21.047  24.657  1.00  0.00     0.023 C 
BRANCH  31  32
ATOM     32  C   UNL A   1      38.559  21.055  25.722  1.00  0.00     0.116 C 
BRANCH  32  33
ATOM     33  N   UNL A   1      39.493  19.918  25.668  1.00  0.00    -0.352 N 
ATOM     34  C   UNL A   1      40.847  19.878  25.948  1.00  0.00     0.251 C 
ATOM     35  H   UNL A   1      39.096  19.061  25.392  1.00  0.00     0.163 HD
ATOM     36  O   UNL A   1      41.525  18.874  25.716  1.00  0.00    -0.269 OA
BRANCH  34  37
ATOM     37  C   UNL A   1      41.509  21.054  26.540  1.00  0.00     0.039 A 
ATOM     38  C   UNL A   1      42.133  21.994  25.723  1.00  0.00     0.014 A 
ATOM     39  C   UNL A   1      41.511  21.218  27.924  1.00  0.00     0.014 A 
ATOM     40  C   UNL A   1      42.629  23.174  26.288  1.00  0.00     0.010 A 
ATOM     41  C   UNL A   1      41.941  22.425  28.481  1.00  0.00     0.010 A 
ATOM     42  C   UNL A   1      42.469  23.436  27.662  1.00  0.00    -0.014 A 
BRANCH  42  43
ATOM     43  C   UNL A   1      42.770  24.789  28.212  1.00  0.00     0.031 A 
ATOM     44  C   UNL A   1      44.163  25.186  28.615  1.00  0.00     0.074 A 
ATOM     45  C   UNL A   1      41.755  25.664  28.384  1.00  0.00     0.049 A 
ATOM     46  N   UNL A   1      44.592  26.339  29.069  1.00  0.00    -0.248 NA
ATOM     47  C   UNL A   1      45.205  24.155  28.518  1.00  0.00     0.031 C 
ATOM     48  C   UNL A   1      40.346  25.388  28.095  1.00  0.00     0.029 A 
ATOM     49  N   UNL A   1      41.749  26.962  28.834  1.00  0.00    -0.354 N 
ATOM     50  C   UNL A   1      45.951  26.173  29.305  1.00  0.00     0.074 A 
ATOM     51  C   UNL A   1      46.262  24.792  29.003  1.00  0.00     0.031 C 
ATOM     52  C   UNL A   1      39.622  26.494  28.328  1.00  0.00     0.029 A 
ATOM     53  C   UNL A   1      40.505  27.548  28.818  1.00  0.00     0.049 A 
ATOM     54  H   UNL A   1      42.560  27.430  29.138  1.00  0.00     0.167 HD
ATOM     55  C   UNL A   1      46.862  27.092  29.713  1.00  0.00     0.037 A 
ATOM     56  C   UNL A   1      40.115  28.794  29.153  1.00  0.00     0.037 A 
ATOM     57  C   UNL A   1      46.556  28.469  30.007  1.00  0.00     0.049 A 
ATOM     58  C   UNL A   1      41.145  29.790  29.615  1.00  0.00     0.074 A 
ATOM     59  C   UNL A   1      47.422  29.486  30.370  1.00  0.00     0.029 A 
ATOM     60  N   UNL A   1      45.283  29.020  29.986  1.00  0.00    -0.354 N 
ATOM     61  N   UNL A   1      42.440  29.642  29.740  1.00  0.00    -0.248 NA
ATOM     62  C   UNL A   1      40.657  31.128  29.976  1.00  0.00     0.031 C 
ATOM     63  C   UNL A   1      46.669  30.637  30.622  1.00  0.00     0.029 A 
ATOM     64  C   UNL A   1      45.339  30.354  30.359  1.00  0.00     0.049 A 
ATOM     65  H   UNL A   1      44.462  28.536  29.743  1.00  0.00     0.167 HD
ATOM     66  C   UNL A   1      42.925  30.874  30.160  1.00  0.00     0.074 A 
ATOM     67  C   UNL A   1      41.787  31.762  30.254  1.00  0.00     0.031 C 
ATOM     68  C   UNL A   1      44.201  31.236  30.442  1.00  0.00     0.037 A 
BRANCH  55  69
ATOM     69  C   UNL A   1      48.286  26.637  29.864  1.00  0.00     0.057 A 
ATOM     70  C   UNL A   1      49.225  26.793  28.835  1.00  0.00     0.134 A 
ATOM     71  C   UNL A   1      48.737  26.076  31.065  1.00  0.00     0.134 A 
ATOM     72  F   UNL A   1      48.859  27.320  27.656  1.00  0.00    -0.206 F 
ATOM     73  C   UNL A   1      50.550  26.379  28.984  1.00  0.00     0.040 A 
ATOM     74  C   UNL A   1      50.066  25.685  31.238  1.00  0.00     0.040 A 
ATOM     75  F   UNL A   1      47.896  25.909  32.098  1.00  0.00    -0.206 F 
ATOM     76  C   UNL A   1      50.975  25.828  30.191  1.00  0.00     0.006 A 
ENDBRANCH  55  69
BRANCH  56  77
ATOM     77  C   UNL A   1      38.686  29.190  29.037  1.00  0.00     0.057 A 
ATOM     78  C   UNL A   1      37.831  29.152  30.145  1.00  0.00     0.134 A 
ATOM     79  C   UNL A   1      38.133  29.586  27.813  1.00  0.00     0.134 A 
ATOM     80  F   UNL A   1      38.293  28.762  31.341  1.00  0.00    -0.206 F 
ATOM     81  C   UNL A   1      36.474  29.465  30.036  1.00  0.00     0.040 A 
ATOM     82  C   UNL A   1      36.784  29.931  27.695  1.00  0.00     0.040 A 
ATOM     83  F   UNL A   1      38.898  29.653  26.713  1.00  0.00    -0.206 F 
ATOM     84  C   UNL A   1      35.948  29.860  28.808  1.00  0.00     0.006 A 
ENDBRANCH  56  77
BRANCH  68  85
ATOM     85  C   UNL A   1      44.443  32.663  30.844  1.00  0.00     0.057 A 
ATOM     86  C   UNL A   1      44.451  33.068  32.184  1.00  0.00     0.134 A 
ATOM     87  C   UNL A   1      44.713  33.638  29.874  1.00  0.00     0.134 A 
ATOM     88  F   UNL A   1      44.188  32.188  33.162  1.00  0.00    -0.206 F 
ATOM     89  C   UNL A   1      44.696  34.394  32.545  1.00  0.00     0.040 A 
ATOM     90  C   UNL A   1      44.989  34.961  30.224  1.00  0.00     0.040 A 
ATOM     91  F   UNL A   1      44.730  33.319  28.571  1.00  0.00    -0.206 F 
ATOM     92  C   UNL A   1      44.974  35.343  31.564  1.00  0.00     0.006 A 
ENDBRANCH  68  85
ENDBRANCH  42  43
ENDBRANCH  34  37
ENDBRANCH  32  33
ENDBRANCH  31  32
ENDBRANCH  30  31
ENDBRANCH   1  30
TORSDOF 17
ENDMDL
MODEL 3
REMARK VINA RESULT:     -12.2      3.634      6.892
REMARK SMILES C[C@H](CN(Cc1ccccc1)C(=O)c1cc2ccccc2oc1=O)C(=O)NCCCCNC(=O)c1ccc(-c2c3nc(c(-c4c(F)cccc4F)c4ccc([nH]4)c(-c4c(F)cccc4F)c4nc(c(-c5c(F)cccc5F)c5ccc2[nH]5)C=C4)C=C3)cc1
REMARK SMILES IDX 28 1 27 2 25 3 26 4 2 6 1 7 3 8 4 9 5 10 6 11 7 12 11 13
REMARK SMILES IDX 8 14 10 15 9 16 12 17 13 18 14 19 15 20 23 21 16 22 22 23
REMARK SMILES IDX 24 24 17 25 21 26 18 27 20 28 19 29 29 30 30 31 31 32 32 33
REMARK SMILES IDX 33 34 34 36 35 37 36 38 88 39 37 40 87 41 38 42 39 43 40 44
REMARK SMILES IDX 81 45 41 46 86 47 80 48 82 49 42 50 85 51 79 52 78 53 43 55
REMARK SMILES IDX 69 56 52 57 68 58 53 59 56 60 67 61 83 62 54 63 55 64 66 66
REMARK SMILES IDX 84 67 57 68 44 69 45 70 50 71 46 72 47 73 49 74 51 75 48 76
REMARK SMILES IDX 70 77 71 78 76 79 72 80 73 81 75 82 77 83 74 84 58 85 59 86
REMARK SMILES IDX 64 87 60 88 61 89 63 90 65 91 62 92
REMARK H PARENT 27 5 32 35 82 54 56 65
REMARK Flexibility Score: inf
ROOT
ATOM      1  C   UNL A   1      37.781  23.831  26.030  1.00  0.00     0.116 C 
ENDROOT
BRANCH   1   2
ATOM      2  N   UNL A   1      37.688  23.441  24.632  1.00  0.00    -0.356 N 
ATOM      3  C   UNL A   1      36.779  22.569  24.086  1.00  0.00     0.224 C 
ATOM      4  O   UNL A   1      36.354  22.856  22.959  1.00  0.00    -0.275 OA
ATOM      5  H   UNL A   1      38.343  23.842  24.015  1.00  0.00     0.163 HD
BRANCH   3   6
ATOM      6  C   UNL A   1      36.339  21.234  24.721  1.00  0.00     0.095 C 
ATOM      7  C   UNL A   1      37.382  20.123  24.671  1.00  0.00     0.020 C 
BRANCH   6   8
ATOM      8  C   UNL A   1      34.877  20.786  24.645  1.00  0.00     0.133 C 
BRANCH   8   9
ATOM      9  N   UNL A   1      33.717  21.690  24.870  1.00  0.00    -0.333 N 
BRANCH   9  10
ATOM     10  C   UNL A   1      32.653  21.512  23.843  1.00  0.00     0.155 C 
BRANCH  10  11
ATOM     11  C   UNL A   1      32.200  22.797  23.168  1.00  0.00    -0.029 A 
ATOM     12  C   UNL A   1      33.137  23.511  22.401  1.00  0.00     0.005 A 
ATOM     13  C   UNL A   1      30.950  23.381  23.417  1.00  0.00     0.005 A 
ATOM     14  C   UNL A   1      32.889  24.826  22.011  1.00  0.00     0.000 A 
ATOM     15  C   UNL A   1      30.694  24.692  23.001  1.00  0.00     0.000 A 
ATOM     16  C   UNL A   1      31.674  25.423  22.329  1.00  0.00     0.000 A 
ENDBRANCH  10  11
ENDBRANCH   9  10
BRANCH   9  17
ATOM     17  C   UNL A   1      33.246  22.087  26.134  1.00  0.00     0.261 C 
ATOM     18  O   UNL A   1      33.348  21.355  27.123  1.00  0.00    -0.269 OA
BRANCH  17  19
ATOM     19  C   UNL A   1      32.762  23.469  26.402  1.00  0.00     0.126 A 
ATOM     20  C   UNL A   1      33.686  24.429  26.222  1.00  0.00     0.033 A 
ATOM     21  C   UNL A   1      31.481  23.866  26.980  1.00  0.00     0.349 A 
ATOM     22  C   UNL A   1      33.273  25.788  25.930  1.00  0.00     0.018 A 
ATOM     23  O   UNL A   1      31.097  25.201  26.781  1.00  0.00    -0.422 OA
ATOM     24  O   UNL A   1      30.777  23.077  27.614  1.00  0.00    -0.246 OA
ATOM     25  C   UNL A   1      34.089  26.635  25.163  1.00  0.00     0.012 A 
ATOM     26  C   UNL A   1      31.943  26.105  26.104  1.00  0.00     0.138 A 
ATOM     27  C   UNL A   1      33.568  27.763  24.544  1.00  0.00     0.001 A 
ATOM     28  C   UNL A   1      31.409  27.250  25.521  1.00  0.00     0.048 A 
ATOM     29  C   UNL A   1      32.223  28.066  24.721  1.00  0.00     0.004 A 
ENDBRANCH  17  19
ENDBRANCH   9  17
ENDBRANCH   8   9
ENDBRANCH   6   8
ENDBRANCH   3   6
ENDBRANCH   1   2
BRANCH   1  30
ATOM     30  C   UNL A   1      38.938  23.312  26.894  1.00  0.00     0.023 C 
BRANCH  30  31
ATOM     31  C   UNL A   1      39.944  22.291  26.238  1.00  0.00     0.023 C 
BRANCH  31  32
ATOM     32  C   UNL A   1      40.351  20.906  26.845  1.00  0.00     0.116 C 
BRANCH  32  33
ATOM     33  N   UNL A   1      41.467  20.215  26.179  1.00  0.00    -0.352 N 
ATOM     34  C   UNL A   1      42.739  20.674  25.889  1.00  0.00     0.251 C 
ATOM     35  H   UNL A   1      41.280  19.290  25.899  1.00  0.00     0.163 HD
ATOM     36  O   UNL A   1      43.519  20.018  25.193  1.00  0.00    -0.269 OA
BRANCH  34  37
ATOM     37  C   UNL A   1      43.188  21.973  26.418  1.00  0.00     0.039 A 
ATOM     38  C   UNL A   1      43.431  23.038  25.552  1.00  0.00     0.014 A 
ATOM     39  C   UNL A   1      43.374  22.131  27.790  1.00  0.00     0.014 A 
ATOM     40  C   UNL A   1      43.716  24.301  26.080  1.00  0.00     0.010 A 
ATOM     41  C   UNL A   1      43.589  23.405  28.321  1.00  0.00     0.010 A 
ATOM     42  C   UNL A   1      43.722  24.514  27.472  1.00  0.00    -0.014 A 
BRANCH  42  43
ATOM     43  C   UNL A   1      43.777  25.900  28.022  1.00  0.00     0.031 A 
ATOM     44  C   UNL A   1      45.084  26.580  28.321  1.00  0.00     0.074 A 
ATOM     45  C   UNL A   1      42.619  26.541  28.291  1.00  0.00     0.049 A 
ATOM     46  N   UNL A   1      45.298  27.797  28.761  1.00  0.00    -0.248 NA
ATOM     47  C   UNL A   1      46.307  25.791  28.120  1.00  0.00     0.031 C 
ATOM     48  C   UNL A   1      41.280  25.975  28.110  1.00  0.00     0.029 A 
ATOM     49  N   UNL A   1      42.378  27.808  28.766  1.00  0.00    -0.354 N 
ATOM     50  C   UNL A   1      46.676  27.920  28.884  1.00  0.00     0.074 A 
ATOM     51  C   UNL A   1      47.244  26.636  28.531  1.00  0.00     0.031 C 
ATOM     52  C   UNL A   1      40.362  26.903  28.422  1.00  0.00     0.029 A 
ATOM     53  C   UNL A   1      41.041  28.119  28.861  1.00  0.00     0.049 A 
ATOM     54  H   UNL A   1      43.095  28.435  29.013  1.00  0.00     0.167 HD
ATOM     55  C   UNL A   1      47.404  29.009  29.237  1.00  0.00     0.037 A 
ATOM     56  C   UNL A   1      40.428  29.254  29.250  1.00  0.00     0.037 A 
ATOM     57  C   UNL A   1      46.842  30.290  29.581  1.00  0.00     0.049 A 
ATOM     58  C   UNL A   1      41.261  30.443  29.648  1.00  0.00     0.074 A 
ATOM     59  C   UNL A   1      47.503  31.466  29.893  1.00  0.00     0.029 A 
ATOM     60  N   UNL A   1      45.485  30.561  29.672  1.00  0.00    -0.354 N 
ATOM     61  N   UNL A   1      42.564  30.571  29.666  1.00  0.00    -0.248 NA
ATOM     62  C   UNL A   1      40.534  31.648  30.072  1.00  0.00     0.031 C 
ATOM     63  C   UNL A   1      46.548  32.432  30.227  1.00  0.00     0.029 A 
ATOM     64  C   UNL A   1      45.290  31.876  30.065  1.00  0.00     0.049 A 
ATOM     65  H   UNL A   1      44.766  29.915  29.486  1.00  0.00     0.167 HD
ATOM     66  C   UNL A   1      42.813  31.877  30.070  1.00  0.00     0.074 A 
ATOM     67  C   UNL A   1      41.526  32.505  30.272  1.00  0.00     0.031 C 
ATOM     68  C   UNL A   1      44.004  32.498  30.256  1.00  0.00     0.037 A 
BRANCH  55  69
ATOM     69  C   UNL A   1      48.900  28.863  29.264  1.00  0.00     0.057 A 
ATOM     70  C   UNL A   1      49.584  28.479  30.425  1.00  0.00     0.134 A 
ATOM     71  C   UNL A   1      49.662  29.067  28.106  1.00  0.00     0.134 A 
ATOM     72  F   UNL A   1      48.916  28.271  31.570  1.00  0.00    -0.206 F 
ATOM     73  C   UNL A   1      50.973  28.334  30.442  1.00  0.00     0.040 A 
ATOM     74  C   UNL A   1      51.047  28.897  28.102  1.00  0.00     0.040 A 
ATOM     75  F   UNL A   1      49.071  29.423  26.955  1.00  0.00    -0.206 F 
ATOM     76  C   UNL A   1      51.708  28.538  29.276  1.00  0.00     0.006 A 
ENDBRANCH  55  69
BRANCH  56  77
ATOM     77  C   UNL A   1      38.943  29.341  29.256  1.00  0.00     0.057 A 
ATOM     78  C   UNL A   1      38.227  29.581  28.076  1.00  0.00     0.134 A 
ATOM     79  C   UNL A   1      38.207  29.218  30.440  1.00  0.00     0.134 A 
ATOM     80  F   UNL A   1      38.874  29.729  26.911  1.00  0.00    -0.206 F 
ATOM     81  C   UNL A   1      36.838  29.724  28.078  1.00  0.00     0.040 A 
ATOM     82  C   UNL A   1      36.814  29.329  30.453  1.00  0.00     0.040 A 
ATOM     83  F   UNL A   1      38.829  28.979  31.603  1.00  0.00    -0.206 F 
ATOM     84  C   UNL A   1      36.127  29.593  29.269  1.00  0.00     0.006 A 
ENDBRANCH  56  77
BRANCH  68  85
ATOM     85  C   UNL A   1      43.973  33.943  30.665  1.00  0.00     0.057 A 
ATOM     86  C   UNL A   1      43.903  34.980  29.727  1.00  0.00     0.134 A 
ATOM     87  C   UNL A   1      43.972  34.299  32.020  1.00  0.00     0.134 A 
ATOM     88  F   UNL A   1      43.913  34.711  28.412  1.00  0.00    -0.206 F 
ATOM     89  C   UNL A   1      43.855  36.320  30.120  1.00  0.00     0.040 A 
ATOM     90  C   UNL A   1      43.895  35.633  32.427  1.00  0.00     0.040 A 
ATOM     91  F   UNL A   1      44.029  33.357  32.974  1.00  0.00    -0.206 F 
ATOM     92  C   UNL A   1      43.843  36.648  31.474  1.00  0.00     0.006 A 
ENDBRANCH  68  85
ENDBRANCH  42  43
ENDBRANCH  34  37
ENDBRANCH  32  33
ENDBRANCH  31  32
ENDBRANCH  30  31
ENDBRANCH   1  30
TORSDOF 17
ENDMDL
