MODEL 1
REMARK VINA RESULT:     -11.8      0.000      0.000
REMARK SMILES CC(C)(CC(=O)NCCCCNC(=O)c1ccc(-c2c3nc(c(-c4c(F)cccc4F)c4ccc([nH]4)c(-c4c(F)cccc4F)c4nc(c(-c5c(F)cccc5F)c5ccc2[nH]5)C=C4)C=C3)cc1)NC(=O)c1nc(C(C)(C)C)n[nH]1
REMARK SMILES IDX 8 1 7 2 5 3 6 4 4 6 2 7 1 8 3 9 69 10 70 11 71 13 72 14
REMARK SMILES IDX 73 15 80 16 74 17 79 18 75 20 76 21 77 22 78 23 9 24 10 25
REMARK SMILES IDX 11 26 12 27 13 28 14 30 15 31 16 32 68 33 17 34 67 35 18 36
REMARK SMILES IDX 19 37 20 38 61 39 21 40 66 41 60 42 62 43 22 44 65 45 59 46
REMARK SMILES IDX 58 47 23 49 49 50 32 51 48 52 33 53 36 54 47 55 63 56 34 57
REMARK SMILES IDX 35 58 46 60 64 61 37 62 24 63 25 64 30 65 26 66 27 67 29 68
REMARK SMILES IDX 31 69 28 70 50 71 51 72 56 73 52 74 53 75 55 76 57 77 54 78
REMARK SMILES IDX 38 79 39 80 44 81 40 82 41 83 43 84 45 85 42 86
REMARK H PARENT 7 5 69 12 80 19 12 29 62 48 36 59
REMARK Flexibility Score: inf
ROOT
ATOM      1  C   UNL A   1      36.539  21.712  25.659  1.00  0.00     0.116 C 
ENDROOT
BRANCH   1   2
ATOM      2  N   UNL A   1      35.554  21.504  26.698  1.00  0.00    -0.356 N 
ATOM      3  C   UNL A   1      34.284  21.992  26.760  1.00  0.00     0.222 C 
ATOM      4  O   UNL A   1      33.689  21.953  27.837  1.00  0.00    -0.275 OA
ATOM      5  H   UNL A   1      35.836  20.939  27.454  1.00  0.00     0.163 HD
BRANCH   3   6
ATOM      6  C   UNL A   1      33.588  22.462  25.500  1.00  0.00     0.127 C 
BRANCH   6   7
ATOM      7  C   UNL A   1      32.259  21.789  25.049  1.00  0.00     0.044 C 
ATOM      8  C   UNL A   1      31.972  21.970  23.552  1.00  0.00     0.035 C 
ATOM      9  C   UNL A   1      32.524  20.259  25.182  1.00  0.00     0.035 C 
BRANCH   7  10
ATOM     10  N   UNL A   1      31.127  22.086  25.963  1.00  0.00    -0.344 N 
ATOM     11  C   UNL A   1      30.593  23.181  26.614  1.00  0.00     0.289 C 
ATOM     12  H   UNL A   1      30.610  21.271  26.162  1.00  0.00     0.164 HD
ATOM     13  O   UNL A   1      29.871  22.911  27.578  1.00  0.00    -0.266 OA
BRANCH  11  14
ATOM     14  C   UNL A   1      30.755  24.537  26.140  1.00  0.00     0.214 A 
ATOM     15  N   UNL A   1      31.629  25.428  26.594  1.00  0.00    -0.207 NA
ATOM     16  N   UNL A   1      29.879  25.192  25.330  1.00  0.00    -0.255 N 
ATOM     17  C   UNL A   1      31.270  26.607  25.975  1.00  0.00     0.156 A 
ATOM     18  N   UNL A   1      30.210  26.481  25.161  1.00  0.00    -0.158 NA
ATOM     19  H   UNL A   1      29.092  24.769  24.915  1.00  0.00     0.192 HD
BRANCH  17  20
ATOM     20  C   UNL A   1      31.935  27.955  26.233  1.00  0.00     0.024 C 
ATOM     21  C   UNL A   1      31.466  28.967  25.169  1.00  0.00     0.019 C 
ATOM     22  C   UNL A   1      31.602  28.565  27.616  1.00  0.00     0.019 C 
ATOM     23  C   UNL A   1      33.473  27.819  26.141  1.00  0.00     0.019 C 
ENDBRANCH  17  20
ENDBRANCH  11  14
ENDBRANCH   7  10
ENDBRANCH   6   7
ENDBRANCH   3   6
ENDBRANCH   1   2
BRANCH   1  24
ATOM     24  C   UNL A   1      36.546  20.504  24.743  1.00  0.00     0.023 C 
BRANCH  24  25
ATOM     25  C   UNL A   1      37.707  19.564  24.959  1.00  0.00     0.023 C 
BRANCH  25  26
ATOM     26  C   UNL A   1      38.882  20.169  25.691  1.00  0.00     0.116 C 
BRANCH  26  27
ATOM     27  N   UNL A   1      40.038  19.283  25.725  1.00  0.00    -0.352 N 
ATOM     28  C   UNL A   1      41.349  19.527  26.062  1.00  0.00     0.251 C 
ATOM     29  H   UNL A   1      39.849  18.353  25.463  1.00  0.00     0.163 HD
ATOM     30  O   UNL A   1      42.190  18.656  25.877  1.00  0.00    -0.269 OA
BRANCH  28  31
ATOM     31  C   UNL A   1      41.759  20.842  26.608  1.00  0.00     0.039 A 
ATOM     32  C   UNL A   1      42.260  21.810  25.734  1.00  0.00     0.014 A 
ATOM     33  C   UNL A   1      41.657  21.131  27.968  1.00  0.00     0.014 A 
ATOM     34  C   UNL A   1      42.591  23.079  26.217  1.00  0.00     0.010 A 
ATOM     35  C   UNL A   1      41.847  22.429  28.421  1.00  0.00     0.010 A 
ATOM     36  C   UNL A   1      42.344  23.413  27.559  1.00  0.00    -0.014 A 
BRANCH  36  37
ATOM     37  C   UNL A   1      42.626  24.771  28.089  1.00  0.00     0.031 A 
ATOM     38  C   UNL A   1      44.022  25.142  28.516  1.00  0.00     0.074 A 
ATOM     39  C   UNL A   1      41.614  25.646  28.253  1.00  0.00     0.049 A 
ATOM     40  N   UNL A   1      44.456  26.253  29.057  1.00  0.00    -0.248 NA
ATOM     41  C   UNL A   1      45.066  24.116  28.349  1.00  0.00     0.031 C 
ATOM     42  C   UNL A   1      40.206  25.382  27.947  1.00  0.00     0.029 A 
ATOM     43  N   UNL A   1      41.615  26.934  28.723  1.00  0.00    -0.354 N 
ATOM     44  C   UNL A   1      45.806  26.047  29.314  1.00  0.00     0.074 A 
ATOM     45  C   UNL A   1      46.105  24.684  28.938  1.00  0.00     0.031 C 
ATOM     46  C   UNL A   1      39.487  26.486  28.201  1.00  0.00     0.029 A 
ATOM     47  C   UNL A   1      40.372  27.520  28.727  1.00  0.00     0.049 A 
ATOM     48  H   UNL A   1      42.429  27.395  29.030  1.00  0.00     0.167 HD
ATOM     49  C   UNL A   1      46.723  26.922  29.791  1.00  0.00     0.037 A 
ATOM     50  C   UNL A   1      39.989  28.751  29.114  1.00  0.00     0.037 A 
ATOM     51  C   UNL A   1      46.425  28.287  30.134  1.00  0.00     0.049 A 
ATOM     52  C   UNL A   1      41.027  29.711  29.624  1.00  0.00     0.074 A 
ATOM     53  C   UNL A   1      47.294  29.280  30.555  1.00  0.00     0.029 A 
ATOM     54  N   UNL A   1      45.158  28.852  30.099  1.00  0.00    -0.354 N 
ATOM     55  N   UNL A   1      42.316  29.530  29.784  1.00  0.00    -0.248 NA
ATOM     56  C   UNL A   1      40.557  31.052  29.997  1.00  0.00     0.031 C 
ATOM     57  C   UNL A   1      46.543  30.428  30.828  1.00  0.00     0.029 A 
ATOM     58  C   UNL A   1      45.217  30.171  30.518  1.00  0.00     0.049 A 
ATOM     59  H   UNL A   1      44.339  28.384  29.818  1.00  0.00     0.167 HD
ATOM     60  C   UNL A   1      42.815  30.738  30.253  1.00  0.00     0.074 A 
ATOM     61  C   UNL A   1      41.692  31.650  30.328  1.00  0.00     0.031 C 
ATOM     62  C   UNL A   1      44.088  31.064  30.593  1.00  0.00     0.037 A 
BRANCH  49  63
ATOM     63  C   UNL A   1      48.131  26.425  29.966  1.00  0.00     0.057 A 
ATOM     64  C   UNL A   1      49.099  26.562  28.961  1.00  0.00     0.134 A 
ATOM     65  C   UNL A   1      48.530  25.815  31.163  1.00  0.00     0.134 A 
ATOM     66  F   UNL A   1      48.783  27.122  27.782  1.00  0.00    -0.206 F 
ATOM     67  C   UNL A   1      50.399  26.079  29.125  1.00  0.00     0.040 A 
ATOM     68  C   UNL A   1      49.837  25.360  31.352  1.00  0.00     0.040 A 
ATOM     69  F   UNL A   1      47.659  25.657  32.170  1.00  0.00    -0.206 F 
ATOM     70  C   UNL A   1      50.772  25.484  30.327  1.00  0.00     0.006 A 
ENDBRANCH  49  63
BRANCH  50  71
ATOM     71  C   UNL A   1      38.564  29.151  29.005  1.00  0.00     0.057 A 
ATOM     72  C   UNL A   1      38.033  29.613  27.794  1.00  0.00     0.134 A 
ATOM     73  C   UNL A   1      37.696  29.076  30.102  1.00  0.00     0.134 A 
ATOM     74  F   UNL A   1      38.816  29.723  26.712  1.00  0.00    -0.206 F 
ATOM     75  C   UNL A   1      36.697  30.003  27.682  1.00  0.00     0.040 A 
ATOM     76  C   UNL A   1      36.352  29.436  29.997  1.00  0.00     0.040 A 
ATOM     77  F   UNL A   1      38.140  28.634  31.287  1.00  0.00    -0.206 F 
ATOM     78  C   UNL A   1      35.850  29.908  28.785  1.00  0.00     0.006 A 
ENDBRANCH  50  71
BRANCH  62  79
ATOM     79  C   UNL A   1      44.332  32.475  31.047  1.00  0.00     0.057 A 
ATOM     80  C   UNL A   1      44.641  33.502  30.146  1.00  0.00     0.134 A 
ATOM     81  C   UNL A   1      44.238  32.812  32.403  1.00  0.00     0.134 A 
ATOM     82  F   UNL A   1      44.756  33.244  28.834  1.00  0.00    -0.206 F 
ATOM     83  C   UNL A   1      44.886  34.805  30.581  1.00  0.00     0.040 A 
ATOM     84  C   UNL A   1      44.448  34.118  32.847  1.00  0.00     0.040 A 
ATOM     85  F   UNL A   1      43.932  31.880  33.319  1.00  0.00    -0.206 F 
ATOM     86  C   UNL A   1      44.784  35.117  31.936  1.00  0.00     0.006 A 
ENDBRANCH  62  79
ENDBRANCH  36  37
ENDBRANCH  28  31
ENDBRANCH  26  27
ENDBRANCH  25  26
ENDBRANCH  24  25
ENDBRANCH   1  24
TORSDOF 15
ENDMDL
MODEL 2
REMARK VINA RESULT:     -11.5      0.407      6.174
REMARK SMILES CC(C)(CC(=O)NCCCCNC(=O)c1ccc(-c2c3nc(c(-c4c(F)cccc4F)c4ccc([nH]4)c(-c4c(F)cccc4F)c4nc(c(-c5c(F)cccc5F)c5ccc2[nH]5)C=C4)C=C3)cc1)NC(=O)c1nc(C(C)(C)C)n[nH]1
REMARK SMILES IDX 8 1 7 2 5 3 6 4 4 6 2 7 1 8 3 9 69 10 70 11 71 13 72 14
REMARK SMILES IDX 73 15 80 16 74 17 79 18 75 20 76 21 77 22 78 23 9 24 10 25
REMARK SMILES IDX 11 26 12 27 13 28 14 30 15 31 16 32 68 33 17 34 67 35 18 36
REMARK SMILES IDX 19 37 20 38 61 39 21 40 66 41 60 42 62 43 22 44 65 45 59 46
REMARK SMILES IDX 58 47 23 49 49 50 32 51 48 52 33 53 36 54 47 55 63 56 34 57
REMARK SMILES IDX 35 58 46 60 64 61 37 62 24 63 25 64 30 65 26 66 27 67 29 68
REMARK SMILES IDX 31 69 28 70 50 71 51 72 56 73 52 74 53 75 55 76 57 77 54 78
REMARK SMILES IDX 38 79 39 80 44 81 40 82 41 83 43 84 45 85 42 86
REMARK H PARENT 7 5 69 12 80 19 12 29 62 48 36 59
REMARK Flexibility Score: inf
ROOT
ATOM      1  C   UNL A   1      36.448  21.418  25.523  1.00  0.00     0.116 C 
ENDROOT
BRANCH   1   2
ATOM      2  N   UNL A   1      35.498  21.346  26.612  1.00  0.00    -0.356 N 
ATOM      3  C   UNL A   1      34.278  21.943  26.700  1.00  0.00     0.222 C 
ATOM      4  O   UNL A   1      33.731  22.010  27.802  1.00  0.00    -0.275 OA
ATOM      5  H   UNL A   1      35.767  20.797  27.384  1.00  0.00     0.163 HD
BRANCH   3   6
ATOM      6  C   UNL A   1      33.566  22.409  25.447  1.00  0.00     0.127 C 
BRANCH   6   7
ATOM      7  C   UNL A   1      32.220  21.749  25.028  1.00  0.00     0.044 C 
ATOM      8  C   UNL A   1      31.890  21.949  23.542  1.00  0.00     0.035 C 
ATOM      9  C   UNL A   1      32.480  20.215  25.135  1.00  0.00     0.035 C 
BRANCH   7  10
ATOM     10  N   UNL A   1      31.118  22.041  25.978  1.00  0.00    -0.344 N 
ATOM     11  C   UNL A   1      30.610  23.131  26.659  1.00  0.00     0.289 C 
ATOM     12  H   UNL A   1      30.600  21.227  26.180  1.00  0.00     0.164 HD
ATOM     13  O   UNL A   1      29.914  22.852  27.640  1.00  0.00    -0.266 OA
BRANCH  11  14
ATOM     14  C   UNL A   1      30.770  24.492  26.200  1.00  0.00     0.214 A 
ATOM     15  N   UNL A   1      31.637  25.382  26.667  1.00  0.00    -0.207 NA
ATOM     16  N   UNL A   1      29.895  25.152  25.392  1.00  0.00    -0.255 N 
ATOM     17  C   UNL A   1      31.277  26.565  26.058  1.00  0.00     0.156 A 
ATOM     18  N   UNL A   1      30.221  26.443  25.237  1.00  0.00    -0.158 NA
ATOM     19  H   UNL A   1      29.112  24.729  24.969  1.00  0.00     0.192 HD
BRANCH  17  20
ATOM     20  C   UNL A   1      31.935  27.914  26.333  1.00  0.00     0.024 C 
ATOM     21  C   UNL A   1      31.524  28.914  25.235  1.00  0.00     0.019 C 
ATOM     22  C   UNL A   1      31.537  28.541  27.690  1.00  0.00     0.019 C 
ATOM     23  C   UNL A   1      33.475  27.769  26.319  1.00  0.00     0.019 C 
ENDBRANCH  17  20
ENDBRANCH  11  14
ENDBRANCH   7  10
ENDBRANCH   6   7
ENDBRANCH   3   6
ENDBRANCH   1   2
BRANCH   1  24
ATOM     24  C   UNL A   1      36.438  20.097  24.778  1.00  0.00     0.023 C 
BRANCH  24  25
ATOM     25  C   UNL A   1      37.695  19.277  24.946  1.00  0.00     0.023 C 
BRANCH  25  26
ATOM     26  C   UNL A   1      38.767  19.929  25.788  1.00  0.00     0.116 C 
BRANCH  26  27
ATOM     27  N   UNL A   1      40.025  19.195  25.762  1.00  0.00    -0.352 N 
ATOM     28  C   UNL A   1      41.309  19.599  26.042  1.00  0.00     0.251 C 
ATOM     29  H   UNL A   1      39.942  18.249  25.500  1.00  0.00     0.163 HD
ATOM     30  O   UNL A   1      42.243  18.840  25.812  1.00  0.00    -0.269 OA
BRANCH  28  31
ATOM     31  C   UNL A   1      41.577  20.953  26.582  1.00  0.00     0.039 A 
ATOM     32  C   UNL A   1      41.536  21.148  27.966  1.00  0.00     0.014 A 
ATOM     33  C   UNL A   1      41.866  22.029  25.744  1.00  0.00     0.014 A 
ATOM     34  C   UNL A   1      41.851  22.400  28.500  1.00  0.00     0.010 A 
ATOM     35  C   UNL A   1      42.318  23.227  26.279  1.00  0.00     0.010 A 
ATOM     36  C   UNL A   1      42.289  23.439  27.662  1.00  0.00    -0.014 A 
BRANCH  36  37
ATOM     37  C   UNL A   1      42.690  24.762  28.205  1.00  0.00     0.031 A 
ATOM     38  C   UNL A   1      41.655  25.834  28.428  1.00  0.00     0.074 A 
ATOM     39  C   UNL A   1      43.992  25.023  28.431  1.00  0.00     0.049 A 
ATOM     40  N   UNL A   1      41.814  27.068  28.836  1.00  0.00    -0.248 NA
ATOM     41  C   UNL A   1      40.258  25.489  28.113  1.00  0.00     0.031 C 
ATOM     42  C   UNL A   1      45.098  24.094  28.186  1.00  0.00     0.029 A 
ATOM     43  N   UNL A   1      44.607  26.150  28.913  1.00  0.00    -0.354 N 
ATOM     44  C   UNL A   1      40.551  27.645  28.802  1.00  0.00     0.074 A 
ATOM     45  C   UNL A   1      39.647  26.652  28.267  1.00  0.00     0.031 C 
ATOM     46  C   UNL A   1      46.250  24.675  28.556  1.00  0.00     0.029 A 
ATOM     47  C   UNL A   1      45.971  26.029  29.022  1.00  0.00     0.049 A 
ATOM     48  H   UNL A   1      44.117  26.968  29.157  1.00  0.00     0.167 HD
ATOM     49  C   UNL A   1      40.168  28.878  29.209  1.00  0.00     0.037 A 
ATOM     50  C   UNL A   1      46.894  26.913  29.445  1.00  0.00     0.037 A 
ATOM     51  C   UNL A   1      41.068  29.852  29.770  1.00  0.00     0.049 A 
ATOM     52  C   UNL A   1      46.445  28.271  29.910  1.00  0.00     0.074 A 
ATOM     53  C   UNL A   1      40.774  31.103  30.284  1.00  0.00     0.029 A 
ATOM     54  N   UNL A   1      42.440  29.682  29.889  1.00  0.00    -0.354 N 
ATOM     55  N   UNL A   1      45.234  28.774  29.950  1.00  0.00    -0.248 NA
ATOM     56  C   UNL A   1      47.491  29.180  30.396  1.00  0.00     0.031 C 
ATOM     57  C   UNL A   1      41.975  31.713  30.661  1.00  0.00     0.029 A 
ATOM     58  C   UNL A   1      43.010  30.818  30.441  1.00  0.00     0.049 A 
ATOM     59  H   UNL A   1      42.935  28.875  29.620  1.00  0.00     0.167 HD
ATOM     60  C   UNL A   1      45.369  30.047  30.487  1.00  0.00     0.074 A 
ATOM     61  C   UNL A   1      46.777  30.228  30.779  1.00  0.00     0.031 C 
ATOM     62  C   UNL A   1      44.415  30.984  30.718  1.00  0.00     0.037 A 
BRANCH  49  63
ATOM     63  C   UNL A   1      38.717  29.239  29.061  1.00  0.00     0.057 A 
ATOM     64  C   UNL A   1      38.169  29.632  27.831  1.00  0.00     0.134 A 
ATOM     65  C   UNL A   1      37.850  29.178  30.159  1.00  0.00     0.134 A 
ATOM     66  F   UNL A   1      38.944  29.727  26.739  1.00  0.00    -0.206 F 
ATOM     67  C   UNL A   1      36.823  29.984  27.707  1.00  0.00     0.040 A 
ATOM     68  C   UNL A   1      36.495  29.494  30.041  1.00  0.00     0.040 A 
ATOM     69  F   UNL A   1      38.303  28.804  31.365  1.00  0.00    -0.206 F 
ATOM     70  C   UNL A   1      35.981  29.907  28.814  1.00  0.00     0.006 A 
ENDBRANCH  49  63
BRANCH  50  71
ATOM     71  C   UNL A   1      48.327  26.528  29.479  1.00  0.00     0.057 A 
ATOM     72  C   UNL A   1      49.184  26.835  28.414  1.00  0.00     0.134 A 
ATOM     73  C   UNL A   1      48.879  25.853  30.575  1.00  0.00     0.134 A 
ATOM     74  F   UNL A   1      48.713  27.466  27.329  1.00  0.00    -0.206 F 
ATOM     75  C   UNL A   1      50.531  26.468  28.429  1.00  0.00     0.040 A 
ATOM     76  C   UNL A   1      50.230  25.506  30.616  1.00  0.00     0.040 A 
ATOM     77  F   UNL A   1      48.114  25.538  31.631  1.00  0.00    -0.206 F 
ATOM     78  C   UNL A   1      51.059  25.808  29.537  1.00  0.00     0.006 A 
ENDBRANCH  50  71
BRANCH  62  79
ATOM     79  C   UNL A   1      44.864  32.275  31.343  1.00  0.00     0.057 A 
ATOM     80  C   UNL A   1      45.242  33.380  30.570  1.00  0.00     0.134 A 
ATOM     81  C   UNL A   1      44.901  32.417  32.735  1.00  0.00     0.134 A 
ATOM     82  F   UNL A   1      45.239  33.308  29.230  1.00  0.00    -0.206 F 
ATOM     83  C   UNL A   1      45.678  34.568  31.160  1.00  0.00     0.040 A 
ATOM     84  C   UNL A   1      45.303  33.609  33.337  1.00  0.00     0.040 A 
ATOM     85  F   UNL A   1      44.540  31.401  33.535  1.00  0.00    -0.206 F 
ATOM     86  C   UNL A   1      45.704  34.685  32.549  1.00  0.00     0.006 A 
ENDBRANCH  62  79
ENDBRANCH  36  37
ENDBRANCH  28  31
ENDBRANCH  26  27
ENDBRANCH  25  26
ENDBRANCH  24  25
ENDBRANCH   1  24
TORSDOF 15
ENDMDL
MODEL 3
REMARK VINA RESULT:     -11.3      2.138      4.197
REMARK SMILES CC(C)(CC(=O)NCCCCNC(=O)c1ccc(-c2c3nc(c(-c4c(F)cccc4F)c4ccc([nH]4)c(-c4c(F)cccc4F)c4nc(c(-c5c(F)cccc5F)c5ccc2[nH]5)C=C4)C=C3)cc1)NC(=O)c1nc(C(C)(C)C)n[nH]1
REMARK SMILES IDX 8 1 7 2 5 3 6 4 4 6 2 7 1 8 3 9 69 10 70 11 71 13 72 14
REMARK SMILES IDX 73 15 80 16 74 17 79 18 75 20 76 21 77 22 78 23 9 24 10 25
REMARK SMILES IDX 11 26 12 27 13 28 14 30 15 31 16 32 68 33 17 34 67 35 18 36
REMARK SMILES IDX 19 37 20 38 61 39 21 40 66 41 60 42 62 43 22 44 65 45 59 46
REMARK SMILES IDX 58 47 23 49 49 50 32 51 48 52 33 53 36 54 47 55 63 56 34 57
REMARK SMILES IDX 35 58 46 60 64 61 37 62 24 63 25 64 30 65 26 66 27 67 29 68
REMARK SMILES IDX 31 69 28 70 50 71 51 72 56 73 52 74 53 75 55 76 57 77 54 78
REMARK SMILES IDX 38 79 39 80 44 81 40 82 41 83 43 84 45 85 42 86
REMARK H PARENT 7 5 69 12 80 19 12 29 62 48 36 59
REMARK Flexibility Score: inf
ROOT
ATOM      1  C   UNL A   1      37.318  21.789  24.625  1.00  0.00     0.116 C 
ENDROOT
BRANCH   1   2
ATOM      2  N   UNL A   1      36.661  22.444  23.515  1.00  0.00    -0.356 N 
ATOM      3  C   UNL A   1      35.515  23.180  23.535  1.00  0.00     0.222 C 
ATOM      4  O   UNL A   1      34.949  23.421  22.469  1.00  0.00    -0.275 OA
ATOM      5  H   UNL A   1      37.095  22.347  22.637  1.00  0.00     0.163 HD
BRANCH   3   6
ATOM      6  C   UNL A   1      35.021  23.782  24.834  1.00  0.00     0.127 C 
BRANCH   6   7
ATOM      7  C   UNL A   1      33.714  23.248  25.490  1.00  0.00     0.044 C 
ATOM      8  C   UNL A   1      33.977  22.336  26.696  1.00  0.00     0.035 C 
ATOM      9  C   UNL A   1      33.047  24.505  26.127  1.00  0.00     0.035 C 
BRANCH   7  10
ATOM     10  N   UNL A   1      32.741  22.734  24.493  1.00  0.00    -0.344 N 
ATOM     11  C   UNL A   1      32.440  21.536  23.874  1.00  0.00     0.289 C 
ATOM     12  H   UNL A   1      32.139  23.451  24.185  1.00  0.00     0.164 HD
ATOM     13  O   UNL A   1      31.796  21.640  22.827  1.00  0.00    -0.266 OA
BRANCH  11  14
ATOM     14  C   UNL A   1      32.741  20.249  24.460  1.00  0.00     0.214 A 
ATOM     15  N   UNL A   1      33.422  19.264  23.885  1.00  0.00    -0.207 NA
ATOM     16  N   UNL A   1      32.165  19.750  25.588  1.00  0.00    -0.255 N 
ATOM     17  C   UNL A   1      33.275  18.197  24.746  1.00  0.00     0.156 A 
ATOM     18  N   UNL A   1      32.528  18.481  25.825  1.00  0.00    -0.158 NA
ATOM     19  H   UNL A   1      31.552  20.262  26.165  1.00  0.00     0.192 HD
BRANCH  17  20
ATOM     20  C   UNL A   1      33.819  16.796  24.485  1.00  0.00     0.024 C 
ATOM     21  C   UNL A   1      35.177  16.637  25.197  1.00  0.00     0.019 C 
ATOM     22  C   UNL A   1      32.902  15.661  24.999  1.00  0.00     0.019 C 
ATOM     23  C   UNL A   1      34.028  16.578  22.968  1.00  0.00     0.019 C 
ENDBRANCH  17  20
ENDBRANCH  11  14
ENDBRANCH   7  10
ENDBRANCH   6   7
ENDBRANCH   3   6
ENDBRANCH   1   2
BRANCH   1  24
ATOM     24  C   UNL A   1      36.834  20.354  24.701  1.00  0.00     0.023 C 
BRANCH  24  25
ATOM     25  C   UNL A   1      37.918  19.345  25.001  1.00  0.00     0.023 C 
BRANCH  25  26
ATOM     26  C   UNL A   1      39.099  19.896  25.765  1.00  0.00     0.116 C 
BRANCH  26  27
ATOM     27  N   UNL A   1      40.214  18.961  25.824  1.00  0.00    -0.352 N 
ATOM     28  C   UNL A   1      41.556  19.173  26.034  1.00  0.00     0.251 C 
ATOM     29  H   UNL A   1      39.964  18.017  25.693  1.00  0.00     0.163 HD
ATOM     30  O   UNL A   1      42.341  18.242  25.899  1.00  0.00    -0.269 OA
BRANCH  28  31
ATOM     31  C   UNL A   1      42.065  20.520  26.385  1.00  0.00     0.039 A 
ATOM     32  C   UNL A   1      42.364  21.417  25.356  1.00  0.00     0.014 A 
ATOM     33  C   UNL A   1      42.252  20.907  27.711  1.00  0.00     0.014 A 
ATOM     34  C   UNL A   1      42.782  22.714  25.665  1.00  0.00     0.010 A 
ATOM     35  C   UNL A   1      42.526  22.233  28.018  1.00  0.00     0.010 A 
ATOM     36  C   UNL A   1      42.823  23.147  27.000  1.00  0.00    -0.014 A 
BRANCH  36  37
ATOM     37  C   UNL A   1      43.203  24.537  27.359  1.00  0.00     0.031 A 
ATOM     38  C   UNL A   1      44.646  24.966  27.302  1.00  0.00     0.074 A 
ATOM     39  C   UNL A   1      42.261  25.393  27.801  1.00  0.00     0.049 A 
ATOM     40  N   UNL A   1      45.183  26.114  27.632  1.00  0.00    -0.248 NA
ATOM     41  C   UNL A   1      45.623  23.960  26.853  1.00  0.00     0.031 C 
ATOM     42  C   UNL A   1      40.840  25.077  27.972  1.00  0.00     0.029 A 
ATOM     43  N   UNL A   1      42.358  26.703  28.195  1.00  0.00    -0.354 N 
ATOM     44  C   UNL A   1      46.552  25.956  27.453  1.00  0.00     0.074 A 
ATOM     45  C   UNL A   1      46.772  24.585  27.056  1.00  0.00     0.031 C 
ATOM     46  C   UNL A   1      40.194  26.173  28.397  1.00  0.00     0.029 A 
ATOM     47  C   UNL A   1      41.157  27.255  28.572  1.00  0.00     0.049 A 
ATOM     48  H   UNL A   1      43.207  27.200  28.208  1.00  0.00     0.167 HD
ATOM     49  C   UNL A   1      47.537  26.878  27.578  1.00  0.00     0.037 A 
ATOM     50  C   UNL A   1      40.867  28.493  29.012  1.00  0.00     0.037 A 
ATOM     51  C   UNL A   1      47.308  28.251  27.944  1.00  0.00     0.049 A 
ATOM     52  C   UNL A   1      41.973  29.505  29.125  1.00  0.00     0.074 A 
ATOM     53  C   UNL A   1      48.223  29.286  28.025  1.00  0.00     0.029 A 
ATOM     54  N   UNL A   1      46.073  28.779  28.292  1.00  0.00    -0.354 N 
ATOM     55  N   UNL A   1      43.253  29.366  28.874  1.00  0.00    -0.248 NA
ATOM     56  C   UNL A   1      41.592  30.850  29.575  1.00  0.00     0.031 C 
ATOM     57  C   UNL A   1      47.551  30.427  28.478  1.00  0.00     0.029 A 
ATOM     58  C   UNL A   1      46.207  30.119  28.618  1.00  0.00     0.049 A 
ATOM     59  H   UNL A   1      45.227  28.277  28.306  1.00  0.00     0.167 HD
ATOM     60  C   UNL A   1      43.825  30.609  29.110  1.00  0.00     0.074 A 
ATOM     61  C   UNL A   1      42.747  31.494  29.504  1.00  0.00     0.031 C 
ATOM     62  C   UNL A   1      45.125  30.985  29.013  1.00  0.00     0.037 A 
BRANCH  49  63
ATOM     63  C   UNL A   1      48.946  26.427  27.314  1.00  0.00     0.057 A 
ATOM     64  C   UNL A   1      49.787  25.974  28.341  1.00  0.00     0.134 A 
ATOM     65  C   UNL A   1      49.466  26.430  26.013  1.00  0.00     0.134 A 
ATOM     66  F   UNL A   1      49.361  25.959  29.614  1.00  0.00    -0.206 F 
ATOM     67  C   UNL A   1      51.102  25.576  28.090  1.00  0.00     0.040 A 
ATOM     68  C   UNL A   1      50.767  26.001  25.744  1.00  0.00     0.040 A 
ATOM     69  F   UNL A   1      48.716  26.843  24.981  1.00  0.00    -0.206 F 
ATOM     70  C   UNL A   1      51.592  25.582  26.786  1.00  0.00     0.006 A 
ENDBRANCH  49  63
BRANCH  50  71
ATOM     71  C   UNL A   1      39.466  28.850  29.348  1.00  0.00     0.057 A 
ATOM     72  C   UNL A   1      38.959  28.656  30.639  1.00  0.00     0.134 A 
ATOM     73  C   UNL A   1      38.601  29.400  28.393  1.00  0.00     0.134 A 
ATOM     74  F   UNL A   1      39.732  28.119  31.594  1.00  0.00    -0.206 F 
ATOM     75  C   UNL A   1      37.640  28.977  30.964  1.00  0.00     0.040 A 
ATOM     76  C   UNL A   1      37.289  29.752  28.711  1.00  0.00     0.040 A 
ATOM     77  F   UNL A   1      39.028  29.619  27.140  1.00  0.00    -0.206 F 
ATOM     78  C   UNL A   1      36.802  29.534  29.999  1.00  0.00     0.006 A 
ENDBRANCH  50  71
BRANCH  62  79
ATOM     79  C   UNL A   1      45.442  32.423  29.310  1.00  0.00     0.057 A 
ATOM     80  C   UNL A   1      45.821  32.851  30.589  1.00  0.00     0.134 A 
ATOM     81  C   UNL A   1      45.385  33.388  28.297  1.00  0.00     0.134 A 
ATOM     82  F   UNL A   1      45.886  31.979  31.607  1.00  0.00    -0.206 F 
ATOM     83  C   UNL A   1      46.093  34.193  30.859  1.00  0.00     0.040 A 
ATOM     84  C   UNL A   1      45.687  34.727  28.546  1.00  0.00     0.040 A 
ATOM     85  F   UNL A   1      45.043  33.045  27.045  1.00  0.00    -0.206 F 
ATOM     86  C   UNL A   1      46.032  35.135  29.832  1.00  0.00     0.006 A 
ENDBRANCH  62  79
ENDBRANCH  36  37
ENDBRANCH  28  31
ENDBRANCH  26  27
ENDBRANCH  25  26
ENDBRANCH  24  25
ENDBRANCH   1  24
TORSDOF 15
ENDMDL
