MODEL 1
REMARK VINA RESULT:     -11.0      0.000      0.000
REMARK SMILES C[C@@H](CC(=O)NCCCCNC(=O)c1ccc(-c2c3nc(c(-c4c(F)cccc4F)c4ccc([nH]4)c(-c4c(F)cccc4F)c4nc(c(-c5c(F)cccc5F)c5ccc2[nH]5)C=C4)C=C3)cc1)c1cn(C)c(=O)n(C)c1=O
REMARK SMILES IDX 8 1 7 2 6 3 4 4 5 5 3 7 2 8 1 9 68 10 69 11 76 12 70 13
REMARK SMILES IDX 74 14 77 15 71 16 72 17 75 18 73 19 9 20 10 21 11 22 12 23
REMARK SMILES IDX 13 25 14 26 15 27 67 28 16 29 66 30 17 31 18 32 19 33 60 34
REMARK SMILES IDX 20 35 65 36 59 37 61 38 21 39 64 40 58 41 57 42 22 44 48 45
REMARK SMILES IDX 31 46 47 47 32 48 35 49 46 50 62 51 33 52 34 53 45 55 63 56
REMARK SMILES IDX 36 57 23 58 24 59 29 60 25 61 26 62 28 63 30 64 27 65 49 66
REMARK SMILES IDX 50 67 55 68 51 69 52 70 54 71 56 72 53 73 37 74 38 75 43 76
REMARK SMILES IDX 39 77 40 78 42 79 44 80 41 81
REMARK H PARENT 6 6 11 24 61 43 35 54
REMARK Flexibility Score: inf
ROOT
ATOM      1  C   UNL A   1      36.593  20.235  25.010  1.00  0.00     0.023 C 
ENDROOT
BRANCH   1   2
ATOM      2  C   UNL A   1      36.368  21.542  25.768  1.00  0.00     0.116 C 
BRANCH   2   3
ATOM      3  N   UNL A   1      35.173  21.449  26.572  1.00  0.00    -0.356 N 
ATOM      4  C   UNL A   1      34.342  22.430  27.009  1.00  0.00     0.220 C 
ATOM      5  O   UNL A   1      33.474  22.112  27.822  1.00  0.00    -0.275 OA
ATOM      6  H   UNL A   1      34.922  20.537  26.845  1.00  0.00     0.163 HD
BRANCH   4   7
ATOM      7  C   UNL A   1      34.458  23.845  26.468  1.00  0.00     0.108 C 
BRANCH   7   8
ATOM      8  C   UNL A   1      33.460  24.303  25.374  1.00  0.00     0.032 C 
ATOM      9  C   UNL A   1      33.770  23.623  24.027  1.00  0.00     0.013 C 
BRANCH   8  10
ATOM     10  C   UNL A   1      33.216  25.801  25.264  1.00  0.00     0.037 A 
ATOM     11  C   UNL A   1      33.690  26.613  24.308  1.00  0.00     0.100 A 
ATOM     12  C   UNL A   1      32.268  26.423  26.234  1.00  0.00     0.259 A 
ATOM     13  N   UNL A   1      33.415  27.959  24.272  1.00  0.00    -0.303 N 
ATOM     14  N   UNL A   1      32.336  27.796  26.349  1.00  0.00    -0.263 N 
ATOM     15  O   UNL A   1      31.465  25.717  26.840  1.00  0.00    -0.269 OA
ATOM     16  C   UNL A   1      33.806  28.752  23.117  1.00  0.00     0.154 C 
ATOM     17  C   UNL A   1      32.768  28.615  25.317  1.00  0.00     0.330 A 
ATOM     18  C   UNL A   1      31.689  28.422  27.481  1.00  0.00     0.158 C 
ATOM     19  O   UNL A   1      32.570  29.831  25.301  1.00  0.00    -0.248 OA
ENDBRANCH   8  10
ENDBRANCH   7   8
ENDBRANCH   4   7
ENDBRANCH   2   3
ENDBRANCH   1   2
BRANCH   1  20
ATOM     20  C   UNL A   1      38.056  19.934  24.682  1.00  0.00     0.023 C 
BRANCH  20  21
ATOM     21  C   UNL A   1      39.021  20.108  25.845  1.00  0.00     0.116 C 
BRANCH  21  22
ATOM     22  N   UNL A   1      40.162  19.207  25.782  1.00  0.00    -0.352 N 
ATOM     23  C   UNL A   1      41.479  19.469  26.068  1.00  0.00     0.251 C 
ATOM     24  H   UNL A   1      39.963  18.286  25.497  1.00  0.00     0.163 HD
ATOM     25  O   UNL A   1      42.340  18.622  25.851  1.00  0.00    -0.269 OA
BRANCH  23  26
ATOM     26  C   UNL A   1      41.854  20.791  26.606  1.00  0.00     0.039 A 
ATOM     27  C   UNL A   1      42.264  21.789  25.720  1.00  0.00     0.014 A 
ATOM     28  C   UNL A   1      41.773  21.053  27.977  1.00  0.00     0.014 A 
ATOM     29  C   UNL A   1      42.546  23.066  26.206  1.00  0.00     0.010 A 
ATOM     30  C   UNL A   1      41.962  22.346  28.445  1.00  0.00     0.010 A 
ATOM     31  C   UNL A   1      42.370  23.361  27.569  1.00  0.00    -0.014 A 
BRANCH  31  32
ATOM     32  C   UNL A   1      42.652  24.717  28.099  1.00  0.00     0.031 A 
ATOM     33  C   UNL A   1      44.061  25.101  28.463  1.00  0.00     0.074 A 
ATOM     34  C   UNL A   1      41.640  25.583  28.295  1.00  0.00     0.049 A 
ATOM     35  N   UNL A   1      44.510  26.226  28.958  1.00  0.00    -0.248 NA
ATOM     36  C   UNL A   1      45.097  24.072  28.280  1.00  0.00     0.031 C 
ATOM     37  C   UNL A   1      40.224  25.304  28.045  1.00  0.00     0.029 A 
ATOM     38  N   UNL A   1      41.648  26.878  28.749  1.00  0.00    -0.354 N 
ATOM     39  C   UNL A   1      45.870  26.032  29.160  1.00  0.00     0.074 A 
ATOM     40  C   UNL A   1      46.162  24.663  28.800  1.00  0.00     0.031 C 
ATOM     41  C   UNL A   1      39.505  26.407  28.315  1.00  0.00     0.029 A 
ATOM     42  C   UNL A   1      40.404  27.458  28.780  1.00  0.00     0.049 A 
ATOM     43  H   UNL A   1      42.468  27.346  29.027  1.00  0.00     0.167 HD
ATOM     44  C   UNL A   1      46.802  26.923  29.575  1.00  0.00     0.037 A 
ATOM     45  C   UNL A   1      40.034  28.703  29.134  1.00  0.00     0.037 A 
ATOM     46  C   UNL A   1      46.514  28.295  29.895  1.00  0.00     0.049 A 
ATOM     47  C   UNL A   1      41.092  29.686  29.556  1.00  0.00     0.074 A 
ATOM     48  C   UNL A   1      47.392  29.298  30.264  1.00  0.00     0.029 A 
ATOM     49  N   UNL A   1      45.246  28.856  29.879  1.00  0.00    -0.354 N 
ATOM     50  N   UNL A   1      42.386  29.512  29.667  1.00  0.00    -0.248 NA
ATOM     51  C   UNL A   1      40.637  31.044  29.886  1.00  0.00     0.031 C 
ATOM     52  C   UNL A   1      46.650  30.460  30.504  1.00  0.00     0.029 A 
ATOM     53  C   UNL A   1      45.316  30.191  30.241  1.00  0.00     0.049 A 
ATOM     54  H   UNL A   1      44.419  28.378  29.644  1.00  0.00     0.167 HD
ATOM     55  C   UNL A   1      42.904  30.742  30.051  1.00  0.00     0.074 A 
ATOM     56  C   UNL A   1      41.784  31.657  30.136  1.00  0.00     0.031 C 
ATOM     57  C   UNL A   1      44.190  31.085  30.312  1.00  0.00     0.037 A 
BRANCH  44  58
ATOM     58  C   UNL A   1      48.218  26.437  29.689  1.00  0.00     0.057 A 
ATOM     59  C   UNL A   1      48.701  25.838  30.861  1.00  0.00     0.134 A 
ATOM     60  C   UNL A   1      49.106  26.558  28.613  1.00  0.00     0.134 A 
ATOM     61  F   UNL A   1      47.908  25.706  31.934  1.00  0.00    -0.206 F 
ATOM     62  C   UNL A   1      50.024  25.405  30.969  1.00  0.00     0.040 A 
ATOM     63  C   UNL A   1      50.423  26.103  28.700  1.00  0.00     0.040 A 
ATOM     64  F   UNL A   1      48.709  27.118  27.461  1.00  0.00    -0.206 F 
ATOM     65  C   UNL A   1      50.888  25.532  29.884  1.00  0.00     0.006 A 
ENDBRANCH  44  58
BRANCH  45  66
ATOM     66  C   UNL A   1      38.608  29.108  29.056  1.00  0.00     0.057 A 
ATOM     67  C   UNL A   1      38.061  29.592  27.861  1.00  0.00     0.134 A 
ATOM     68  C   UNL A   1      37.763  29.031  30.168  1.00  0.00     0.134 A 
ATOM     69  F   UNL A   1      38.826  29.704  26.765  1.00  0.00    -0.206 F 
ATOM     70  C   UNL A   1      36.731  30.008  27.781  1.00  0.00     0.040 A 
ATOM     71  C   UNL A   1      36.424  29.422  30.096  1.00  0.00     0.040 A 
ATOM     72  F   UNL A   1      38.223  28.567  31.339  1.00  0.00    -0.206 F 
ATOM     73  C   UNL A   1      35.907  29.919  28.901  1.00  0.00     0.006 A 
ENDBRANCH  45  66
BRANCH  57  74
ATOM     74  C   UNL A   1      44.453  32.517  30.675  1.00  0.00     0.057 A 
ATOM     75  C   UNL A   1      44.707  33.492  29.702  1.00  0.00     0.134 A 
ATOM     76  C   UNL A   1      44.428  32.928  32.014  1.00  0.00     0.134 A 
ATOM     77  F   UNL A   1      44.756  33.160  28.403  1.00  0.00    -0.206 F 
ATOM     78  C   UNL A   1      44.957  34.820  30.050  1.00  0.00     0.040 A 
ATOM     79  C   UNL A   1      44.648  34.258  32.372  1.00  0.00     0.040 A 
ATOM     80  F   UNL A   1      44.179  32.045  32.993  1.00  0.00    -0.206 F 
ATOM     81  C   UNL A   1      44.922  35.207  31.389  1.00  0.00     0.006 A 
ENDBRANCH  57  74
ENDBRANCH  31  32
ENDBRANCH  23  26
ENDBRANCH  21  22
ENDBRANCH  20  21
ENDBRANCH   1  20
TORSDOF 13
ENDMDL
MODEL 2
REMARK VINA RESULT:     -10.9      1.892      3.210
REMARK SMILES C[C@@H](CC(=O)NCCCCNC(=O)c1ccc(-c2c3nc(c(-c4c(F)cccc4F)c4ccc([nH]4)c(-c4c(F)cccc4F)c4nc(c(-c5c(F)cccc5F)c5ccc2[nH]5)C=C4)C=C3)cc1)c1cn(C)c(=O)n(C)c1=O
REMARK SMILES IDX 8 1 7 2 6 3 4 4 5 5 3 7 2 8 1 9 68 10 69 11 76 12 70 13
REMARK SMILES IDX 74 14 77 15 71 16 72 17 75 18 73 19 9 20 10 21 11 22 12 23
REMARK SMILES IDX 13 25 14 26 15 27 67 28 16 29 66 30 17 31 18 32 19 33 60 34
REMARK SMILES IDX 20 35 65 36 59 37 61 38 21 39 64 40 58 41 57 42 22 44 48 45
REMARK SMILES IDX 31 46 47 47 32 48 35 49 46 50 62 51 33 52 34 53 45 55 63 56
REMARK SMILES IDX 36 57 23 58 24 59 29 60 25 61 26 62 28 63 30 64 27 65 49 66
REMARK SMILES IDX 50 67 55 68 51 69 52 70 54 71 56 72 53 73 37 74 38 75 43 76
REMARK SMILES IDX 39 77 40 78 42 79 44 80 41 81
REMARK H PARENT 6 6 11 24 61 43 35 54
REMARK Flexibility Score: inf
ROOT
ATOM      1  C   UNL A   1      37.021  20.811  24.505  1.00  0.00     0.023 C 
ENDROOT
BRANCH   1   2
ATOM      2  C   UNL A   1      37.342  22.184  25.092  1.00  0.00     0.116 C 
BRANCH   2   3
ATOM      3  N   UNL A   1      36.475  23.184  24.516  1.00  0.00    -0.356 N 
ATOM      4  C   UNL A   1      35.278  23.652  24.955  1.00  0.00     0.220 C 
ATOM      5  O   UNL A   1      34.652  24.393  24.197  1.00  0.00    -0.275 OA
ATOM      6  H   UNL A   1      36.800  23.587  23.679  1.00  0.00     0.163 HD
BRANCH   4   7
ATOM      7  C   UNL A   1      34.772  23.310  26.345  1.00  0.00     0.108 C 
BRANCH   7   8
ATOM      8  C   UNL A   1      33.351  22.707  26.488  1.00  0.00     0.032 C 
ATOM      9  C   UNL A   1      32.998  22.473  27.968  1.00  0.00     0.013 C 
BRANCH   8  10
ATOM     10  C   UNL A   1      33.021  21.528  25.583  1.00  0.00     0.037 A 
ATOM     11  C   UNL A   1      33.227  20.233  25.864  1.00  0.00     0.100 A 
ATOM     12  C   UNL A   1      32.293  21.810  24.312  1.00  0.00     0.259 A 
ATOM     13  N   UNL A   1      32.891  19.222  24.996  1.00  0.00    -0.303 N 
ATOM     14  N   UNL A   1      32.324  20.808  23.364  1.00  0.00    -0.263 N 
ATOM     15  O   UNL A   1      31.683  22.869  24.180  1.00  0.00    -0.269 OA
ATOM     16  C   UNL A   1      32.971  17.834  25.427  1.00  0.00     0.154 C 
ATOM     17  C   UNL A   1      32.471  19.469  23.691  1.00  0.00     0.330 A 
ATOM     18  C   UNL A   1      31.926  21.132  22.011  1.00  0.00     0.158 C 
ATOM     19  O   UNL A   1      32.221  18.557  22.902  1.00  0.00    -0.248 OA
ENDBRANCH   8  10
ENDBRANCH   7   8
ENDBRANCH   4   7
ENDBRANCH   2   3
ENDBRANCH   1   2
BRANCH   1  20
ATOM     20  C   UNL A   1      37.948  19.688  24.971  1.00  0.00     0.023 C 
BRANCH  20  21
ATOM     21  C   UNL A   1      39.119  20.140  25.830  1.00  0.00     0.116 C 
BRANCH  21  22
ATOM     22  N   UNL A   1      40.269  19.251  25.746  1.00  0.00    -0.352 N 
ATOM     23  C   UNL A   1      41.585  19.523  26.024  1.00  0.00     0.251 C 
ATOM     24  H   UNL A   1      40.076  18.332  25.449  1.00  0.00     0.163 HD
ATOM     25  O   UNL A   1      42.452  18.687  25.788  1.00  0.00    -0.269 OA
BRANCH  23  26
ATOM     26  C   UNL A   1      41.951  20.841  26.578  1.00  0.00     0.039 A 
ATOM     27  C   UNL A   1      42.326  21.860  25.701  1.00  0.00     0.014 A 
ATOM     28  C   UNL A   1      41.897  21.077  27.954  1.00  0.00     0.014 A 
ATOM     29  C   UNL A   1      42.599  23.133  26.203  1.00  0.00     0.010 A 
ATOM     30  C   UNL A   1      42.076  22.365  28.441  1.00  0.00     0.010 A 
ATOM     31  C   UNL A   1      42.450  23.401  27.574  1.00  0.00    -0.014 A 
BRANCH  31  32
ATOM     32  C   UNL A   1      42.722  24.752  28.123  1.00  0.00     0.031 A 
ATOM     33  C   UNL A   1      44.124  25.132  28.514  1.00  0.00     0.074 A 
ATOM     34  C   UNL A   1      41.706  25.616  28.309  1.00  0.00     0.049 A 
ATOM     35  N   UNL A   1      44.565  26.252  29.028  1.00  0.00    -0.248 NA
ATOM     36  C   UNL A   1      45.164  24.105  28.339  1.00  0.00     0.031 C 
ATOM     37  C   UNL A   1      40.295  25.340  28.033  1.00  0.00     0.029 A 
ATOM     38  N   UNL A   1      41.707  26.906  28.776  1.00  0.00    -0.354 N 
ATOM     39  C   UNL A   1      45.921  26.056  29.251  1.00  0.00     0.074 A 
ATOM     40  C   UNL A   1      46.220  24.690  28.882  1.00  0.00     0.031 C 
ATOM     41  C   UNL A   1      39.572  26.440  28.301  1.00  0.00     0.029 A 
ATOM     42  C   UNL A   1      40.462  27.486  28.792  1.00  0.00     0.049 A 
ATOM     43  H   UNL A   1      42.522  27.371  29.073  1.00  0.00     0.167 HD
ATOM     44  C   UNL A   1      46.846  26.942  29.691  1.00  0.00     0.037 A 
ATOM     45  C   UNL A   1      40.087  28.728  29.152  1.00  0.00     0.037 A 
ATOM     46  C   UNL A   1      46.552  28.311  30.019  1.00  0.00     0.049 A 
ATOM     47  C   UNL A   1      41.137  29.707  29.601  1.00  0.00     0.074 A 
ATOM     48  C   UNL A   1      47.425  29.311  30.413  1.00  0.00     0.029 A 
ATOM     49  N   UNL A   1      45.285  28.873  29.987  1.00  0.00    -0.354 N 
ATOM     50  N   UNL A   1      42.429  29.531  29.732  1.00  0.00    -0.248 NA
ATOM     51  C   UNL A   1      40.676  31.061  29.937  1.00  0.00     0.031 C 
ATOM     52  C   UNL A   1      46.678  30.471  30.651  1.00  0.00     0.029 A 
ATOM     53  C   UNL A   1      45.349  30.204  30.363  1.00  0.00     0.049 A 
ATOM     54  H   UNL A   1      44.462  28.397  29.733  1.00  0.00     0.167 HD
ATOM     55  C   UNL A   1      42.940  30.758  30.137  1.00  0.00     0.074 A 
ATOM     56  C   UNL A   1      41.819  31.672  30.212  1.00  0.00     0.031 C 
ATOM     57  C   UNL A   1      44.221  31.098  30.424  1.00  0.00     0.037 A 
BRANCH  44  58
ATOM     58  C   UNL A   1      48.260  26.455  29.824  1.00  0.00     0.057 A 
ATOM     59  C   UNL A   1      48.716  25.823  30.989  1.00  0.00     0.134 A 
ATOM     60  C   UNL A   1      49.173  26.608  28.774  1.00  0.00     0.134 A 
ATOM     61  F   UNL A   1      47.899  25.660  32.039  1.00  0.00    -0.206 F 
ATOM     62  C   UNL A   1      50.038  25.390  31.116  1.00  0.00     0.040 A 
ATOM     63  C   UNL A   1      50.488  26.153  28.878  1.00  0.00     0.040 A 
ATOM     64  F   UNL A   1      48.802  27.201  27.629  1.00  0.00    -0.206 F 
ATOM     65  C   UNL A   1      50.926  25.549  30.056  1.00  0.00     0.006 A 
ENDBRANCH  44  58
BRANCH  45  66
ATOM     66  C   UNL A   1      38.662  29.134  29.053  1.00  0.00     0.057 A 
ATOM     67  C   UNL A   1      37.815  29.067  30.166  1.00  0.00     0.134 A 
ATOM     68  C   UNL A   1      38.111  29.586  27.850  1.00  0.00     0.134 A 
ATOM     69  F   UNL A   1      38.281  28.626  31.343  1.00  0.00    -0.206 F 
ATOM     70  C   UNL A   1      36.466  29.413  30.080  1.00  0.00     0.040 A 
ATOM     71  C   UNL A   1      36.769  29.959  27.755  1.00  0.00     0.040 A 
ATOM     72  F   UNL A   1      38.873  29.683  26.750  1.00  0.00    -0.206 F 
ATOM     73  C   UNL A   1      35.940  29.864  28.871  1.00  0.00     0.006 A 
ENDBRANCH  45  66
BRANCH  57  74
ATOM     74  C   UNL A   1      44.478  32.526  30.805  1.00  0.00     0.057 A 
ATOM     75  C   UNL A   1      44.751  33.510  29.846  1.00  0.00     0.134 A 
ATOM     76  C   UNL A   1      44.429  32.924  32.147  1.00  0.00     0.134 A 
ATOM     77  F   UNL A   1      44.824  33.190  28.545  1.00  0.00    -0.206 F 
ATOM     78  C   UNL A   1      44.995  34.835  30.211  1.00  0.00     0.040 A 
ATOM     79  C   UNL A   1      44.643  34.250  32.522  1.00  0.00     0.040 A 
ATOM     80  F   UNL A   1      44.162  32.032  33.113  1.00  0.00    -0.206 F 
ATOM     81  C   UNL A   1      44.935  35.209  31.553  1.00  0.00     0.006 A 
ENDBRANCH  57  74
ENDBRANCH  31  32
ENDBRANCH  23  26
ENDBRANCH  21  22
ENDBRANCH  20  21
ENDBRANCH   1  20
TORSDOF 13
ENDMDL
MODEL 3
REMARK VINA RESULT:     -10.9      3.997      9.488
REMARK SMILES C[C@@H](CC(=O)NCCCCNC(=O)c1ccc(-c2c3nc(c(-c4c(F)cccc4F)c4ccc([nH]4)c(-c4c(F)cccc4F)c4nc(c(-c5c(F)cccc5F)c5ccc2[nH]5)C=C4)C=C3)cc1)c1cn(C)c(=O)n(C)c1=O
REMARK SMILES IDX 8 1 7 2 6 3 4 4 5 5 3 7 2 8 1 9 68 10 69 11 76 12 70 13
REMARK SMILES IDX 74 14 77 15 71 16 72 17 75 18 73 19 9 20 10 21 11 22 12 23
REMARK SMILES IDX 13 25 14 26 15 27 67 28 16 29 66 30 17 31 18 32 19 33 60 34
REMARK SMILES IDX 20 35 65 36 59 37 61 38 21 39 64 40 58 41 57 42 22 44 48 45
REMARK SMILES IDX 31 46 47 47 32 48 35 49 46 50 62 51 33 52 34 53 45 55 63 56
REMARK SMILES IDX 36 57 23 58 24 59 29 60 25 61 26 62 28 63 30 64 27 65 49 66
REMARK SMILES IDX 50 67 55 68 51 69 52 70 54 71 56 72 53 73 37 74 38 75 43 76
REMARK SMILES IDX 39 77 40 78 42 79 44 80 41 81
REMARK H PARENT 6 6 11 24 61 43 35 54
REMARK Flexibility Score: inf
ROOT
ATOM      1  C   UNL A   1      31.504  30.644  25.957  1.00  0.00     0.023 C 
ENDROOT
BRANCH   1   2
ATOM      2  C   UNL A   1      32.899  30.080  26.215  1.00  0.00     0.116 C 
BRANCH   2   3
ATOM      3  N   UNL A   1      33.505  29.669  24.971  1.00  0.00    -0.356 N 
ATOM      4  C   UNL A   1      33.614  28.430  24.426  1.00  0.00     0.220 C 
ATOM      5  O   UNL A   1      34.323  28.316  23.426  1.00  0.00    -0.275 OA
ATOM      6  H   UNL A   1      33.899  30.396  24.437  1.00  0.00     0.163 HD
BRANCH   4   7
ATOM      7  C   UNL A   1      32.845  27.256  25.006  1.00  0.00     0.108 C 
BRANCH   7   8
ATOM      8  C   UNL A   1      32.784  25.937  24.193  1.00  0.00     0.032 C 
ATOM      9  C   UNL A   1      31.327  25.559  23.865  1.00  0.00     0.013 C 
BRANCH   8  10
ATOM     10  C   UNL A   1      33.616  24.777  24.721  1.00  0.00     0.037 A 
ATOM     11  C   UNL A   1      33.516  24.219  25.936  1.00  0.00     0.100 A 
ATOM     12  C   UNL A   1      34.553  24.107  23.773  1.00  0.00     0.259 A 
ATOM     13  N   UNL A   1      34.299  23.163  26.336  1.00  0.00    -0.303 N 
ATOM     14  N   UNL A   1      35.532  23.321  24.347  1.00  0.00    -0.263 N 
ATOM     15  O   UNL A   1      34.399  24.244  22.562  1.00  0.00    -0.269 OA
ATOM     16  C   UNL A   1      34.023  22.486  27.594  1.00  0.00     0.154 C 
ATOM     17  C   UNL A   1      35.372  22.702  25.577  1.00  0.00     0.330 A 
ATOM     18  C   UNL A   1      36.651  22.912  23.526  1.00  0.00     0.158 C 
ATOM     19  O   UNL A   1      36.101  21.788  25.965  1.00  0.00    -0.248 OA
ENDBRANCH   8  10
ENDBRANCH   7   8
ENDBRANCH   4   7
ENDBRANCH   2   3
ENDBRANCH   1   2
BRANCH   1  20
ATOM     20  C   UNL A   1      31.278  32.055  26.501  1.00  0.00     0.023 C 
BRANCH  20  21
ATOM     21  C   UNL A   1      32.504  32.706  27.121  1.00  0.00     0.116 C 
BRANCH  21  22
ATOM     22  N   UNL A   1      32.260  34.062  27.589  1.00  0.00    -0.352 N 
ATOM     23  C   UNL A   1      32.942  34.777  28.541  1.00  0.00     0.251 C 
ATOM     24  H   UNL A   1      31.504  34.529  27.166  1.00  0.00     0.163 HD
ATOM     25  O   UNL A   1      32.531  35.875  28.903  1.00  0.00    -0.269 OA
BRANCH  23  26
ATOM     26  C   UNL A   1      34.155  34.198  29.151  1.00  0.00     0.039 A 
ATOM     27  C   UNL A   1      34.015  33.301  30.212  1.00  0.00     0.014 A 
ATOM     28  C   UNL A   1      35.424  34.517  28.659  1.00  0.00     0.014 A 
ATOM     29  C   UNL A   1      35.148  32.686  30.746  1.00  0.00     0.010 A 
ATOM     30  C   UNL A   1      36.538  33.834  29.127  1.00  0.00     0.010 A 
ATOM     31  C   UNL A   1      36.415  32.928  30.189  1.00  0.00    -0.014 A 
BRANCH  31  32
ATOM     32  C   UNL A   1      37.627  32.271  30.736  1.00  0.00     0.031 A 
ATOM     33  C   UNL A   1      38.225  32.760  32.027  1.00  0.00     0.074 A 
ATOM     34  C   UNL A   1      38.213  31.270  30.052  1.00  0.00     0.049 A 
ATOM     35  N   UNL A   1      39.289  32.335  32.659  1.00  0.00    -0.248 NA
ATOM     36  C   UNL A   1      37.560  33.901  32.676  1.00  0.00     0.031 C 
ATOM     37  C   UNL A   1      37.768  30.754  28.756  1.00  0.00     0.029 A 
ATOM     38  N   UNL A   1      39.312  30.507  30.354  1.00  0.00    -0.354 N 
ATOM     39  C   UNL A   1      39.427  33.165  33.764  1.00  0.00     0.074 A 
ATOM     40  C   UNL A   1      38.382  34.160  33.682  1.00  0.00     0.031 C 
ATOM     41  C   UNL A   1      38.565  29.735  28.392  1.00  0.00     0.029 A 
ATOM     42  C   UNL A   1      39.589  29.545  29.413  1.00  0.00     0.049 A 
ATOM     43  H   UNL A   1      39.852  30.637  31.167  1.00  0.00     0.167 HD
ATOM     44  C   UNL A   1      40.323  33.087  34.777  1.00  0.00     0.037 A 
ATOM     45  C   UNL A   1      40.556  28.608  29.388  1.00  0.00     0.037 A 
ATOM     46  C   UNL A   1      41.337  32.072  34.876  1.00  0.00     0.049 A 
ATOM     47  C   UNL A   1      41.515  28.517  30.542  1.00  0.00     0.074 A 
ATOM     48  C   UNL A   1      42.254  31.863  35.891  1.00  0.00     0.029 A 
ATOM     49  N   UNL A   1      41.562  31.091  33.922  1.00  0.00    -0.354 N 
ATOM     50  N   UNL A   1      41.585  29.260  31.620  1.00  0.00    -0.248 NA
ATOM     51  C   UNL A   1      42.519  27.446  30.483  1.00  0.00     0.031 C 
ATOM     52  C   UNL A   1      43.057  30.774  35.534  1.00  0.00     0.029 A 
ATOM     53  C   UNL A   1      42.611  30.279  34.319  1.00  0.00     0.049 A 
ATOM     54  H   UNL A   1      41.052  30.986  33.087  1.00  0.00     0.167 HD
ATOM     55  C   UNL A   1      42.620  28.730  32.380  1.00  0.00     0.074 A 
ATOM     56  C   UNL A   1      43.136  27.593  31.646  1.00  0.00     0.031 C 
ATOM     57  C   UNL A   1      43.103  29.147  33.576  1.00  0.00     0.037 A 
BRANCH  44  58
ATOM     58  C   UNL A   1      40.228  34.121  35.862  1.00  0.00     0.057 A 
ATOM     59  C   UNL A   1      39.433  33.926  37.000  1.00  0.00     0.134 A 
ATOM     60  C   UNL A   1      40.947  35.319  35.775  1.00  0.00     0.134 A 
ATOM     61  F   UNL A   1      38.705  32.808  37.138  1.00  0.00    -0.206 F 
ATOM     62  C   UNL A   1      39.332  34.899  37.997  1.00  0.00     0.040 A 
ATOM     63  C   UNL A   1      40.877  36.286  36.779  1.00  0.00     0.040 A 
ATOM     64  F   UNL A   1      41.730  35.569  34.715  1.00  0.00    -0.206 F 
ATOM     65  C   UNL A   1      40.061  36.081  37.890  1.00  0.00     0.006 A 
ENDBRANCH  44  58
BRANCH  45  66
ATOM     66  C   UNL A   1      40.633  27.648  28.257  1.00  0.00     0.057 A 
ATOM     67  C   UNL A   1      39.956  26.424  28.304  1.00  0.00     0.134 A 
ATOM     68  C   UNL A   1      41.389  27.924  27.113  1.00  0.00     0.134 A 
ATOM     69  F   UNL A   1      39.228  26.096  29.381  1.00  0.00    -0.206 F 
ATOM     70  C   UNL A   1      40.046  25.498  27.264  1.00  0.00     0.040 A 
ATOM     71  C   UNL A   1      41.469  27.017  26.055  1.00  0.00     0.040 A 
ATOM     72  F   UNL A   1      42.053  29.084  27.003  1.00  0.00    -0.206 F 
ATOM     73  C   UNL A   1      40.803  25.796  26.132  1.00  0.00     0.006 A 
ENDBRANCH  45  66
BRANCH  57  74
ATOM     74  C   UNL A   1      44.218  28.344  34.179  1.00  0.00     0.057 A 
ATOM     75  C   UNL A   1      45.563  28.678  33.977  1.00  0.00     0.134 A 
ATOM     76  C   UNL A   1      43.940  27.237  34.990  1.00  0.00     0.134 A 
ATOM     77  F   UNL A   1      45.896  29.721  33.200  1.00  0.00    -0.206 F 
ATOM     78  C   UNL A   1      46.593  27.921  34.537  1.00  0.00     0.040 A 
ATOM     79  C   UNL A   1      44.960  26.490  35.579  1.00  0.00     0.040 A 
ATOM     80  F   UNL A   1      42.672  26.871  35.232  1.00  0.00    -0.206 F 
ATOM     81  C   UNL A   1      46.292  26.826  35.345  1.00  0.00     0.006 A 
ENDBRANCH  57  74
ENDBRANCH  31  32
ENDBRANCH  23  26
ENDBRANCH  21  22
ENDBRANCH  20  21
ENDBRANCH   1  20
TORSDOF 13
ENDMDL
