MODEL 1
REMARK VINA RESULT:     -11.9      0.000      0.000
REMARK SMILES CCCOc1ccccc1/C=C1\SC(=S)N([C@@H](C(=O)NCCCCNC(=O)c2ccc(-c3c4nc(c(-c5c(F)cccc5F)c5ccc([nH]5)c(-c5c(F)cccc5F)c5nc(c(-c6c(F)cccc6F)c6ccc3[nH]6)C=C5)C=C4)cc2)C(C)C)C1=O
REMARK SMILES IDX 21 1 20 2 18 3 19 4 17 6 16 7 11 8 12 9 13 10 85 11 14 12
REMARK SMILES IDX 86 13 15 14 10 15 5 16 6 17 7 18 9 19 8 20 4 21 3 22 2 23
REMARK SMILES IDX 1 24 82 25 83 26 84 27 22 28 23 29 24 30 25 31 26 32 27 34
REMARK SMILES IDX 28 35 29 36 81 37 30 38 80 39 31 40 32 41 33 42 74 43 34 44
REMARK SMILES IDX 79 45 73 46 75 47 35 48 78 49 72 50 71 51 36 53 62 54 45 55
REMARK SMILES IDX 61 56 46 57 49 58 60 59 76 60 47 61 48 62 59 64 77 65 50 66
REMARK SMILES IDX 37 67 38 68 43 69 39 70 40 71 42 72 44 73 41 74 63 75 64 76
REMARK SMILES IDX 69 77 65 78 66 79 68 80 70 81 67 82 51 83 52 84 57 85 53 86
REMARK SMILES IDX 54 87 56 88 58 89 55 90
REMARK H PARENT 20 5 25 33 75 52 49 63
REMARK Flexibility Score: inf
ROOT
ATOM      1  C   UNL A   1      32.805  29.841  25.976  1.00  0.00     0.116 C 
ENDROOT
BRANCH   1   2
ATOM      2  N   UNL A   1      33.081  29.728  24.562  1.00  0.00    -0.354 N 
ATOM      3  C   UNL A   1      32.761  28.743  23.672  1.00  0.00     0.243 C 
ATOM      4  O   UNL A   1      33.101  28.945  22.504  1.00  0.00    -0.273 OA
ATOM      5  H   UNL A   1      33.582  30.484  24.178  1.00  0.00     0.163 HD
BRANCH   3   6
ATOM      6  C   UNL A   1      31.882  27.529  24.103  1.00  0.00     0.184 C 
BRANCH   6   7
ATOM      7  N   UNL A   1      32.683  26.280  24.081  1.00  0.00    -0.280 N 
ATOM      8  C   UNL A   1      34.761  24.068  26.030  1.00  0.00     0.033 C 
ATOM      9  C   UNL A   1      34.042  24.600  25.032  1.00  0.00     0.081 C 
ATOM     10  S   UNL A   1      33.961  24.146  23.384  1.00  0.00    -0.054 SA
ATOM     11  C   UNL A   1      33.258  25.843  25.265  1.00  0.00     0.266 C 
ATOM     12  C   UNL A   1      32.987  25.544  22.951  1.00  0.00     0.149 C 
ATOM     13  O   UNL A   1      33.160  26.379  26.355  1.00  0.00    -0.268 OA
ATOM     14  S   UNL A   1      32.532  25.824  21.368  1.00  0.00    -0.052 S 
BRANCH   8  15
ATOM     15  C   UNL A   1      35.902  23.149  25.903  1.00  0.00     0.018 A 
ATOM     16  C   UNL A   1      35.706  21.788  25.593  1.00  0.00     0.126 A 
ATOM     17  C   UNL A   1      36.792  20.941  25.377  1.00  0.00     0.047 A 
ATOM     18  C   UNL A   1      38.085  21.461  25.382  1.00  0.00     0.004 A 
ATOM     19  C   UNL A   1      37.204  23.662  25.884  1.00  0.00     0.012 A 
ATOM     20  C   UNL A   1      38.290  22.821  25.621  1.00  0.00     0.001 A 
BRANCH  16  21
ATOM     21  O   UNL A   1      34.438  21.266  25.566  1.00  0.00    -0.493 OA
BRANCH  21  22
ATOM     22  C   UNL A   1      34.315  20.059  24.803  1.00  0.00     0.229 C 
BRANCH  22  23
ATOM     23  C   UNL A   1      32.904  19.911  24.227  1.00  0.00     0.038 C 
ATOM     24  C   UNL A   1      32.502  18.460  23.985  1.00  0.00     0.007 C 
ENDBRANCH  22  23
ENDBRANCH  21  22
ENDBRANCH  16  21
ENDBRANCH   8  15
ENDBRANCH   6   7
BRANCH   6  25
ATOM     25  C   UNL A   1      30.553  27.418  23.295  1.00  0.00     0.015 C 
ATOM     26  C   UNL A   1      29.571  26.412  23.914  1.00  0.00     0.010 C 
ATOM     27  C   UNL A   1      29.820  28.769  23.211  1.00  0.00     0.010 C 
ENDBRANCH   6  25
ENDBRANCH   3   6
ENDBRANCH   1   2
BRANCH   1  28
ATOM     28  C   UNL A   1      31.416  30.422  26.227  1.00  0.00     0.023 C 
BRANCH  28  29
ATOM     29  C   UNL A   1      31.397  31.926  26.485  1.00  0.00     0.023 C 
BRANCH  29  30
ATOM     30  C   UNL A   1      32.632  32.443  27.197  1.00  0.00     0.116 C 
BRANCH  30  31
ATOM     31  N   UNL A   1      32.489  33.824  27.630  1.00  0.00    -0.352 N 
ATOM     32  C   UNL A   1      33.211  34.498  28.579  1.00  0.00     0.251 C 
ATOM     33  H   UNL A   1      31.779  34.341  27.183  1.00  0.00     0.163 HD
ATOM     34  O   UNL A   1      32.866  35.616  28.944  1.00  0.00    -0.269 OA
BRANCH  32  35
ATOM     35  C   UNL A   1      34.394  33.848  29.174  1.00  0.00     0.039 A 
ATOM     36  C   UNL A   1      34.201  32.866  30.145  1.00  0.00     0.014 A 
ATOM     37  C   UNL A   1      35.683  34.194  28.757  1.00  0.00     0.014 A 
ATOM     38  C   UNL A   1      35.307  32.209  30.679  1.00  0.00     0.010 A 
ATOM     39  C   UNL A   1      36.773  33.467  29.214  1.00  0.00     0.010 A 
ATOM     40  C   UNL A   1      36.599  32.490  30.203  1.00  0.00    -0.014 A 
BRANCH  40  41
ATOM     41  C   UNL A   1      37.782  31.804  30.774  1.00  0.00     0.031 A 
ATOM     42  C   UNL A   1      38.256  32.152  32.158  1.00  0.00     0.074 A 
ATOM     43  C   UNL A   1      38.438  30.887  30.038  1.00  0.00     0.049 A 
ATOM     44  N   UNL A   1      39.256  31.653  32.839  1.00  0.00    -0.248 NA
ATOM     45  C   UNL A   1      37.529  33.222  32.862  1.00  0.00     0.031 C 
ATOM     46  C   UNL A   1      38.111  30.512  28.662  1.00  0.00     0.029 A 
ATOM     47  N   UNL A   1      39.516  30.100  30.350  1.00  0.00    -0.354 N 
ATOM     48  C   UNL A   1      39.281  32.353  34.039  1.00  0.00     0.074 A 
ATOM     49  C   UNL A   1      38.247  33.359  33.965  1.00  0.00     0.031 C 
ATOM     50  C   UNL A   1      38.942  29.536  28.262  1.00  0.00     0.029 A 
ATOM     51  C   UNL A   1      39.879  29.242  29.342  1.00  0.00     0.049 A 
ATOM     52  H   UNL A   1      39.985  30.146  31.214  1.00  0.00     0.167 HD
ATOM     53  C   UNL A   1      40.070  32.152  35.120  1.00  0.00     0.037 A 
ATOM     54  C   UNL A   1      40.855  28.316  29.300  1.00  0.00     0.037 A 
ATOM     55  C   UNL A   1      41.084  31.135  35.195  1.00  0.00     0.049 A 
ATOM     56  C   UNL A   1      41.713  28.107  30.516  1.00  0.00     0.074 A 
ATOM     57  C   UNL A   1      41.907  30.811  36.260  1.00  0.00     0.029 A 
ATOM     58  N   UNL A   1      41.416  30.274  34.158  1.00  0.00    -0.354 N 
ATOM     59  N   UNL A   1      41.676  28.721  31.674  1.00  0.00    -0.248 NA
ATOM     60  C   UNL A   1      42.740  27.060  30.425  1.00  0.00     0.031 C 
ATOM     61  C   UNL A   1      42.769  29.789  35.851  1.00  0.00     0.029 A 
ATOM     62  C   UNL A   1      42.444  29.433  34.551  1.00  0.00     0.049 A 
ATOM     63  H   UNL A   1      40.984  30.263  33.273  1.00  0.00     0.167 HD
ATOM     64  C   UNL A   1      42.651  28.117  32.458  1.00  0.00     0.074 A 
ATOM     65  C   UNL A   1      43.244  27.072  31.649  1.00  0.00     0.031 C 
ATOM     66  C   UNL A   1      43.022  28.399  33.732  1.00  0.00     0.037 A 
BRANCH  53  67
ATOM     67  C   UNL A   1      39.860  33.052  36.305  1.00  0.00     0.057 A 
ATOM     68  C   UNL A   1      40.589  34.238  36.473  1.00  0.00     0.134 A 
ATOM     69  C   UNL A   1      38.908  32.739  37.282  1.00  0.00     0.134 A 
ATOM     70  F   UNL A   1      41.529  34.591  35.583  1.00  0.00    -0.206 F 
ATOM     71  C   UNL A   1      40.400  35.062  37.584  1.00  0.00     0.040 A 
ATOM     72  C   UNL A   1      38.686  33.571  38.381  1.00  0.00     0.040 A 
ATOM     73  F   UNL A   1      38.172  31.622  37.184  1.00  0.00    -0.206 F 
ATOM     74  C   UNL A   1      39.441  34.732  38.539  1.00  0.00     0.006 A 
ENDBRANCH  53  67
BRANCH  54  75
ATOM     75  C   UNL A   1      41.048  27.490  28.080  1.00  0.00     0.057 A 
ATOM     76  C   UNL A   1      41.879  27.919  27.039  1.00  0.00     0.134 A 
ATOM     77  C   UNL A   1      40.397  26.261  27.920  1.00  0.00     0.134 A 
ATOM     78  F   UNL A   1      42.519  29.095  27.126  1.00  0.00    -0.206 F 
ATOM     79  C   UNL A   1      42.033  27.172  25.869  1.00  0.00     0.040 A 
ATOM     80  C   UNL A   1      40.564  25.490  26.769  1.00  0.00     0.040 A 
ATOM     81  F   UNL A   1      39.596  25.787  28.886  1.00  0.00    -0.206 F 
ATOM     82  C   UNL A   1      41.377  25.950  25.735  1.00  0.00     0.006 A 
ENDBRANCH  54  75
BRANCH  66  83
ATOM     83  C   UNL A   1      44.091  27.534  34.336  1.00  0.00     0.057 A 
ATOM     84  C   UNL A   1      45.445  27.891  34.305  1.00  0.00     0.134 A 
ATOM     85  C   UNL A   1      43.758  26.325  34.961  1.00  0.00     0.134 A 
ATOM     86  F   UNL A   1      45.834  29.031  33.713  1.00  0.00    -0.206 F 
ATOM     87  C   UNL A   1      46.433  27.059  34.835  1.00  0.00     0.040 A 
ATOM     88  C   UNL A   1      44.733  25.500  35.524  1.00  0.00     0.040 A 
ATOM     89  F   UNL A   1      42.479  25.926  35.039  1.00  0.00    -0.206 F 
ATOM     90  C   UNL A   1      46.076  25.861  35.450  1.00  0.00     0.006 A 
ENDBRANCH  66  83
ENDBRANCH  40  41
ENDBRANCH  32  35
ENDBRANCH  30  31
ENDBRANCH  29  30
ENDBRANCH  28  29
ENDBRANCH   1  28
TORSDOF 17
ENDMDL
MODEL 2
REMARK VINA RESULT:     -11.6      0.916      6.179
REMARK SMILES CCCOc1ccccc1/C=C1\SC(=S)N([C@@H](C(=O)NCCCCNC(=O)c2ccc(-c3c4nc(c(-c5c(F)cccc5F)c5ccc([nH]5)c(-c5c(F)cccc5F)c5nc(c(-c6c(F)cccc6F)c6ccc3[nH]6)C=C5)C=C4)cc2)C(C)C)C1=O
REMARK SMILES IDX 21 1 20 2 18 3 19 4 17 6 16 7 11 8 12 9 13 10 85 11 14 12
REMARK SMILES IDX 86 13 15 14 10 15 5 16 6 17 7 18 9 19 8 20 4 21 3 22 2 23
REMARK SMILES IDX 1 24 82 25 83 26 84 27 22 28 23 29 24 30 25 31 26 32 27 34
REMARK SMILES IDX 28 35 29 36 81 37 30 38 80 39 31 40 32 41 33 42 74 43 34 44
REMARK SMILES IDX 79 45 73 46 75 47 35 48 78 49 72 50 71 51 36 53 62 54 45 55
REMARK SMILES IDX 61 56 46 57 49 58 60 59 76 60 47 61 48 62 59 64 77 65 50 66
REMARK SMILES IDX 37 67 38 68 43 69 39 70 40 71 42 72 44 73 41 74 63 75 64 76
REMARK SMILES IDX 69 77 65 78 66 79 68 80 70 81 67 82 51 83 52 84 57 85 53 86
REMARK SMILES IDX 54 87 56 88 58 89 55 90
REMARK H PARENT 20 5 25 33 75 52 49 63
REMARK Flexibility Score: inf
ROOT
ATOM      1  C   UNL A   1      32.792  29.848  25.910  1.00  0.00     0.116 C 
ENDROOT
BRANCH   1   2
ATOM      2  N   UNL A   1      33.067  29.725  24.497  1.00  0.00    -0.354 N 
ATOM      3  C   UNL A   1      32.739  28.737  23.613  1.00  0.00     0.243 C 
ATOM      4  O   UNL A   1      33.079  28.930  22.443  1.00  0.00    -0.273 OA
ATOM      5  H   UNL A   1      33.573  30.475  24.108  1.00  0.00     0.163 HD
BRANCH   3   6
ATOM      6  C   UNL A   1      31.852  27.531  24.053  1.00  0.00     0.184 C 
BRANCH   6   7
ATOM      7  N   UNL A   1      32.640  26.275  24.023  1.00  0.00    -0.280 N 
ATOM      8  C   UNL A   1      34.664  24.009  25.967  1.00  0.00     0.033 C 
ATOM      9  C   UNL A   1      33.967  24.565  24.967  1.00  0.00     0.081 C 
ATOM     10  S   UNL A   1      33.906  24.138  23.311  1.00  0.00    -0.054 SA
ATOM     11  C   UNL A   1      33.192  25.812  25.208  1.00  0.00     0.266 C 
ATOM     12  C   UNL A   1      32.954  25.553  22.885  1.00  0.00     0.149 C 
ATOM     13  O   UNL A   1      33.082  26.332  26.305  1.00  0.00    -0.268 OA
ATOM     14  S   UNL A   1      32.526  25.863  21.300  1.00  0.00    -0.052 S 
BRANCH   8  15
ATOM     15  C   UNL A   1      35.797  23.080  25.843  1.00  0.00     0.018 A 
ATOM     16  C   UNL A   1      35.587  21.709  25.592  1.00  0.00     0.126 A 
ATOM     17  C   UNL A   1      36.663  20.849  25.377  1.00  0.00     0.047 A 
ATOM     18  C   UNL A   1      37.958  21.363  25.325  1.00  0.00     0.004 A 
ATOM     19  C   UNL A   1      37.100  23.586  25.766  1.00  0.00     0.012 A 
ATOM     20  C   UNL A   1      38.175  22.729  25.505  1.00  0.00     0.001 A 
BRANCH  16  21
ATOM     21  O   UNL A   1      34.317  21.193  25.622  1.00  0.00    -0.493 OA
BRANCH  21  22
ATOM     22  C   UNL A   1      34.065  20.193  24.626  1.00  0.00     0.229 C 
BRANCH  22  23
ATOM     23  C   UNL A   1      32.647  19.630  24.755  1.00  0.00     0.038 C 
ATOM     24  C   UNL A   1      32.153  18.946  23.485  1.00  0.00     0.007 C 
ENDBRANCH  22  23
ENDBRANCH  21  22
ENDBRANCH  16  21
ENDBRANCH   8  15
ENDBRANCH   6   7
BRANCH   6  25
ATOM     25  C   UNL A   1      30.514  27.434  23.257  1.00  0.00     0.015 C 
ATOM     26  C   UNL A   1      29.527  26.439  23.887  1.00  0.00     0.010 C 
ATOM     27  C   UNL A   1      29.795  28.793  23.178  1.00  0.00     0.010 C 
ENDBRANCH   6  25
ENDBRANCH   3   6
ENDBRANCH   1   2
BRANCH   1  28
ATOM     28  C   UNL A   1      31.373  30.353  26.160  1.00  0.00     0.023 C 
BRANCH  28  29
ATOM     29  C   UNL A   1      31.270  31.855  26.403  1.00  0.00     0.023 C 
BRANCH  29  30
ATOM     30  C   UNL A   1      32.538  32.477  26.956  1.00  0.00     0.116 C 
BRANCH  30  31
ATOM     31  N   UNL A   1      32.339  33.848  27.399  1.00  0.00    -0.352 N 
ATOM     32  C   UNL A   1      33.005  34.530  28.383  1.00  0.00     0.251 C 
ATOM     33  H   UNL A   1      31.634  34.351  26.931  1.00  0.00     0.163 HD
ATOM     34  O   UNL A   1      32.614  35.633  28.747  1.00  0.00    -0.269 OA
BRANCH  32  35
ATOM     35  C   UNL A   1      34.180  33.905  29.018  1.00  0.00     0.039 A 
ATOM     36  C   UNL A   1      35.452  34.271  28.579  1.00  0.00     0.014 A 
ATOM     37  C   UNL A   1      34.024  32.980  30.055  1.00  0.00     0.014 A 
ATOM     38  C   UNL A   1      36.572  33.726  29.204  1.00  0.00     0.010 A 
ATOM     39  C   UNL A   1      35.137  32.520  30.742  1.00  0.00     0.010 A 
ATOM     40  C   UNL A   1      36.423  32.863  30.303  1.00  0.00    -0.014 A 
BRANCH  40  41
ATOM     41  C   UNL A   1      37.608  32.269  30.966  1.00  0.00     0.031 A 
ATOM     42  C   UNL A   1      38.285  31.071  30.359  1.00  0.00     0.074 A 
ATOM     43  C   UNL A   1      38.057  32.796  32.120  1.00  0.00     0.049 A 
ATOM     44  N   UNL A   1      39.342  30.420  30.775  1.00  0.00    -0.248 NA
ATOM     45  C   UNL A   1      37.681  30.510  29.139  1.00  0.00     0.031 C 
ATOM     46  C   UNL A   1      37.446  33.917  32.836  1.00  0.00     0.029 A 
ATOM     47  N   UNL A   1      39.139  32.458  32.892  1.00  0.00    -0.354 N 
ATOM     48  C   UNL A   1      39.519  29.376  29.877  1.00  0.00     0.074 A 
ATOM     49  C   UNL A   1      38.423  29.433  28.938  1.00  0.00     0.031 C 
ATOM     50  C   UNL A   1      38.186  34.203  33.919  1.00  0.00     0.029 A 
ATOM     51  C   UNL A   1      39.303  33.266  33.990  1.00  0.00     0.049 A 
ATOM     52  H   UNL A   1      39.740  31.709  32.679  1.00  0.00     0.167 HD
ATOM     53  C   UNL A   1      40.525  28.472  29.817  1.00  0.00     0.037 A 
ATOM     54  C   UNL A   1      40.254  33.253  34.942  1.00  0.00     0.037 A 
ATOM     55  C   UNL A   1      41.625  28.433  30.743  1.00  0.00     0.049 A 
ATOM     56  C   UNL A   1      41.364  32.244  34.850  1.00  0.00     0.074 A 
ATOM     57  C   UNL A   1      42.723  27.591  30.745  1.00  0.00     0.029 A 
ATOM     58  N   UNL A   1      41.765  29.275  31.837  1.00  0.00    -0.354 N 
ATOM     59  N   UNL A   1      41.564  31.311  33.951  1.00  0.00    -0.248 NA
ATOM     60  C   UNL A   1      42.392  32.299  35.897  1.00  0.00     0.031 C 
ATOM     61  C   UNL A   1      43.501  27.892  31.868  1.00  0.00     0.029 A 
ATOM     62  C   UNL A   1      42.921  28.961  32.532  1.00  0.00     0.049 A 
ATOM     63  H   UNL A   1      41.135  29.991  32.083  1.00  0.00     0.167 HD
ATOM     64  C   UNL A   1      42.754  30.688  34.305  1.00  0.00     0.074 A 
ATOM     65  C   UNL A   1      43.241  31.369  35.488  1.00  0.00     0.031 C 
ATOM     66  C   UNL A   1      43.389  29.649  33.708  1.00  0.00     0.037 A 
BRANCH  53  67
ATOM     67  C   UNL A   1      40.475  27.456  28.710  1.00  0.00     0.057 A 
ATOM     68  C   UNL A   1      39.654  26.322  28.782  1.00  0.00     0.134 A 
ATOM     69  C   UNL A   1      41.244  27.621  27.553  1.00  0.00     0.134 A 
ATOM     70  F   UNL A   1      38.902  26.093  29.870  1.00  0.00    -0.206 F 
ATOM     71  C   UNL A   1      39.624  25.374  27.757  1.00  0.00     0.040 A 
ATOM     72  C   UNL A   1      41.199  26.697  26.507  1.00  0.00     0.040 A 
ATOM     73  F   UNL A   1      42.051  28.684  27.415  1.00  0.00    -0.206 F 
ATOM     74  C   UNL A   1      40.394  25.564  26.612  1.00  0.00     0.006 A 
ENDBRANCH  53  67
BRANCH  54  75
ATOM     75  C   UNL A   1      40.222  34.252  36.042  1.00  0.00     0.057 A 
ATOM     76  C   UNL A   1      39.568  33.978  37.250  1.00  0.00     0.134 A 
ATOM     77  C   UNL A   1      40.830  35.505  35.908  1.00  0.00     0.134 A 
ATOM     78  F   UNL A   1      38.954  32.800  37.433  1.00  0.00    -0.206 F 
ATOM     79  C   UNL A   1      39.494  34.925  38.273  1.00  0.00     0.040 A 
ATOM     80  C   UNL A   1      40.788  36.451  36.933  1.00  0.00     0.040 A 
ATOM     81  F   UNL A   1      41.482  35.825  34.781  1.00  0.00    -0.206 F 
ATOM     82  C   UNL A   1      40.110  36.165  38.117  1.00  0.00     0.006 A 
ENDBRANCH  54  75
BRANCH  66  83
ATOM     83  C   UNL A   1      44.698  29.218  34.305  1.00  0.00     0.057 A 
ATOM     84  C   UNL A   1      44.777  28.224  35.289  1.00  0.00     0.134 A 
ATOM     85  C   UNL A   1      45.898  29.806  33.884  1.00  0.00     0.134 A 
ATOM     86  F   UNL A   1      43.665  27.628  35.745  1.00  0.00    -0.206 F 
ATOM     87  C   UNL A   1      45.997  27.862  35.864  1.00  0.00     0.040 A 
ATOM     88  C   UNL A   1      47.127  29.428  34.427  1.00  0.00     0.040 A 
ATOM     89  F   UNL A   1      45.898  30.754  32.935  1.00  0.00    -0.206 F 
ATOM     90  C   UNL A   1      47.177  28.462  35.429  1.00  0.00     0.006 A 
ENDBRANCH  66  83
ENDBRANCH  40  41
ENDBRANCH  32  35
ENDBRANCH  30  31
ENDBRANCH  29  30
ENDBRANCH  28  29
ENDBRANCH   1  28
TORSDOF 17
ENDMDL
MODEL 3
REMARK VINA RESULT:     -11.1      1.258      2.141
REMARK SMILES CCCOc1ccccc1/C=C1\SC(=S)N([C@@H](C(=O)NCCCCNC(=O)c2ccc(-c3c4nc(c(-c5c(F)cccc5F)c5ccc([nH]5)c(-c5c(F)cccc5F)c5nc(c(-c6c(F)cccc6F)c6ccc3[nH]6)C=C5)C=C4)cc2)C(C)C)C1=O
REMARK SMILES IDX 21 1 20 2 18 3 19 4 17 6 16 7 11 8 12 9 13 10 85 11 14 12
REMARK SMILES IDX 86 13 15 14 10 15 5 16 6 17 7 18 9 19 8 20 4 21 3 22 2 23
REMARK SMILES IDX 1 24 82 25 83 26 84 27 22 28 23 29 24 30 25 31 26 32 27 34
REMARK SMILES IDX 28 35 29 36 81 37 30 38 80 39 31 40 32 41 33 42 74 43 34 44
REMARK SMILES IDX 79 45 73 46 75 47 35 48 78 49 72 50 71 51 36 53 62 54 45 55
REMARK SMILES IDX 61 56 46 57 49 58 60 59 76 60 47 61 48 62 59 64 77 65 50 66
REMARK SMILES IDX 37 67 38 68 43 69 39 70 40 71 42 72 44 73 41 74 63 75 64 76
REMARK SMILES IDX 69 77 65 78 66 79 68 80 70 81 67 82 51 83 52 84 57 85 53 86
REMARK SMILES IDX 54 87 56 88 58 89 55 90
REMARK H PARENT 20 5 25 33 75 52 49 63
REMARK Flexibility Score: inf
ROOT
ATOM      1  C   UNL A   1      32.802  30.034  26.008  1.00  0.00     0.116 C 
ENDROOT
BRANCH   1   2
ATOM      2  N   UNL A   1      33.342  29.748  24.699  1.00  0.00    -0.354 N 
ATOM      3  C   UNL A   1      32.950  28.842  23.756  1.00  0.00     0.243 C 
ATOM      4  O   UNL A   1      33.589  28.855  22.701  1.00  0.00    -0.273 OA
ATOM      5  H   UNL A   1      34.121  30.297  24.446  1.00  0.00     0.163 HD
BRANCH   3   6
ATOM      6  C   UNL A   1      31.673  27.971  23.965  1.00  0.00     0.184 C 
BRANCH   6   7
ATOM      7  N   UNL A   1      32.049  26.595  24.374  1.00  0.00    -0.280 N 
ATOM      8  C   UNL A   1      33.364  23.433  23.242  1.00  0.00     0.033 C 
ATOM      9  C   UNL A   1      32.899  24.422  24.018  1.00  0.00     0.081 C 
ATOM     10  S   UNL A   1      32.407  24.382  25.657  1.00  0.00    -0.054 SA
ATOM     11  C   UNL A   1      32.625  25.760  23.429  1.00  0.00     0.266 C 
ATOM     12  C   UNL A   1      31.796  26.029  25.610  1.00  0.00     0.149 C 
ATOM     13  O   UNL A   1      32.877  26.046  22.271  1.00  0.00    -0.268 OA
ATOM     14  S   UNL A   1      31.057  26.716  26.942  1.00  0.00    -0.052 S 
BRANCH   8  15
ATOM     15  C   UNL A   1      33.281  21.989  23.509  1.00  0.00     0.018 A 
ATOM     16  C   UNL A   1      34.022  21.401  24.553  1.00  0.00     0.126 A 
ATOM     17  C   UNL A   1      33.868  20.051  24.866  1.00  0.00     0.047 A 
ATOM     18  C   UNL A   1      32.909  19.292  24.197  1.00  0.00     0.004 A 
ATOM     19  C   UNL A   1      32.307  21.221  22.860  1.00  0.00     0.012 A 
ATOM     20  C   UNL A   1      32.121  19.879  23.206  1.00  0.00     0.001 A 
BRANCH  16  21
ATOM     21  O   UNL A   1      34.956  22.140  25.233  1.00  0.00    -0.493 OA
BRANCH  21  22
ATOM     22  C   UNL A   1      36.198  21.460  25.453  1.00  0.00     0.229 C 
BRANCH  22  23
ATOM     23  C   UNL A   1      37.264  21.918  24.453  1.00  0.00     0.038 C 
ATOM     24  C   UNL A   1      37.135  23.388  24.067  1.00  0.00     0.007 C 
ENDBRANCH  22  23
ENDBRANCH  21  22
ENDBRANCH  16  21
ENDBRANCH   8  15
ENDBRANCH   6   7
BRANCH   6  25
ATOM     25  C   UNL A   1      30.703  28.004  22.744  1.00  0.00     0.015 C 
ATOM     26  C   UNL A   1      29.330  27.395  23.067  1.00  0.00     0.010 C 
ATOM     27  C   UNL A   1      30.454  29.440  22.250  1.00  0.00     0.010 C 
ENDBRANCH   6  25
ENDBRANCH   3   6
ENDBRANCH   1   2
BRANCH   1  28
ATOM     28  C   UNL A   1      31.513  30.848  25.913  1.00  0.00     0.023 C 
BRANCH  28  29
ATOM     29  C   UNL A   1      31.413  31.993  26.917  1.00  0.00     0.023 C 
BRANCH  29  30
ATOM     30  C   UNL A   1      32.682  32.813  27.042  1.00  0.00     0.116 C 
BRANCH  30  31
ATOM     31  N   UNL A   1      32.440  34.132  27.605  1.00  0.00    -0.352 N 
ATOM     32  C   UNL A   1      33.125  34.770  28.605  1.00  0.00     0.251 C 
ATOM     33  H   UNL A   1      31.685  34.631  27.216  1.00  0.00     0.163 HD
ATOM     34  O   UNL A   1      32.701  35.818  29.077  1.00  0.00    -0.269 OA
BRANCH  32  35
ATOM     35  C   UNL A   1      34.365  34.162  29.124  1.00  0.00     0.039 A 
ATOM     36  C   UNL A   1      34.275  33.245  30.170  1.00  0.00     0.014 A 
ATOM     37  C   UNL A   1      35.605  34.483  28.563  1.00  0.00     0.014 A 
ATOM     38  C   UNL A   1      35.433  32.627  30.636  1.00  0.00     0.010 A 
ATOM     39  C   UNL A   1      36.740  33.789  28.958  1.00  0.00     0.010 A 
ATOM     40  C   UNL A   1      36.670  32.878  30.020  1.00  0.00    -0.014 A 
BRANCH  40  41
ATOM     41  C   UNL A   1      37.909  32.233  30.517  1.00  0.00     0.031 A 
ATOM     42  C   UNL A   1      38.607  32.785  31.730  1.00  0.00     0.074 A 
ATOM     43  C   UNL A   1      38.412  31.169  29.864  1.00  0.00     0.049 A 
ATOM     44  N   UNL A   1      39.688  32.352  32.328  1.00  0.00    -0.248 NA
ATOM     45  C   UNL A   1      38.033  33.998  32.335  1.00  0.00     0.031 C 
ATOM     46  C   UNL A   1      37.858  30.584  28.642  1.00  0.00     0.029 A 
ATOM     47  N   UNL A   1      39.502  30.386  30.143  1.00  0.00    -0.354 N 
ATOM     48  C   UNL A   1      39.924  33.243  33.368  1.00  0.00     0.074 A 
ATOM     49  C   UNL A   1      38.922  34.280  33.275  1.00  0.00     0.031 C 
ATOM     50  C   UNL A   1      38.586  29.509  28.300  1.00  0.00     0.029 A 
ATOM     51  C   UNL A   1      39.674  29.350  29.260  1.00  0.00     0.049 A 
ATOM     52  H   UNL A   1      40.103  30.552  30.904  1.00  0.00     0.167 HD
ATOM     53  C   UNL A   1      40.869  33.185  34.335  1.00  0.00     0.037 A 
ATOM     54  C   UNL A   1      40.603  28.377  29.234  1.00  0.00     0.037 A 
ATOM     55  C   UNL A   1      41.852  32.139  34.434  1.00  0.00     0.049 A 
ATOM     56  C   UNL A   1      41.638  28.329  30.324  1.00  0.00     0.074 A 
ATOM     57  C   UNL A   1      42.824  31.956  35.402  1.00  0.00     0.029 A 
ATOM     58  N   UNL A   1      41.989  31.097  33.527  1.00  0.00    -0.354 N 
ATOM     59  N   UNL A   1      41.804  29.132  31.346  1.00  0.00    -0.248 NA
ATOM     60  C   UNL A   1      42.606  27.225  30.265  1.00  0.00     0.031 C 
ATOM     61  C   UNL A   1      43.579  30.831  35.054  1.00  0.00     0.029 A 
ATOM     62  C   UNL A   1      43.041  30.278  33.903  1.00  0.00     0.049 A 
ATOM     63  H   UNL A   1      41.421  30.960  32.734  1.00  0.00     0.167 HD
ATOM     64  C   UNL A   1      42.872  28.616  32.069  1.00  0.00     0.074 A 
ATOM     65  C   UNL A   1      43.298  27.416  31.376  1.00  0.00     0.031 C 
ATOM     66  C   UNL A   1      43.450  29.088  33.201  1.00  0.00     0.037 A 
BRANCH  53  67
ATOM     67  C   UNL A   1      40.877  34.283  35.360  1.00  0.00     0.057 A 
ATOM     68  C   UNL A   1      41.571  35.485  35.153  1.00  0.00     0.134 A 
ATOM     69  C   UNL A   1      40.171  34.148  36.561  1.00  0.00     0.134 A 
ATOM     70  F   UNL A   1      42.282  35.676  34.031  1.00  0.00    -0.206 F 
ATOM     71  C   UNL A   1      41.587  36.496  36.116  1.00  0.00     0.040 A 
ATOM     72  C   UNL A   1      40.153  35.165  37.518  1.00  0.00     0.040 A 
ATOM     73  F   UNL A   1      39.483  33.027  36.825  1.00  0.00    -0.206 F 
ATOM     74  C   UNL A   1      40.871  36.339  37.300  1.00  0.00     0.006 A 
ENDBRANCH  53  67
BRANCH  54  75
ATOM     75  C   UNL A   1      40.575  27.345  28.165  1.00  0.00     0.057 A 
ATOM     76  C   UNL A   1      41.259  27.534  26.959  1.00  0.00     0.134 A 
ATOM     77  C   UNL A   1      39.853  26.156  28.317  1.00  0.00     0.134 A 
ATOM     78  F   UNL A   1      41.957  28.660  26.747  1.00  0.00    -0.206 F 
ATOM     79  C   UNL A   1      41.204  26.592  25.930  1.00  0.00     0.040 A 
ATOM     80  C   UNL A   1      39.812  25.192  27.309  1.00  0.00     0.040 A 
ATOM     81  F   UNL A   1      39.185  25.909  29.454  1.00  0.00    -0.206 F 
ATOM     82  C   UNL A   1      40.481  25.414  26.106  1.00  0.00     0.006 A 
ENDBRANCH  54  75
BRANCH  66  83
ATOM     83  C   UNL A   1      44.576  28.279  33.779  1.00  0.00     0.057 A 
ATOM     84  C   UNL A   1      45.917  28.538  33.466  1.00  0.00     0.134 A 
ATOM     85  C   UNL A   1      44.312  27.227  34.665  1.00  0.00     0.134 A 
ATOM     86  F   UNL A   1      46.239  29.525  32.616  1.00  0.00    -0.206 F 
ATOM     87  C   UNL A   1      46.951  27.752  33.979  1.00  0.00     0.040 A 
ATOM     88  C   UNL A   1      45.339  26.456  35.211  1.00  0.00     0.040 A 
ATOM     89  F   UNL A   1      43.052  26.931  35.019  1.00  0.00    -0.206 F 
ATOM     90  C   UNL A   1      46.662  26.711  34.858  1.00  0.00     0.006 A 
ENDBRANCH  66  83
ENDBRANCH  40  41
ENDBRANCH  32  35
ENDBRANCH  30  31
ENDBRANCH  29  30
ENDBRANCH  28  29
ENDBRANCH   1  28
TORSDOF 17
ENDMDL
