MODEL 1
REMARK VINA RESULT:     -14.0      0.000      0.000
REMARK SMILES Cc1cccc(-n2ncc(C(=O)Nc3cccc(C(=O)NCCCCNC(=O)c4ccc(-c5c6nc(c(-c7c(F)cccc7F)c7ccc([nH]7)c(-c7c(F)cccc7F)c7nc(c(-c8c(F)cccc8F)c8ccc5[nH]8)C=C7)C=C6)cc4)c3C)c2C)c1
REMARK SMILES IDX 23 1 22 2 21 3 19 4 20 5 18 7 14 8 15 9 83 10 16 11 84 12
REMARK SMILES IDX 17 13 13 14 11 15 12 16 10 18 7 19 8 20 85 21 9 22 86 23
REMARK SMILES IDX 6 24 1 25 2 26 3 27 87 28 4 29 5 30 24 31 25 32 26 33 27 34
REMARK SMILES IDX 28 36 29 37 30 38 82 39 31 40 81 41 32 42 33 43 34 44 75 45
REMARK SMILES IDX 35 46 80 47 74 48 76 49 36 50 79 51 73 52 72 53 37 55 63 56
REMARK SMILES IDX 46 57 62 58 47 59 50 60 61 61 77 62 48 63 49 64 60 66 78 67
REMARK SMILES IDX 51 68 38 69 39 70 44 71 40 72 41 73 43 74 45 75 42 76 64 77
REMARK SMILES IDX 65 78 70 79 66 80 67 81 69 82 71 83 68 84 52 85 53 86 58 87
REMARK SMILES IDX 54 88 55 89 57 90 59 91 56 92
REMARK H PARENT 21 6 13 17 26 35 76 54 50 65
REMARK Flexibility Score: inf
ROOT
ATOM      1  C   UNL A   1      32.015  29.965  26.504  1.00  0.00     0.023 C 
ENDROOT
BRANCH   1   2
ATOM      2  C   UNL A   1      31.097  30.558  25.437  1.00  0.00     0.116 C 
BRANCH   2   3
ATOM      3  N   UNL A   1      31.246  29.959  24.117  1.00  0.00    -0.352 N 
ATOM      4  C   UNL A   1      31.648  28.752  23.595  1.00  0.00     0.251 C 
ATOM      5  O   UNL A   1      31.488  28.646  22.376  1.00  0.00    -0.269 OA
ATOM      6  H   UNL A   1      30.992  30.591  23.407  1.00  0.00     0.163 HD
BRANCH   4   7
ATOM      7  C   UNL A   1      32.225  27.593  24.367  1.00  0.00     0.044 A 
ATOM      8  C   UNL A   1      31.952  25.702  25.883  1.00  0.00     0.045 A 
ATOM      9  C   UNL A   1      33.338  25.588  26.016  1.00  0.00     0.026 A 
ATOM     10  C   UNL A   1      31.380  26.598  24.947  1.00  0.00    -0.015 A 
ATOM     11  C   UNL A   1      34.161  26.513  25.410  1.00  0.00     0.003 A 
ATOM     12  C   UNL A   1      29.885  26.573  24.728  1.00  0.00     0.047 C 
ATOM     13  C   UNL A   1      33.593  27.547  24.671  1.00  0.00     0.014 A 
BRANCH   8  14
ATOM     14  N   UNL A   1      31.141  24.998  26.792  1.00  0.00    -0.322 N 
ATOM     15  C   UNL A   1      30.707  23.684  26.690  1.00  0.00     0.259 C 
ATOM     16  O   UNL A   1      29.769  23.325  27.402  1.00  0.00    -0.269 OA
ATOM     17  H   UNL A   1      30.849  25.494  27.591  1.00  0.00     0.170 HD
BRANCH  15  18
ATOM     18  C   UNL A   1      31.430  22.736  25.832  1.00  0.00     0.081 A 
ATOM     19  N   UNL A   1      32.849  21.182  25.065  1.00  0.00    -0.237 N 
ATOM     20  N   UNL A   1      32.188  21.628  23.970  1.00  0.00    -0.175 NA
ATOM     21  C   UNL A   1      32.509  21.926  26.192  1.00  0.00     0.054 A 
ATOM     22  C   UNL A   1      31.340  22.539  24.436  1.00  0.00     0.149 A 
ATOM     23  C   UNL A   1      33.280  21.933  27.464  1.00  0.00     0.068 C 
BRANCH  19  24
ATOM     24  C   UNL A   1      33.782  20.118  24.916  1.00  0.00     0.065 A 
ATOM     25  C   UNL A   1      33.649  16.403  24.064  1.00  0.00     0.044 C 
ATOM     26  C   UNL A   1      34.172  17.761  24.430  1.00  0.00    -0.049 A 
ATOM     27  C   UNL A   1      35.550  17.993  24.491  1.00  0.00     0.003 A 
ATOM     28  C   UNL A   1      33.292  18.822  24.674  1.00  0.00     0.031 A 
ATOM     29  C   UNL A   1      36.042  19.264  24.791  1.00  0.00     0.002 A 
ATOM     30  C   UNL A   1      35.161  20.329  25.002  1.00  0.00     0.028 A 
ENDBRANCH  19  24
ENDBRANCH  15  18
ENDBRANCH   8  14
ENDBRANCH   4   7
ENDBRANCH   2   3
ENDBRANCH   1   2
BRANCH   1  31
ATOM     31  C   UNL A   1      32.881  30.982  27.248  1.00  0.00     0.023 C 
BRANCH  31  32
ATOM     32  C   UNL A   1      34.209  30.447  27.778  1.00  0.00     0.116 C 
BRANCH  32  33
ATOM     33  N   UNL A   1      34.950  31.347  28.651  1.00  0.00    -0.352 N 
ATOM     34  C   UNL A   1      36.149  31.140  29.324  1.00  0.00     0.251 C 
ATOM     35  H   UNL A   1      34.543  32.233  28.783  1.00  0.00     0.163 HD
ATOM     36  O   UNL A   1      36.591  32.004  30.058  1.00  0.00    -0.269 OA
BRANCH  34  37
ATOM     37  C   UNL A   1      36.962  29.924  29.034  1.00  0.00     0.039 A 
ATOM     38  C   UNL A   1      37.111  28.982  30.062  1.00  0.00     0.014 A 
ATOM     39  C   UNL A   1      37.733  29.816  27.883  1.00  0.00     0.014 A 
ATOM     40  C   UNL A   1      38.218  28.135  30.058  1.00  0.00     0.010 A 
ATOM     41  C   UNL A   1      38.886  29.054  27.923  1.00  0.00     0.010 A 
ATOM     42  C   UNL A   1      39.169  28.284  29.053  1.00  0.00    -0.014 A 
BRANCH  42  43
ATOM     43  C   UNL A   1      40.545  27.819  29.182  1.00  0.00     0.031 A 
ATOM     44  C   UNL A   1      40.947  26.482  28.708  1.00  0.00     0.074 A 
ATOM     45  C   UNL A   1      41.485  28.680  29.640  1.00  0.00     0.049 A 
ATOM     46  N   UNL A   1      42.070  25.927  29.016  1.00  0.00    -0.248 NA
ATOM     47  C   UNL A   1      40.087  25.621  27.897  1.00  0.00     0.031 C 
ATOM     48  C   UNL A   1      42.938  28.551  29.550  1.00  0.00     0.029 A 
ATOM     49  N   UNL A   1      41.291  29.766  30.509  1.00  0.00    -0.354 N 
ATOM     50  C   UNL A   1      42.221  24.832  28.207  1.00  0.00     0.074 A 
ATOM     51  C   UNL A   1      40.912  24.596  27.652  1.00  0.00     0.031 C 
ATOM     52  C   UNL A   1      43.496  29.272  30.533  1.00  0.00     0.029 A 
ATOM     53  C   UNL A   1      42.417  29.763  31.371  1.00  0.00     0.049 A 
ATOM     54  H   UNL A   1      40.534  30.395  30.520  1.00  0.00     0.167 HD
ATOM     55  C   UNL A   1      43.474  24.346  27.993  1.00  0.00     0.037 A 
ATOM     56  C   UNL A   1      42.276  29.504  32.703  1.00  0.00     0.037 A 
ATOM     57  C   UNL A   1      44.423  24.855  28.985  1.00  0.00     0.049 A 
ATOM     58  C   UNL A   1      43.002  28.265  33.194  1.00  0.00     0.074 A 
ATOM     59  C   UNL A   1      45.508  25.714  28.976  1.00  0.00     0.029 A 
ATOM     60  N   UNL A   1      44.151  24.603  30.319  1.00  0.00    -0.354 N 
ATOM     61  N   UNL A   1      43.705  27.470  32.435  1.00  0.00    -0.248 NA
ATOM     62  C   UNL A   1      42.907  27.773  34.571  1.00  0.00     0.031 C 
ATOM     63  C   UNL A   1      45.819  26.038  30.336  1.00  0.00     0.029 A 
ATOM     64  C   UNL A   1      44.951  25.344  31.160  1.00  0.00     0.049 A 
ATOM     65  H   UNL A   1      43.465  23.968  30.630  1.00  0.00     0.167 HD
ATOM     66  C   UNL A   1      44.062  26.359  33.150  1.00  0.00     0.074 A 
ATOM     67  C   UNL A   1      43.561  26.602  34.490  1.00  0.00     0.031 C 
ATOM     68  C   UNL A   1      44.689  25.287  32.590  1.00  0.00     0.037 A 
BRANCH  55  69
ATOM     69  C   UNL A   1      43.875  23.495  26.812  1.00  0.00     0.057 A 
ATOM     70  C   UNL A   1      44.559  24.068  25.723  1.00  0.00     0.134 A 
ATOM     71  C   UNL A   1      43.509  22.145  26.622  1.00  0.00     0.134 A 
ATOM     72  F   UNL A   1      44.947  25.352  25.741  1.00  0.00    -0.206 F 
ATOM     73  C   UNL A   1      44.858  23.357  24.552  1.00  0.00     0.040 A 
ATOM     74  C   UNL A   1      43.854  21.408  25.482  1.00  0.00     0.040 A 
ATOM     75  F   UNL A   1      42.742  21.479  27.493  1.00  0.00    -0.206 F 
ATOM     76  C   UNL A   1      44.520  22.017  24.433  1.00  0.00     0.006 A 
ENDBRANCH  55  69
BRANCH  56  77
ATOM     77  C   UNL A   1      40.993  30.017  33.252  1.00  0.00     0.057 A 
ATOM     78  C   UNL A   1      40.863  31.400  33.479  1.00  0.00     0.134 A 
ATOM     79  C   UNL A   1      39.815  29.267  33.202  1.00  0.00     0.134 A 
ATOM     80  F   UNL A   1      41.954  32.180  33.536  1.00  0.00    -0.206 F 
ATOM     81  C   UNL A   1      39.616  32.024  33.534  1.00  0.00     0.040 A 
ATOM     82  C   UNL A   1      38.560  29.881  33.274  1.00  0.00     0.040 A 
ATOM     83  F   UNL A   1      39.855  27.949  32.963  1.00  0.00    -0.206 F 
ATOM     84  C   UNL A   1      38.458  31.266  33.397  1.00  0.00     0.006 A 
ENDBRANCH  56  77
BRANCH  68  85
ATOM     85  C   UNL A   1      45.068  24.068  33.376  1.00  0.00     0.057 A 
ATOM     86  C   UNL A   1      44.200  22.977  33.517  1.00  0.00     0.134 A 
ATOM     87  C   UNL A   1      46.263  24.007  34.116  1.00  0.00     0.134 A 
ATOM     88  F   UNL A   1      43.024  22.946  32.872  1.00  0.00    -0.206 F 
ATOM     89  C   UNL A   1      44.506  21.887  34.341  1.00  0.00     0.040 A 
ATOM     90  C   UNL A   1      46.560  22.946  34.975  1.00  0.00     0.040 A 
ATOM     91  F   UNL A   1      47.196  24.965  34.015  1.00  0.00    -0.206 F 
ATOM     92  C   UNL A   1      45.681  21.878  35.087  1.00  0.00     0.006 A 
ENDBRANCH  68  85
ENDBRANCH  42  43
ENDBRANCH  34  37
ENDBRANCH  32  33
ENDBRANCH  31  32
ENDBRANCH   1  31
TORSDOF 14
ENDMDL
MODEL 2
REMARK VINA RESULT:     -13.6      1.584      2.343
REMARK SMILES Cc1cccc(-n2ncc(C(=O)Nc3cccc(C(=O)NCCCCNC(=O)c4ccc(-c5c6nc(c(-c7c(F)cccc7F)c7ccc([nH]7)c(-c7c(F)cccc7F)c7nc(c(-c8c(F)cccc8F)c8ccc5[nH]8)C=C7)C=C6)cc4)c3C)c2C)c1
REMARK SMILES IDX 23 1 22 2 21 3 19 4 20 5 18 7 14 8 15 9 83 10 16 11 84 12
REMARK SMILES IDX 17 13 13 14 11 15 12 16 10 18 7 19 8 20 85 21 9 22 86 23
REMARK SMILES IDX 6 24 1 25 2 26 3 27 87 28 4 29 5 30 24 31 25 32 26 33 27 34
REMARK SMILES IDX 28 36 29 37 30 38 82 39 31 40 81 41 32 42 33 43 34 44 75 45
REMARK SMILES IDX 35 46 80 47 74 48 76 49 36 50 79 51 73 52 72 53 37 55 63 56
REMARK SMILES IDX 46 57 62 58 47 59 50 60 61 61 77 62 48 63 49 64 60 66 78 67
REMARK SMILES IDX 51 68 38 69 39 70 44 71 40 72 41 73 43 74 45 75 42 76 64 77
REMARK SMILES IDX 65 78 70 79 66 80 67 81 69 82 71 83 68 84 52 85 53 86 58 87
REMARK SMILES IDX 54 88 55 89 57 90 59 91 56 92
REMARK H PARENT 21 6 13 17 26 35 76 54 50 65
REMARK Flexibility Score: inf
ROOT
ATOM      1  C   UNL A   1      32.460  29.333  26.112  1.00  0.00     0.023 C 
ENDROOT
BRANCH   1   2
ATOM      2  C   UNL A   1      32.937  29.224  24.665  1.00  0.00     0.116 C 
BRANCH   2   3
ATOM      3  N   UNL A   1      31.877  28.950  23.704  1.00  0.00    -0.352 N 
ATOM      4  C   UNL A   1      31.020  27.915  23.412  1.00  0.00     0.251 C 
ATOM      5  O   UNL A   1      30.170  28.182  22.559  1.00  0.00    -0.269 OA
ATOM      6  H   UNL A   1      31.736  29.714  23.098  1.00  0.00     0.163 HD
BRANCH   4   7
ATOM      7  C   UNL A   1      31.029  26.545  24.040  1.00  0.00     0.044 A 
ATOM      8  C   UNL A   1      31.123  24.115  23.844  1.00  0.00     0.045 A 
ATOM      9  C   UNL A   1      30.787  23.977  25.192  1.00  0.00     0.026 A 
ATOM     10  C   UNL A   1      31.398  25.389  23.287  1.00  0.00    -0.015 A 
ATOM     11  C   UNL A   1      30.485  25.095  25.940  1.00  0.00     0.003 A 
ATOM     12  C   UNL A   1      31.911  25.473  21.868  1.00  0.00     0.047 C 
ATOM     13  C   UNL A   1      30.526  26.348  25.334  1.00  0.00     0.014 A 
BRANCH   8  14
ATOM     14  N   UNL A   1      31.056  22.973  23.025  1.00  0.00    -0.322 N 
ATOM     15  C   UNL A   1      32.048  22.023  22.823  1.00  0.00     0.259 C 
ATOM     16  O   UNL A   1      31.941  21.268  21.856  1.00  0.00    -0.269 OA
ATOM     17  H   UNL A   1      30.210  22.831  22.541  1.00  0.00     0.170 HD
BRANCH  15  18
ATOM     18  C   UNL A   1      33.127  21.867  23.807  1.00  0.00     0.081 A 
ATOM     19  N   UNL A   1      35.050  22.067  24.937  1.00  0.00    -0.237 N 
ATOM     20  N   UNL A   1      34.394  21.042  25.534  1.00  0.00    -0.175 NA
ATOM     21  C   UNL A   1      34.370  22.502  23.803  1.00  0.00     0.054 A 
ATOM     22  C   UNL A   1      33.250  20.940  24.866  1.00  0.00     0.149 A 
ATOM     23  C   UNL A   1      34.962  23.359  22.740  1.00  0.00     0.068 C 
BRANCH  19  24
ATOM     24  C   UNL A   1      36.293  22.495  25.483  1.00  0.00     0.065 A 
ATOM     25  C   UNL A   1      39.779  21.020  25.950  1.00  0.00     0.044 C 
ATOM     26  C   UNL A   1      38.620  21.973  25.987  1.00  0.00    -0.049 A 
ATOM     27  C   UNL A   1      38.802  23.287  26.428  1.00  0.00     0.003 A 
ATOM     28  C   UNL A   1      37.354  21.574  25.544  1.00  0.00     0.031 A 
ATOM     29  C   UNL A   1      37.737  24.189  26.428  1.00  0.00     0.002 A 
ATOM     30  C   UNL A   1      36.483  23.797  25.953  1.00  0.00     0.028 A 
ENDBRANCH  19  24
ENDBRANCH  15  18
ENDBRANCH   8  14
ENDBRANCH   4   7
ENDBRANCH   2   3
ENDBRANCH   1   2
BRANCH   1  31
ATOM     31  C   UNL A   1      33.149  30.421  26.938  1.00  0.00     0.023 C 
BRANCH  31  32
ATOM     32  C   UNL A   1      34.610  30.149  27.288  1.00  0.00     0.116 C 
BRANCH  32  33
ATOM     33  N   UNL A   1      35.244  31.130  28.157  1.00  0.00    -0.352 N 
ATOM     34  C   UNL A   1      36.422  31.033  28.891  1.00  0.00     0.251 C 
ATOM     35  H   UNL A   1      34.771  31.989  28.237  1.00  0.00     0.163 HD
ATOM     36  O   UNL A   1      36.768  31.951  29.610  1.00  0.00    -0.269 OA
BRANCH  34  37
ATOM     37  C   UNL A   1      37.331  29.869  28.685  1.00  0.00     0.039 A 
ATOM     38  C   UNL A   1      37.414  28.919  29.712  1.00  0.00     0.014 A 
ATOM     39  C   UNL A   1      38.234  29.823  27.629  1.00  0.00     0.014 A 
ATOM     40  C   UNL A   1      38.560  28.135  29.828  1.00  0.00     0.010 A 
ATOM     41  C   UNL A   1      39.416  29.125  27.795  1.00  0.00     0.010 A 
ATOM     42  C   UNL A   1      39.610  28.353  28.942  1.00  0.00    -0.014 A 
BRANCH  42  43
ATOM     43  C   UNL A   1      40.986  27.962  29.225  1.00  0.00     0.031 A 
ATOM     44  C   UNL A   1      41.549  26.706  28.694  1.00  0.00     0.074 A 
ATOM     45  C   UNL A   1      41.788  28.830  29.888  1.00  0.00     0.049 A 
ATOM     46  N   UNL A   1      42.656  26.193  29.109  1.00  0.00    -0.248 NA
ATOM     47  C   UNL A   1      40.875  25.880  27.694  1.00  0.00     0.031 C 
ATOM     48  C   UNL A   1      43.245  28.800  29.997  1.00  0.00     0.029 A 
ATOM     49  N   UNL A   1      41.396  29.809  30.816  1.00  0.00    -0.354 N 
ATOM     50  C   UNL A   1      42.998  25.196  28.235  1.00  0.00     0.074 A 
ATOM     51  C   UNL A   1      41.800  24.937  27.479  1.00  0.00     0.031 C 
ATOM     52  C   UNL A   1      43.608  29.451  31.111  1.00  0.00     0.029 A 
ATOM     53  C   UNL A   1      42.390  29.789  31.826  1.00  0.00     0.049 A 
ATOM     54  H   UNL A   1      40.600  30.387  30.774  1.00  0.00     0.167 HD
ATOM     55  C   UNL A   1      44.302  24.811  28.160  1.00  0.00     0.037 A 
ATOM     56  C   UNL A   1      42.088  29.390  33.095  1.00  0.00     0.037 A 
ATOM     57  C   UNL A   1      45.065  25.276  29.320  1.00  0.00     0.049 A 
ATOM     58  C   UNL A   1      42.830  28.155  33.572  1.00  0.00     0.074 A 
ATOM     59  C   UNL A   1      46.074  26.196  29.545  1.00  0.00     0.029 A 
ATOM     60  N   UNL A   1      44.632  24.875  30.574  1.00  0.00    -0.354 N 
ATOM     61  N   UNL A   1      43.688  27.485  32.853  1.00  0.00    -0.248 NA
ATOM     62  C   UNL A   1      42.584  27.523  34.871  1.00  0.00     0.031 C 
ATOM     63  C   UNL A   1      46.171  26.401  30.959  1.00  0.00     0.029 A 
ATOM     64  C   UNL A   1      45.252  25.576  31.584  1.00  0.00     0.049 A 
ATOM     65  H   UNL A   1      43.959  24.172  30.724  1.00  0.00     0.167 HD
ATOM     66  C   UNL A   1      44.026  26.332  33.509  1.00  0.00     0.074 A 
ATOM     67  C   UNL A   1      43.329  26.408  34.779  1.00  0.00     0.031 C 
ATOM     68  C   UNL A   1      44.801  25.362  32.950  1.00  0.00     0.037 A 
BRANCH  55  69
ATOM     69  C   UNL A   1      44.923  24.108  26.977  1.00  0.00     0.057 A 
ATOM     70  C   UNL A   1      45.789  24.804  26.112  1.00  0.00     0.134 A 
ATOM     71  C   UNL A   1      44.616  22.796  26.559  1.00  0.00     0.134 A 
ATOM     72  F   UNL A   1      46.151  26.072  26.359  1.00  0.00    -0.206 F 
ATOM     73  C   UNL A   1      46.306  24.240  24.937  1.00  0.00     0.040 A 
ATOM     74  C   UNL A   1      45.173  22.202  25.419  1.00  0.00     0.040 A 
ATOM     75  F   UNL A   1      43.710  22.036  27.185  1.00  0.00    -0.206 F 
ATOM     76  C   UNL A   1      46.013  22.928  24.594  1.00  0.00     0.006 A 
ENDBRANCH  55  69
BRANCH  56  77
ATOM     77  C   UNL A   1      40.707  29.767  33.498  1.00  0.00     0.057 A 
ATOM     78  C   UNL A   1      40.448  31.106  33.844  1.00  0.00     0.134 A 
ATOM     79  C   UNL A   1      39.605  28.963  33.198  1.00  0.00     0.134 A 
ATOM     80  F   UNL A   1      41.462  31.935  34.142  1.00  0.00    -0.206 F 
ATOM     81  C   UNL A   1      39.165  31.650  33.778  1.00  0.00     0.040 A 
ATOM     82  C   UNL A   1      38.311  29.494  33.147  1.00  0.00     0.040 A 
ATOM     83  F   UNL A   1      39.771  27.684  32.833  1.00  0.00    -0.206 F 
ATOM     84  C   UNL A   1      38.095  30.848  33.394  1.00  0.00     0.006 A 
ENDBRANCH  56  77
BRANCH  68  85
ATOM     85  C   UNL A   1      45.158  24.095  33.669  1.00  0.00     0.057 A 
ATOM     86  C   UNL A   1      44.286  23.000  33.721  1.00  0.00     0.134 A 
ATOM     87  C   UNL A   1      46.334  23.986  34.434  1.00  0.00     0.134 A 
ATOM     88  F   UNL A   1      43.127  23.012  33.046  1.00  0.00    -0.206 F 
ATOM     89  C   UNL A   1      44.570  21.860  34.484  1.00  0.00     0.040 A 
ATOM     90  C   UNL A   1      46.608  22.873  35.233  1.00  0.00     0.040 A 
ATOM     91  F   UNL A   1      47.271  24.946  34.416  1.00  0.00    -0.206 F 
ATOM     92  C   UNL A   1      45.725  21.803  35.258  1.00  0.00     0.006 A 
ENDBRANCH  68  85
ENDBRANCH  42  43
ENDBRANCH  34  37
ENDBRANCH  32  33
ENDBRANCH  31  32
ENDBRANCH   1  31
TORSDOF 14
ENDMDL
MODEL 3
REMARK VINA RESULT:     -13.5      3.813      9.493
REMARK SMILES Cc1cccc(-n2ncc(C(=O)Nc3cccc(C(=O)NCCCCNC(=O)c4ccc(-c5c6nc(c(-c7c(F)cccc7F)c7ccc([nH]7)c(-c7c(F)cccc7F)c7nc(c(-c8c(F)cccc8F)c8ccc5[nH]8)C=C7)C=C6)cc4)c3C)c2C)c1
REMARK SMILES IDX 23 1 22 2 21 3 19 4 20 5 18 7 14 8 15 9 83 10 16 11 84 12
REMARK SMILES IDX 17 13 13 14 11 15 12 16 10 18 7 19 8 20 85 21 9 22 86 23
REMARK SMILES IDX 6 24 1 25 2 26 3 27 87 28 4 29 5 30 24 31 25 32 26 33 27 34
REMARK SMILES IDX 28 36 29 37 30 38 82 39 31 40 81 41 32 42 33 43 34 44 75 45
REMARK SMILES IDX 35 46 80 47 74 48 76 49 36 50 79 51 73 52 72 53 37 55 63 56
REMARK SMILES IDX 46 57 62 58 47 59 50 60 61 61 77 62 48 63 49 64 60 66 78 67
REMARK SMILES IDX 51 68 38 69 39 70 44 71 40 72 41 73 43 74 45 75 42 76 64 77
REMARK SMILES IDX 65 78 70 79 66 80 67 81 69 82 71 83 68 84 52 85 53 86 58 87
REMARK SMILES IDX 54 88 55 89 57 90 59 91 56 92
REMARK H PARENT 21 6 13 17 26 35 76 54 50 65
REMARK Flexibility Score: inf
ROOT
ATOM      1  C   UNL A   1      36.495  21.262  25.291  1.00  0.00     0.023 C 
ENDROOT
BRANCH   1   2
ATOM      2  C   UNL A   1      35.334  21.624  26.216  1.00  0.00     0.116 C 
BRANCH   2   3
ATOM      3  N   UNL A   1      34.075  20.972  25.882  1.00  0.00    -0.352 N 
ATOM      4  C   UNL A   1      32.995  21.218  25.067  1.00  0.00     0.251 C 
ATOM      5  O   UNL A   1      32.182  20.292  25.006  1.00  0.00    -0.269 OA
ATOM      6  H   UNL A   1      33.969  20.126  26.373  1.00  0.00     0.163 HD
BRANCH   4   7
ATOM      7  C   UNL A   1      32.749  22.471  24.266  1.00  0.00     0.044 A 
ATOM      8  C   UNL A   1      31.300  24.315  23.593  1.00  0.00     0.045 A 
ATOM      9  C   UNL A   1      32.191  24.665  22.576  1.00  0.00     0.026 A 
ATOM     10  C   UNL A   1      31.633  23.318  24.543  1.00  0.00    -0.015 A 
ATOM     11  C   UNL A   1      33.301  23.882  22.341  1.00  0.00     0.003 A 
ATOM     12  C   UNL A   1      30.707  23.086  25.716  1.00  0.00     0.047 C 
ATOM     13  C   UNL A   1      33.517  22.754  23.128  1.00  0.00     0.014 A 
BRANCH   8  14
ATOM     14  N   UNL A   1      30.015  24.886  23.572  1.00  0.00    -0.322 N 
ATOM     15  C   UNL A   1      29.632  26.119  24.083  1.00  0.00     0.259 C 
ATOM     16  O   UNL A   1      28.432  26.330  24.253  1.00  0.00    -0.269 OA
ATOM     17  H   UNL A   1      29.306  24.351  23.146  1.00  0.00     0.170 HD
BRANCH  15  18
ATOM     18  C   UNL A   1      30.639  27.166  24.303  1.00  0.00     0.081 A 
ATOM     19  N   UNL A   1      32.171  28.514  25.225  1.00  0.00    -0.237 N 
ATOM     20  N   UNL A   1      31.952  29.022  23.988  1.00  0.00    -0.175 NA
ATOM     21  C   UNL A   1      31.294  27.468  25.498  1.00  0.00     0.054 A 
ATOM     22  C   UNL A   1      31.053  28.209  23.444  1.00  0.00     0.149 A 
ATOM     23  C   UNL A   1      31.030  26.919  26.856  1.00  0.00     0.068 C 
BRANCH  19  24
ATOM     24  C   UNL A   1      33.166  29.115  26.046  1.00  0.00     0.065 A 
ATOM     25  C   UNL A   1      33.575  32.374  27.984  1.00  0.00     0.044 C 
ATOM     26  C   UNL A   1      33.858  31.022  27.398  1.00  0.00    -0.049 A 
ATOM     27  C   UNL A   1      35.014  30.324  27.761  1.00  0.00     0.003 A 
ATOM     28  C   UNL A   1      32.952  30.423  26.514  1.00  0.00     0.031 A 
ATOM     29  C   UNL A   1      35.263  29.049  27.250  1.00  0.00     0.002 A 
ATOM     30  C   UNL A   1      34.340  28.441  26.395  1.00  0.00     0.028 A 
ENDBRANCH  19  24
ENDBRANCH  15  18
ENDBRANCH   8  14
ENDBRANCH   4   7
ENDBRANCH   2   3
ENDBRANCH   1   2
BRANCH   1  31
ATOM     31  C   UNL A   1      37.419  22.425  24.929  1.00  0.00     0.023 C 
BRANCH  31  32
ATOM     32  C   UNL A   1      37.839  23.314  26.097  1.00  0.00     0.116 C 
BRANCH  32  33
ATOM     33  N   UNL A   1      39.152  23.037  26.662  1.00  0.00    -0.352 N 
ATOM     34  C   UNL A   1      40.047  23.898  27.289  1.00  0.00     0.251 C 
ATOM     35  H   UNL A   1      39.451  22.101  26.590  1.00  0.00     0.163 HD
ATOM     36  O   UNL A   1      41.132  23.486  27.654  1.00  0.00    -0.269 OA
BRANCH  34  37
ATOM     37  C   UNL A   1      39.619  25.281  27.645  1.00  0.00     0.039 A 
ATOM     38  C   UNL A   1      39.981  26.317  26.773  1.00  0.00     0.014 A 
ATOM     39  C   UNL A   1      39.083  25.584  28.891  1.00  0.00     0.014 A 
ATOM     40  C   UNL A   1      40.083  27.618  27.262  1.00  0.00     0.010 A 
ATOM     41  C   UNL A   1      39.279  26.850  29.409  1.00  0.00     0.010 A 
ATOM     42  C   UNL A   1      39.864  27.841  28.618  1.00  0.00    -0.014 A 
BRANCH  42  43
ATOM     43  C   UNL A   1      40.376  29.008  29.327  1.00  0.00     0.031 A 
ATOM     44  C   UNL A   1      39.491  30.129  29.694  1.00  0.00     0.074 A 
ATOM     45  C   UNL A   1      41.662  28.999  29.755  1.00  0.00     0.049 A 
ATOM     46  N   UNL A   1      39.925  31.276  30.090  1.00  0.00    -0.248 NA
ATOM     47  C   UNL A   1      38.034  30.076  29.580  1.00  0.00     0.031 C 
ATOM     48  C   UNL A   1      42.285  29.883  30.738  1.00  0.00     0.029 A 
ATOM     49  N   UNL A   1      42.742  28.306  29.185  1.00  0.00    -0.354 N 
ATOM     50  C   UNL A   1      38.854  31.970  30.586  1.00  0.00     0.074 A 
ATOM     51  C   UNL A   1      37.696  31.260  30.107  1.00  0.00     0.031 C 
ATOM     52  C   UNL A   1      43.604  29.926  30.503  1.00  0.00     0.029 A 
ATOM     53  C   UNL A   1      43.845  29.191  29.275  1.00  0.00     0.049 A 
ATOM     54  H   UNL A   1      42.735  27.398  28.803  1.00  0.00     0.167 HD
ATOM     55  C   UNL A   1      39.082  32.984  31.466  1.00  0.00     0.037 A 
ATOM     56  C   UNL A   1      44.421  29.707  28.150  1.00  0.00     0.037 A 
ATOM     57  C   UNL A   1      40.482  33.411  31.439  1.00  0.00     0.049 A 
ATOM     58  C   UNL A   1      44.346  31.218  28.030  1.00  0.00     0.074 A 
ATOM     59  C   UNL A   1      41.560  33.348  32.304  1.00  0.00     0.029 A 
ATOM     60  N   UNL A   1      40.995  33.849  30.228  1.00  0.00    -0.354 N 
ATOM     61  N   UNL A   1      43.773  32.002  28.901  1.00  0.00    -0.248 NA
ATOM     62  C   UNL A   1      44.831  31.953  26.859  1.00  0.00     0.031 C 
ATOM     63  C   UNL A   1      42.739  33.672  31.559  1.00  0.00     0.029 A 
ATOM     64  C   UNL A   1      42.366  33.969  30.260  1.00  0.00     0.049 A 
ATOM     65  H   UNL A   1      40.442  34.051  29.439  1.00  0.00     0.167 HD
ATOM     66  C   UNL A   1      43.720  33.274  28.398  1.00  0.00     0.074 A 
ATOM     67  C   UNL A   1      44.415  33.202  27.127  1.00  0.00     0.031 C 
ATOM     68  C   UNL A   1      43.059  34.289  29.022  1.00  0.00     0.037 A 
BRANCH  55  69
ATOM     69  C   UNL A   1      38.063  33.518  32.443  1.00  0.00     0.057 A 
ATOM     70  C   UNL A   1      38.187  33.245  33.818  1.00  0.00     0.134 A 
ATOM     71  C   UNL A   1      36.875  34.193  32.090  1.00  0.00     0.134 A 
ATOM     72  F   UNL A   1      39.247  32.584  34.306  1.00  0.00    -0.206 F 
ATOM     73  C   UNL A   1      37.215  33.617  34.759  1.00  0.00     0.040 A 
ATOM     74  C   UNL A   1      35.927  34.622  33.027  1.00  0.00     0.040 A 
ATOM     75  F   UNL A   1      36.528  34.419  30.818  1.00  0.00    -0.206 F 
ATOM     76  C   UNL A   1      36.087  34.323  34.368  1.00  0.00     0.006 A 
ENDBRANCH  55  69
BRANCH  56  77
ATOM     77  C   UNL A   1      44.396  28.755  27.008  1.00  0.00     0.057 A 
ATOM     78  C   UNL A   1      45.309  27.685  27.003  1.00  0.00     0.134 A 
ATOM     79  C   UNL A   1      43.295  28.656  26.153  1.00  0.00     0.134 A 
ATOM     80  F   UNL A   1      46.387  27.713  27.803  1.00  0.00    -0.206 F 
ATOM     81  C   UNL A   1      45.076  26.519  26.272  1.00  0.00     0.040 A 
ATOM     82  C   UNL A   1      43.061  27.499  25.401  1.00  0.00     0.040 A 
ATOM     83  F   UNL A   1      42.367  29.623  26.120  1.00  0.00    -0.206 F 
ATOM     84  C   UNL A   1      43.928  26.412  25.493  1.00  0.00     0.006 A 
ENDBRANCH  56  77
BRANCH  68  85
ATOM     85  C   UNL A   1      42.995  35.678  28.462  1.00  0.00     0.057 A 
ATOM     86  C   UNL A   1      41.921  36.111  27.673  1.00  0.00     0.134 A 
ATOM     87  C   UNL A   1      44.067  36.580  28.594  1.00  0.00     0.134 A 
ATOM     88  F   UNL A   1      40.858  35.319  27.465  1.00  0.00    -0.206 F 
ATOM     89  C   UNL A   1      41.911  37.369  27.057  1.00  0.00     0.040 A 
ATOM     90  C   UNL A   1      44.088  37.819  27.949  1.00  0.00     0.040 A 
ATOM     91  F   UNL A   1      45.123  36.299  29.372  1.00  0.00    -0.206 F 
ATOM     92  C   UNL A   1      43.005  38.219  27.180  1.00  0.00     0.006 A 
ENDBRANCH  68  85
ENDBRANCH  42  43
ENDBRANCH  34  37
ENDBRANCH  32  33
ENDBRANCH  31  32
ENDBRANCH   1  31
TORSDOF 14
ENDMDL
