MODEL 1
REMARK VINA RESULT:     -11.3      0.000      0.000
REMARK SMILES C=Cc1cccc(-c2ccc([C@@H](C)C(=O)NCCCCNC(=O)c3ccc(-c4c5nc(c(-c6c(F)cccc6F)c6ccc([nH]6)c(-c6c(F)cccc6F)c6nc(c(-c7c(F)cccc7F)c7ccc4[nH]7)C=C6)C=C5)cc3)cc2)c1
REMARK SMILES IDX 18 1 17 2 16 3 14 4 15 5 12 7 13 8 11 9 8 10 9 11 79 12
REMARK SMILES IDX 10 13 78 14 7 15 3 16 4 17 80 18 5 19 6 20 2 21 1 22 19 23
REMARK SMILES IDX 20 24 21 25 22 26 23 28 24 29 25 30 77 31 26 32 76 33 27 34
REMARK SMILES IDX 28 35 29 36 70 37 30 38 75 39 69 40 71 41 31 42 74 43 68 44
REMARK SMILES IDX 67 45 32 47 58 48 41 49 57 50 42 51 45 52 56 53 72 54 43 55
REMARK SMILES IDX 44 56 55 58 73 59 46 60 33 61 34 62 39 63 35 64 36 65 38 66
REMARK SMILES IDX 40 67 37 68 59 69 60 70 65 71 61 72 62 73 64 74 66 75 63 76
REMARK SMILES IDX 47 77 48 78 53 79 49 80 50 81 52 82 54 83 51 84
REMARK H PARENT 16 6 21 27 71 46 45 57
REMARK Flexibility Score: inf
ROOT
ATOM      1  C   UNL A   1      32.546  29.694  25.331  1.00  0.00     0.023 C 
ENDROOT
BRANCH   1   2
ATOM      2  C   UNL A   1      31.049  29.674  25.021  1.00  0.00     0.116 C 
BRANCH   2   3
ATOM      3  N   UNL A   1      30.773  29.978  23.632  1.00  0.00    -0.356 N 
ATOM      4  C   UNL A   1      30.328  29.191  22.613  1.00  0.00     0.227 C 
ATOM      5  O   UNL A   1      30.254  29.724  21.499  1.00  0.00    -0.274 OA
ATOM      6  H   UNL A   1      30.935  30.915  23.381  1.00  0.00     0.163 HD
BRANCH   4   7
ATOM      7  C   UNL A   1      29.916  27.719  22.787  1.00  0.00     0.105 C 
ATOM      8  C   UNL A   1      28.553  27.537  23.455  1.00  0.00     0.023 C 
BRANCH   7   9
ATOM      9  C   UNL A   1      31.044  26.837  23.296  1.00  0.00    -0.036 A 
ATOM     10  C   UNL A   1      33.029  24.969  24.173  1.00  0.00    -0.018 A 
ATOM     11  C   UNL A   1      33.284  25.894  23.148  1.00  0.00     0.009 A 
ATOM     12  C   UNL A   1      31.770  25.044  24.787  1.00  0.00     0.009 A 
ATOM     13  C   UNL A   1      32.326  26.832  22.741  1.00  0.00     0.005 A 
ATOM     14  C   UNL A   1      30.789  25.944  24.346  1.00  0.00     0.005 A 
BRANCH  10  15
ATOM     15  C   UNL A   1      34.037  23.952  24.569  1.00  0.00    -0.018 A 
ATOM     16  C   UNL A   1      36.233  23.370  25.525  1.00  0.00    -0.026 A 
ATOM     17  C   UNL A   1      35.948  22.014  25.348  1.00  0.00     0.008 A 
ATOM     18  C   UNL A   1      35.276  24.322  25.133  1.00  0.00     0.016 A 
ATOM     19  C   UNL A   1      34.731  21.618  24.802  1.00  0.00     0.001 A 
ATOM     20  C   UNL A   1      33.793  22.576  24.412  1.00  0.00     0.009 A 
BRANCH  16  21
ATOM     21  C   UNL A   1      37.547  23.753  26.055  1.00  0.00     0.000 C 
ATOM     22  C   UNL A   1      38.621  22.953  26.066  1.00  0.00     0.009 C 
ENDBRANCH  16  21
ENDBRANCH  10  15
ENDBRANCH   7   9
ENDBRANCH   4   7
ENDBRANCH   2   3
ENDBRANCH   1   2
BRANCH   1  23
ATOM     23  C   UNL A   1      33.083  28.438  26.013  1.00  0.00     0.023 C 
BRANCH  23  24
ATOM     24  C   UNL A   1      33.719  28.661  27.380  1.00  0.00     0.116 C 
BRANCH  24  25
ATOM     25  N   UNL A   1      33.701  30.046  27.827  1.00  0.00    -0.352 N 
ATOM     26  C   UNL A   1      34.740  30.775  28.365  1.00  0.00     0.251 C 
ATOM     27  H   UNL A   1      32.843  30.521  27.732  1.00  0.00     0.163 HD
ATOM     28  O   UNL A   1      34.566  31.918  28.764  1.00  0.00    -0.269 OA
BRANCH  26  29
ATOM     29  C   UNL A   1      36.062  30.129  28.499  1.00  0.00     0.039 A 
ATOM     30  C   UNL A   1      36.960  30.199  27.431  1.00  0.00     0.014 A 
ATOM     31  C   UNL A   1      36.434  29.528  29.702  1.00  0.00     0.014 A 
ATOM     32  C   UNL A   1      38.266  29.735  27.600  1.00  0.00     0.010 A 
ATOM     33  C   UNL A   1      37.753  29.135  29.893  1.00  0.00     0.010 A 
ATOM     34  C   UNL A   1      38.682  29.239  28.845  1.00  0.00    -0.014 A 
BRANCH  34  35
ATOM     35  C   UNL A   1      40.081  28.808  29.088  1.00  0.00     0.031 A 
ATOM     36  C   UNL A   1      41.064  29.781  29.675  1.00  0.00     0.074 A 
ATOM     37  C   UNL A   1      40.489  27.588  28.689  1.00  0.00     0.049 A 
ATOM     38  N   UNL A   1      42.359  29.664  29.821  1.00  0.00    -0.248 NA
ATOM     39  C   UNL A   1      40.522  31.074  30.122  1.00  0.00     0.031 C 
ATOM     40  C   UNL A   1      39.642  26.570  28.066  1.00  0.00     0.029 A 
ATOM     41  N   UNL A   1      41.731  27.006  28.732  1.00  0.00    -0.354 N 
ATOM     42  C   UNL A   1      42.788  30.877  30.344  1.00  0.00     0.074 A 
ATOM     43  C   UNL A   1      41.625  31.730  30.450  1.00  0.00     0.031 C 
ATOM     44  C   UNL A   1      40.385  25.483  27.798  1.00  0.00     0.029 A 
ATOM     45  C   UNL A   1      41.766  25.742  28.193  1.00  0.00     0.049 A 
ATOM     46  H   UNL A   1      42.522  27.451  29.113  1.00  0.00     0.167 HD
ATOM     47  C   UNL A   1      44.036  31.239  30.721  1.00  0.00     0.037 A 
ATOM     48  C   UNL A   1      42.799  24.895  28.028  1.00  0.00     0.037 A 
ATOM     49  C   UNL A   1      45.182  30.373  30.657  1.00  0.00     0.049 A 
ATOM     50  C   UNL A   1      44.172  25.311  28.480  1.00  0.00     0.074 A 
ATOM     51  C   UNL A   1      46.478  30.626  31.070  1.00  0.00     0.029 A 
ATOM     52  N   UNL A   1      45.165  29.081  30.156  1.00  0.00    -0.354 N 
ATOM     53  N   UNL A   1      44.556  26.443  29.016  1.00  0.00    -0.248 NA
ATOM     54  C   UNL A   1      45.254  24.330  28.306  1.00  0.00     0.031 C 
ATOM     55  C   UNL A   1      47.253  29.493  30.795  1.00  0.00     0.029 A 
ATOM     56  C   UNL A   1      46.430  28.525  30.243  1.00  0.00     0.049 A 
ATOM     57  H   UNL A   1      44.371  28.626  29.790  1.00  0.00     0.167 HD
ATOM     58  C   UNL A   1      45.913  26.300  29.276  1.00  0.00     0.074 A 
ATOM     59  C   UNL A   1      46.285  24.969  28.841  1.00  0.00     0.031 C 
ATOM     60  C   UNL A   1      46.773  27.190  29.827  1.00  0.00     0.037 A 
BRANCH  47  61
ATOM     61  C   UNL A   1      44.219  32.634  31.243  1.00  0.00     0.057 A 
ATOM     62  C   UNL A   1      44.099  32.932  32.607  1.00  0.00     0.134 A 
ATOM     63  C   UNL A   1      44.538  33.686  30.376  1.00  0.00     0.134 A 
ATOM     64  F   UNL A   1      43.780  31.971  33.487  1.00  0.00    -0.206 F 
ATOM     65  C   UNL A   1      44.259  34.232  33.086  1.00  0.00     0.040 A 
ATOM     66  C   UNL A   1      44.726  34.986  30.847  1.00  0.00     0.040 A 
ATOM     67  F   UNL A   1      44.672  33.467  29.060  1.00  0.00    -0.206 F 
ATOM     68  C   UNL A   1      44.580  35.263  32.205  1.00  0.00     0.006 A 
ENDBRANCH  47  61
BRANCH  48  69
ATOM     69  C   UNL A   1      42.573  23.554  27.433  1.00  0.00     0.057 A 
ATOM     70  C   UNL A   1      42.669  23.357  26.051  1.00  0.00     0.134 A 
ATOM     71  C   UNL A   1      42.253  22.444  28.223  1.00  0.00     0.134 A 
ATOM     72  F   UNL A   1      42.954  24.387  25.242  1.00  0.00    -0.206 F 
ATOM     73  C   UNL A   1      42.436  22.108  25.472  1.00  0.00     0.040 A 
ATOM     74  C   UNL A   1      42.039  21.184  27.660  1.00  0.00     0.040 A 
ATOM     75  F   UNL A   1      42.153  22.567  29.555  1.00  0.00    -0.206 F 
ATOM     76  C   UNL A   1      42.123  21.017  26.279  1.00  0.00     0.006 A 
ENDBRANCH  48  69
BRANCH  60  77
ATOM     77  C   UNL A   1      48.186  26.740  30.040  1.00  0.00     0.057 A 
ATOM     78  C   UNL A   1      48.577  26.047  31.191  1.00  0.00     0.134 A 
ATOM     79  C   UNL A   1      49.154  26.955  29.049  1.00  0.00     0.134 A 
ATOM     80  F   UNL A   1      47.698  25.822  32.179  1.00  0.00    -0.206 F 
ATOM     81  C   UNL A   1      49.886  25.595  31.357  1.00  0.00     0.040 A 
ATOM     82  C   UNL A   1      50.460  26.489  29.194  1.00  0.00     0.040 A 
ATOM     83  F   UNL A   1      48.839  27.606  27.919  1.00  0.00    -0.206 F 
ATOM     84  C   UNL A   1      50.830  25.808  30.353  1.00  0.00     0.006 A 
ENDBRANCH  60  77
ENDBRANCH  34  35
ENDBRANCH  26  29
ENDBRANCH  24  25
ENDBRANCH  23  24
ENDBRANCH   1  23
TORSDOF 14
ENDMDL
MODEL 2
REMARK VINA RESULT:     -11.2      3.338      6.433
REMARK SMILES C=Cc1cccc(-c2ccc([C@@H](C)C(=O)NCCCCNC(=O)c3ccc(-c4c5nc(c(-c6c(F)cccc6F)c6ccc([nH]6)c(-c6c(F)cccc6F)c6nc(c(-c7c(F)cccc7F)c7ccc4[nH]7)C=C6)C=C5)cc3)cc2)c1
REMARK SMILES IDX 18 1 17 2 16 3 14 4 15 5 12 7 13 8 11 9 8 10 9 11 79 12
REMARK SMILES IDX 10 13 78 14 7 15 3 16 4 17 80 18 5 19 6 20 2 21 1 22 19 23
REMARK SMILES IDX 20 24 21 25 22 26 23 28 24 29 25 30 77 31 26 32 76 33 27 34
REMARK SMILES IDX 28 35 29 36 70 37 30 38 75 39 69 40 71 41 31 42 74 43 68 44
REMARK SMILES IDX 67 45 32 47 58 48 41 49 57 50 42 51 45 52 56 53 72 54 43 55
REMARK SMILES IDX 44 56 55 58 73 59 46 60 33 61 34 62 39 63 35 64 36 65 38 66
REMARK SMILES IDX 40 67 37 68 59 69 60 70 65 71 61 72 62 73 64 74 66 75 63 76
REMARK SMILES IDX 47 77 48 78 53 79 49 80 50 81 52 82 54 83 51 84
REMARK H PARENT 16 6 21 27 71 46 45 57
REMARK Flexibility Score: inf
ROOT
ATOM      1  C   UNL A   1      34.457  35.520  28.678  1.00  0.00     0.023 C 
ENDROOT
BRANCH   1   2
ATOM      2  C   UNL A   1      33.184  36.328  28.929  1.00  0.00     0.116 C 
BRANCH   2   3
ATOM      3  N   UNL A   1      33.342  37.277  30.012  1.00  0.00    -0.356 N 
ATOM      4  C   UNL A   1      33.131  37.153  31.352  1.00  0.00     0.227 C 
ATOM      5  O   UNL A   1      33.288  38.177  32.029  1.00  0.00    -0.274 OA
ATOM      6  H   UNL A   1      33.657  38.166  29.730  1.00  0.00     0.163 HD
BRANCH   4   7
ATOM      7  C   UNL A   1      32.731  35.835  32.036  1.00  0.00     0.105 C 
ATOM      8  C   UNL A   1      31.537  35.970  32.981  1.00  0.00     0.023 C 
BRANCH   7   9
ATOM      9  C   UNL A   1      33.922  35.045  32.555  1.00  0.00    -0.036 A 
ATOM     10  C   UNL A   1      36.116  33.382  33.342  1.00  0.00    -0.018 A 
ATOM     11  C   UNL A   1      36.311  34.684  32.853  1.00  0.00     0.009 A 
ATOM     12  C   UNL A   1      34.786  32.956  33.480  1.00  0.00     0.009 A 
ATOM     13  C   UNL A   1      35.237  35.512  32.500  1.00  0.00     0.005 A 
ATOM     14  C   UNL A   1      33.711  33.760  33.076  1.00  0.00     0.005 A 
BRANCH  10  15
ATOM     15  C   UNL A   1      37.263  32.498  33.674  1.00  0.00    -0.018 A 
ATOM     16  C   UNL A   1      38.477  30.370  33.403  1.00  0.00    -0.026 A 
ATOM     17  C   UNL A   1      39.461  30.823  34.284  1.00  0.00     0.008 A 
ATOM     18  C   UNL A   1      37.390  31.211  33.110  1.00  0.00     0.016 A 
ATOM     19  C   UNL A   1      39.369  32.090  34.851  1.00  0.00     0.001 A 
ATOM     20  C   UNL A   1      38.279  32.912  34.553  1.00  0.00     0.009 A 
BRANCH  16  21
ATOM     21  C   UNL A   1      38.580  29.008  32.867  1.00  0.00     0.000 C 
ATOM     22  C   UNL A   1      39.726  28.324  32.754  1.00  0.00     0.009 C 
ENDBRANCH  16  21
ENDBRANCH  10  15
ENDBRANCH   7   9
ENDBRANCH   4   7
ENDBRANCH   2   3
ENDBRANCH   1   2
BRANCH   1  23
ATOM     23  C   UNL A   1      34.434  34.091  29.215  1.00  0.00     0.023 C 
BRANCH  23  24
ATOM     24  C   UNL A   1      34.948  33.026  28.254  1.00  0.00     0.116 C 
BRANCH  24  25
ATOM     25  N   UNL A   1      33.961  32.017  27.901  1.00  0.00    -0.352 N 
ATOM     26  C   UNL A   1      34.147  30.655  27.786  1.00  0.00     0.251 C 
ATOM     27  H   UNL A   1      33.050  32.345  27.723  1.00  0.00     0.163 HD
ATOM     28  O   UNL A   1      33.240  29.925  27.412  1.00  0.00    -0.269 OA
BRANCH  26  29
ATOM     29  C   UNL A   1      35.484  30.097  28.076  1.00  0.00     0.039 A 
ATOM     30  C   UNL A   1      36.436  30.055  27.055  1.00  0.00     0.014 A 
ATOM     31  C   UNL A   1      35.813  29.692  29.371  1.00  0.00     0.014 A 
ATOM     32  C   UNL A   1      37.747  29.681  27.352  1.00  0.00     0.010 A 
ATOM     33  C   UNL A   1      37.133  29.393  29.680  1.00  0.00     0.010 A 
ATOM     34  C   UNL A   1      38.114  29.389  28.675  1.00  0.00    -0.014 A 
BRANCH  34  35
ATOM     35  C   UNL A   1      39.513  29.063  29.046  1.00  0.00     0.031 A 
ATOM     36  C   UNL A   1      40.354  30.094  29.744  1.00  0.00     0.074 A 
ATOM     37  C   UNL A   1      40.054  27.889  28.666  1.00  0.00     0.049 A 
ATOM     38  N   UNL A   1      41.634  30.075  30.015  1.00  0.00    -0.248 NA
ATOM     39  C   UNL A   1      39.668  31.328  30.160  1.00  0.00     0.031 C 
ATOM     40  C   UNL A   1      39.357  26.825  27.944  1.00  0.00     0.029 A 
ATOM     41  N   UNL A   1      41.330  27.405  28.819  1.00  0.00    -0.354 N 
ATOM     42  C   UNL A   1      41.910  31.303  30.600  1.00  0.00     0.074 A 
ATOM     43  C   UNL A   1      40.678  32.059  30.608  1.00  0.00     0.031 C 
ATOM     44  C   UNL A   1      40.208  25.807  27.730  1.00  0.00     0.029 A 
ATOM     45  C   UNL A   1      41.518  26.163  28.263  1.00  0.00     0.049 A 
ATOM     46  H   UNL A   1      42.042  27.901  29.284  1.00  0.00     0.167 HD
ATOM     47  C   UNL A   1      43.083  31.752  31.105  1.00  0.00     0.037 A 
ATOM     48  C   UNL A   1      42.627  25.404  28.185  1.00  0.00     0.037 A 
ATOM     49  C   UNL A   1      44.296  30.981  31.137  1.00  0.00     0.049 A 
ATOM     50  C   UNL A   1      43.912  25.915  28.776  1.00  0.00     0.074 A 
ATOM     51  C   UNL A   1      45.522  31.324  31.680  1.00  0.00     0.029 A 
ATOM     52  N   UNL A   1      44.432  29.705  30.612  1.00  0.00    -0.354 N 
ATOM     53  N   UNL A   1      44.150  27.058  29.369  1.00  0.00    -0.248 NA
ATOM     54  C   UNL A   1      45.082  25.027  28.691  1.00  0.00     0.031 C 
ATOM     55  C   UNL A   1      46.409  30.263  31.460  1.00  0.00     0.029 A 
ATOM     56  C   UNL A   1      45.723  29.248  30.813  1.00  0.00     0.049 A 
ATOM     57  H   UNL A   1      43.716  29.200  30.162  1.00  0.00     0.167 HD
ATOM     58  C   UNL A   1      45.483  27.016  29.758  1.00  0.00     0.074 A 
ATOM     59  C   UNL A   1      46.002  25.731  29.336  1.00  0.00     0.031 C 
ATOM     60  C   UNL A   1      46.211  27.955  30.407  1.00  0.00     0.037 A 
BRANCH  47  61
ATOM     61  C   UNL A   1      43.102  33.143  31.668  1.00  0.00     0.057 A 
ATOM     62  C   UNL A   1      43.413  34.255  30.874  1.00  0.00     0.134 A 
ATOM     63  C   UNL A   1      42.788  33.374  33.012  1.00  0.00     0.134 A 
ATOM     64  F   UNL A   1      43.738  34.099  29.582  1.00  0.00    -0.206 F 
ATOM     65  C   UNL A   1      43.440  35.545  31.406  1.00  0.00     0.040 A 
ATOM     66  C   UNL A   1      42.786  34.663  33.549  1.00  0.00     0.040 A 
ATOM     67  F   UNL A   1      42.477  32.353  33.825  1.00  0.00    -0.206 F 
ATOM     68  C   UNL A   1      43.120  35.751  32.746  1.00  0.00     0.006 A 
ENDBRANCH  47  61
BRANCH  48  69
ATOM     69  C   UNL A   1      42.569  24.066  27.545  1.00  0.00     0.057 A 
ATOM     70  C   UNL A   1      42.416  22.908  28.315  1.00  0.00     0.134 A 
ATOM     71  C   UNL A   1      42.670  23.910  26.158  1.00  0.00     0.134 A 
ATOM     72  F   UNL A   1      42.333  22.994  29.651  1.00  0.00    -0.206 F 
ATOM     73  C   UNL A   1      42.384  21.640  27.732  1.00  0.00     0.040 A 
ATOM     74  C   UNL A   1      42.618  22.650  25.559  1.00  0.00     0.040 A 
ATOM     75  F   UNL A   1      42.811  24.983  25.364  1.00  0.00    -0.206 F 
ATOM     76  C   UNL A   1      42.481  21.510  26.349  1.00  0.00     0.006 A 
ENDBRANCH  48  69
BRANCH  60  77
ATOM     77  C   UNL A   1      47.630  27.612  30.749  1.00  0.00     0.057 A 
ATOM     78  C   UNL A   1      47.965  26.945  31.932  1.00  0.00     0.134 A 
ATOM     79  C   UNL A   1      48.664  27.905  29.851  1.00  0.00     0.134 A 
ATOM     80  F   UNL A   1      47.019  26.649  32.836  1.00  0.00    -0.206 F 
ATOM     81  C   UNL A   1      49.284  26.592  32.218  1.00  0.00     0.040 A 
ATOM     82  C   UNL A   1      49.983  27.538  30.115  1.00  0.00     0.040 A 
ATOM     83  F   UNL A   1      48.406  28.537  28.696  1.00  0.00    -0.206 F 
ATOM     84  C   UNL A   1      50.297  26.881  31.304  1.00  0.00     0.006 A 
ENDBRANCH  60  77
ENDBRANCH  34  35
ENDBRANCH  26  29
ENDBRANCH  24  25
ENDBRANCH  23  24
ENDBRANCH   1  23
TORSDOF 14
ENDMDL
MODEL 3
REMARK VINA RESULT:     -11.1      3.432      8.236
REMARK SMILES C=Cc1cccc(-c2ccc([C@@H](C)C(=O)NCCCCNC(=O)c3ccc(-c4c5nc(c(-c6c(F)cccc6F)c6ccc([nH]6)c(-c6c(F)cccc6F)c6nc(c(-c7c(F)cccc7F)c7ccc4[nH]7)C=C6)C=C5)cc3)cc2)c1
REMARK SMILES IDX 18 1 17 2 16 3 14 4 15 5 12 7 13 8 11 9 8 10 9 11 79 12
REMARK SMILES IDX 10 13 78 14 7 15 3 16 4 17 80 18 5 19 6 20 2 21 1 22 19 23
REMARK SMILES IDX 20 24 21 25 22 26 23 28 24 29 25 30 77 31 26 32 76 33 27 34
REMARK SMILES IDX 28 35 29 36 70 37 30 38 75 39 69 40 71 41 31 42 74 43 68 44
REMARK SMILES IDX 67 45 32 47 58 48 41 49 57 50 42 51 45 52 56 53 72 54 43 55
REMARK SMILES IDX 44 56 55 58 73 59 46 60 33 61 34 62 39 63 35 64 36 65 38 66
REMARK SMILES IDX 40 67 37 68 59 69 60 70 65 71 61 72 62 73 64 74 66 75 63 76
REMARK SMILES IDX 47 77 48 78 53 79 49 80 50 81 52 82 54 83 51 84
REMARK H PARENT 16 6 21 27 71 46 45 57
REMARK Flexibility Score: inf
ROOT
ATOM      1  C   UNL A   1      35.598  21.823  26.232  1.00  0.00     0.023 C 
ENDROOT
BRANCH   1   2
ATOM      2  C   UNL A   1      35.192  20.981  25.021  1.00  0.00     0.116 C 
BRANCH   2   3
ATOM      3  N   UNL A   1      34.231  19.954  25.365  1.00  0.00    -0.356 N 
ATOM      4  C   UNL A   1      32.919  19.806  25.033  1.00  0.00     0.227 C 
ATOM      5  O   UNL A   1      32.328  18.846  25.543  1.00  0.00    -0.274 OA
ATOM      6  H   UNL A   1      34.589  19.239  25.939  1.00  0.00     0.163 HD
BRANCH   4   7
ATOM      7  C   UNL A   1      32.169  20.744  24.071  1.00  0.00     0.105 C 
ATOM      8  C   UNL A   1      32.181  20.271  22.617  1.00  0.00     0.023 C 
BRANCH   7   9
ATOM      9  C   UNL A   1      32.474  22.214  24.309  1.00  0.00    -0.036 A 
ATOM     10  C   UNL A   1      32.889  25.036  24.555  1.00  0.00    -0.018 A 
ATOM     11  C   UNL A   1      32.258  24.289  25.563  1.00  0.00     0.009 A 
ATOM     12  C   UNL A   1      33.358  24.320  23.443  1.00  0.00     0.009 A 
ATOM     13  C   UNL A   1      32.086  22.902  25.460  1.00  0.00     0.005 A 
ATOM     14  C   UNL A   1      33.138  22.941  23.311  1.00  0.00     0.005 A 
BRANCH  10  15
ATOM     15  C   UNL A   1      33.030  26.511  24.655  1.00  0.00    -0.018 A 
ATOM     16  C   UNL A   1      33.795  28.513  25.873  1.00  0.00    -0.026 A 
ATOM     17  C   UNL A   1      33.324  29.321  24.836  1.00  0.00     0.008 A 
ATOM     18  C   UNL A   1      33.642  27.120  25.771  1.00  0.00     0.016 A 
ATOM     19  C   UNL A   1      32.723  28.750  23.718  1.00  0.00     0.001 A 
ATOM     20  C   UNL A   1      32.573  27.364  23.635  1.00  0.00     0.009 A 
BRANCH  16  21
ATOM     21  C   UNL A   1      34.375  29.153  27.060  1.00  0.00     0.000 C 
ATOM     22  C   UNL A   1      34.124  30.411  27.440  1.00  0.00     0.009 C 
ENDBRANCH  16  21
ENDBRANCH  10  15
ENDBRANCH   7   9
ENDBRANCH   4   7
ENDBRANCH   2   3
ENDBRANCH   1   2
BRANCH   1  23
ATOM     23  C   UNL A   1      35.918  23.284  25.927  1.00  0.00     0.023 C 
BRANCH  23  24
ATOM     24  C   UNL A   1      37.148  23.512  25.056  1.00  0.00     0.116 C 
BRANCH  24  25
ATOM     25  N   UNL A   1      38.256  22.613  25.343  1.00  0.00    -0.352 N 
ATOM     26  C   UNL A   1      39.372  22.865  26.113  1.00  0.00     0.251 C 
ATOM     27  H   UNL A   1      38.203  21.717  24.939  1.00  0.00     0.163 HD
ATOM     28  O   UNL A   1      40.266  22.037  26.215  1.00  0.00    -0.269 OA
BRANCH  26  29
ATOM     29  C   UNL A   1      39.492  24.180  26.776  1.00  0.00     0.039 A 
ATOM     30  C   UNL A   1      38.939  24.350  28.047  1.00  0.00     0.014 A 
ATOM     31  C   UNL A   1      40.215  25.211  26.172  1.00  0.00     0.014 A 
ATOM     32  C   UNL A   1      39.182  25.531  28.750  1.00  0.00     0.010 A 
ATOM     33  C   UNL A   1      40.517  26.353  26.900  1.00  0.00     0.010 A 
ATOM     34  C   UNL A   1      40.008  26.523  28.198  1.00  0.00    -0.014 A 
BRANCH  34  35
ATOM     35  C   UNL A   1      40.353  27.758  28.944  1.00  0.00     0.031 A 
ATOM     36  C   UNL A   1      41.653  27.832  29.694  1.00  0.00     0.074 A 
ATOM     37  C   UNL A   1      39.461  28.764  29.030  1.00  0.00     0.049 A 
ATOM     38  N   UNL A   1      42.076  28.744  30.530  1.00  0.00    -0.248 NA
ATOM     39  C   UNL A   1      42.583  26.707  29.506  1.00  0.00     0.031 C 
ATOM     40  C   UNL A   1      38.148  28.795  28.385  1.00  0.00     0.029 A 
ATOM     41  N   UNL A   1      39.521  29.951  29.718  1.00  0.00    -0.354 N 
ATOM     42  C   UNL A   1      43.304  28.288  30.992  1.00  0.00     0.074 A 
ATOM     43  C   UNL A   1      43.538  27.000  30.377  1.00  0.00     0.031 C 
ATOM     44  C   UNL A   1      37.532  29.948  28.695  1.00  0.00     0.029 A 
ATOM     45  C   UNL A   1      38.388  30.718  29.591  1.00  0.00     0.049 A 
ATOM     46  H   UNL A   1      40.301  30.226  30.251  1.00  0.00     0.167 HD
ATOM     47  C   UNL A   1      44.168  28.898  31.836  1.00  0.00     0.037 A 
ATOM     48  C   UNL A   1      38.074  31.905  30.144  1.00  0.00     0.037 A 
ATOM     49  C   UNL A   1      43.953  30.198  32.410  1.00  0.00     0.049 A 
ATOM     50  C   UNL A   1      39.062  32.575  31.059  1.00  0.00     0.074 A 
ATOM     51  C   UNL A   1      44.795  30.929  33.230  1.00  0.00     0.029 A 
ATOM     52  N   UNL A   1      42.817  30.967  32.213  1.00  0.00    -0.354 N 
ATOM     53  N   UNL A   1      40.240  32.155  31.451  1.00  0.00    -0.248 NA
ATOM     54  C   UNL A   1      38.679  33.885  31.606  1.00  0.00     0.031 C 
ATOM     55  C   UNL A   1      44.155  32.132  33.552  1.00  0.00     0.029 A 
ATOM     56  C   UNL A   1      42.932  32.163  32.902  1.00  0.00     0.049 A 
ATOM     57  H   UNL A   1      42.042  30.703  31.666  1.00  0.00     0.167 HD
ATOM     58  C   UNL A   1      40.753  33.160  32.260  1.00  0.00     0.074 A 
ATOM     59  C   UNL A   1      39.760  34.213  32.300  1.00  0.00     0.031 C 
ATOM     60  C   UNL A   1      41.941  33.208  32.909  1.00  0.00     0.037 A 
BRANCH  47  61
ATOM     61  C   UNL A   1      45.428  28.160  32.182  1.00  0.00     0.057 A 
ATOM     62  C   UNL A   1      46.599  28.308  31.426  1.00  0.00     0.134 A 
ATOM     63  C   UNL A   1      45.477  27.309  33.292  1.00  0.00     0.134 A 
ATOM     64  F   UNL A   1      46.612  29.097  30.341  1.00  0.00    -0.206 F 
ATOM     65  C   UNL A   1      47.765  27.611  31.745  1.00  0.00     0.040 A 
ATOM     66  C   UNL A   1      46.645  26.628  33.637  1.00  0.00     0.040 A 
ATOM     67  F   UNL A   1      44.392  27.128  34.060  1.00  0.00    -0.206 F 
ATOM     68  C   UNL A   1      47.791  26.773  32.858  1.00  0.00     0.006 A 
ENDBRANCH  47  61
BRANCH  48  69
ATOM     69  C   UNL A   1      36.778  32.553  29.828  1.00  0.00     0.057 A 
ATOM     70  C   UNL A   1      35.635  32.282  30.589  1.00  0.00     0.134 A 
ATOM     71  C   UNL A   1      36.645  33.450  28.762  1.00  0.00     0.134 A 
ATOM     72  F   UNL A   1      35.696  31.417  31.611  1.00  0.00    -0.206 F 
ATOM     73  C   UNL A   1      34.402  32.864  30.291  1.00  0.00     0.040 A 
ATOM     74  C   UNL A   1      35.423  34.057  28.465  1.00  0.00     0.040 A 
ATOM     75  F   UNL A   1      37.705  33.756  27.999  1.00  0.00    -0.206 F 
ATOM     76  C   UNL A   1      34.295  33.758  29.227  1.00  0.00     0.006 A 
ENDBRANCH  48  69
BRANCH  60  77
ATOM     77  C   UNL A   1      42.257  34.457  33.675  1.00  0.00     0.057 A 
ATOM     78  C   UNL A   1      42.003  34.566  35.047  1.00  0.00     0.134 A 
ATOM     79  C   UNL A   1      42.876  35.541  33.038  1.00  0.00     0.134 A 
ATOM     80  F   UNL A   1      41.402  33.566  35.709  1.00  0.00    -0.206 F 
ATOM     81  C   UNL A   1      42.342  35.718  35.759  1.00  0.00     0.040 A 
ATOM     82  C   UNL A   1      43.238  36.688  33.743  1.00  0.00     0.040 A 
ATOM     83  F   UNL A   1      43.152  35.493  31.726  1.00  0.00    -0.206 F 
ATOM     84  C   UNL A   1      42.970  36.780  35.108  1.00  0.00     0.006 A 
ENDBRANCH  60  77
ENDBRANCH  34  35
ENDBRANCH  26  29
ENDBRANCH  24  25
ENDBRANCH  23  24
ENDBRANCH   1  23
TORSDOF 14
ENDMDL
