MODEL 1
REMARK VINA RESULT:     -12.1      0.000      0.000
REMARK SMILES COc1ccc(Br)cc1CNc1ccc(N2CCOCC2)c(C(=O)NCCCCNC(=O)c2ccc(-c3c4nc(c(-c5c(F)cccc5F)c5ccc([nH]5)c(-c5c(F)cccc5F)c5nc(c(-c6c(F)cccc6F)c6ccc3[nH]6)C=C5)C=C4)cc2)c1
REMARK SMILES IDX 26 1 25 2 23 3 24 4 22 6 12 7 13 8 87 9 14 10 15 11 11 12
REMARK SMILES IDX 10 14 9 15 3 16 4 17 5 18 8 19 6 20 7 21 2 22 1 23 16 24
REMARK SMILES IDX 17 25 21 26 18 27 20 28 19 29 27 30 28 31 29 32 30 33 31 34
REMARK SMILES IDX 32 36 33 37 34 38 86 39 35 40 85 41 36 42 37 43 38 44 79 45
REMARK SMILES IDX 39 46 84 47 78 48 80 49 40 50 83 51 77 52 76 53 41 55 67 56
REMARK SMILES IDX 50 57 66 58 51 59 54 60 65 61 81 62 52 63 53 64 64 66 82 67
REMARK SMILES IDX 55 68 42 69 43 70 48 71 44 72 45 73 47 74 49 75 46 76 68 77
REMARK SMILES IDX 69 78 74 79 70 80 71 81 73 82 75 83 72 84 56 85 57 86 62 87
REMARK SMILES IDX 58 88 59 89 61 90 63 91 60 92
REMARK H PARENT 25 5 11 13 30 35 80 54 54 65
REMARK Flexibility Score: inf
ROOT
ATOM      1  C   UNL A   1      36.694  21.188  24.956  1.00  0.00     0.116 C 
ENDROOT
BRANCH   1   2
ATOM      2  N   UNL A   1      35.724  21.276  26.039  1.00  0.00    -0.352 N 
ATOM      3  C   UNL A   1      34.341  21.167  26.039  1.00  0.00     0.253 C 
ATOM      4  O   UNL A   1      33.784  21.135  27.133  1.00  0.00    -0.269 OA
ATOM      5  H   UNL A   1      36.119  21.442  26.926  1.00  0.00     0.163 HD
BRANCH   3   6
ATOM      6  C   UNL A   1      33.570  21.119  24.757  1.00  0.00     0.065 A 
ATOM      7  C   UNL A   1      32.503  22.452  22.999  1.00  0.00     0.035 A 
ATOM      8  C   UNL A   1      31.894  21.288  22.537  1.00  0.00     0.028 A 
ATOM      9  C   UNL A   1      33.403  22.319  24.050  1.00  0.00     0.041 A 
ATOM     10  C   UNL A   1      32.193  20.047  23.106  1.00  0.00     0.029 A 
ATOM     11  C   UNL A   1      33.047  19.929  24.216  1.00  0.00     0.050 A 
BRANCH   7  12
ATOM     12  N   UNL A   1      32.233  23.652  22.381  1.00  0.00    -0.381 N 
ATOM     13  H   UNL A   1      31.731  23.619  21.536  1.00  0.00     0.160 HD
BRANCH  12  14
ATOM     14  C   UNL A   1      32.625  24.966  22.869  1.00  0.00     0.152 C 
BRANCH  14  15
ATOM     15  C   UNL A   1      31.389  25.796  23.124  1.00  0.00     0.014 A 
ATOM     16  C   UNL A   1      30.372  25.353  23.985  1.00  0.00     0.123 A 
ATOM     17  C   UNL A   1      29.255  26.165  24.207  1.00  0.00     0.048 A 
ATOM     18  C   UNL A   1      29.148  27.413  23.583  1.00  0.00     0.019 A 
ATOM     19  C   UNL A   1      31.286  27.071  22.531  1.00  0.00     0.025 A 
ATOM     20  C   UNL A   1      30.167  27.863  22.752  1.00  0.00     0.018 A 
ATOM     21  Br  UNL A   1      30.041  29.555  21.922  1.00  0.00    -0.051 Br
BRANCH  16  22
ATOM     22  O   UNL A   1      30.582  24.148  24.604  1.00  0.00    -0.496 OA
ATOM     23  C   UNL A   1      30.741  24.179  26.017  1.00  0.00     0.278 C 
ENDBRANCH  16  22
ENDBRANCH  14  15
ENDBRANCH  12  14
ENDBRANCH   7  12
BRANCH  11  24
ATOM     24  N   UNL A   1      33.399  18.669  24.650  1.00  0.00    -0.366 N 
ATOM     25  C   UNL A   1      34.669  18.037  24.295  1.00  0.00     0.145 C 
ATOM     26  C   UNL A   1      32.651  18.047  25.746  1.00  0.00     0.145 C 
ATOM     27  C   UNL A   1      34.483  16.512  24.166  1.00  0.00     0.181 C 
ATOM     28  C   UNL A   1      32.527  16.541  25.477  1.00  0.00     0.181 C 
ATOM     29  O   UNL A   1      33.825  15.943  25.316  1.00  0.00    -0.378 OA
ENDBRANCH  11  24
ENDBRANCH   3   6
ENDBRANCH   1   2
BRANCH   1  30
ATOM     30  C   UNL A   1      38.157  21.186  25.379  1.00  0.00     0.023 C 
BRANCH  30  31
ATOM     31  C   UNL A   1      38.976  19.953  25.021  1.00  0.00     0.023 C 
BRANCH  31  32
ATOM     32  C   UNL A   1      39.676  19.246  26.174  1.00  0.00     0.116 C 
BRANCH  32  33
ATOM     33  N   UNL A   1      41.033  18.816  25.871  1.00  0.00    -0.352 N 
ATOM     34  C   UNL A   1      42.218  19.511  25.954  1.00  0.00     0.251 C 
ATOM     35  H   UNL A   1      41.116  17.886  25.559  1.00  0.00     0.163 HD
ATOM     36  O   UNL A   1      43.264  18.991  25.588  1.00  0.00    -0.269 OA
BRANCH  34  37
ATOM     37  C   UNL A   1      42.224  20.910  26.442  1.00  0.00     0.039 A 
ATOM     38  C   UNL A   1      42.078  21.141  27.813  1.00  0.00     0.014 A 
ATOM     39  C   UNL A   1      42.403  21.982  25.566  1.00  0.00     0.014 A 
ATOM     40  C   UNL A   1      42.213  22.438  28.314  1.00  0.00     0.010 A 
ATOM     41  C   UNL A   1      42.617  23.260  26.075  1.00  0.00     0.010 A 
ATOM     42  C   UNL A   1      42.534  23.500  27.455  1.00  0.00    -0.014 A 
BRANCH  42  43
ATOM     43  C   UNL A   1      42.809  24.863  27.979  1.00  0.00     0.031 A 
ATOM     44  C   UNL A   1      44.198  25.240  28.415  1.00  0.00     0.074 A 
ATOM     45  C   UNL A   1      41.793  25.733  28.144  1.00  0.00     0.049 A 
ATOM     46  N   UNL A   1      44.615  26.342  28.985  1.00  0.00    -0.248 NA
ATOM     47  C   UNL A   1      45.252  24.233  28.210  1.00  0.00     0.031 C 
ATOM     48  C   UNL A   1      40.389  25.469  27.820  1.00  0.00     0.029 A 
ATOM     49  N   UNL A   1      41.780  27.010  28.646  1.00  0.00    -0.354 N 
ATOM     50  C   UNL A   1      45.968  26.150  29.231  1.00  0.00     0.074 A 
ATOM     51  C   UNL A   1      46.295  24.813  28.786  1.00  0.00     0.031 C 
ATOM     52  C   UNL A   1      39.656  26.553  28.119  1.00  0.00     0.029 A 
ATOM     53  C   UNL A   1      40.528  27.576  28.688  1.00  0.00     0.049 A 
ATOM     54  H   UNL A   1      42.592  27.477  28.950  1.00  0.00     0.167 HD
ATOM     55  C   UNL A   1      46.863  27.017  29.761  1.00  0.00     0.037 A 
ATOM     56  C   UNL A   1      40.126  28.778  29.140  1.00  0.00     0.037 A 
ATOM     57  C   UNL A   1      46.547  28.362  30.165  1.00  0.00     0.049 A 
ATOM     58  C   UNL A   1      41.145  29.733  29.697  1.00  0.00     0.074 A 
ATOM     59  C   UNL A   1      47.402  29.344  30.634  1.00  0.00     0.029 A 
ATOM     60  N   UNL A   1      45.275  28.914  30.145  1.00  0.00    -0.354 N 
ATOM     61  N   UNL A   1      42.436  29.568  29.847  1.00  0.00    -0.248 NA
ATOM     62  C   UNL A   1      40.653  31.046  30.140  1.00  0.00     0.031 C 
ATOM     63  C   UNL A   1      46.643  30.479  30.932  1.00  0.00     0.029 A 
ATOM     64  C   UNL A   1      45.320  30.217  30.612  1.00  0.00     0.049 A 
ATOM     65  H   UNL A   1      44.462  28.448  29.845  1.00  0.00     0.167 HD
ATOM     66  C   UNL A   1      42.914  30.760  30.377  1.00  0.00     0.074 A 
ATOM     67  C   UNL A   1      41.776  31.645  30.509  1.00  0.00     0.031 C 
ATOM     68  C   UNL A   1      44.181  31.090  30.726  1.00  0.00     0.037 A 
BRANCH  55  69
ATOM     69  C   UNL A   1      48.276  26.542  29.929  1.00  0.00     0.057 A 
ATOM     70  C   UNL A   1      49.253  26.778  28.955  1.00  0.00     0.134 A 
ATOM     71  C   UNL A   1      48.672  25.882  31.098  1.00  0.00     0.134 A 
ATOM     72  F   UNL A   1      48.935  27.395  27.807  1.00  0.00    -0.206 F 
ATOM     73  C   UNL A   1      50.573  26.354  29.127  1.00  0.00     0.040 A 
ATOM     74  C   UNL A   1      49.994  25.475  31.293  1.00  0.00     0.040 A 
ATOM     75  F   UNL A   1      47.787  25.629  32.074  1.00  0.00    -0.206 F 
ATOM     76  C   UNL A   1      50.947  25.708  30.304  1.00  0.00     0.006 A 
ENDBRANCH  55  69
BRANCH  56  77
ATOM     77  C   UNL A   1      38.693  29.159  29.073  1.00  0.00     0.057 A 
ATOM     78  C   UNL A   1      38.129  29.642  27.886  1.00  0.00     0.134 A 
ATOM     79  C   UNL A   1      37.859  29.067  30.193  1.00  0.00     0.134 A 
ATOM     80  F   UNL A   1      38.883  29.771  26.785  1.00  0.00    -0.206 F 
ATOM     81  C   UNL A   1      36.792  30.039  27.820  1.00  0.00     0.040 A 
ATOM     82  C   UNL A   1      36.515  29.440  30.136  1.00  0.00     0.040 A 
ATOM     83  F   UNL A   1      38.338  28.607  31.358  1.00  0.00    -0.206 F 
ATOM     84  C   UNL A   1      35.980  29.936  28.948  1.00  0.00     0.006 A 
ENDBRANCH  56  77
BRANCH  68  85
ATOM     85  C   UNL A   1      44.410  32.475  31.250  1.00  0.00     0.057 A 
ATOM     86  C   UNL A   1      44.375  32.760  32.620  1.00  0.00     0.134 A 
ATOM     87  C   UNL A   1      44.712  33.526  30.375  1.00  0.00     0.134 A 
ATOM     88  F   UNL A   1      44.078  31.799  33.508  1.00  0.00    -0.206 F 
ATOM     89  C   UNL A   1      44.615  34.048  33.102  1.00  0.00     0.040 A 
ATOM     90  C   UNL A   1      44.977  34.813  30.846  1.00  0.00     0.040 A 
ATOM     91  F   UNL A   1      44.768  33.316  29.051  1.00  0.00    -0.206 F 
ATOM     92  C   UNL A   1      44.924  35.078  32.213  1.00  0.00     0.006 A 
ENDBRANCH  68  85
ENDBRANCH  42  43
ENDBRANCH  34  37
ENDBRANCH  32  33
ENDBRANCH  31  32
ENDBRANCH  30  31
ENDBRANCH   1  30
TORSDOF 16
ENDMDL
MODEL 2
REMARK VINA RESULT:     -12.0      4.429      9.911
REMARK SMILES COc1ccc(Br)cc1CNc1ccc(N2CCOCC2)c(C(=O)NCCCCNC(=O)c2ccc(-c3c4nc(c(-c5c(F)cccc5F)c5ccc([nH]5)c(-c5c(F)cccc5F)c5nc(c(-c6c(F)cccc6F)c6ccc3[nH]6)C=C5)C=C4)cc2)c1
REMARK SMILES IDX 26 1 25 2 23 3 24 4 22 6 12 7 13 8 87 9 14 10 15 11 11 12
REMARK SMILES IDX 10 14 9 15 3 16 4 17 5 18 8 19 6 20 7 21 2 22 1 23 16 24
REMARK SMILES IDX 17 25 21 26 18 27 20 28 19 29 27 30 28 31 29 32 30 33 31 34
REMARK SMILES IDX 32 36 33 37 34 38 86 39 35 40 85 41 36 42 37 43 38 44 79 45
REMARK SMILES IDX 39 46 84 47 78 48 80 49 40 50 83 51 77 52 76 53 41 55 67 56
REMARK SMILES IDX 50 57 66 58 51 59 54 60 65 61 81 62 52 63 53 64 64 66 82 67
REMARK SMILES IDX 55 68 42 69 43 70 48 71 44 72 45 73 47 74 49 75 46 76 68 77
REMARK SMILES IDX 69 78 74 79 70 80 71 81 73 82 75 83 72 84 56 85 57 86 62 87
REMARK SMILES IDX 58 88 59 89 61 90 63 91 60 92
REMARK H PARENT 25 5 11 13 30 35 80 54 54 65
REMARK Flexibility Score: inf
ROOT
ATOM      1  C   UNL A   1      32.632  29.632  26.044  1.00  0.00     0.116 C 
ENDROOT
BRANCH   1   2
ATOM      2  N   UNL A   1      32.905  29.607  24.614  1.00  0.00    -0.352 N 
ATOM      3  C   UNL A   1      32.180  29.081  23.554  1.00  0.00     0.253 C 
ATOM      4  O   UNL A   1      32.582  29.337  22.421  1.00  0.00    -0.269 OA
ATOM      5  H   UNL A   1      33.751  30.038  24.353  1.00  0.00     0.163 HD
BRANCH   3   6
ATOM      6  C   UNL A   1      30.980  28.218  23.791  1.00  0.00     0.065 A 
ATOM      7  C   UNL A   1      30.195  26.036  24.585  1.00  0.00     0.035 A 
ATOM      8  C   UNL A   1      28.945  26.332  24.047  1.00  0.00     0.028 A 
ATOM      9  C   UNL A   1      31.161  27.034  24.521  1.00  0.00     0.041 A 
ATOM     10  C   UNL A   1      28.684  27.584  23.481  1.00  0.00     0.029 A 
ATOM     11  C   UNL A   1      29.686  28.561  23.353  1.00  0.00     0.050 A 
BRANCH   7  12
ATOM     12  N   UNL A   1      30.405  24.817  25.186  1.00  0.00    -0.381 N 
ATOM     13  H   UNL A   1      29.609  24.284  25.410  1.00  0.00     0.160 HD
BRANCH  12  14
ATOM     14  C   UNL A   1      31.702  24.246  25.520  1.00  0.00     0.152 C 
BRANCH  14  15
ATOM     15  C   UNL A   1      31.939  23.013  24.679  1.00  0.00     0.014 A 
ATOM     16  C   UNL A   1      32.001  23.081  23.278  1.00  0.00     0.123 A 
ATOM     17  C   UNL A   1      32.244  21.916  22.542  1.00  0.00     0.048 A 
ATOM     18  C   UNL A   1      32.429  20.691  23.191  1.00  0.00     0.019 A 
ATOM     19  C   UNL A   1      32.163  21.779  25.322  1.00  0.00     0.025 A 
ATOM     20  C   UNL A   1      32.393  20.628  24.579  1.00  0.00     0.018 A 
ATOM     21  Br  UNL A   1      32.662  18.982  25.465  1.00  0.00    -0.051 Br
BRANCH  16  22
ATOM     22  O   UNL A   1      31.872  24.328  22.724  1.00  0.00    -0.496 OA
ATOM     23  C   UNL A   1      32.898  24.734  21.826  1.00  0.00     0.278 C 
ENDBRANCH  16  22
ENDBRANCH  14  15
ENDBRANCH  12  14
ENDBRANCH   7  12
BRANCH  11  24
ATOM     24  N   UNL A   1      29.336  29.815  22.904  1.00  0.00    -0.366 N 
ATOM     25  C   UNL A   1      29.183  30.961  23.798  1.00  0.00     0.145 C 
ATOM     26  C   UNL A   1      29.416  30.119  21.472  1.00  0.00     0.145 C 
ATOM     27  C   UNL A   1      28.076  31.898  23.274  1.00  0.00     0.181 C 
ATOM     28  C   UNL A   1      28.250  31.039  21.088  1.00  0.00     0.181 C 
ATOM     29  O   UNL A   1      28.261  32.237  21.885  1.00  0.00    -0.378 OA
ENDBRANCH  11  24
ENDBRANCH   3   6
ENDBRANCH   1   2
BRANCH   1  30
ATOM     30  C   UNL A   1      31.395  30.414  26.465  1.00  0.00     0.023 C 
BRANCH  30  31
ATOM     31  C   UNL A   1      31.486  31.933  26.408  1.00  0.00     0.023 C 
BRANCH  31  32
ATOM     32  C   UNL A   1      32.601  32.575  27.223  1.00  0.00     0.116 C 
BRANCH  32  33
ATOM     33  N   UNL A   1      32.346  33.960  27.589  1.00  0.00    -0.352 N 
ATOM     34  C   UNL A   1      33.031  34.785  28.453  1.00  0.00     0.251 C 
ATOM     35  H   UNL A   1      31.564  34.370  27.153  1.00  0.00     0.163 HD
ATOM     36  O   UNL A   1      32.617  35.915  28.683  1.00  0.00    -0.269 OA
BRANCH  34  37
ATOM     37  C   UNL A   1      34.244  34.291  29.144  1.00  0.00     0.039 A 
ATOM     38  C   UNL A   1      34.093  33.616  30.359  1.00  0.00     0.014 A 
ATOM     39  C   UNL A   1      35.514  34.459  28.589  1.00  0.00     0.014 A 
ATOM     40  C   UNL A   1      35.204  33.024  30.965  1.00  0.00     0.010 A 
ATOM     41  C   UNL A   1      36.604  33.801  29.151  1.00  0.00     0.010 A 
ATOM     42  C   UNL A   1      36.460  33.068  30.339  1.00  0.00    -0.014 A 
BRANCH  42  43
ATOM     43  C   UNL A   1      37.628  32.339  30.897  1.00  0.00     0.031 A 
ATOM     44  C   UNL A   1      38.292  32.823  32.156  1.00  0.00     0.074 A 
ATOM     45  C   UNL A   1      38.146  31.293  30.222  1.00  0.00     0.049 A 
ATOM     46  N   UNL A   1      39.375  32.381  32.742  1.00  0.00    -0.248 NA
ATOM     47  C   UNL A   1      37.672  33.976  32.829  1.00  0.00     0.031 C 
ATOM     48  C   UNL A   1      37.634  30.763  28.956  1.00  0.00     0.029 A 
ATOM     49  N   UNL A   1      39.232  30.500  30.497  1.00  0.00    -0.354 N 
ATOM     50  C   UNL A   1      39.581  33.215  33.832  1.00  0.00     0.074 A 
ATOM     51  C   UNL A   1      38.536  34.214  33.806  1.00  0.00     0.031 C 
ATOM     52  C   UNL A   1      38.397  29.726  28.572  1.00  0.00     0.029 A 
ATOM     53  C   UNL A   1      39.470  29.539  29.543  1.00  0.00     0.049 A 
ATOM     54  H   UNL A   1      39.788  30.609  31.302  1.00  0.00     0.167 HD
ATOM     55  C   UNL A   1      40.544  33.144  34.783  1.00  0.00     0.037 A 
ATOM     56  C   UNL A   1      40.447  28.618  29.456  1.00  0.00     0.037 A 
ATOM     57  C   UNL A   1      41.558  32.124  34.833  1.00  0.00     0.049 A 
ATOM     58  C   UNL A   1      41.486  28.541  30.540  1.00  0.00     0.074 A 
ATOM     59  C   UNL A   1      42.525  31.919  35.802  1.00  0.00     0.029 A 
ATOM     60  N   UNL A   1      41.736  31.140  33.874  1.00  0.00    -0.354 N 
ATOM     61  N   UNL A   1      41.620  29.286  31.609  1.00  0.00    -0.248 NA
ATOM     62  C   UNL A   1      42.507  27.490  30.409  1.00  0.00     0.031 C 
ATOM     63  C   UNL A   1      43.311  30.830  35.412  1.00  0.00     0.029 A 
ATOM     64  C   UNL A   1      42.810  30.335  34.218  1.00  0.00     0.049 A 
ATOM     65  H   UNL A   1      41.184  31.030  33.066  1.00  0.00     0.167 HD
ATOM     66  C   UNL A   1      42.720  28.781  32.290  1.00  0.00     0.074 A 
ATOM     67  C   UNL A   1      43.209  27.656  31.521  1.00  0.00     0.031 C 
ATOM     68  C   UNL A   1      43.276  29.212  33.448  1.00  0.00     0.037 A 
BRANCH  55  69
ATOM     69  C   UNL A   1      40.541  34.193  35.854  1.00  0.00     0.057 A 
ATOM     70  C   UNL A   1      41.226  35.404  35.702  1.00  0.00     0.134 A 
ATOM     71  C   UNL A   1      39.806  34.009  37.032  1.00  0.00     0.134 A 
ATOM     72  F   UNL A   1      41.958  35.638  34.602  1.00  0.00    -0.206 F 
ATOM     73  C   UNL A   1      41.199  36.388  36.692  1.00  0.00     0.040 A 
ATOM     74  C   UNL A   1      39.751  34.995  38.019  1.00  0.00     0.040 A 
ATOM     75  F   UNL A   1      39.122  32.873  37.239  1.00  0.00    -0.206 F 
ATOM     76  C   UNL A   1      40.453  36.187  37.852  1.00  0.00     0.006 A 
ENDBRANCH  55  69
BRANCH  56  77
ATOM     77  C   UNL A   1      40.486  27.678  28.306  1.00  0.00     0.057 A 
ATOM     78  C   UNL A   1      39.828  26.444  28.360  1.00  0.00     0.134 A 
ATOM     79  C   UNL A   1      41.193  27.982  27.138  1.00  0.00     0.134 A 
ATOM     80  F   UNL A   1      39.151  26.089  29.462  1.00  0.00    -0.206 F 
ATOM     81  C   UNL A   1      39.888  25.537  27.301  1.00  0.00     0.040 A 
ATOM     82  C   UNL A   1      41.244  27.094  26.062  1.00  0.00     0.040 A 
ATOM     83  F   UNL A   1      41.840  29.152  27.021  1.00  0.00    -0.206 F 
ATOM     84  C   UNL A   1      40.596  25.862  26.146  1.00  0.00     0.006 A 
ENDBRANCH  56  77
BRANCH  68  85
ATOM     85  C   UNL A   1      44.454  28.445  33.971  1.00  0.00     0.057 A 
ATOM     86  C   UNL A   1      45.769  28.818  33.670  1.00  0.00     0.134 A 
ATOM     87  C   UNL A   1      44.268  27.348  34.822  1.00  0.00     0.134 A 
ATOM     88  F   UNL A   1      46.013  29.851  32.850  1.00  0.00    -0.206 F 
ATOM     89  C   UNL A   1      46.860  28.114  34.182  1.00  0.00     0.040 A 
ATOM     90  C   UNL A   1      45.350  26.651  35.359  1.00  0.00     0.040 A 
ATOM     91  F   UNL A   1      43.032  26.945  35.155  1.00  0.00    -0.206 F 
ATOM     92  C   UNL A   1      46.652  27.030  35.035  1.00  0.00     0.006 A 
ENDBRANCH  68  85
ENDBRANCH  42  43
ENDBRANCH  34  37
ENDBRANCH  32  33
ENDBRANCH  31  32
ENDBRANCH  30  31
ENDBRANCH   1  30
TORSDOF 16
ENDMDL
MODEL 3
REMARK VINA RESULT:     -11.9      4.634      9.760
REMARK SMILES COc1ccc(Br)cc1CNc1ccc(N2CCOCC2)c(C(=O)NCCCCNC(=O)c2ccc(-c3c4nc(c(-c5c(F)cccc5F)c5ccc([nH]5)c(-c5c(F)cccc5F)c5nc(c(-c6c(F)cccc6F)c6ccc3[nH]6)C=C5)C=C4)cc2)c1
REMARK SMILES IDX 26 1 25 2 23 3 24 4 22 6 12 7 13 8 87 9 14 10 15 11 11 12
REMARK SMILES IDX 10 14 9 15 3 16 4 17 5 18 8 19 6 20 7 21 2 22 1 23 16 24
REMARK SMILES IDX 17 25 21 26 18 27 20 28 19 29 27 30 28 31 29 32 30 33 31 34
REMARK SMILES IDX 32 36 33 37 34 38 86 39 35 40 85 41 36 42 37 43 38 44 79 45
REMARK SMILES IDX 39 46 84 47 78 48 80 49 40 50 83 51 77 52 76 53 41 55 67 56
REMARK SMILES IDX 50 57 66 58 51 59 54 60 65 61 81 62 52 63 53 64 64 66 82 67
REMARK SMILES IDX 55 68 42 69 43 70 48 71 44 72 45 73 47 74 49 75 46 76 68 77
REMARK SMILES IDX 69 78 74 79 70 80 71 81 73 82 75 83 72 84 56 85 57 86 62 87
REMARK SMILES IDX 58 88 59 89 61 90 63 91 60 92
REMARK H PARENT 25 5 11 13 30 35 80 54 54 65
REMARK Flexibility Score: inf
ROOT
ATOM      1  C   UNL A   1      33.071  29.420  26.494  1.00  0.00     0.116 C 
ENDROOT
BRANCH   1   2
ATOM      2  N   UNL A   1      33.491  29.528  25.104  1.00  0.00    -0.352 N 
ATOM      3  C   UNL A   1      32.976  28.962  23.946  1.00  0.00     0.253 C 
ATOM      4  O   UNL A   1      33.446  29.350  22.879  1.00  0.00    -0.269 OA
ATOM      5  H   UNL A   1      34.277  30.104  24.960  1.00  0.00     0.163 HD
BRANCH   3   6
ATOM      6  C   UNL A   1      31.917  27.907  24.008  1.00  0.00     0.065 A 
ATOM      7  C   UNL A   1      31.439  25.563  24.542  1.00  0.00     0.035 A 
ATOM      8  C   UNL A   1      30.197  25.716  23.930  1.00  0.00     0.028 A 
ATOM      9  C   UNL A   1      32.235  26.698  24.645  1.00  0.00     0.041 A 
ATOM     10  C   UNL A   1      29.778  26.962  23.455  1.00  0.00     0.029 A 
ATOM     11  C   UNL A   1      30.618  28.088  23.495  1.00  0.00     0.050 A 
BRANCH   7  12
ATOM     12  N   UNL A   1      31.800  24.337  25.051  1.00  0.00    -0.381 N 
ATOM     13  H   UNL A   1      31.991  24.290  26.015  1.00  0.00     0.160 HD
BRANCH  12  14
ATOM     14  C   UNL A   1      31.925  23.103  24.288  1.00  0.00     0.152 C 
BRANCH  14  15
ATOM     15  C   UNL A   1      33.226  22.423  24.645  1.00  0.00     0.014 A 
ATOM     16  C   UNL A   1      33.356  21.025  24.616  1.00  0.00     0.123 A 
ATOM     17  C   UNL A   1      34.587  20.441  24.934  1.00  0.00     0.048 A 
ATOM     18  C   UNL A   1      35.685  21.239  25.275  1.00  0.00     0.019 A 
ATOM     19  C   UNL A   1      34.350  23.216  24.954  1.00  0.00     0.025 A 
ATOM     20  C   UNL A   1      35.563  22.624  25.278  1.00  0.00     0.018 A 
ATOM     21  Br  UNL A   1      37.046  23.709  25.716  1.00  0.00    -0.051 Br
BRANCH  16  22
ATOM     22  O   UNL A   1      32.252  20.321  24.213  1.00  0.00    -0.496 OA
ATOM     23  C   UNL A   1      32.442  18.934  23.955  1.00  0.00     0.278 C 
ENDBRANCH  16  22
ENDBRANCH  14  15
ENDBRANCH  12  14
ENDBRANCH   7  12
BRANCH  11  24
ATOM     24  N   UNL A   1      30.102  29.313  23.128  1.00  0.00    -0.366 N 
ATOM     25  C   UNL A   1      29.797  30.364  24.097  1.00  0.00     0.145 C 
ATOM     26  C   UNL A   1      30.141  29.721  21.722  1.00  0.00     0.145 C 
ATOM     27  C   UNL A   1      28.575  31.179  23.627  1.00  0.00     0.181 C 
ATOM     28  C   UNL A   1      28.862  30.501  21.390  1.00  0.00     0.181 C 
ATOM     29  O   UNL A   1      28.713  31.633  22.266  1.00  0.00    -0.378 OA
ENDBRANCH  11  24
ENDBRANCH   3   6
ENDBRANCH   1   2
BRANCH   1  30
ATOM     30  C   UNL A   1      31.796  30.168  26.858  1.00  0.00     0.023 C 
BRANCH  30  31
ATOM     31  C   UNL A   1      31.779  31.668  26.600  1.00  0.00     0.023 C 
BRANCH  31  32
ATOM     32  C   UNL A   1      32.882  32.483  27.263  1.00  0.00     0.116 C 
BRANCH  32  33
ATOM     33  N   UNL A   1      32.494  33.844  27.600  1.00  0.00    -0.352 N 
ATOM     34  C   UNL A   1      33.052  34.724  28.499  1.00  0.00     0.251 C 
ATOM     35  H   UNL A   1      31.712  34.189  27.110  1.00  0.00     0.163 HD
ATOM     36  O   UNL A   1      32.536  35.818  28.691  1.00  0.00    -0.269 OA
BRANCH  34  37
ATOM     37  C   UNL A   1      34.252  34.331  29.273  1.00  0.00     0.039 A 
ATOM     38  C   UNL A   1      34.075  33.720  30.517  1.00  0.00     0.014 A 
ATOM     39  C   UNL A   1      35.538  34.530  28.767  1.00  0.00     0.014 A 
ATOM     40  C   UNL A   1      35.181  33.219  31.207  1.00  0.00     0.010 A 
ATOM     41  C   UNL A   1      36.630  33.961  29.416  1.00  0.00     0.010 A 
ATOM     42  C   UNL A   1      36.463  33.290  30.638  1.00  0.00    -0.014 A 
BRANCH  42  43
ATOM     43  C   UNL A   1      37.636  32.653  31.290  1.00  0.00     0.031 A 
ATOM     44  C   UNL A   1      38.316  31.478  30.642  1.00  0.00     0.074 A 
ATOM     45  C   UNL A   1      38.034  33.074  32.507  1.00  0.00     0.049 A 
ATOM     46  N   UNL A   1      39.288  30.731  31.100  1.00  0.00    -0.248 NA
ATOM     47  C   UNL A   1      37.817  31.072  29.318  1.00  0.00     0.031 C 
ATOM     48  C   UNL A   1      37.419  34.162  33.271  1.00  0.00     0.029 A 
ATOM     49  N   UNL A   1      39.040  32.624  33.325  1.00  0.00    -0.354 N 
ATOM     50  C   UNL A   1      39.497  29.754  30.136  1.00  0.00     0.074 A 
ATOM     51  C   UNL A   1      38.526  29.977  29.087  1.00  0.00     0.031 C 
ATOM     52  C   UNL A   1      38.068  34.302  34.438  1.00  0.00     0.029 A 
ATOM     53  C   UNL A   1      39.121  33.295  34.522  1.00  0.00     0.049 A 
ATOM     54  H   UNL A   1      39.646  31.889  33.078  1.00  0.00     0.167 HD
ATOM     55  C   UNL A   1      40.428  28.770  30.116  1.00  0.00     0.037 A 
ATOM     56  C   UNL A   1      39.944  33.114  35.572  1.00  0.00     0.037 A 
ATOM     57  C   UNL A   1      41.421  28.574  31.139  1.00  0.00     0.049 A 
ATOM     58  C   UNL A   1      40.988  32.034  35.511  1.00  0.00     0.074 A 
ATOM     59  C   UNL A   1      42.459  27.659  31.166  1.00  0.00     0.029 A 
ATOM     60  N   UNL A   1      41.500  29.306  32.313  1.00  0.00    -0.354 N 
ATOM     61  N   UNL A   1      41.227  31.169  34.556  1.00  0.00    -0.248 NA
ATOM     62  C   UNL A   1      41.882  31.908  36.672  1.00  0.00     0.031 C 
ATOM     63  C   UNL A   1      43.146  27.814  32.375  1.00  0.00     0.029 A 
ATOM     64  C   UNL A   1      42.558  28.851  33.082  1.00  0.00     0.049 A 
ATOM     65  H   UNL A   1      40.893  30.040  32.564  1.00  0.00     0.167 HD
ATOM     66  C   UNL A   1      42.311  30.416  34.987  1.00  0.00     0.074 A 
ATOM     67  C   UNL A   1      42.693  30.934  36.284  1.00  0.00     0.031 C 
ATOM     68  C   UNL A   1      42.933  29.385  34.365  1.00  0.00     0.037 A 
BRANCH  55  69
ATOM     69  C   UNL A   1      40.424  27.833  28.945  1.00  0.00     0.057 A 
ATOM     70  C   UNL A   1      39.650  26.666  28.937  1.00  0.00     0.134 A 
ATOM     71  C   UNL A   1      41.165  28.126  27.794  1.00  0.00     0.134 A 
ATOM     72  F   UNL A   1      38.927  26.323  30.013  1.00  0.00    -0.206 F 
ATOM     73  C   UNL A   1      39.631  25.810  27.834  1.00  0.00     0.040 A 
ATOM     74  C   UNL A   1      41.134  27.292  26.675  1.00  0.00     0.040 A 
ATOM     75  F   UNL A   1      41.922  29.232  27.732  1.00  0.00    -0.206 F 
ATOM     76  C   UNL A   1      40.369  26.127  26.695  1.00  0.00     0.006 A 
ENDBRANCH  55  69
BRANCH  56  77
ATOM     77  C   UNL A   1      39.828  33.985  36.769  1.00  0.00     0.057 A 
ATOM     78  C   UNL A   1      38.985  33.643  37.832  1.00  0.00     0.134 A 
ATOM     79  C   UNL A   1      40.541  35.185  36.871  1.00  0.00     0.134 A 
ATOM     80  F   UNL A   1      38.262  32.514  37.782  1.00  0.00    -0.206 F 
ATOM     81  C   UNL A   1      38.839  34.471  38.946  1.00  0.00     0.040 A 
ATOM     82  C   UNL A   1      40.422  36.013  37.989  1.00  0.00     0.040 A 
ATOM     83  F   UNL A   1      41.370  35.567  35.888  1.00  0.00    -0.206 F 
ATOM     84  C   UNL A   1      39.561  35.660  39.027  1.00  0.00     0.006 A 
ENDBRANCH  56  77
BRANCH  68  85
ATOM     85  C   UNL A   1      44.111  28.773  35.062  1.00  0.00     0.057 A 
ATOM     86  C   UNL A   1      43.970  27.682  35.927  1.00  0.00     0.134 A 
ATOM     87  C   UNL A   1      45.405  29.254  34.828  1.00  0.00     0.134 A 
ATOM     88  F   UNL A   1      42.755  27.184  36.203  1.00  0.00    -0.206 F 
ATOM     89  C   UNL A   1      45.075  27.102  36.552  1.00  0.00     0.040 A 
ATOM     90  C   UNL A   1      46.520  28.667  35.427  1.00  0.00     0.040 A 
ATOM     91  F   UNL A   1      45.608  30.292  34.002  1.00  0.00    -0.206 F 
ATOM     92  C   UNL A   1      46.356  27.591  36.297  1.00  0.00     0.006 A 
ENDBRANCH  68  85
ENDBRANCH  42  43
ENDBRANCH  34  37
ENDBRANCH  32  33
ENDBRANCH  31  32
ENDBRANCH  30  31
ENDBRANCH   1  30
TORSDOF 16
ENDMDL
