MODEL 1
REMARK VINA RESULT:     -12.2      0.000      0.000
REMARK SMILES CS(=O)(=O)c1ccc(-c2csc(=O)n2CC(=O)NCCCCNC(=O)c2ccc(-c3c4nc(c(-c5c(F)cccc5F)c5ccc([nH]5)c(-c5c(F)cccc5F)c5nc(c(-c6c(F)cccc6F)c6ccc3[nH]6)C=C5)C=C4)cc2)cc1
REMARK SMILES IDX 20 1 19 2 18 3 16 4 17 5 15 7 14 8 9 9 10 10 11 11 12 12
REMARK SMILES IDX 13 13 8 14 5 15 6 16 81 17 7 18 80 19 2 20 1 21 3 22 4 23
REMARK SMILES IDX 21 24 22 25 23 26 24 27 25 29 26 30 27 31 79 32 28 33 78 34
REMARK SMILES IDX 29 35 30 36 31 37 72 38 32 39 77 40 71 41 73 42 33 43 76 44
REMARK SMILES IDX 70 45 69 46 34 48 60 49 43 50 59 51 44 52 47 53 58 54 74 55
REMARK SMILES IDX 45 56 46 57 57 59 75 60 48 61 35 62 36 63 41 64 37 65 38 66
REMARK SMILES IDX 40 67 42 68 39 69 61 70 62 71 67 72 63 73 64 74 66 75 68 76
REMARK SMILES IDX 65 77 49 78 50 79 55 80 51 81 52 82 54 83 56 84 53 85
REMARK H PARENT 18 6 23 28 73 47 47 58
REMARK Flexibility Score: inf
ROOT
ATOM      1  C   UNL A   1      32.561  28.583  27.469  1.00  0.00     0.023 C 
ENDROOT
BRANCH   1   2
ATOM      2  C   UNL A   1      31.479  27.992  26.567  1.00  0.00     0.116 C 
BRANCH   2   3
ATOM      3  N   UNL A   1      31.156  26.623  26.894  1.00  0.00    -0.355 N 
ATOM      4  C   UNL A   1      31.848  25.486  26.590  1.00  0.00     0.240 C 
ATOM      5  O   UNL A   1      31.569  24.472  27.237  1.00  0.00    -0.273 OA
ATOM      6  H   UNL A   1      30.325  26.493  27.405  1.00  0.00     0.163 HD
BRANCH   4   7
ATOM      7  C   UNL A   1      33.050  25.504  25.630  1.00  0.00     0.226 C 
BRANCH   7   8
ATOM      8  N   UNL A   1      32.874  24.770  24.386  1.00  0.00    -0.289 N 
ATOM      9  C   UNL A   1      32.072  25.124  23.305  1.00  0.00     0.063 A 
ATOM     10  C   UNL A   1      32.174  24.280  22.266  1.00  0.00     0.097 A 
ATOM     11  S   UNL A   1      33.309  23.006  22.568  1.00  0.00    -0.082 S 
ATOM     12  C   UNL A   1      33.683  23.652  24.173  1.00  0.00     0.308 A 
ATOM     13  O   UNL A   1      34.499  23.166  24.921  1.00  0.00    -0.257 OA
BRANCH   9  14
ATOM     14  C   UNL A   1      31.152  26.269  23.289  1.00  0.00    -0.001 A 
ATOM     15  C   UNL A   1      29.363  28.403  22.959  1.00  0.00     0.067 A 
ATOM     16  C   UNL A   1      28.928  27.205  23.538  1.00  0.00     0.021 A 
ATOM     17  C   UNL A   1      30.698  28.567  22.597  1.00  0.00     0.021 A 
ATOM     18  C   UNL A   1      29.823  26.146  23.711  1.00  0.00     0.011 A 
ATOM     19  C   UNL A   1      31.589  27.506  22.780  1.00  0.00     0.011 A 
BRANCH  15  20
ATOM     20  S   UNL A   1      28.141  29.661  22.664  1.00  0.00     0.175 S 
ATOM     21  C   UNL A   1      28.679  31.132  23.488  1.00  0.00     0.163 C 
ATOM     22  O   UNL A   1      26.926  29.204  23.308  1.00  0.00    -0.224 OA
ATOM     23  O   UNL A   1      28.184  29.932  21.239  1.00  0.00    -0.224 OA
ENDBRANCH  15  20
ENDBRANCH   9  14
ENDBRANCH   7   8
ENDBRANCH   4   7
ENDBRANCH   2   3
ENDBRANCH   1   2
BRANCH   1  24
ATOM     24  C   UNL A   1      33.639  29.396  26.739  1.00  0.00     0.023 C 
BRANCH  24  25
ATOM     25  C   UNL A   1      35.032  29.299  27.354  1.00  0.00     0.116 C 
BRANCH  25  26
ATOM     26  N   UNL A   1      35.204  30.173  28.510  1.00  0.00    -0.352 N 
ATOM     27  C   UNL A   1      36.210  30.132  29.453  1.00  0.00     0.251 C 
ATOM     28  H   UNL A   1      34.524  30.875  28.630  1.00  0.00     0.163 HD
ATOM     29  O   UNL A   1      36.064  30.656  30.551  1.00  0.00    -0.269 OA
BRANCH  27  30
ATOM     30  C   UNL A   1      37.473  29.451  29.120  1.00  0.00     0.039 A 
ATOM     31  C   UNL A   1      38.189  29.810  27.976  1.00  0.00     0.014 A 
ATOM     32  C   UNL A   1      37.945  28.459  29.980  1.00  0.00     0.014 A 
ATOM     33  C   UNL A   1      39.434  29.227  27.751  1.00  0.00     0.010 A 
ATOM     34  C   UNL A   1      39.214  27.948  29.804  1.00  0.00     0.010 A 
ATOM     35  C   UNL A   1      39.959  28.316  28.684  1.00  0.00    -0.014 A 
BRANCH  35  36
ATOM     36  C   UNL A   1      41.363  27.908  28.583  1.00  0.00     0.031 A 
ATOM     37  C   UNL A   1      41.575  26.647  27.814  1.00  0.00     0.074 A 
ATOM     38  C   UNL A   1      42.406  28.688  28.938  1.00  0.00     0.049 A 
ATOM     39  N   UNL A   1      42.050  25.526  28.244  1.00  0.00    -0.248 NA
ATOM     40  C   UNL A   1      41.082  26.586  26.426  1.00  0.00     0.031 C 
ATOM     41  C   UNL A   1      42.366  30.075  29.415  1.00  0.00     0.029 A 
ATOM     42  N   UNL A   1      43.747  28.442  28.843  1.00  0.00    -0.354 N 
ATOM     43  C   UNL A   1      42.116  24.684  27.136  1.00  0.00     0.074 A 
ATOM     44  C   UNL A   1      41.349  25.321  26.099  1.00  0.00     0.031 C 
ATOM     45  C   UNL A   1      43.603  30.614  29.347  1.00  0.00     0.029 A 
ATOM     46  C   UNL A   1      44.547  29.573  28.983  1.00  0.00     0.049 A 
ATOM     47  H   UNL A   1      44.116  27.542  28.690  1.00  0.00     0.167 HD
ATOM     48  C   UNL A   1      43.020  23.666  27.085  1.00  0.00     0.037 A 
ATOM     49  C   UNL A   1      45.888  29.661  28.801  1.00  0.00     0.037 A 
ATOM     50  C   UNL A   1      43.534  23.373  28.400  1.00  0.00     0.049 A 
ATOM     51  C   UNL A   1      46.438  28.294  28.899  1.00  0.00     0.074 A 
ATOM     52  C   UNL A   1      43.011  22.928  29.596  1.00  0.00     0.029 A 
ATOM     53  N   UNL A   1      44.766  23.899  28.688  1.00  0.00    -0.354 N 
ATOM     54  N   UNL A   1      46.492  27.607  30.003  1.00  0.00    -0.248 NA
ATOM     55  C   UNL A   1      46.621  27.526  27.677  1.00  0.00     0.031 C 
ATOM     56  C   UNL A   1      43.786  23.571  30.609  1.00  0.00     0.029 A 
ATOM     57  C   UNL A   1      44.776  24.332  29.984  1.00  0.00     0.049 A 
ATOM     58  H   UNL A   1      45.523  23.956  28.062  1.00  0.00     0.167 HD
ATOM     59  C   UNL A   1      46.249  26.303  29.610  1.00  0.00     0.074 A 
ATOM     60  C   UNL A   1      46.508  26.292  28.173  1.00  0.00     0.031 C 
ATOM     61  C   UNL A   1      45.574  25.449  30.434  1.00  0.00     0.037 A 
BRANCH  48  62
ATOM     62  C   UNL A   1      43.790  23.265  25.837  1.00  0.00     0.057 A 
ATOM     63  C   UNL A   1      43.854  21.900  25.490  1.00  0.00     0.134 A 
ATOM     64  C   UNL A   1      44.727  24.086  25.175  1.00  0.00     0.134 A 
ATOM     65  F   UNL A   1      43.023  21.007  26.049  1.00  0.00    -0.206 F 
ATOM     66  C   UNL A   1      44.838  21.382  24.636  1.00  0.00     0.040 A 
ATOM     67  C   UNL A   1      45.680  23.586  24.282  1.00  0.00     0.040 A 
ATOM     68  F   UNL A   1      44.845  25.394  25.424  1.00  0.00    -0.206 F 
ATOM     69  C   UNL A   1      45.764  22.225  24.038  1.00  0.00     0.006 A 
ENDBRANCH  48  62
BRANCH  49  70
ATOM     70  C   UNL A   1      46.724  30.799  28.360  1.00  0.00     0.057 A 
ATOM     71  C   UNL A   1      46.711  31.234  27.025  1.00  0.00     0.134 A 
ATOM     72  C   UNL A   1      47.323  31.668  29.285  1.00  0.00     0.134 A 
ATOM     73  F   UNL A   1      46.136  30.489  26.069  1.00  0.00    -0.206 F 
ATOM     74  C   UNL A   1      47.224  32.480  26.640  1.00  0.00     0.040 A 
ATOM     75  C   UNL A   1      47.846  32.912  28.914  1.00  0.00     0.040 A 
ATOM     76  F   UNL A   1      47.337  31.379  30.595  1.00  0.00    -0.206 F 
ATOM     77  C   UNL A   1      47.780  33.331  27.589  1.00  0.00     0.006 A 
ENDBRANCH  49  70
BRANCH  61  78
ATOM     78  C   UNL A   1      45.486  25.823  31.887  1.00  0.00     0.057 A 
ATOM     79  C   UNL A   1      46.500  25.612  32.833  1.00  0.00     0.134 A 
ATOM     80  C   UNL A   1      44.347  26.507  32.325  1.00  0.00     0.134 A 
ATOM     81  F   UNL A   1      47.668  25.053  32.491  1.00  0.00    -0.206 F 
ATOM     82  C   UNL A   1      46.359  26.012  34.166  1.00  0.00     0.040 A 
ATOM     83  C   UNL A   1      44.209  26.947  33.643  1.00  0.00     0.040 A 
ATOM     84  F   UNL A   1      43.355  26.790  31.464  1.00  0.00    -0.206 F 
ATOM     85  C   UNL A   1      45.211  26.686  34.573  1.00  0.00     0.006 A 
ENDBRANCH  61  78
ENDBRANCH  35  36
ENDBRANCH  27  30
ENDBRANCH  25  26
ENDBRANCH  24  25
ENDBRANCH   1  24
TORSDOF 14
ENDMDL
MODEL 2
REMARK VINA RESULT:     -11.6      3.696      8.298
REMARK SMILES CS(=O)(=O)c1ccc(-c2csc(=O)n2CC(=O)NCCCCNC(=O)c2ccc(-c3c4nc(c(-c5c(F)cccc5F)c5ccc([nH]5)c(-c5c(F)cccc5F)c5nc(c(-c6c(F)cccc6F)c6ccc3[nH]6)C=C5)C=C4)cc2)cc1
REMARK SMILES IDX 20 1 19 2 18 3 16 4 17 5 15 7 14 8 9 9 10 10 11 11 12 12
REMARK SMILES IDX 13 13 8 14 5 15 6 16 81 17 7 18 80 19 2 20 1 21 3 22 4 23
REMARK SMILES IDX 21 24 22 25 23 26 24 27 25 29 26 30 27 31 79 32 28 33 78 34
REMARK SMILES IDX 29 35 30 36 31 37 72 38 32 39 77 40 71 41 73 42 33 43 76 44
REMARK SMILES IDX 70 45 69 46 34 48 60 49 43 50 59 51 44 52 47 53 58 54 74 55
REMARK SMILES IDX 45 56 46 57 57 59 75 60 48 61 35 62 36 63 41 64 37 65 38 66
REMARK SMILES IDX 40 67 42 68 39 69 61 70 62 71 67 72 63 73 64 74 66 75 68 76
REMARK SMILES IDX 65 77 49 78 50 79 55 80 51 81 52 82 54 83 56 84 53 85
REMARK H PARENT 18 6 23 28 73 47 47 58
REMARK Flexibility Score: inf
ROOT
ATOM      1  C   UNL A   1      38.613  20.745  25.331  1.00  0.00     0.023 C 
ENDROOT
BRANCH   1   2
ATOM      2  C   UNL A   1      37.168  21.100  24.990  1.00  0.00     0.116 C 
BRANCH   2   3
ATOM      3  N   UNL A   1      36.529  21.908  26.002  1.00  0.00    -0.355 N 
ATOM      4  C   UNL A   1      35.399  22.666  25.903  1.00  0.00     0.240 C 
ATOM      5  O   UNL A   1      34.858  23.006  26.960  1.00  0.00    -0.273 OA
ATOM      6  H   UNL A   1      36.970  21.912  26.883  1.00  0.00     0.163 HD
BRANCH   4   7
ATOM      7  C   UNL A   1      34.714  22.923  24.549  1.00  0.00     0.226 C 
BRANCH   7   8
ATOM      8  N   UNL A   1      33.283  23.181  24.606  1.00  0.00    -0.289 N 
ATOM      9  C   UNL A   1      32.260  22.241  24.688  1.00  0.00     0.063 A 
ATOM     10  C   UNL A   1      31.039  22.790  24.800  1.00  0.00     0.097 A 
ATOM     11  S   UNL A   1      31.102  24.521  24.843  1.00  0.00    -0.082 S 
ATOM     12  C   UNL A   1      32.868  24.509  24.722  1.00  0.00     0.308 A 
ATOM     13  O   UNL A   1      33.551  25.507  24.732  1.00  0.00    -0.257 OA
BRANCH   9  14
ATOM     14  C   UNL A   1      32.454  20.787  24.609  1.00  0.00    -0.001 A 
ATOM     15  C   UNL A   1      33.097  18.072  24.335  1.00  0.00     0.067 A 
ATOM     16  C   UNL A   1      33.177  18.690  25.589  1.00  0.00     0.021 A 
ATOM     17  C   UNL A   1      32.641  18.782  23.226  1.00  0.00     0.021 A 
ATOM     18  C   UNL A   1      32.846  20.041  25.726  1.00  0.00     0.011 A 
ATOM     19  C   UNL A   1      32.306  20.131  23.373  1.00  0.00     0.011 A 
BRANCH  15  20
ATOM     20  S   UNL A   1      33.646  16.385  24.217  1.00  0.00     0.175 S 
ATOM     21  C   UNL A   1      35.093  16.223  25.225  1.00  0.00     0.163 C 
ATOM     22  O   UNL A   1      34.035  16.181  22.837  1.00  0.00    -0.224 OA
ATOM     23  O   UNL A   1      32.606  15.583  24.836  1.00  0.00    -0.224 OA
ENDBRANCH  15  20
ENDBRANCH   9  14
ENDBRANCH   7   8
ENDBRANCH   4   7
ENDBRANCH   2   3
ENDBRANCH   1   2
BRANCH   1  24
ATOM     24  C   UNL A   1      39.323  21.744  26.255  1.00  0.00     0.023 C 
BRANCH  24  25
ATOM     25  C   UNL A   1      40.640  21.241  26.841  1.00  0.00     0.116 C 
BRANCH  25  26
ATOM     26  N   UNL A   1      41.789  21.540  25.992  1.00  0.00    -0.352 N 
ATOM     27  C   UNL A   1      42.316  22.780  25.694  1.00  0.00     0.251 C 
ATOM     28  H   UNL A   1      42.242  20.766  25.584  1.00  0.00     0.163 HD
ATOM     29  O   UNL A   1      43.028  22.940  24.710  1.00  0.00    -0.269 OA
BRANCH  27  30
ATOM     30  C   UNL A   1      42.014  23.914  26.583  1.00  0.00     0.039 A 
ATOM     31  C   UNL A   1      42.636  24.022  27.828  1.00  0.00     0.014 A 
ATOM     32  C   UNL A   1      41.113  24.885  26.146  1.00  0.00     0.014 A 
ATOM     33  C   UNL A   1      42.416  25.164  28.594  1.00  0.00     0.010 A 
ATOM     34  C   UNL A   1      40.963  26.054  26.863  1.00  0.00     0.010 A 
ATOM     35  C   UNL A   1      41.600  26.194  28.095  1.00  0.00    -0.014 A 
BRANCH  35  36
ATOM     36  C   UNL A   1      41.579  27.492  28.777  1.00  0.00     0.031 A 
ATOM     37  C   UNL A   1      42.710  28.392  28.407  1.00  0.00     0.074 A 
ATOM     38  C   UNL A   1      40.534  27.952  29.499  1.00  0.00     0.049 A 
ATOM     39  N   UNL A   1      43.650  28.839  29.171  1.00  0.00    -0.248 NA
ATOM     40  C   UNL A   1      42.889  28.737  26.985  1.00  0.00     0.031 C 
ATOM     41  C   UNL A   1      39.227  27.312  29.689  1.00  0.00     0.029 A 
ATOM     42  N   UNL A   1      40.375  29.153  30.131  1.00  0.00    -0.354 N 
ATOM     43  C   UNL A   1      44.418  29.692  28.379  1.00  0.00     0.074 A 
ATOM     44  C   UNL A   1      44.015  29.450  27.020  1.00  0.00     0.031 C 
ATOM     45  C   UNL A   1      38.349  28.213  30.182  1.00  0.00     0.029 A 
ATOM     46  C   UNL A   1      39.063  29.437  30.496  1.00  0.00     0.049 A 
ATOM     47  H   UNL A   1      41.126  29.764  30.314  1.00  0.00     0.167 HD
ATOM     48  C   UNL A   1      45.125  30.713  28.936  1.00  0.00     0.037 A 
ATOM     49  C   UNL A   1      38.583  30.598  31.008  1.00  0.00     0.037 A 
ATOM     50  C   UNL A   1      45.277  30.515  30.356  1.00  0.00     0.049 A 
ATOM     51  C   UNL A   1      39.732  31.345  31.562  1.00  0.00     0.074 A 
ATOM     52  C   UNL A   1      45.876  29.577  31.172  1.00  0.00     0.029 A 
ATOM     53  N   UNL A   1      44.419  31.228  31.152  1.00  0.00    -0.354 N 
ATOM     54  N   UNL A   1      40.391  30.984  32.625  1.00  0.00    -0.248 NA
ATOM     55  C   UNL A   1      40.392  32.332  30.722  1.00  0.00     0.031 C 
ATOM     56  C   UNL A   1      45.051  29.509  32.336  1.00  0.00     0.029 A 
ATOM     57  C   UNL A   1      44.024  30.444  32.199  1.00  0.00     0.049 A 
ATOM     58  H   UNL A   1      44.133  32.156  30.994  1.00  0.00     0.167 HD
ATOM     59  C   UNL A   1      41.702  31.329  32.350  1.00  0.00     0.074 A 
ATOM     60  C   UNL A   1      41.613  32.297  31.260  1.00  0.00     0.031 C 
ATOM     61  C   UNL A   1      42.729  30.568  32.829  1.00  0.00     0.037 A 
BRANCH  48  62
ATOM     62  C   UNL A   1      45.264  32.096  28.321  1.00  0.00     0.057 A 
ATOM     63  C   UNL A   1      44.094  32.828  28.028  1.00  0.00     0.134 A 
ATOM     64  C   UNL A   1      46.434  32.585  27.705  1.00  0.00     0.134 A 
ATOM     65  F   UNL A   1      42.909  32.469  28.545  1.00  0.00    -0.206 F 
ATOM     66  C   UNL A   1      44.076  33.892  27.115  1.00  0.00     0.040 A 
ATOM     67  C   UNL A   1      46.435  33.679  26.832  1.00  0.00     0.040 A 
ATOM     68  F   UNL A   1      47.621  31.982  27.826  1.00  0.00    -0.206 F 
ATOM     69  C   UNL A   1      45.249  34.313  26.504  1.00  0.00     0.006 A 
ENDBRANCH  48  62
BRANCH  49  70
ATOM     70  C   UNL A   1      37.243  31.216  30.896  1.00  0.00     0.057 A 
ATOM     71  C   UNL A   1      36.439  31.414  32.030  1.00  0.00     0.134 A 
ATOM     72  C   UNL A   1      36.845  31.891  29.733  1.00  0.00     0.134 A 
ATOM     73  F   UNL A   1      36.753  30.835  33.199  1.00  0.00    -0.206 F 
ATOM     74  C   UNL A   1      35.330  32.269  32.019  1.00  0.00     0.040 A 
ATOM     75  C   UNL A   1      35.735  32.744  29.705  1.00  0.00     0.040 A 
ATOM     76  F   UNL A   1      37.574  31.820  28.609  1.00  0.00    -0.206 F 
ATOM     77  C   UNL A   1      34.984  32.951  30.857  1.00  0.00     0.006 A 
ENDBRANCH  49  70
BRANCH  61  78
ATOM     78  C   UNL A   1      42.422  29.638  33.968  1.00  0.00     0.057 A 
ATOM     79  C   UNL A   1      41.986  28.312  33.827  1.00  0.00     0.134 A 
ATOM     80  C   UNL A   1      42.663  30.087  35.272  1.00  0.00     0.134 A 
ATOM     81  F   UNL A   1      41.818  27.757  32.620  1.00  0.00    -0.206 F 
ATOM     82  C   UNL A   1      41.745  27.493  34.936  1.00  0.00     0.040 A 
ATOM     83  C   UNL A   1      42.465  29.268  36.385  1.00  0.00     0.040 A 
ATOM     84  F   UNL A   1      43.130  31.329  35.482  1.00  0.00    -0.206 F 
ATOM     85  C   UNL A   1      41.989  27.971  36.220  1.00  0.00     0.006 A 
ENDBRANCH  61  78
ENDBRANCH  35  36
ENDBRANCH  27  30
ENDBRANCH  25  26
ENDBRANCH  24  25
ENDBRANCH   1  24
TORSDOF 14
ENDMDL
MODEL 3
REMARK VINA RESULT:     -11.6      2.003      6.149
REMARK SMILES CS(=O)(=O)c1ccc(-c2csc(=O)n2CC(=O)NCCCCNC(=O)c2ccc(-c3c4nc(c(-c5c(F)cccc5F)c5ccc([nH]5)c(-c5c(F)cccc5F)c5nc(c(-c6c(F)cccc6F)c6ccc3[nH]6)C=C5)C=C4)cc2)cc1
REMARK SMILES IDX 20 1 19 2 18 3 16 4 17 5 15 7 14 8 9 9 10 10 11 11 12 12
REMARK SMILES IDX 13 13 8 14 5 15 6 16 81 17 7 18 80 19 2 20 1 21 3 22 4 23
REMARK SMILES IDX 21 24 22 25 23 26 24 27 25 29 26 30 27 31 79 32 28 33 78 34
REMARK SMILES IDX 29 35 30 36 31 37 72 38 32 39 77 40 71 41 73 42 33 43 76 44
REMARK SMILES IDX 70 45 69 46 34 48 60 49 43 50 59 51 44 52 47 53 58 54 74 55
REMARK SMILES IDX 45 56 46 57 57 59 75 60 48 61 35 62 36 63 41 64 37 65 38 66
REMARK SMILES IDX 40 67 42 68 39 69 61 70 62 71 67 72 63 73 64 74 66 75 68 76
REMARK SMILES IDX 65 77 49 78 50 79 55 80 51 81 52 82 54 83 56 84 53 85
REMARK H PARENT 18 6 23 28 73 47 47 58
REMARK Flexibility Score: inf
ROOT
ATOM      1  C   UNL A   1      33.909  30.319  26.841  1.00  0.00     0.023 C 
ENDROOT
BRANCH   1   2
ATOM      2  C   UNL A   1      33.840  28.975  27.564  1.00  0.00     0.116 C 
BRANCH   2   3
ATOM      3  N   UNL A   1      32.515  28.401  27.565  1.00  0.00    -0.355 N 
ATOM      4  C   UNL A   1      31.970  27.509  26.687  1.00  0.00     0.240 C 
ATOM      5  O   UNL A   1      30.953  26.912  27.055  1.00  0.00    -0.273 OA
ATOM      6  H   UNL A   1      31.926  28.694  28.297  1.00  0.00     0.163 HD
BRANCH   4   7
ATOM      7  C   UNL A   1      32.689  27.114  25.385  1.00  0.00     0.226 C 
BRANCH   7   8
ATOM      8  N   UNL A   1      32.166  25.935  24.709  1.00  0.00    -0.289 N 
ATOM      9  C   UNL A   1      31.177  25.894  23.732  1.00  0.00     0.063 A 
ATOM     10  C   UNL A   1      30.960  24.662  23.243  1.00  0.00     0.097 A 
ATOM     11  S   UNL A   1      32.008  23.482  23.959  1.00  0.00    -0.082 S 
ATOM     12  C   UNL A   1      32.795  24.714  24.957  1.00  0.00     0.308 A 
ATOM     13  O   UNL A   1      33.710  24.484  25.714  1.00  0.00    -0.257 OA
BRANCH   9  14
ATOM     14  C   UNL A   1      30.390  27.054  23.291  1.00  0.00    -0.001 A 
ATOM     15  C   UNL A   1      28.889  29.357  22.741  1.00  0.00     0.067 A 
ATOM     16  C   UNL A   1      30.253  29.317  22.429  1.00  0.00     0.021 A 
ATOM     17  C   UNL A   1      28.253  28.237  23.271  1.00  0.00     0.021 A 
ATOM     18  C   UNL A   1      30.998  28.165  22.694  1.00  0.00     0.011 A 
ATOM     19  C   UNL A   1      29.004  27.085  23.526  1.00  0.00     0.011 A 
BRANCH  15  20
ATOM     20  S   UNL A   1      28.035  30.896  22.484  1.00  0.00     0.175 S 
ATOM     21  C   UNL A   1      29.186  32.204  22.801  1.00  0.00     0.163 C 
ATOM     22  O   UNL A   1      26.998  30.957  23.493  1.00  0.00    -0.224 OA
ATOM     23  O   UNL A   1      27.717  30.945  21.069  1.00  0.00    -0.224 OA
ENDBRANCH  15  20
ENDBRANCH   9  14
ENDBRANCH   7   8
ENDBRANCH   4   7
ENDBRANCH   2   3
ENDBRANCH   1   2
BRANCH   1  24
ATOM     24  C   UNL A   1      33.373  31.513  27.643  1.00  0.00     0.023 C 
BRANCH  24  25
ATOM     25  C   UNL A   1      34.437  32.522  28.065  1.00  0.00     0.116 C 
BRANCH  25  26
ATOM     26  N   UNL A   1      34.394  32.827  29.492  1.00  0.00    -0.352 N 
ATOM     27  C   UNL A   1      35.130  32.241  30.501  1.00  0.00     0.251 C 
ATOM     28  H   UNL A   1      33.767  33.536  29.767  1.00  0.00     0.163 HD
ATOM     29  O   UNL A   1      34.763  32.309  31.668  1.00  0.00    -0.269 OA
BRANCH  27  30
ATOM     30  C   UNL A   1      36.372  31.530  30.156  1.00  0.00     0.039 A 
ATOM     31  C   UNL A   1      37.551  32.241  29.921  1.00  0.00     0.014 A 
ATOM     32  C   UNL A   1      36.351  30.137  30.089  1.00  0.00     0.014 A 
ATOM     33  C   UNL A   1      38.732  31.534  29.710  1.00  0.00     0.010 A 
ATOM     34  C   UNL A   1      37.533  29.438  29.968  1.00  0.00     0.010 A 
ATOM     35  C   UNL A   1      38.727  30.130  29.763  1.00  0.00    -0.014 A 
BRANCH  35  36
ATOM     36  C   UNL A   1      39.999  29.404  29.801  1.00  0.00     0.031 A 
ATOM     37  C   UNL A   1      40.548  29.211  31.175  1.00  0.00     0.074 A 
ATOM     38  C   UNL A   1      40.536  28.758  28.743  1.00  0.00     0.049 A 
ATOM     39  N   UNL A   1      41.650  29.678  31.662  1.00  0.00    -0.248 NA
ATOM     40  C   UNL A   1      39.710  28.517  32.169  1.00  0.00     0.031 C 
ATOM     41  C   UNL A   1      39.953  28.593  27.406  1.00  0.00     0.029 A 
ATOM     42  N   UNL A   1      41.677  28.011  28.667  1.00  0.00    -0.354 N 
ATOM     43  C   UNL A   1      41.749  29.164  32.953  1.00  0.00     0.074 A 
ATOM     44  C   UNL A   1      40.458  28.613  33.269  1.00  0.00     0.031 C 
ATOM     45  C   UNL A   1      40.617  27.624  26.739  1.00  0.00     0.029 A 
ATOM     46  C   UNL A   1      41.766  27.217  27.528  1.00  0.00     0.049 A 
ATOM     47  H   UNL A   1      42.377  28.033  29.359  1.00  0.00     0.167 HD
ATOM     48  C   UNL A   1      42.964  28.996  33.546  1.00  0.00     0.037 A 
ATOM     49  C   UNL A   1      42.704  26.278  27.249  1.00  0.00     0.037 A 
ATOM     50  C   UNL A   1      43.977  29.761  32.861  1.00  0.00     0.049 A 
ATOM     51  C   UNL A   1      43.876  26.556  28.105  1.00  0.00     0.074 A 
ATOM     52  C   UNL A   1      44.217  31.096  32.611  1.00  0.00     0.029 A 
ATOM     53  N   UNL A   1      44.768  29.056  31.992  1.00  0.00    -0.354 N 
ATOM     54  N   UNL A   1      44.659  27.586  27.957  1.00  0.00    -0.248 NA
ATOM     55  C   UNL A   1      43.988  25.864  29.380  1.00  0.00     0.031 C 
ATOM     56  C   UNL A   1      44.843  31.132  31.328  1.00  0.00     0.029 A 
ATOM     57  C   UNL A   1      45.005  29.819  30.884  1.00  0.00     0.049 A 
ATOM     58  H   UNL A   1      45.111  28.146  32.143  1.00  0.00     0.167 HD
ATOM     59  C   UNL A   1      45.006  27.942  29.248  1.00  0.00     0.074 A 
ATOM     60  C   UNL A   1      44.712  26.762  30.054  1.00  0.00     0.031 C 
ATOM     61  C   UNL A   1      45.208  29.254  29.569  1.00  0.00     0.037 A 
BRANCH  48  62
ATOM     62  C   UNL A   1      43.337  27.807  34.415  1.00  0.00     0.057 A 
ATOM     63  C   UNL A   1      43.691  28.035  35.762  1.00  0.00     0.134 A 
ATOM     64  C   UNL A   1      43.688  26.532  33.922  1.00  0.00     0.134 A 
ATOM     65  F   UNL A   1      43.419  29.207  36.356  1.00  0.00    -0.206 F 
ATOM     66  C   UNL A   1      44.425  27.111  36.518  1.00  0.00     0.040 A 
ATOM     67  C   UNL A   1      44.377  25.584  34.686  1.00  0.00     0.040 A 
ATOM     68  F   UNL A   1      43.480  26.166  32.654  1.00  0.00    -0.206 F 
ATOM     69  C   UNL A   1      44.782  25.885  35.975  1.00  0.00     0.006 A 
ENDBRANCH  48  62
BRANCH  49  70
ATOM     70  C   UNL A   1      42.615  25.040  26.443  1.00  0.00     0.057 A 
ATOM     71  C   UNL A   1      43.459  24.830  25.341  1.00  0.00     0.134 A 
ATOM     72  C   UNL A   1      41.914  23.916  26.906  1.00  0.00     0.134 A 
ATOM     73  F   UNL A   1      44.194  25.836  24.842  1.00  0.00    -0.206 F 
ATOM     74  C   UNL A   1      43.630  23.567  24.761  1.00  0.00     0.040 A 
ATOM     75  C   UNL A   1      42.070  22.649  26.332  1.00  0.00     0.040 A 
ATOM     76  F   UNL A   1      41.127  23.990  27.989  1.00  0.00    -0.206 F 
ATOM     77  C   UNL A   1      42.946  22.467  25.267  1.00  0.00     0.006 A 
ENDBRANCH  49  70
BRANCH  61  78
ATOM     78  C   UNL A   1      45.454  30.209  28.435  1.00  0.00     0.057 A 
ATOM     79  C   UNL A   1      44.455  30.917  27.750  1.00  0.00     0.134 A 
ATOM     80  C   UNL A   1      46.779  30.486  28.080  1.00  0.00     0.134 A 
ATOM     81  F   UNL A   1      43.163  30.795  28.080  1.00  0.00    -0.206 F 
ATOM     82  C   UNL A   1      44.760  31.813  26.720  1.00  0.00     0.040 A 
ATOM     83  C   UNL A   1      47.100  31.407  27.082  1.00  0.00     0.040 A 
ATOM     84  F   UNL A   1      47.791  29.885  28.727  1.00  0.00    -0.206 F 
ATOM     85  C   UNL A   1      46.088  32.063  26.387  1.00  0.00     0.006 A 
ENDBRANCH  61  78
ENDBRANCH  35  36
ENDBRANCH  27  30
ENDBRANCH  25  26
ENDBRANCH  24  25
ENDBRANCH   1  24
TORSDOF 14
ENDMDL
