MODEL 1
REMARK VINA RESULT:     -12.1      0.000      0.000
REMARK SMILES CCn1ccc2cc(S(=O)(=O)N3CCC[C@@H](C(=O)NCCCCNC(=O)c4ccc(-c5c6nc(c(-c7c(F)cccc7F)c7ccc([nH]7)c(-c7c(F)cccc7F)c7nc(c(-c8c(F)cccc8F)c8ccc5[nH]8)C=C7)C=C6)cc4)C3)ccc21
REMARK SMILES IDX 21 1 20 2 19 3 17 4 18 5 16 7 12 8 13 9 81 10 14 11 15 12
REMARK SMILES IDX 9 13 10 14 11 15 8 16 3 17 4 18 84 19 5 20 6 21 83 22 7 23
REMARK SMILES IDX 82 24 2 25 1 26 22 27 23 28 24 29 25 30 26 32 27 33 28 34
REMARK SMILES IDX 80 35 29 36 79 37 30 38 31 39 32 40 73 41 33 42 78 43 72 44
REMARK SMILES IDX 74 45 34 46 77 47 71 48 70 49 35 51 61 52 44 53 60 54 45 55
REMARK SMILES IDX 48 56 59 57 75 58 46 59 47 60 58 62 76 63 49 64 36 65 37 66
REMARK SMILES IDX 42 67 38 68 39 69 41 70 43 71 40 72 62 73 63 74 68 75 64 76
REMARK SMILES IDX 65 77 67 78 69 79 66 80 50 81 51 82 56 83 52 84 53 85 55 86
REMARK SMILES IDX 57 87 54 88
REMARK H PARENT 19 6 24 31 74 50 48 61
REMARK Flexibility Score: inf
ROOT
ATOM      1  C   UNL A   1      38.949  23.508  26.614  1.00  0.00     0.023 C 
ENDROOT
BRANCH   1   2
ATOM      2  C   UNL A   1      37.594  23.986  26.104  1.00  0.00     0.116 C 
BRANCH   2   3
ATOM      3  N   UNL A   1      37.423  23.703  24.693  1.00  0.00    -0.356 N 
ATOM      4  C   UNL A   1      36.407  23.061  24.057  1.00  0.00     0.224 C 
ATOM      5  O   UNL A   1      36.480  22.941  22.833  1.00  0.00    -0.275 OA
ATOM      6  H   UNL A   1      38.149  24.022  24.109  1.00  0.00     0.163 HD
BRANCH   4   7
ATOM      7  C   UNL A   1      35.261  22.476  24.866  1.00  0.00     0.093 C 
ATOM      8  N   UNL A   1      32.751  22.506  25.008  1.00  0.00    -0.197 NA
ATOM      9  C   UNL A   1      32.690  21.025  24.994  1.00  0.00     0.102 C 
ATOM     10  C   UNL A   1      33.965  23.167  24.452  1.00  0.00     0.116 C 
ATOM     11  C   UNL A   1      34.010  20.392  25.408  1.00  0.00     0.018 C 
ATOM     12  C   UNL A   1      35.181  20.969  24.627  1.00  0.00     0.016 C 
BRANCH   8  13
ATOM     13  S   UNL A   1      31.276  23.321  24.681  1.00  0.00     0.243 S 
ATOM     14  O   UNL A   1      30.292  22.804  25.604  1.00  0.00    -0.207 OA
ATOM     15  O   UNL A   1      31.060  23.274  23.246  1.00  0.00    -0.207 OA
BRANCH  13  16
ATOM     16  C   UNL A   1      31.507  25.042  25.099  1.00  0.00     0.083 A 
ATOM     17  N   UNL A   1      31.691  29.147  25.736  1.00  0.00    -0.348 N 
ATOM     18  C   UNL A   1      31.051  29.614  24.607  1.00  0.00     0.087 A 
ATOM     19  C   UNL A   1      31.733  27.766  25.699  1.00  0.00     0.048 A 
ATOM     20  C   UNL A   1      30.665  28.540  23.846  1.00  0.00     0.028 A 
ATOM     21  C   UNL A   1      31.086  27.365  24.518  1.00  0.00     0.001 A 
ATOM     22  C   UNL A   1      32.266  26.813  26.576  1.00  0.00     0.028 A 
ATOM     23  C   UNL A   1      30.963  25.990  24.222  1.00  0.00     0.032 A 
ATOM     24  C   UNL A   1      32.156  25.460  26.254  1.00  0.00     0.024 A 
BRANCH  17  25
ATOM     25  C   UNL A   1      32.162  30.070  26.758  1.00  0.00     0.119 C 
ATOM     26  C   UNL A   1      31.749  31.532  26.691  1.00  0.00     0.027 C 
ENDBRANCH  17  25
ENDBRANCH  13  16
ENDBRANCH   8  13
ENDBRANCH   4   7
ENDBRANCH   2   3
ENDBRANCH   1   2
BRANCH   1  27
ATOM     27  C   UNL A   1      39.379  22.117  26.133  1.00  0.00     0.023 C 
BRANCH  27  28
ATOM     28  C   UNL A   1      40.813  21.715  26.483  1.00  0.00     0.116 C 
BRANCH  28  29
ATOM     29  N   UNL A   1      41.804  22.119  25.506  1.00  0.00    -0.352 N 
ATOM     30  C   UNL A   1      42.632  23.198  25.365  1.00  0.00     0.251 C 
ATOM     31  H   UNL A   1      41.906  21.465  24.776  1.00  0.00     0.163 HD
ATOM     32  O   UNL A   1      43.502  23.102  24.497  1.00  0.00    -0.269 OA
BRANCH  30  33
ATOM     33  C   UNL A   1      42.514  24.481  26.115  1.00  0.00     0.039 A 
ATOM     34  C   UNL A   1      42.982  24.710  27.406  1.00  0.00     0.014 A 
ATOM     35  C   UNL A   1      41.806  25.515  25.468  1.00  0.00     0.014 A 
ATOM     36  C   UNL A   1      42.652  25.885  28.073  1.00  0.00     0.010 A 
ATOM     37  C   UNL A   1      41.496  26.706  26.121  1.00  0.00     0.010 A 
ATOM     38  C   UNL A   1      41.880  26.871  27.444  1.00  0.00    -0.014 A 
BRANCH  38  39
ATOM     39  C   UNL A   1      41.650  28.113  28.182  1.00  0.00     0.031 A 
ATOM     40  C   UNL A   1      42.741  29.113  28.019  1.00  0.00     0.074 A 
ATOM     41  C   UNL A   1      40.551  28.400  28.909  1.00  0.00     0.049 A 
ATOM     42  N   UNL A   1      43.579  29.518  28.915  1.00  0.00    -0.248 NA
ATOM     43  C   UNL A   1      43.022  29.611  26.664  1.00  0.00     0.031 C 
ATOM     44  C   UNL A   1      39.287  27.666  28.965  1.00  0.00     0.029 A 
ATOM     45  N   UNL A   1      40.314  29.481  29.713  1.00  0.00    -0.354 N 
ATOM     46  C   UNL A   1      44.381  30.469  28.288  1.00  0.00     0.074 A 
ATOM     47  C   UNL A   1      44.095  30.373  26.881  1.00  0.00     0.031 C 
ATOM     48  C   UNL A   1      38.356  28.423  29.590  1.00  0.00     0.029 A 
ATOM     49  C   UNL A   1      38.986  29.632  30.097  1.00  0.00     0.049 A 
ATOM     50  H   UNL A   1      41.025  30.099  29.998  1.00  0.00     0.167 HD
ATOM     51  C   UNL A   1      45.036  31.416  29.014  1.00  0.00     0.037 A 
ATOM     52  C   UNL A   1      38.438  30.687  30.753  1.00  0.00     0.037 A 
ATOM     53  C   UNL A   1      45.153  31.017  30.395  1.00  0.00     0.049 A 
ATOM     54  C   UNL A   1      39.532  31.430  31.416  1.00  0.00     0.074 A 
ATOM     55  C   UNL A   1      45.742  29.970  31.077  1.00  0.00     0.029 A 
ATOM     56  N   UNL A   1      44.298  31.609  31.291  1.00  0.00    -0.354 N 
ATOM     57  N   UNL A   1      40.177  31.004  32.461  1.00  0.00    -0.248 NA
ATOM     58  C   UNL A   1      40.178  32.505  30.679  1.00  0.00     0.031 C 
ATOM     59  C   UNL A   1      44.882  29.713  32.186  1.00  0.00     0.029 A 
ATOM     60  C   UNL A   1      43.847  30.646  32.149  1.00  0.00     0.049 A 
ATOM     61  H   UNL A   1      44.053  32.562  31.311  1.00  0.00     0.167 HD
ATOM     62  C   UNL A   1      41.484  31.407  32.248  1.00  0.00     0.074 A 
ATOM     63  C   UNL A   1      41.399  32.433  31.213  1.00  0.00     0.031 C 
ATOM     64  C   UNL A   1      42.524  30.664  32.727  1.00  0.00     0.037 A 
BRANCH  51  65
ATOM     65  C   UNL A   1      45.149  32.873  28.600  1.00  0.00     0.057 A 
ATOM     66  C   UNL A   1      44.063  33.767  28.514  1.00  0.00     0.134 A 
ATOM     67  C   UNL A   1      46.418  33.486  28.639  1.00  0.00     0.134 A 
ATOM     68  F   UNL A   1      42.791  33.362  28.471  1.00  0.00    -0.206 F 
ATOM     69  C   UNL A   1      44.220  35.156  28.565  1.00  0.00     0.040 A 
ATOM     70  C   UNL A   1      46.582  34.873  28.739  1.00  0.00     0.040 A 
ATOM     71  F   UNL A   1      47.539  32.751  28.695  1.00  0.00    -0.206 F 
ATOM     72  C   UNL A   1      45.477  35.713  28.726  1.00  0.00     0.006 A 
ENDBRANCH  51  65
BRANCH  52  73
ATOM     73  C   UNL A   1      37.065  31.241  30.700  1.00  0.00     0.057 A 
ATOM     74  C   UNL A   1      36.578  31.866  29.542  1.00  0.00     0.134 A 
ATOM     75  C   UNL A   1      36.310  31.437  31.868  1.00  0.00     0.134 A 
ATOM     76  F   UNL A   1      37.256  31.804  28.387  1.00  0.00    -0.206 F 
ATOM     77  C   UNL A   1      35.427  32.662  29.549  1.00  0.00     0.040 A 
ATOM     78  C   UNL A   1      35.160  32.236  31.891  1.00  0.00     0.040 A 
ATOM     79  F   UNL A   1      36.710  30.912  33.037  1.00  0.00    -0.206 F 
ATOM     80  C   UNL A   1      34.722  32.863  30.729  1.00  0.00     0.006 A 
ENDBRANCH  52  73
BRANCH  64  81
ATOM     81  C   UNL A   1      42.216  29.637  33.778  1.00  0.00     0.057 A 
ATOM     82  C   UNL A   1      42.451  29.970  35.117  1.00  0.00     0.134 A 
ATOM     83  C   UNL A   1      41.783  28.328  33.515  1.00  0.00     0.134 A 
ATOM     84  F   UNL A   1      42.918  31.187  35.440  1.00  0.00    -0.206 F 
ATOM     85  C   UNL A   1      42.244  29.058  36.152  1.00  0.00     0.040 A 
ATOM     86  C   UNL A   1      41.533  27.418  34.546  1.00  0.00     0.040 A 
ATOM     87  F   UNL A   1      41.632  27.883  32.260  1.00  0.00    -0.206 F 
ATOM     88  C   UNL A   1      41.766  27.781  35.870  1.00  0.00     0.006 A 
ENDBRANCH  64  81
ENDBRANCH  38  39
ENDBRANCH  30  33
ENDBRANCH  28  29
ENDBRANCH  27  28
ENDBRANCH   1  27
TORSDOF 14
ENDMDL
MODEL 2
REMARK VINA RESULT:     -11.8      2.704      8.157
REMARK SMILES CCn1ccc2cc(S(=O)(=O)N3CCC[C@@H](C(=O)NCCCCNC(=O)c4ccc(-c5c6nc(c(-c7c(F)cccc7F)c7ccc([nH]7)c(-c7c(F)cccc7F)c7nc(c(-c8c(F)cccc8F)c8ccc5[nH]8)C=C7)C=C6)cc4)C3)ccc21
REMARK SMILES IDX 21 1 20 2 19 3 17 4 18 5 16 7 12 8 13 9 81 10 14 11 15 12
REMARK SMILES IDX 9 13 10 14 11 15 8 16 3 17 4 18 84 19 5 20 6 21 83 22 7 23
REMARK SMILES IDX 82 24 2 25 1 26 22 27 23 28 24 29 25 30 26 32 27 33 28 34
REMARK SMILES IDX 80 35 29 36 79 37 30 38 31 39 32 40 73 41 33 42 78 43 72 44
REMARK SMILES IDX 74 45 34 46 77 47 71 48 70 49 35 51 61 52 44 53 60 54 45 55
REMARK SMILES IDX 48 56 59 57 75 58 46 59 47 60 58 62 76 63 49 64 36 65 37 66
REMARK SMILES IDX 42 67 38 68 39 69 41 70 43 71 40 72 62 73 63 74 68 75 64 76
REMARK SMILES IDX 65 77 67 78 69 79 66 80 50 81 51 82 56 83 52 84 53 85 55 86
REMARK SMILES IDX 57 87 54 88
REMARK H PARENT 19 6 24 31 74 50 48 61
REMARK Flexibility Score: inf
ROOT
ATOM      1  C   UNL A   1      35.199  30.297  27.806  1.00  0.00     0.023 C 
ENDROOT
BRANCH   1   2
ATOM      2  C   UNL A   1      34.720  29.007  27.149  1.00  0.00     0.116 C 
BRANCH   2   3
ATOM      3  N   UNL A   1      33.438  28.583  27.675  1.00  0.00    -0.356 N 
ATOM      4  C   UNL A   1      32.306  28.228  27.012  1.00  0.00     0.224 C 
ATOM      5  O   UNL A   1      31.327  27.895  27.682  1.00  0.00    -0.275 OA
ATOM      6  H   UNL A   1      33.379  28.545  28.658  1.00  0.00     0.163 HD
BRANCH   4   7
ATOM      7  C   UNL A   1      32.266  28.303  25.494  1.00  0.00     0.093 C 
ATOM      8  N   UNL A   1      31.713  26.905  23.479  1.00  0.00    -0.197 NA
ATOM      9  C   UNL A   1      30.812  27.954  22.946  1.00  0.00     0.102 C 
ATOM     10  C   UNL A   1      32.008  26.905  24.940  1.00  0.00     0.116 C 
ATOM     11  C   UNL A   1      31.111  29.323  23.538  1.00  0.00     0.018 C 
ATOM     12  C   UNL A   1      31.174  29.278  25.057  1.00  0.00     0.016 C 
BRANCH   8  13
ATOM     13  S   UNL A   1      31.545  25.345  22.782  1.00  0.00     0.243 S 
ATOM     14  O   UNL A   1      31.831  25.479  21.372  1.00  0.00    -0.207 OA
ATOM     15  O   UNL A   1      30.285  24.793  23.245  1.00  0.00    -0.207 OA
BRANCH  13  16
ATOM     16  C   UNL A   1      32.830  24.308  23.463  1.00  0.00     0.083 A 
ATOM     17  N   UNL A   1      35.526  21.509  24.940  1.00  0.00    -0.348 N 
ATOM     18  C   UNL A   1      34.708  20.405  25.073  1.00  0.00     0.087 A 
ATOM     19  C   UNL A   1      34.785  22.569  24.453  1.00  0.00     0.048 A 
ATOM     20  C   UNL A   1      33.444  20.745  24.660  1.00  0.00     0.028 A 
ATOM     21  C   UNL A   1      33.473  22.105  24.265  1.00  0.00     0.001 A 
ATOM     22  C   UNL A   1      35.121  23.895  24.150  1.00  0.00     0.028 A 
ATOM     23  C   UNL A   1      32.489  22.981  23.755  1.00  0.00     0.032 A 
ATOM     24  C   UNL A   1      34.130  24.752  23.670  1.00  0.00     0.024 A 
BRANCH  17  25
ATOM     25  C   UNL A   1      36.945  21.423  25.253  1.00  0.00     0.119 C 
ATOM     26  C   UNL A   1      37.732  20.198  24.819  1.00  0.00     0.027 C 
ENDBRANCH  17  25
ENDBRANCH  13  16
ENDBRANCH   8  13
ENDBRANCH   4   7
ENDBRANCH   2   3
ENDBRANCH   1   2
BRANCH   1  27
ATOM     27  C   UNL A   1      34.185  31.448  27.811  1.00  0.00     0.023 C 
BRANCH  27  28
ATOM     28  C   UNL A   1      34.595  32.681  28.619  1.00  0.00     0.116 C 
BRANCH  28  29
ATOM     29  N   UNL A   1      34.366  32.566  30.045  1.00  0.00    -0.352 N 
ATOM     30  C   UNL A   1      35.131  32.186  31.114  1.00  0.00     0.251 C 
ATOM     31  H   UNL A   1      33.451  32.820  30.305  1.00  0.00     0.163 HD
ATOM     32  O   UNL A   1      34.651  32.411  32.228  1.00  0.00    -0.269 OA
BRANCH  30  33
ATOM     33  C   UNL A   1      36.435  31.469  31.033  1.00  0.00     0.039 A 
ATOM     34  C   UNL A   1      37.646  32.033  30.642  1.00  0.00     0.014 A 
ATOM     35  C   UNL A   1      36.402  30.088  31.316  1.00  0.00     0.014 A 
ATOM     36  C   UNL A   1      38.758  31.226  30.426  1.00  0.00     0.010 A 
ATOM     37  C   UNL A   1      37.520  29.278  31.127  1.00  0.00     0.010 A 
ATOM     38  C   UNL A   1      38.688  29.843  30.636  1.00  0.00    -0.014 A 
BRANCH  38  39
ATOM     39  C   UNL A   1      39.924  29.078  30.468  1.00  0.00     0.031 A 
ATOM     40  C   UNL A   1      40.696  28.912  31.730  1.00  0.00     0.074 A 
ATOM     41  C   UNL A   1      40.343  28.508  29.320  1.00  0.00     0.049 A 
ATOM     42  N   UNL A   1      41.842  29.429  32.026  1.00  0.00    -0.248 NA
ATOM     43  C   UNL A   1      40.049  28.206  32.846  1.00  0.00     0.031 C 
ATOM     44  C   UNL A   1      39.601  28.341  28.071  1.00  0.00     0.029 A 
ATOM     45  N   UNL A   1      41.530  27.881  29.058  1.00  0.00    -0.354 N 
ATOM     46  C   UNL A   1      42.157  28.960  33.299  1.00  0.00     0.074 A 
ATOM     47  C   UNL A   1      40.961  28.345  33.810  1.00  0.00     0.031 C 
ATOM     48  C   UNL A   1      40.270  27.485  27.263  1.00  0.00     0.029 A 
ATOM     49  C   UNL A   1      41.547  27.152  27.874  1.00  0.00     0.049 A 
ATOM     50  H   UNL A   1      42.308  27.942  29.658  1.00  0.00     0.167 HD
ATOM     51  C   UNL A   1      43.449  28.913  33.725  1.00  0.00     0.037 A 
ATOM     52  C   UNL A   1      42.522  26.311  27.444  1.00  0.00     0.037 A 
ATOM     53  C   UNL A   1      44.284  29.785  32.935  1.00  0.00     0.049 A 
ATOM     54  C   UNL A   1      43.764  26.640  28.176  1.00  0.00     0.074 A 
ATOM     55  C   UNL A   1      44.334  31.141  32.675  1.00  0.00     0.029 A 
ATOM     56  N   UNL A   1      45.079  29.195  31.985  1.00  0.00    -0.354 N 
ATOM     57  N   UNL A   1      44.475  27.709  27.967  1.00  0.00    -0.248 NA
ATOM     58  C   UNL A   1      44.027  25.952  29.430  1.00  0.00     0.031 C 
ATOM     59  C   UNL A   1      44.781  31.247  31.324  1.00  0.00     0.029 A 
ATOM     60  C   UNL A   1      45.028  29.958  30.853  1.00  0.00     0.049 A 
ATOM     61  H   UNL A   1      45.597  28.365  32.100  1.00  0.00     0.167 HD
ATOM     62  C   UNL A   1      44.911  28.084  29.226  1.00  0.00     0.074 A 
ATOM     63  C   UNL A   1      44.721  26.902  30.061  1.00  0.00     0.031 C 
ATOM     64  C   UNL A   1      45.113  29.402  29.524  1.00  0.00     0.037 A 
BRANCH  51  65
ATOM     65  C   UNL A   1      44.038  27.760  34.519  1.00  0.00     0.057 A 
ATOM     66  C   UNL A   1      44.446  27.841  35.865  1.00  0.00     0.134 A 
ATOM     67  C   UNL A   1      43.857  26.448  34.034  1.00  0.00     0.134 A 
ATOM     68  F   UNL A   1      44.661  29.002  36.490  1.00  0.00    -0.206 F 
ATOM     69  C   UNL A   1      44.565  26.717  36.689  1.00  0.00     0.040 A 
ATOM     70  C   UNL A   1      43.927  25.322  34.863  1.00  0.00     0.040 A 
ATOM     71  F   UNL A   1      43.495  26.226  32.761  1.00  0.00    -0.206 F 
ATOM     72  C   UNL A   1      44.259  25.458  36.203  1.00  0.00     0.006 A 
ENDBRANCH  51  65
BRANCH  52  73
ATOM     73  C   UNL A   1      42.438  25.099  26.595  1.00  0.00     0.057 A 
ATOM     74  C   UNL A   1      41.829  23.924  27.064  1.00  0.00     0.134 A 
ATOM     75  C   UNL A   1      43.209  24.969  25.428  1.00  0.00     0.134 A 
ATOM     76  F   UNL A   1      41.129  23.919  28.207  1.00  0.00    -0.206 F 
ATOM     77  C   UNL A   1      42.000  22.689  26.429  1.00  0.00     0.040 A 
ATOM     78  C   UNL A   1      43.393  23.738  24.786  1.00  0.00     0.040 A 
ATOM     79  F   UNL A   1      43.861  26.025  24.920  1.00  0.00    -0.206 F 
ATOM     80  C   UNL A   1      42.797  22.589  25.295  1.00  0.00     0.006 A 
ENDBRANCH  52  73
BRANCH  64  81
ATOM     81  C   UNL A   1      45.208  30.365  28.377  1.00  0.00     0.057 A 
ATOM     82  C   UNL A   1      46.480  30.779  27.963  1.00  0.00     0.134 A 
ATOM     83  C   UNL A   1      44.109  30.952  27.732  1.00  0.00     0.134 A 
ATOM     84  F   UNL A   1      47.577  30.300  28.572  1.00  0.00    -0.206 F 
ATOM     85  C   UNL A   1      46.658  31.713  26.942  1.00  0.00     0.040 A 
ATOM     86  C   UNL A   1      44.274  31.858  26.680  1.00  0.00     0.040 A 
ATOM     87  F   UNL A   1      42.852  30.700  28.127  1.00  0.00    -0.206 F 
ATOM     88  C   UNL A   1      45.552  32.243  26.284  1.00  0.00     0.006 A 
ENDBRANCH  64  81
ENDBRANCH  38  39
ENDBRANCH  30  33
ENDBRANCH  28  29
ENDBRANCH  27  28
ENDBRANCH   1  27
TORSDOF 14
ENDMDL
MODEL 3
REMARK VINA RESULT:     -11.8      2.780      8.159
REMARK SMILES CCn1ccc2cc(S(=O)(=O)N3CCC[C@@H](C(=O)NCCCCNC(=O)c4ccc(-c5c6nc(c(-c7c(F)cccc7F)c7ccc([nH]7)c(-c7c(F)cccc7F)c7nc(c(-c8c(F)cccc8F)c8ccc5[nH]8)C=C7)C=C6)cc4)C3)ccc21
REMARK SMILES IDX 21 1 20 2 19 3 17 4 18 5 16 7 12 8 13 9 81 10 14 11 15 12
REMARK SMILES IDX 9 13 10 14 11 15 8 16 3 17 4 18 84 19 5 20 6 21 83 22 7 23
REMARK SMILES IDX 82 24 2 25 1 26 22 27 23 28 24 29 25 30 26 32 27 33 28 34
REMARK SMILES IDX 80 35 29 36 79 37 30 38 31 39 32 40 73 41 33 42 78 43 72 44
REMARK SMILES IDX 74 45 34 46 77 47 71 48 70 49 35 51 61 52 44 53 60 54 45 55
REMARK SMILES IDX 48 56 59 57 75 58 46 59 47 60 58 62 76 63 49 64 36 65 37 66
REMARK SMILES IDX 42 67 38 68 39 69 41 70 43 71 40 72 62 73 63 74 68 75 64 76
REMARK SMILES IDX 65 77 67 78 69 79 66 80 50 81 51 82 56 83 52 84 53 85 55 86
REMARK SMILES IDX 57 87 54 88
REMARK H PARENT 19 6 24 31 74 50 48 61
REMARK Flexibility Score: inf
ROOT
ATOM      1  C   UNL A   1      34.843  29.851  27.459  1.00  0.00     0.023 C 
ENDROOT
BRANCH   1   2
ATOM      2  C   UNL A   1      34.303  28.775  26.523  1.00  0.00     0.116 C 
BRANCH   2   3
ATOM      3  N   UNL A   1      33.172  28.080  27.105  1.00  0.00    -0.356 N 
ATOM      4  C   UNL A   1      32.022  27.656  26.516  1.00  0.00     0.224 C 
ATOM      5  O   UNL A   1      31.194  27.077  27.221  1.00  0.00    -0.275 OA
ATOM      6  H   UNL A   1      33.247  27.887  28.068  1.00  0.00     0.163 HD
BRANCH   4   7
ATOM      7  C   UNL A   1      31.774  27.952  25.045  1.00  0.00     0.093 C 
ATOM      8  N   UNL A   1      32.070  26.930  22.767  1.00  0.00    -0.197 NA
ATOM      9  C   UNL A   1      30.648  27.173  22.426  1.00  0.00     0.102 C 
ATOM     10  C   UNL A   1      32.450  26.870  24.207  1.00  0.00     0.116 C 
ATOM     11  C   UNL A   1      30.026  28.255  23.298  1.00  0.00     0.018 C 
ATOM     12  C   UNL A   1      30.271  27.996  24.776  1.00  0.00     0.016 C 
BRANCH   8  13
ATOM     13  S   UNL A   1      32.904  25.818  21.759  1.00  0.00     0.243 S 
ATOM     14  O   UNL A   1      34.260  26.300  21.627  1.00  0.00    -0.207 OA
ATOM     15  O   UNL A   1      32.074  25.579  20.592  1.00  0.00    -0.207 OA
BRANCH  13  16
ATOM     16  C   UNL A   1      33.002  24.264  22.634  1.00  0.00     0.083 A 
ATOM     17  N   UNL A   1      33.680  20.795  24.823  1.00  0.00    -0.348 N 
ATOM     18  C   UNL A   1      35.047  20.863  25.001  1.00  0.00     0.087 A 
ATOM     19  C   UNL A   1      33.260  21.890  24.092  1.00  0.00     0.048 A 
ATOM     20  C   UNL A   1      35.510  22.006  24.400  1.00  0.00     0.028 A 
ATOM     21  C   UNL A   1      34.399  22.668  23.822  1.00  0.00     0.001 A 
ATOM     22  C   UNL A   1      31.999  22.294  23.636  1.00  0.00     0.028 A 
ATOM     23  C   UNL A   1      34.265  23.871  23.095  1.00  0.00     0.032 A 
ATOM     24  C   UNL A   1      31.891  23.473  22.899  1.00  0.00     0.024 A 
BRANCH  17  25
ATOM     25  C   UNL A   1      32.909  19.708  25.408  1.00  0.00     0.119 C 
ATOM     26  C   UNL A   1      32.528  18.515  24.546  1.00  0.00     0.027 C 
ENDBRANCH  17  25
ENDBRANCH  13  16
ENDBRANCH   8  13
ENDBRANCH   4   7
ENDBRANCH   2   3
ENDBRANCH   1   2
BRANCH   1  27
ATOM     27  C   UNL A   1      33.938  31.074  27.647  1.00  0.00     0.023 C 
BRANCH  27  28
ATOM     28  C   UNL A   1      34.594  32.280  28.322  1.00  0.00     0.116 C 
BRANCH  28  29
ATOM     29  N   UNL A   1      34.385  32.353  29.754  1.00  0.00    -0.352 N 
ATOM     30  C   UNL A   1      35.151  32.078  30.853  1.00  0.00     0.251 C 
ATOM     31  H   UNL A   1      33.485  32.675  29.990  1.00  0.00     0.163 HD
ATOM     32  O   UNL A   1      34.699  32.460  31.935  1.00  0.00    -0.269 OA
BRANCH  30  33
ATOM     33  C   UNL A   1      36.425  31.305  30.848  1.00  0.00     0.039 A 
ATOM     34  C   UNL A   1      37.705  31.852  30.846  1.00  0.00     0.014 A 
ATOM     35  C   UNL A   1      36.298  29.902  30.770  1.00  0.00     0.014 A 
ATOM     36  C   UNL A   1      38.815  31.037  30.653  1.00  0.00     0.010 A 
ATOM     37  C   UNL A   1      37.409  29.077  30.603  1.00  0.00     0.010 A 
ATOM     38  C   UNL A   1      38.667  29.652  30.498  1.00  0.00    -0.014 A 
BRANCH  38  39
ATOM     39  C   UNL A   1      39.890  28.857  30.386  1.00  0.00     0.031 A 
ATOM     40  C   UNL A   1      40.610  28.688  31.677  1.00  0.00     0.074 A 
ATOM     41  C   UNL A   1      40.338  28.264  29.260  1.00  0.00     0.049 A 
ATOM     42  N   UNL A   1      41.757  29.183  32.011  1.00  0.00    -0.248 NA
ATOM     43  C   UNL A   1      39.906  28.011  32.776  1.00  0.00     0.031 C 
ATOM     44  C   UNL A   1      39.640  28.099  27.986  1.00  0.00     0.029 A 
ATOM     45  N   UNL A   1      41.519  27.607  29.051  1.00  0.00    -0.354 N 
ATOM     46  C   UNL A   1      42.013  28.722  33.300  1.00  0.00     0.074 A 
ATOM     47  C   UNL A   1      40.784  28.141  33.772  1.00  0.00     0.031 C 
ATOM     48  C   UNL A   1      40.318  27.218  27.213  1.00  0.00     0.029 A 
ATOM     49  C   UNL A   1      41.563  26.863  27.876  1.00  0.00     0.049 A 
ATOM     50  H   UNL A   1      42.276  27.657  29.678  1.00  0.00     0.167 HD
ATOM     51  C   UNL A   1      43.287  28.651  33.774  1.00  0.00     0.037 A 
ATOM     52  C   UNL A   1      42.533  25.994  27.492  1.00  0.00     0.037 A 
ATOM     53  C   UNL A   1      44.170  29.493  33.006  1.00  0.00     0.049 A 
ATOM     54  C   UNL A   1      43.755  26.304  28.267  1.00  0.00     0.074 A 
ATOM     55  C   UNL A   1      44.262  30.844  32.733  1.00  0.00     0.029 A 
ATOM     56  N   UNL A   1      44.986  28.874  32.093  1.00  0.00    -0.354 N 
ATOM     57  N   UNL A   1      44.498  27.354  28.073  1.00  0.00    -0.248 NA
ATOM     58  C   UNL A   1      43.955  25.625  29.537  1.00  0.00     0.031 C 
ATOM     59  C   UNL A   1      44.761  30.924  31.399  1.00  0.00     0.029 A 
ATOM     60  C   UNL A   1      44.996  29.624  30.952  1.00  0.00     0.049 A 
ATOM     61  H   UNL A   1      45.480  28.034  32.237  1.00  0.00     0.167 HD
ATOM     62  C   UNL A   1      44.896  27.734  29.343  1.00  0.00     0.074 A 
ATOM     63  C   UNL A   1      44.646  26.567  30.183  1.00  0.00     0.031 C 
ATOM     64  C   UNL A   1      45.117  29.050  29.633  1.00  0.00     0.037 A 
BRANCH  51  65
ATOM     65  C   UNL A   1      43.818  27.494  34.602  1.00  0.00     0.057 A 
ATOM     66  C   UNL A   1      43.986  26.179  34.125  1.00  0.00     0.134 A 
ATOM     67  C   UNL A   1      44.516  27.784  35.793  1.00  0.00     0.134 A 
ATOM     68  F   UNL A   1      43.402  25.731  33.010  1.00  0.00    -0.206 F 
ATOM     69  C   UNL A   1      44.854  25.261  34.724  1.00  0.00     0.040 A 
ATOM     70  C   UNL A   1      45.424  26.889  36.371  1.00  0.00     0.040 A 
ATOM     71  F   UNL A   1      44.424  28.992  36.371  1.00  0.00    -0.206 F 
ATOM     72  C   UNL A   1      45.613  25.629  35.822  1.00  0.00     0.006 A 
ENDBRANCH  51  65
BRANCH  52  73
ATOM     73  C   UNL A   1      42.453  24.775  26.654  1.00  0.00     0.057 A 
ATOM     74  C   UNL A   1      41.824  23.611  27.124  1.00  0.00     0.134 A 
ATOM     75  C   UNL A   1      43.243  24.626  25.503  1.00  0.00     0.134 A 
ATOM     76  F   UNL A   1      41.103  23.625  28.254  1.00  0.00    -0.206 F 
ATOM     77  C   UNL A   1      41.994  22.367  26.505  1.00  0.00     0.040 A 
ATOM     78  C   UNL A   1      43.427  23.386  24.877  1.00  0.00     0.040 A 
ATOM     79  F   UNL A   1      43.916  25.670  24.996  1.00  0.00    -0.206 F 
ATOM     80  C   UNL A   1      42.811  22.248  25.387  1.00  0.00     0.006 A 
ENDBRANCH  52  73
BRANCH  64  81
ATOM     81  C   UNL A   1      45.277  29.997  28.480  1.00  0.00     0.057 A 
ATOM     82  C   UNL A   1      44.130  30.612  27.965  1.00  0.00     0.134 A 
ATOM     83  C   UNL A   1      46.487  30.257  27.819  1.00  0.00     0.134 A 
ATOM     84  F   UNL A   1      42.928  30.368  28.512  1.00  0.00    -0.206 F 
ATOM     85  C   UNL A   1      44.180  31.463  26.860  1.00  0.00     0.040 A 
ATOM     86  C   UNL A   1      46.557  31.139  26.737  1.00  0.00     0.040 A 
ATOM     87  F   UNL A   1      47.622  29.635  28.172  1.00  0.00    -0.206 F 
ATOM     88  C   UNL A   1      45.401  31.744  26.253  1.00  0.00     0.006 A 
ENDBRANCH  64  81
ENDBRANCH  38  39
ENDBRANCH  30  33
ENDBRANCH  28  29
ENDBRANCH  27  28
ENDBRANCH   1  27
TORSDOF 14
ENDMDL
