MODEL 1
REMARK VINA RESULT:     -10.1      0.000      0.000
REMARK SMILES COC(=O)/C=C(/CC(C)C)C(=O)NCCCCNC(=O)c1ccc(-c2c3nc(c(-c4c(F)cccc4F)c4ccc([nH]4)c(-c4c(F)cccc4F)c4nc(c(-c5c(F)cccc5F)c5ccc2[nH]5)C=C4)C=C3)cc1
REMARK SMILES IDX 15 1 14 2 13 3 11 4 12 5 6 7 5 8 3 9 4 10 2 11 1 12 7 13
REMARK SMILES IDX 8 14 9 15 10 16 16 17 17 18 18 19 19 20 20 22 21 23 22 24
REMARK SMILES IDX 74 25 23 26 73 27 24 28 25 29 26 30 67 31 27 32 72 33 66 34
REMARK SMILES IDX 68 35 28 36 71 37 65 38 64 39 29 41 55 42 38 43 54 44 39 45
REMARK SMILES IDX 42 46 53 47 69 48 40 49 41 50 52 52 70 53 43 54 30 55 31 56
REMARK SMILES IDX 36 57 32 58 33 59 35 60 37 61 34 62 56 63 57 64 62 65 58 66
REMARK SMILES IDX 59 67 61 68 63 69 60 70 44 71 45 72 50 73 46 74 47 75 49 76
REMARK SMILES IDX 51 77 48 78
REMARK H PARENT 13 6 18 21 68 40 42 51
REMARK Flexibility Score: inf
ROOT
ATOM      1  C   UNL A   1      37.146  22.071  24.466  1.00  0.00     0.023 C 
ENDROOT
BRANCH   1   2
ATOM      2  C   UNL A   1      36.344  22.873  25.492  1.00  0.00     0.116 C 
BRANCH   2   3
ATOM      3  N   UNL A   1      35.714  21.980  26.445  1.00  0.00    -0.352 N 
ATOM      4  C   UNL A   1      34.462  21.458  26.530  1.00  0.00     0.247 C 
ATOM      5  O   UNL A   1      33.994  21.392  27.669  1.00  0.00    -0.270 OA
ATOM      6  H   UNL A   1      36.310  21.696  27.175  1.00  0.00     0.163 HD
BRANCH   4   7
ATOM      7  C   UNL A   1      33.672  20.976  25.352  1.00  0.00     0.024 C 
ATOM      8  C   UNL A   1      32.700  21.767  24.844  1.00  0.00     0.102 C 
BRANCH   8   9
ATOM      9  C   UNL A   1      32.206  23.102  25.237  1.00  0.00     0.330 C 
ATOM     10  O   UNL A   1      32.758  24.116  24.830  1.00  0.00    -0.247 OA
BRANCH   9  11
ATOM     11  O   UNL A   1      31.059  23.053  25.946  1.00  0.00    -0.466 OA
ATOM     12  C   UNL A   1      30.469  24.332  26.191  1.00  0.00     0.282 C 
ENDBRANCH   9  11
ENDBRANCH   8   9
BRANCH   7  13
ATOM     13  C   UNL A   1      33.901  19.653  24.661  1.00  0.00     0.044 C 
BRANCH  13  14
ATOM     14  C   UNL A   1      32.652  18.770  24.417  1.00  0.00    -0.013 C 
ATOM     15  C   UNL A   1      32.537  18.101  23.050  1.00  0.00     0.008 C 
ATOM     16  C   UNL A   1      32.569  17.689  25.501  1.00  0.00     0.008 C 
ENDBRANCH  13  14
ENDBRANCH   7  13
ENDBRANCH   4   7
ENDBRANCH   2   3
ENDBRANCH   1   2
BRANCH   1  17
ATOM     17  C   UNL A   1      37.740  20.775  24.990  1.00  0.00     0.023 C 
BRANCH  17  18
ATOM     18  C   UNL A   1      39.006  20.947  25.812  1.00  0.00     0.116 C 
BRANCH  18  19
ATOM     19  N   UNL A   1      39.904  19.795  25.762  1.00  0.00    -0.352 N 
ATOM     20  C   UNL A   1      41.242  19.724  26.067  1.00  0.00     0.251 C 
ATOM     21  H   UNL A   1      39.491  18.951  25.470  1.00  0.00     0.163 HD
ATOM     22  O   UNL A   1      41.877  18.691  25.879  1.00  0.00    -0.269 OA
BRANCH  20  23
ATOM     23  C   UNL A   1      41.914  20.933  26.577  1.00  0.00     0.039 A 
ATOM     24  C   UNL A   1      42.434  21.857  25.669  1.00  0.00     0.014 A 
ATOM     25  C   UNL A   1      41.900  21.206  27.946  1.00  0.00     0.014 A 
ATOM     26  C   UNL A   1      42.832  23.113  26.129  1.00  0.00     0.010 A 
ATOM     27  C   UNL A   1      42.185  22.491  28.381  1.00  0.00     0.010 A 
ATOM     28  C   UNL A   1      42.642  23.462  27.476  1.00  0.00    -0.014 A 
BRANCH  28  29
ATOM     29  C   UNL A   1      42.889  24.839  27.968  1.00  0.00     0.031 A 
ATOM     30  C   UNL A   1      44.276  25.243  28.386  1.00  0.00     0.074 A 
ATOM     31  C   UNL A   1      41.855  25.686  28.142  1.00  0.00     0.049 A 
ATOM     32  N   UNL A   1      44.678  26.344  28.966  1.00  0.00    -0.248 NA
ATOM     33  C   UNL A   1      45.347  24.257  28.163  1.00  0.00     0.031 C 
ATOM     34  C   UNL A   1      40.452  25.389  27.842  1.00  0.00     0.029 A 
ATOM     35  N   UNL A   1      41.822  26.968  28.630  1.00  0.00    -0.354 N 
ATOM     36  C   UNL A   1      46.035  26.170  29.201  1.00  0.00     0.074 A 
ATOM     37  C   UNL A   1      46.376  24.835  28.761  1.00  0.00     0.031 C 
ATOM     38  C   UNL A   1      39.702  26.468  28.123  1.00  0.00     0.029 A 
ATOM     39  C   UNL A   1      40.561  27.516  28.663  1.00  0.00     0.049 A 
ATOM     40  H   UNL A   1      42.626  27.453  28.928  1.00  0.00     0.167 HD
ATOM     41  C   UNL A   1      46.925  27.053  29.711  1.00  0.00     0.037 A 
ATOM     42  C   UNL A   1      40.145  28.723  29.088  1.00  0.00     0.037 A 
ATOM     43  C   UNL A   1      46.591  28.394  30.103  1.00  0.00     0.049 A 
ATOM     44  C   UNL A   1      41.156  29.692  29.635  1.00  0.00     0.074 A 
ATOM     45  C   UNL A   1      47.434  29.398  30.547  1.00  0.00     0.029 A 
ATOM     46  N   UNL A   1      45.308  28.922  30.091  1.00  0.00    -0.354 N 
ATOM     47  N   UNL A   1      42.451  29.542  29.781  1.00  0.00    -0.248 NA
ATOM     48  C   UNL A   1      40.649  30.999  30.076  1.00  0.00     0.031 C 
ATOM     49  C   UNL A   1      46.654  30.521  30.842  1.00  0.00     0.029 A 
ATOM     50  C   UNL A   1      45.333  30.230  30.543  1.00  0.00     0.049 A 
ATOM     51  H   UNL A   1      44.501  28.438  29.803  1.00  0.00     0.167 HD
ATOM     52  C   UNL A   1      42.914  30.737  30.313  1.00  0.00     0.074 A 
ATOM     53  C   UNL A   1      41.766  31.610  30.445  1.00  0.00     0.031 C 
ATOM     54  C   UNL A   1      44.177  31.081  30.666  1.00  0.00     0.037 A 
BRANCH  41  55
ATOM     55  C   UNL A   1      48.346  26.594  29.855  1.00  0.00     0.057 A 
ATOM     56  C   UNL A   1      48.788  25.903  30.992  1.00  0.00     0.134 A 
ATOM     57  C   UNL A   1      49.281  26.829  28.840  1.00  0.00     0.134 A 
ATOM     58  F   UNL A   1      47.946  25.661  32.008  1.00  0.00    -0.206 F 
ATOM     59  C   UNL A   1      50.114  25.491  31.128  1.00  0.00     0.040 A 
ATOM     60  C   UNL A   1      50.604  26.397  28.952  1.00  0.00     0.040 A 
ATOM     61  F   UNL A   1      48.926  27.482  27.723  1.00  0.00    -0.206 F 
ATOM     62  C   UNL A   1      51.025  25.732  30.102  1.00  0.00     0.006 A 
ENDBRANCH  41  55
BRANCH  42  63
ATOM     63  C   UNL A   1      38.710  29.094  28.999  1.00  0.00     0.057 A 
ATOM     64  C   UNL A   1      38.164  29.569  27.801  1.00  0.00     0.134 A 
ATOM     65  C   UNL A   1      37.854  28.992  30.103  1.00  0.00     0.134 A 
ATOM     66  F   UNL A   1      38.937  29.706  26.715  1.00  0.00    -0.206 F 
ATOM     67  C   UNL A   1      36.823  29.947  27.707  1.00  0.00     0.040 A 
ATOM     68  C   UNL A   1      36.506  29.345  30.017  1.00  0.00     0.040 A 
ATOM     69  F   UNL A   1      38.314  28.538  31.278  1.00  0.00    -0.206 F 
ATOM     70  C   UNL A   1      35.989  29.832  28.817  1.00  0.00     0.006 A 
ENDBRANCH  42  63
BRANCH  54  71
ATOM     71  C   UNL A   1      44.381  32.462  31.212  1.00  0.00     0.057 A 
ATOM     72  C   UNL A   1      44.616  33.557  30.372  1.00  0.00     0.134 A 
ATOM     73  C   UNL A   1      44.296  32.706  32.589  1.00  0.00     0.134 A 
ATOM     74  F   UNL A   1      44.723  33.386  29.046  1.00  0.00    -0.206 F 
ATOM     75  C   UNL A   1      44.779  34.845  30.883  1.00  0.00     0.040 A 
ATOM     76  C   UNL A   1      44.430  33.992  33.110  1.00  0.00     0.040 A 
ATOM     77  F   UNL A   1      44.063  31.700  33.446  1.00  0.00    -0.206 F 
ATOM     78  C   UNL A   1      44.678  35.066  32.257  1.00  0.00     0.006 A 
ENDBRANCH  54  71
ENDBRANCH  28  29
ENDBRANCH  20  23
ENDBRANCH  18  19
ENDBRANCH  17  18
ENDBRANCH   1  17
TORSDOF 15
ENDMDL
MODEL 2
REMARK VINA RESULT:     -10.1      1.535      2.234
REMARK SMILES COC(=O)/C=C(/CC(C)C)C(=O)NCCCCNC(=O)c1ccc(-c2c3nc(c(-c4c(F)cccc4F)c4ccc([nH]4)c(-c4c(F)cccc4F)c4nc(c(-c5c(F)cccc5F)c5ccc2[nH]5)C=C4)C=C3)cc1
REMARK SMILES IDX 15 1 14 2 13 3 11 4 12 5 6 7 5 8 3 9 4 10 2 11 1 12 7 13
REMARK SMILES IDX 8 14 9 15 10 16 16 17 17 18 18 19 19 20 20 22 21 23 22 24
REMARK SMILES IDX 74 25 23 26 73 27 24 28 25 29 26 30 67 31 27 32 72 33 66 34
REMARK SMILES IDX 68 35 28 36 71 37 65 38 64 39 29 41 55 42 38 43 54 44 39 45
REMARK SMILES IDX 42 46 53 47 69 48 40 49 41 50 52 52 70 53 43 54 30 55 31 56
REMARK SMILES IDX 36 57 32 58 33 59 35 60 37 61 34 62 56 63 57 64 62 65 58 66
REMARK SMILES IDX 59 67 61 68 63 69 60 70 44 71 45 72 50 73 46 74 47 75 49 76
REMARK SMILES IDX 51 77 48 78
REMARK H PARENT 13 6 18 21 68 40 42 51
REMARK Flexibility Score: inf
ROOT
ATOM      1  C   UNL A   1      37.354  21.512  24.551  1.00  0.00     0.023 C 
ENDROOT
BRANCH   1   2
ATOM      2  C   UNL A   1      36.891  22.431  25.682  1.00  0.00     0.116 C 
BRANCH   2   3
ATOM      3  N   UNL A   1      35.902  21.759  26.501  1.00  0.00    -0.352 N 
ATOM      4  C   UNL A   1      34.605  21.416  26.284  1.00  0.00     0.247 C 
ATOM      5  O   UNL A   1      33.851  21.561  27.250  1.00  0.00    -0.270 OA
ATOM      6  H   UNL A   1      36.235  21.500  27.391  1.00  0.00     0.163 HD
BRANCH   4   7
ATOM      7  C   UNL A   1      34.083  20.886  24.983  1.00  0.00     0.024 C 
ATOM      8  C   UNL A   1      33.600  21.756  24.066  1.00  0.00     0.102 C 
BRANCH   8   9
ATOM      9  C   UNL A   1      33.457  23.225  24.076  1.00  0.00     0.330 C 
ATOM     10  O   UNL A   1      34.238  23.932  23.454  1.00  0.00    -0.247 OA
BRANCH   9  11
ATOM     11  O   UNL A   1      32.342  23.643  24.712  1.00  0.00    -0.466 OA
ATOM     12  C   UNL A   1      31.158  23.584  23.913  1.00  0.00     0.282 C 
ENDBRANCH   9  11
ENDBRANCH   8   9
BRANCH   7  13
ATOM     13  C   UNL A   1      34.077  19.425  24.604  1.00  0.00     0.044 C 
BRANCH  13  14
ATOM     14  C   UNL A   1      32.694  18.780  24.342  1.00  0.00    -0.013 C 
ATOM     15  C   UNL A   1      32.436  18.248  22.935  1.00  0.00     0.008 C 
ATOM     16  C   UNL A   1      32.462  17.645  25.346  1.00  0.00     0.008 C 
ENDBRANCH  13  14
ENDBRANCH   7  13
ENDBRANCH   4   7
ENDBRANCH   2   3
ENDBRANCH   1   2
BRANCH   1  17
ATOM     17  C   UNL A   1      38.039  20.234  25.004  1.00  0.00     0.023 C 
BRANCH  17  18
ATOM     18  C   UNL A   1      39.328  20.448  25.779  1.00  0.00     0.116 C 
BRANCH  18  19
ATOM     19  N   UNL A   1      40.174  19.260  25.859  1.00  0.00    -0.352 N 
ATOM     20  C   UNL A   1      41.518  19.167  26.131  1.00  0.00     0.251 C 
ATOM     21  H   UNL A   1      39.715  18.405  25.694  1.00  0.00     0.163 HD
ATOM     22  O   UNL A   1      42.102  18.090  26.065  1.00  0.00    -0.269 OA
BRANCH  20  23
ATOM     23  C   UNL A   1      42.258  20.401  26.454  1.00  0.00     0.039 A 
ATOM     24  C   UNL A   1      42.824  21.146  25.418  1.00  0.00     0.014 A 
ATOM     25  C   UNL A   1      42.265  20.879  27.765  1.00  0.00     0.014 A 
ATOM     26  C   UNL A   1      43.292  22.433  25.683  1.00  0.00     0.010 A 
ATOM     27  C   UNL A   1      42.622  22.197  28.001  1.00  0.00     0.010 A 
ATOM     28  C   UNL A   1      43.128  22.992  26.960  1.00  0.00    -0.014 A 
BRANCH  28  29
ATOM     29  C   UNL A   1      43.454  24.413  27.238  1.00  0.00     0.031 A 
ATOM     30  C   UNL A   1      44.883  24.875  27.179  1.00  0.00     0.074 A 
ATOM     31  C   UNL A   1      42.486  25.256  27.649  1.00  0.00     0.049 A 
ATOM     32  N   UNL A   1      45.394  26.031  27.516  1.00  0.00    -0.248 NA
ATOM     33  C   UNL A   1      45.878  23.890  26.722  1.00  0.00     0.031 C 
ATOM     34  C   UNL A   1      41.071  24.911  27.817  1.00  0.00     0.029 A 
ATOM     35  N   UNL A   1      42.546  26.577  28.016  1.00  0.00    -0.354 N 
ATOM     36  C   UNL A   1      46.765  25.900  27.340  1.00  0.00     0.074 A 
ATOM     37  C   UNL A   1      47.014  24.536  26.928  1.00  0.00     0.031 C 
ATOM     38  C   UNL A   1      40.396  25.999  28.222  1.00  0.00     0.029 A 
ATOM     39  C   UNL A   1      41.332  27.105  28.386  1.00  0.00     0.049 A 
ATOM     40  H   UNL A   1      43.381  27.099  28.013  1.00  0.00     0.167 HD
ATOM     41  C   UNL A   1      47.729  26.840  27.479  1.00  0.00     0.037 A 
ATOM     42  C   UNL A   1      41.013  28.339  28.818  1.00  0.00     0.037 A 
ATOM     43  C   UNL A   1      47.472  28.206  27.842  1.00  0.00     0.049 A 
ATOM     44  C   UNL A   1      42.099  29.371  28.948  1.00  0.00     0.074 A 
ATOM     45  C   UNL A   1      48.366  29.260  27.924  1.00  0.00     0.029 A 
ATOM     46  N   UNL A   1      46.224  28.711  28.178  1.00  0.00    -0.354 N 
ATOM     47  N   UNL A   1      43.383  29.255  28.704  1.00  0.00    -0.248 NA
ATOM     48  C   UNL A   1      41.694  30.704  29.414  1.00  0.00     0.031 C 
ATOM     49  C   UNL A   1      47.664  30.393  28.349  1.00  0.00     0.029 A 
ATOM     50  C   UNL A   1      46.328  30.055  28.492  1.00  0.00     0.049 A 
ATOM     51  H   UNL A   1      45.389  28.190  28.192  1.00  0.00     0.167 HD
ATOM     52  C   UNL A   1      43.934  30.500  28.969  1.00  0.00     0.074 A 
ATOM     53  C   UNL A   1      42.843  31.364  29.373  1.00  0.00     0.031 C 
ATOM     54  C   UNL A   1      45.229  30.895  28.891  1.00  0.00     0.037 A 
BRANCH  41  55
ATOM     55  C   UNL A   1      49.146  26.418  27.220  1.00  0.00     0.057 A 
ATOM     56  C   UNL A   1      49.995  26.006  28.257  1.00  0.00     0.134 A 
ATOM     57  C   UNL A   1      49.664  26.408  25.919  1.00  0.00     0.134 A 
ATOM     58  F   UNL A   1      49.565  26.010  29.527  1.00  0.00    -0.206 F 
ATOM     59  C   UNL A   1      51.316  25.629  28.013  1.00  0.00     0.040 A 
ATOM     60  C   UNL A   1      50.975  26.005  25.660  1.00  0.00     0.040 A 
ATOM     61  F   UNL A   1      48.905  26.788  24.880  1.00  0.00    -0.206 F 
ATOM     62  C   UNL A   1      51.807  25.622  26.710  1.00  0.00     0.006 A 
ENDBRANCH  41  55
BRANCH  42  63
ATOM     63  C   UNL A   1      39.604  28.678  29.140  1.00  0.00     0.057 A 
ATOM     64  C   UNL A   1      39.083  28.447  30.418  1.00  0.00     0.134 A 
ATOM     65  C   UNL A   1      38.743  29.230  28.183  1.00  0.00     0.134 A 
ATOM     66  F   UNL A   1      39.853  27.902  31.372  1.00  0.00    -0.206 F 
ATOM     67  C   UNL A   1      37.753  28.734  30.730  1.00  0.00     0.040 A 
ATOM     68  C   UNL A   1      37.417  29.545  28.488  1.00  0.00     0.040 A 
ATOM     69  F   UNL A   1      39.182  29.483  26.942  1.00  0.00    -0.206 F 
ATOM     70  C   UNL A   1      36.917  29.289  29.764  1.00  0.00     0.006 A 
ENDBRANCH  42  63
BRANCH  54  71
ATOM     71  C   UNL A   1      45.529  32.324  29.233  1.00  0.00     0.057 A 
ATOM     72  C   UNL A   1      45.909  32.704  30.526  1.00  0.00     0.134 A 
ATOM     73  C   UNL A   1      45.483  33.319  28.249  1.00  0.00     0.134 A 
ATOM     74  F   UNL A   1      45.959  31.800  31.515  1.00  0.00    -0.206 F 
ATOM     75  C   UNL A   1      46.214  34.031  30.833  1.00  0.00     0.040 A 
ATOM     76  C   UNL A   1      45.811  34.643  28.538  1.00  0.00     0.040 A 
ATOM     77  F   UNL A   1      45.136  33.016  26.989  1.00  0.00    -0.206 F 
ATOM     78  C   UNL A   1      46.173  35.003  29.834  1.00  0.00     0.006 A 
ENDBRANCH  54  71
ENDBRANCH  28  29
ENDBRANCH  20  23
ENDBRANCH  18  19
ENDBRANCH  17  18
ENDBRANCH   1  17
TORSDOF 15
ENDMDL
MODEL 3
REMARK VINA RESULT:     -10.1      4.987      9.755
REMARK SMILES COC(=O)/C=C(/CC(C)C)C(=O)NCCCCNC(=O)c1ccc(-c2c3nc(c(-c4c(F)cccc4F)c4ccc([nH]4)c(-c4c(F)cccc4F)c4nc(c(-c5c(F)cccc5F)c5ccc2[nH]5)C=C4)C=C3)cc1
REMARK SMILES IDX 15 1 14 2 13 3 11 4 12 5 6 7 5 8 3 9 4 10 2 11 1 12 7 13
REMARK SMILES IDX 8 14 9 15 10 16 16 17 17 18 18 19 19 20 20 22 21 23 22 24
REMARK SMILES IDX 74 25 23 26 73 27 24 28 25 29 26 30 67 31 27 32 72 33 66 34
REMARK SMILES IDX 68 35 28 36 71 37 65 38 64 39 29 41 55 42 38 43 54 44 39 45
REMARK SMILES IDX 42 46 53 47 69 48 40 49 41 50 52 52 70 53 43 54 30 55 31 56
REMARK SMILES IDX 36 57 32 58 33 59 35 60 37 61 34 62 56 63 57 64 62 65 58 66
REMARK SMILES IDX 59 67 61 68 63 69 60 70 44 71 45 72 50 73 46 74 47 75 49 76
REMARK SMILES IDX 51 77 48 78
REMARK H PARENT 13 6 18 21 68 40 42 51
REMARK Flexibility Score: inf
ROOT
ATOM      1  C   UNL A   1      32.171  30.034  26.954  1.00  0.00     0.023 C 
ENDROOT
BRANCH   1   2
ATOM      2  C   UNL A   1      33.338  29.535  26.102  1.00  0.00     0.116 C 
BRANCH   2   3
ATOM      3  N   UNL A   1      33.040  29.707  24.694  1.00  0.00    -0.352 N 
ATOM      4  C   UNL A   1      32.335  28.962  23.804  1.00  0.00     0.247 C 
ATOM      5  O   UNL A   1      32.819  28.893  22.671  1.00  0.00    -0.270 OA
ATOM      6  H   UNL A   1      33.426  30.525  24.305  1.00  0.00     0.163 HD
BRANCH   4   7
ATOM      7  C   UNL A   1      31.050  28.261  24.127  1.00  0.00     0.024 C 
ATOM      8  C   UNL A   1      29.898  28.718  23.586  1.00  0.00     0.102 C 
BRANCH   8   9
ATOM      9  C   UNL A   1      29.611  29.851  22.684  1.00  0.00     0.330 C 
ATOM     10  O   UNL A   1      29.741  29.734  21.472  1.00  0.00    -0.247 OA
BRANCH   9  11
ATOM     11  O   UNL A   1      29.090  30.918  23.326  1.00  0.00    -0.466 OA
ATOM     12  C   UNL A   1      27.670  30.871  23.480  1.00  0.00     0.282 C 
ENDBRANCH   9  11
ENDBRANCH   8   9
BRANCH   7  13
ATOM     13  C   UNL A   1      30.949  27.043  25.013  1.00  0.00     0.044 C 
BRANCH  13  14
ATOM     14  C   UNL A   1      30.669  25.692  24.310  1.00  0.00    -0.013 C 
ATOM     15  C   UNL A   1      31.518  25.362  23.085  1.00  0.00     0.008 C 
ATOM     16  C   UNL A   1      30.806  24.550  25.324  1.00  0.00     0.008 C 
ENDBRANCH  13  14
ENDBRANCH   7  13
ENDBRANCH   4   7
ENDBRANCH   2   3
ENDBRANCH   1   2
BRANCH   1  17
ATOM     17  C   UNL A   1      31.875  31.519  26.827  1.00  0.00     0.023 C 
BRANCH  17  18
ATOM     18  C   UNL A   1      32.985  32.430  27.323  1.00  0.00     0.116 C 
BRANCH  18  19
ATOM     19  N   UNL A   1      32.563  33.811  27.540  1.00  0.00    -0.352 N 
ATOM     20  C   UNL A   1      33.056  34.742  28.424  1.00  0.00     0.251 C 
ATOM     21  H   UNL A   1      31.821  34.119  26.971  1.00  0.00     0.163 HD
ATOM     22  O   UNL A   1      32.522  35.839  28.547  1.00  0.00    -0.269 OA
BRANCH  20  23
ATOM     23  C   UNL A   1      34.213  34.374  29.261  1.00  0.00     0.039 A 
ATOM     24  C   UNL A   1      33.994  33.726  30.477  1.00  0.00     0.014 A 
ATOM     25  C   UNL A   1      35.507  34.553  28.768  1.00  0.00     0.014 A 
ATOM     26  C   UNL A   1      35.074  33.146  31.143  1.00  0.00     0.010 A 
ATOM     27  C   UNL A   1      36.557  33.877  29.370  1.00  0.00     0.010 A 
ATOM     28  C   UNL A   1      36.350  33.157  30.557  1.00  0.00    -0.014 A 
BRANCH  28  29
ATOM     29  C   UNL A   1      37.487  32.406  31.146  1.00  0.00     0.031 A 
ATOM     30  C   UNL A   1      38.117  32.889  32.422  1.00  0.00     0.074 A 
ATOM     31  C   UNL A   1      38.019  31.362  30.480  1.00  0.00     0.049 A 
ATOM     32  N   UNL A   1      39.195  32.462  33.027  1.00  0.00    -0.248 NA
ATOM     33  C   UNL A   1      37.473  34.037  33.084  1.00  0.00     0.031 C 
ATOM     34  C   UNL A   1      37.544  30.839  29.196  1.00  0.00     0.029 A 
ATOM     35  N   UNL A   1      39.089  30.559  30.785  1.00  0.00    -0.354 N 
ATOM     36  C   UNL A   1      39.372  33.304  34.117  1.00  0.00     0.074 A 
ATOM     37  C   UNL A   1      38.330  34.305  34.057  1.00  0.00     0.031 C 
ATOM     38  C   UNL A   1      38.299  29.787  28.840  1.00  0.00     0.029 A 
ATOM     39  C   UNL A   1      39.337  29.586  29.845  1.00  0.00     0.049 A 
ATOM     40  H   UNL A   1      39.630  30.668  31.600  1.00  0.00     0.167 HD
ATOM     41  C   UNL A   1      40.302  33.232  35.098  1.00  0.00     0.037 A 
ATOM     42  C   UNL A   1      40.298  28.645  29.796  1.00  0.00     0.037 A 
ATOM     43  C   UNL A   1      41.306  32.208  35.180  1.00  0.00     0.049 A 
ATOM     44  C   UNL A   1      41.309  28.576  30.907  1.00  0.00     0.074 A 
ATOM     45  C   UNL A   1      42.239  31.992  36.179  1.00  0.00     0.029 A 
ATOM     46  N   UNL A   1      41.504  31.221  34.226  1.00  0.00    -0.354 N 
ATOM     47  N   UNL A   1      41.419  29.332  31.973  1.00  0.00    -0.248 NA
ATOM     48  C   UNL A   1      42.330  27.524  30.808  1.00  0.00     0.031 C 
ATOM     49  C   UNL A   1      43.028  30.898  35.809  1.00  0.00     0.029 A 
ATOM     50  C   UNL A   1      42.560  30.408  34.600  1.00  0.00     0.049 A 
ATOM     51  H   UNL A   1      40.973  31.115  33.404  1.00  0.00     0.167 HD
ATOM     52  C   UNL A   1      42.506  28.838  32.679  1.00  0.00     0.074 A 
ATOM     53  C   UNL A   1      43.011  27.704  31.931  1.00  0.00     0.031 C 
ATOM     54  C   UNL A   1      43.045  29.284  33.840  1.00  0.00     0.037 A 
BRANCH  41  55
ATOM     55  C   UNL A   1      40.259  34.285  36.166  1.00  0.00     0.057 A 
ATOM     56  C   UNL A   1      41.007  35.467  36.069  1.00  0.00     0.134 A 
ATOM     57  C   UNL A   1      39.449  34.124  37.297  1.00  0.00     0.134 A 
ATOM     58  F   UNL A   1      41.815  35.673  35.019  1.00  0.00    -0.206 F 
ATOM     59  C   UNL A   1      40.974  36.436  37.072  1.00  0.00     0.040 A 
ATOM     60  C   UNL A   1      39.387  35.100  38.294  1.00  0.00     0.040 A 
ATOM     61  F   UNL A   1      38.706  33.019  37.453  1.00  0.00    -0.206 F 
ATOM     62  C   UNL A   1      40.157  36.257  38.186  1.00  0.00     0.006 A 
ENDBRANCH  41  55
BRANCH  42  63
ATOM     63  C   UNL A   1      40.343  27.680  28.669  1.00  0.00     0.057 A 
ATOM     64  C   UNL A   1      41.074  27.961  27.510  1.00  0.00     0.134 A 
ATOM     65  C   UNL A   1      39.653  26.462  28.717  1.00  0.00     0.134 A 
ATOM     66  F   UNL A   1      41.740  29.119  27.397  1.00  0.00    -0.206 F 
ATOM     67  C   UNL A   1      41.105  27.076  26.430  1.00  0.00     0.040 A 
ATOM     68  C   UNL A   1      39.694  25.557  27.654  1.00  0.00     0.040 A 
ATOM     69  F   UNL A   1      38.939  26.129  29.802  1.00  0.00    -0.206 F 
ATOM     70  C   UNL A   1      40.416  25.867  26.503  1.00  0.00     0.006 A 
ENDBRANCH  42  63
BRANCH  54  71
ATOM     71  C   UNL A   1      44.227  28.535  34.378  1.00  0.00     0.057 A 
ATOM     72  C   UNL A   1      44.073  27.414  35.202  1.00  0.00     0.134 A 
ATOM     73  C   UNL A   1      45.530  28.913  34.029  1.00  0.00     0.134 A 
ATOM     74  F   UNL A   1      42.852  27.011  35.582  1.00  0.00    -0.206 F 
ATOM     75  C   UNL A   1      45.177  26.705  35.678  1.00  0.00     0.040 A 
ATOM     76  C   UNL A   1      46.639  28.196  34.477  1.00  0.00     0.040 A 
ATOM     77  F   UNL A   1      45.743  29.972  33.235  1.00  0.00    -0.206 F 
ATOM     78  C   UNL A   1      46.464  27.091  35.308  1.00  0.00     0.006 A 
ENDBRANCH  54  71
ENDBRANCH  28  29
ENDBRANCH  20  23
ENDBRANCH  18  19
ENDBRANCH  17  18
ENDBRANCH   1  17
TORSDOF 15
ENDMDL
