MODEL 1
REMARK VINA RESULT:     -12.4      0.000      0.000
REMARK SMILES CCC[NH2+][C@@]1(C(=O)NCCCCNC(=O)c2ccc(-c3c4nc(c(-c5c(F)cccc5F)c5ccc([nH]5)c(-c5c(F)cccc5F)c5nc(c(-c6c(F)cccc6F)c6ccc3[nH]6)C=C5)C=C4)cc2)CCC[C@H]([N@@H+]2CCO[C@H](CC)C2)C1
REMARK SMILES IDX 10 1 9 2 8 3 6 4 7 5 5 7 70 8 82 9 71 10 73 11 72 12 4 13
REMARK SMILES IDX 3 16 2 17 1 18 74 19 75 20 81 21 76 23 78 24 77 25 79 26
REMARK SMILES IDX 80 27 11 28 12 29 13 30 14 31 15 33 16 34 17 35 69 36 18 37
REMARK SMILES IDX 68 38 19 39 20 40 21 41 62 42 22 43 67 44 61 45 63 46 23 47
REMARK SMILES IDX 66 48 60 49 59 50 24 52 50 53 33 54 49 55 34 56 37 57 48 58
REMARK SMILES IDX 64 59 35 60 36 61 47 63 65 64 38 65 25 66 26 67 31 68 27 69
REMARK SMILES IDX 28 70 30 71 32 72 29 73 51 74 52 75 57 76 53 77 54 78 56 79
REMARK SMILES IDX 58 80 55 81 39 82 40 83 45 84 41 85 42 86 44 87 46 88 43 89
REMARK H PARENT 8 6 4 14 4 15 74 22 13 32 63 51 37 62
REMARK Flexibility Score: inf
ROOT
ATOM      1  C   UNL A   1      34.453  32.394  28.174  1.00  0.00     0.023 C 
ENDROOT
BRANCH   1   2
ATOM      2  C   UNL A   1      34.367  30.398  27.413  1.00  0.00     0.116 C 
BRANCH   2   3
ATOM      3  N   UNL A   1      34.114  29.822  25.940  1.00  0.00    -0.351 N 
ATOM      4  C   UNL A   1      33.269  29.260  25.053  1.00  0.00     0.281 C 
ATOM      5  O   UNL A   1      33.901  28.881  24.055  1.00  0.00    -0.268 OA
ATOM      6  H   UNL A   1      34.969  29.927  25.462  1.00  0.00     0.163 HD
BRANCH   4   7
ATOM      7  C   UNL A   1      31.723  29.162  25.154  1.00  0.00     0.181 C 
ATOM      8  C   UNL A   1      31.376  28.970  26.645  1.00  0.00     0.079 C 
ATOM      9  C   UNL A   1      31.127  28.069  24.251  1.00  0.00     0.144 C 
ATOM     10  C   UNL A   1      31.657  27.563  27.144  1.00  0.00     0.013 C 
ATOM     11  C   UNL A   1      31.438  26.642  24.683  1.00  0.00     0.191 C 
ATOM     12  C   UNL A   1      31.058  26.522  26.199  1.00  0.00     0.065 C 
BRANCH   7  13
ATOM     13  N   UNL A   1      30.998  30.405  24.685  1.00  0.00    -0.333 N 
ATOM     14  H   UNL A   1      30.680  30.902  25.516  1.00  0.00     0.347 HD
ATOM     15  H   UNL A   1      31.682  30.893  24.108  1.00  0.00     0.347 HD
BRANCH  13  16
ATOM     16  C   UNL A   1      29.840  30.239  23.811  1.00  0.00     0.261 C 
BRANCH  16  17
ATOM     17  C   UNL A   1      28.840  31.397  23.916  1.00  0.00     0.058 C 
ATOM     18  C   UNL A   1      27.725  31.310  22.885  1.00  0.00     0.010 C 
ENDBRANCH  16  17
ENDBRANCH  13  16
ENDBRANCH   7  13
BRANCH  11  19
ATOM     19  N   UNL A   1      32.704  26.072  24.168  1.00  0.00    -0.328 N 
ATOM     20  C   UNL A   1      32.444  25.023  22.706  1.00  0.00     0.291 C 
ATOM     21  C   UNL A   1      34.124  25.678  25.313  1.00  0.00     0.294 C 
ATOM     22  H   UNL A   1      33.193  26.905  23.840  1.00  0.00     0.348 HD
ATOM     23  C   UNL A   1      33.206  23.247  22.634  1.00  0.00     0.222 C 
ATOM     24  C   UNL A   1      34.978  23.889  25.234  1.00  0.00     0.173 C 
ATOM     25  O   UNL A   1      34.589  22.863  23.768  1.00  0.00    -0.367 OA
BRANCH  24  26
ATOM     26  C   UNL A   1      35.270  22.878  26.413  1.00  0.00     0.034 C 
ATOM     27  C   UNL A   1      34.152  22.306  27.301  1.00  0.00     0.007 C 
ENDBRANCH  24  26
ENDBRANCH  11  19
ENDBRANCH   4   7
ENDBRANCH   2   3
ENDBRANCH   1   2
BRANCH   1  28
ATOM     28  C   UNL A   1      33.474  33.732  28.431  1.00  0.00     0.023 C 
BRANCH  28  29
ATOM     29  C   UNL A   1      33.943  34.976  29.204  1.00  0.00     0.116 C 
BRANCH  29  30
ATOM     30  N   UNL A   1      32.931  35.596  30.042  1.00  0.00    -0.352 N 
ATOM     31  C   UNL A   1      32.851  35.633  31.410  1.00  0.00     0.251 C 
ATOM     32  H   UNL A   1      32.204  36.053  29.562  1.00  0.00     0.163 HD
ATOM     33  O   UNL A   1      31.936  36.191  32.000  1.00  0.00    -0.269 OA
BRANCH  31  34
ATOM     34  C   UNL A   1      33.932  34.969  32.149  1.00  0.00     0.039 A 
ATOM     35  C   UNL A   1      33.741  33.673  32.626  1.00  0.00     0.014 A 
ATOM     36  C   UNL A   1      35.181  35.594  32.201  1.00  0.00     0.014 A 
ATOM     37  C   UNL A   1      34.846  32.958  33.078  1.00  0.00     0.010 A 
ATOM     38  C   UNL A   1      36.288  34.851  32.569  1.00  0.00     0.010 A 
ATOM     39  C   UNL A   1      36.130  33.523  32.999  1.00  0.00    -0.014 A 
BRANCH  39  40
ATOM     40  C   UNL A   1      37.340  32.743  33.340  1.00  0.00     0.031 A 
ATOM     41  C   UNL A   1      38.059  33.025  34.624  1.00  0.00     0.074 A 
ATOM     42  C   UNL A   1      37.840  31.874  32.442  1.00  0.00     0.049 A 
ATOM     43  N   UNL A   1      39.199  32.553  35.053  1.00  0.00    -0.248 NA
ATOM     44  C   UNL A   1      37.435  34.007  35.527  1.00  0.00     0.031 C 
ATOM     45  C   UNL A   1      37.267  31.585  31.124  1.00  0.00     0.029 A 
ATOM     46  N   UNL A   1      38.956  31.080  32.497  1.00  0.00    -0.354 N 
ATOM     47  C   UNL A   1      39.448  33.210  36.250  1.00  0.00     0.074 A 
ATOM     48  C   UNL A   1      38.366  34.147  36.457  1.00  0.00     0.031 C 
ATOM     49  C   UNL A   1      38.019  30.657  30.511  1.00  0.00     0.029 A 
ATOM     50  C   UNL A   1      39.140  30.309  31.376  1.00  0.00     0.049 A 
ATOM     51  H   UNL A   1      39.568  31.064  33.268  1.00  0.00     0.167 HD
ATOM     52  C   UNL A   1      40.475  33.028  37.112  1.00  0.00     0.037 A 
ATOM     53  C   UNL A   1      40.107  29.420  31.086  1.00  0.00     0.037 A 
ATOM     54  C   UNL A   1      41.509  32.047  36.925  1.00  0.00     0.049 A 
ATOM     55  C   UNL A   1      41.194  29.178  32.094  1.00  0.00     0.074 A 
ATOM     56  C   UNL A   1      42.545  31.711  37.777  1.00  0.00     0.029 A 
ATOM     57  N   UNL A   1      41.624  31.235  35.807  1.00  0.00    -0.354 N 
ATOM     58  N   UNL A   1      41.381  29.753  33.258  1.00  0.00    -0.248 NA
ATOM     59  C   UNL A   1      42.201  28.164  31.754  1.00  0.00     0.031 C 
ATOM     60  C   UNL A   1      43.298  30.703  37.165  1.00  0.00     0.029 A 
ATOM     61  C   UNL A   1      42.716  30.397  35.944  1.00  0.00     0.049 A 
ATOM     62  H   UNL A   1      41.018  31.250  35.031  1.00  0.00     0.167 HD
ATOM     63  C   UNL A   1      42.514  29.160  33.797  1.00  0.00     0.074 A 
ATOM     64  C   UNL A   1      42.963  28.170  32.839  1.00  0.00     0.031 C 
ATOM     65  C   UNL A   1      43.130  29.415  34.976  1.00  0.00     0.037 A 
BRANCH  52  66
ATOM     66  C   UNL A   1      40.508  33.897  38.331  1.00  0.00     0.057 A 
ATOM     67  C   UNL A   1      39.811  33.558  39.498  1.00  0.00     0.134 A 
ATOM     68  C   UNL A   1      41.239  35.092  38.340  1.00  0.00     0.134 A 
ATOM     69  F   UNL A   1      39.077  32.435  39.547  1.00  0.00    -0.206 F 
ATOM     70  C   UNL A   1      39.810  34.391  40.618  1.00  0.00     0.040 A 
ATOM     71  C   UNL A   1      41.267  35.921  39.463  1.00  0.00     0.040 A 
ATOM     72  F   UNL A   1      41.930  35.476  37.257  1.00  0.00    -0.206 F 
ATOM     73  C   UNL A   1      40.543  35.575  40.602  1.00  0.00     0.006 A 
ENDBRANCH  52  66
BRANCH  53  74
ATOM     74  C   UNL A   1      40.065  28.665  29.810  1.00  0.00     0.057 A 
ATOM     75  C   UNL A   1      40.767  29.117  28.687  1.00  0.00     0.134 A 
ATOM     76  C   UNL A   1      39.337  27.477  29.680  1.00  0.00     0.134 A 
ATOM     77  F   UNL A   1      41.473  30.257  28.747  1.00  0.00    -0.206 F 
ATOM     78  C   UNL A   1      40.735  28.426  27.475  1.00  0.00     0.040 A 
ATOM     79  C   UNL A   1      39.309  26.765  28.480  1.00  0.00     0.040 A 
ATOM     80  F   UNL A   1      38.651  26.986  30.724  1.00  0.00    -0.206 F 
ATOM     81  C   UNL A   1      40.005  27.243  27.371  1.00  0.00     0.006 A 
ENDBRANCH  53  74
BRANCH  65  82
ATOM     82  C   UNL A   1      44.342  28.598  35.301  1.00  0.00     0.057 A 
ATOM     83  C   UNL A   1      45.625  29.019  34.936  1.00  0.00     0.134 A 
ATOM     84  C   UNL A   1      44.226  27.412  36.036  1.00  0.00     0.134 A 
ATOM     85  F   UNL A   1      45.795  30.141  34.220  1.00  0.00    -0.206 F 
ATOM     86  C   UNL A   1      46.756  28.281  35.285  1.00  0.00     0.040 A 
ATOM     87  C   UNL A   1      45.352  26.676  36.405  1.00  0.00     0.040 A 
ATOM     88  F   UNL A   1      43.022  26.961  36.418  1.00  0.00    -0.206 F 
ATOM     89  C   UNL A   1      46.621  27.111  36.029  1.00  0.00     0.006 A 
ENDBRANCH  65  82
ENDBRANCH  39  40
ENDBRANCH  31  34
ENDBRANCH  29  30
ENDBRANCH  28  29
ENDBRANCH   1  28
TORSDOF 16
ENDMDL
MODEL 2
REMARK VINA RESULT:     -12.2      4.511      6.445
REMARK SMILES CCC[NH2+][C@@]1(C(=O)NCCCCNC(=O)c2ccc(-c3c4nc(c(-c5c(F)cccc5F)c5ccc([nH]5)c(-c5c(F)cccc5F)c5nc(c(-c6c(F)cccc6F)c6ccc3[nH]6)C=C5)C=C4)cc2)CCC[C@H]([N@@H+]2CCO[C@H](CC)C2)C1
REMARK SMILES IDX 10 1 9 2 8 3 6 4 7 5 5 7 70 8 82 9 71 10 73 11 72 12 4 13
REMARK SMILES IDX 3 16 2 17 1 18 74 19 75 20 81 21 76 23 78 24 77 25 79 26
REMARK SMILES IDX 80 27 11 28 12 29 13 30 14 31 15 33 16 34 17 35 69 36 18 37
REMARK SMILES IDX 68 38 19 39 20 40 21 41 62 42 22 43 67 44 61 45 63 46 23 47
REMARK SMILES IDX 66 48 60 49 59 50 24 52 50 53 33 54 49 55 34 56 37 57 48 58
REMARK SMILES IDX 64 59 35 60 36 61 47 63 65 64 38 65 25 66 26 67 31 68 27 69
REMARK SMILES IDX 28 70 30 71 32 72 29 73 51 74 52 75 57 76 53 77 54 78 56 79
REMARK SMILES IDX 58 80 55 81 39 82 40 83 45 84 41 85 42 86 44 87 46 88 43 89
REMARK H PARENT 8 6 4 14 4 15 74 22 13 32 63 51 37 62
REMARK Flexibility Score: inf
ROOT
ATOM      1  C   UNL A   1      32.897  28.897  24.259  1.00  0.00     0.023 C 
ENDROOT
BRANCH   1   2
ATOM      2  C   UNL A   1      33.752  27.318  23.101  1.00  0.00     0.116 C 
BRANCH   2   3
ATOM      3  N   UNL A   1      33.246  25.835  22.770  1.00  0.00    -0.351 N 
ATOM      4  C   UNL A   1      32.567  24.737  23.158  1.00  0.00     0.281 C 
ATOM      5  O   UNL A   1      32.789  23.807  22.367  1.00  0.00    -0.268 OA
ATOM      6  H   UNL A   1      33.587  25.632  21.869  1.00  0.00     0.163 HD
BRANCH   4   7
ATOM      7  C   UNL A   1      31.565  24.615  24.336  1.00  0.00     0.181 C 
ATOM      8  C   UNL A   1      32.071  25.541  25.461  1.00  0.00     0.079 C 
ATOM      9  C   UNL A   1      31.353  23.164  24.801  1.00  0.00     0.144 C 
ATOM     10  C   UNL A   1      33.265  24.972  26.208  1.00  0.00     0.013 C 
ATOM     11  C   UNL A   1      32.551  22.534  25.500  1.00  0.00     0.191 C 
ATOM     12  C   UNL A   1      33.004  23.525  26.627  1.00  0.00     0.065 C 
BRANCH   7  13
ATOM     13  N   UNL A   1      30.158  25.056  23.995  1.00  0.00    -0.333 N 
ATOM     14  H   UNL A   1      30.078  25.053  22.978  1.00  0.00     0.347 HD
ATOM     15  H   UNL A   1      29.560  24.397  24.491  1.00  0.00     0.347 HD
BRANCH  13  16
ATOM     16  C   UNL A   1      29.715  26.368  24.460  1.00  0.00     0.261 C 
BRANCH  16  17
ATOM     17  C   UNL A   1      28.711  27.032  23.508  1.00  0.00     0.058 C 
ATOM     18  C   UNL A   1      29.156  28.413  23.052  1.00  0.00     0.010 C 
ENDBRANCH  16  17
ENDBRANCH  13  16
ENDBRANCH   7  13
BRANCH  11  19
ATOM     19  N   UNL A   1      33.543  21.877  24.619  1.00  0.00    -0.328 N 
ATOM     20  C   UNL A   1      33.259  20.089  24.473  1.00  0.00     0.291 C 
ATOM     21  C   UNL A   1      35.289  22.523  24.479  1.00  0.00     0.294 C 
ATOM     22  H   UNL A   1      33.317  22.280  23.709  1.00  0.00     0.348 HD
ATOM     23  C   UNL A   1      34.714  18.845  24.752  1.00  0.00     0.222 C 
ATOM     24  C   UNL A   1      36.814  21.273  24.698  1.00  0.00     0.173 C 
ATOM     25  O   UNL A   1      36.422  19.486  24.626  1.00  0.00    -0.367 OA
BRANCH  24  26
ATOM     26  C   UNL A   1      38.079  21.409  25.636  1.00  0.00     0.034 C 
ATOM     27  C   UNL A   1      38.640  22.776  26.066  1.00  0.00     0.007 C 
ENDBRANCH  24  26
ENDBRANCH  11  19
ENDBRANCH   4   7
ENDBRANCH   2   3
ENDBRANCH   1   2
BRANCH   1  28
ATOM     28  C   UNL A   1      32.686  29.375  25.854  1.00  0.00     0.023 C 
BRANCH  28  29
ATOM     29  C   UNL A   1      33.832  29.398  26.880  1.00  0.00     0.116 C 
BRANCH  29  30
ATOM     30  N   UNL A   1      33.843  30.551  27.763  1.00  0.00    -0.352 N 
ATOM     31  C   UNL A   1      34.843  30.993  28.590  1.00  0.00     0.251 C 
ATOM     32  H   UNL A   1      33.019  31.090  27.768  1.00  0.00     0.163 HD
ATOM     33  O   UNL A   1      34.723  31.987  29.293  1.00  0.00    -0.269 OA
BRANCH  31  34
ATOM     34  C   UNL A   1      36.087  30.214  28.590  1.00  0.00     0.039 A 
ATOM     35  C   UNL A   1      36.949  30.298  27.498  1.00  0.00     0.014 A 
ATOM     36  C   UNL A   1      36.449  29.543  29.762  1.00  0.00     0.014 A 
ATOM     37  C   UNL A   1      38.235  29.780  27.621  1.00  0.00     0.010 A 
ATOM     38  C   UNL A   1      37.754  29.108  29.909  1.00  0.00     0.010 A 
ATOM     39  C   UNL A   1      38.660  29.234  28.844  1.00  0.00    -0.014 A 
BRANCH  39  40
ATOM     40  C   UNL A   1      40.059  28.802  29.052  1.00  0.00     0.031 A 
ATOM     41  C   UNL A   1      41.048  29.766  29.634  1.00  0.00     0.074 A 
ATOM     42  C   UNL A   1      40.450  27.591  28.612  1.00  0.00     0.049 A 
ATOM     43  N   UNL A   1      42.340  29.638  29.779  1.00  0.00    -0.248 NA
ATOM     44  C   UNL A   1      40.519  31.071  30.067  1.00  0.00     0.031 C 
ATOM     45  C   UNL A   1      39.588  26.605  27.953  1.00  0.00     0.029 A 
ATOM     46  N   UNL A   1      41.679  26.987  28.641  1.00  0.00    -0.354 N 
ATOM     47  C   UNL A   1      42.782  30.855  30.278  1.00  0.00     0.074 A 
ATOM     48  C   UNL A   1      41.630  31.725  30.367  1.00  0.00     0.031 C 
ATOM     49  C   UNL A   1      40.309  25.509  27.670  1.00  0.00     0.029 A 
ATOM     50  C   UNL A   1      41.687  25.726  28.096  1.00  0.00     0.049 A 
ATOM     51  H   UNL A   1      42.482  27.416  29.016  1.00  0.00     0.167 HD
ATOM     52  C   UNL A   1      44.033  31.206  30.653  1.00  0.00     0.037 A 
ATOM     53  C   UNL A   1      42.696  24.847  27.962  1.00  0.00     0.037 A 
ATOM     54  C   UNL A   1      45.156  30.310  30.620  1.00  0.00     0.049 A 
ATOM     55  C   UNL A   1      44.061  25.231  28.459  1.00  0.00     0.074 A 
ATOM     56  C   UNL A   1      46.448  30.527  31.063  1.00  0.00     0.029 A 
ATOM     57  N   UNL A   1      45.110  29.015  30.125  1.00  0.00    -0.354 N 
ATOM     58  N   UNL A   1      44.454  26.360  28.997  1.00  0.00    -0.248 NA
ATOM     59  C   UNL A   1      45.121  24.221  28.335  1.00  0.00     0.031 C 
ATOM     60  C   UNL A   1      47.190  29.366  30.821  1.00  0.00     0.029 A 
ATOM     61  C   UNL A   1      46.353  28.419  30.249  1.00  0.00     0.049 A 
ATOM     62  H   UNL A   1      44.313  28.583  29.744  1.00  0.00     0.167 HD
ATOM     63  C   UNL A   1      45.800  26.193  29.292  1.00  0.00     0.074 A 
ATOM     64  C   UNL A   1      46.152  24.847  28.886  1.00  0.00     0.031 C 
ATOM     65  C   UNL A   1      46.668  27.074  29.845  1.00  0.00     0.037 A 
BRANCH  52  66
ATOM     66  C   UNL A   1      44.235  32.608  31.142  1.00  0.00     0.057 A 
ATOM     67  C   UNL A   1      44.080  32.946  32.493  1.00  0.00     0.134 A 
ATOM     68  C   UNL A   1      44.579  33.634  30.253  1.00  0.00     0.134 A 
ATOM     69  F   UNL A   1      43.734  32.011  33.392  1.00  0.00    -0.206 F 
ATOM     70  C   UNL A   1      44.227  34.261  32.938  1.00  0.00     0.040 A 
ATOM     71  C   UNL A   1      44.753  34.948  30.691  1.00  0.00     0.040 A 
ATOM     72  F   UNL A   1      44.743  33.378  28.947  1.00  0.00    -0.206 F 
ATOM     73  C   UNL A   1      44.568  35.265  32.035  1.00  0.00     0.006 A 
ENDBRANCH  52  66
BRANCH  53  74
ATOM     74  C   UNL A   1      42.445  23.509  27.374  1.00  0.00     0.057 A 
ATOM     75  C   UNL A   1      42.139  22.414  28.192  1.00  0.00     0.134 A 
ATOM     76  C   UNL A   1      42.495  23.288  25.994  1.00  0.00     0.134 A 
ATOM     77  F   UNL A   1      42.090  22.561  29.524  1.00  0.00    -0.206 F 
ATOM     78  C   UNL A   1      41.907  21.145  27.660  1.00  0.00     0.040 A 
ATOM     79  C   UNL A   1      42.247  22.028  25.446  1.00  0.00     0.040 A 
ATOM     80  F   UNL A   1      42.773  24.299  25.156  1.00  0.00    -0.206 F 
ATOM     81  C   UNL A   1      41.958  20.951  26.281  1.00  0.00     0.006 A 
ENDBRANCH  53  74
BRANCH  65  82
ATOM     82  C   UNL A   1      48.072  26.602  30.058  1.00  0.00     0.057 A 
ATOM     83  C   UNL A   1      48.442  25.913  31.218  1.00  0.00     0.134 A 
ATOM     84  C   UNL A   1      49.045  26.787  29.068  1.00  0.00     0.134 A 
ATOM     85  F   UNL A   1      47.556  25.718  32.206  1.00  0.00    -0.206 F 
ATOM     86  C   UNL A   1      49.739  25.429  31.390  1.00  0.00     0.040 A 
ATOM     87  C   UNL A   1      50.339  26.292  29.222  1.00  0.00     0.040 A 
ATOM     88  F   UNL A   1      48.746  27.436  27.932  1.00  0.00    -0.206 F 
ATOM     89  C   UNL A   1      50.689  25.611  30.387  1.00  0.00     0.006 A 
ENDBRANCH  65  82
ENDBRANCH  39  40
ENDBRANCH  31  34
ENDBRANCH  29  30
ENDBRANCH  28  29
ENDBRANCH   1  28
TORSDOF 16
ENDMDL
MODEL 3
REMARK VINA RESULT:     -12.1      4.910     10.101
REMARK SMILES CCC[NH2+][C@@]1(C(=O)NCCCCNC(=O)c2ccc(-c3c4nc(c(-c5c(F)cccc5F)c5ccc([nH]5)c(-c5c(F)cccc5F)c5nc(c(-c6c(F)cccc6F)c6ccc3[nH]6)C=C5)C=C4)cc2)CCC[C@H]([N@@H+]2CCO[C@H](CC)C2)C1
REMARK SMILES IDX 10 1 9 2 8 3 6 4 7 5 5 7 70 8 82 9 71 10 73 11 72 12 4 13
REMARK SMILES IDX 3 16 2 17 1 18 74 19 75 20 81 21 76 23 78 24 77 25 79 26
REMARK SMILES IDX 80 27 11 28 12 29 13 30 14 31 15 33 16 34 17 35 69 36 18 37
REMARK SMILES IDX 68 38 19 39 20 40 21 41 62 42 22 43 67 44 61 45 63 46 23 47
REMARK SMILES IDX 66 48 60 49 59 50 24 52 50 53 33 54 49 55 34 56 37 57 48 58
REMARK SMILES IDX 64 59 35 60 36 61 47 63 65 64 38 65 25 66 26 67 31 68 27 69
REMARK SMILES IDX 28 70 30 71 32 72 29 73 51 74 52 75 57 76 53 77 54 78 56 79
REMARK SMILES IDX 58 80 55 81 39 82 40 83 45 84 41 85 42 86 44 87 46 88 43 89
REMARK H PARENT 8 6 4 14 4 15 74 22 13 32 63 51 37 62
REMARK Flexibility Score: inf
ROOT
ATOM      1  C   UNL A   1      36.982  22.401  24.821  1.00  0.00     0.023 C 
ENDROOT
BRANCH   1   2
ATOM      2  C   UNL A   1      35.726  23.764  25.884  1.00  0.00     0.116 C 
BRANCH   2   3
ATOM      3  N   UNL A   1      34.216  23.646  26.408  1.00  0.00    -0.351 N 
ATOM      4  C   UNL A   1      32.949  23.242  26.186  1.00  0.00     0.281 C 
ATOM      5  O   UNL A   1      32.203  23.711  27.060  1.00  0.00    -0.268 OA
ATOM      6  H   UNL A   1      34.212  24.056  27.303  1.00  0.00     0.163 HD
BRANCH   4   7
ATOM      7  C   UNL A   1      32.449  22.262  25.092  1.00  0.00     0.181 C 
ATOM      8  C   UNL A   1      33.571  22.143  24.041  1.00  0.00     0.079 C 
ATOM      9  C   UNL A   1      31.096  22.673  24.486  1.00  0.00     0.144 C 
ATOM     10  C   UNL A   1      33.667  23.357  23.133  1.00  0.00     0.013 C 
ATOM     11  C   UNL A   1      31.138  23.925  23.619  1.00  0.00     0.191 C 
ATOM     12  C   UNL A   1      32.293  23.729  22.577  1.00  0.00     0.065 C 
BRANCH   7  13
ATOM     13  N   UNL A   1      32.166  20.865  25.602  1.00  0.00    -0.333 N 
ATOM     14  H   UNL A   1      31.888  20.951  26.579  1.00  0.00     0.347 HD
ATOM     15  H   UNL A   1      31.457  20.504  24.966  1.00  0.00     0.347 HD
BRANCH  13  16
ATOM     16  C   UNL A   1      33.242  19.879  25.544  1.00  0.00     0.261 C 
BRANCH  16  17
ATOM     17  C   UNL A   1      32.770  18.509  25.039  1.00  0.00     0.058 C 
ATOM     18  C   UNL A   1      32.475  18.501  23.547  1.00  0.00     0.010 C 
ENDBRANCH  16  17
ENDBRANCH  13  16
ENDBRANCH   7  13
BRANCH  11  19
ATOM     19  N   UNL A   1      30.963  25.211  24.330  1.00  0.00    -0.328 N 
ATOM     20  C   UNL A   1      29.385  26.016  23.925  1.00  0.00     0.291 C 
ATOM     21  C   UNL A   1      32.429  26.281  24.767  1.00  0.00     0.294 C 
ATOM     22  H   UNL A   1      30.890  24.907  25.302  1.00  0.00     0.348 HD
ATOM     23  C   UNL A   1      29.347  27.873  23.388  1.00  0.00     0.222 C 
ATOM     24  C   UNL A   1      32.411  28.207  24.290  1.00  0.00     0.173 C 
ATOM     25  O   UNL A   1      30.792  28.914  23.808  1.00  0.00    -0.367 OA
BRANCH  24  26
ATOM     26  C   UNL A   1      33.505  29.046  23.518  1.00  0.00     0.034 C 
ATOM     27  C   UNL A   1      34.153  28.549  22.214  1.00  0.00     0.007 C 
ENDBRANCH  24  26
ENDBRANCH  11  19
ENDBRANCH   4   7
ENDBRANCH   2   3
ENDBRANCH   1   2
BRANCH   1  28
ATOM     28  C   UNL A   1      37.898  21.015  25.062  1.00  0.00     0.023 C 
BRANCH  28  29
ATOM     29  C   UNL A   1      39.102  20.963  26.017  1.00  0.00     0.116 C 
BRANCH  29  30
ATOM     30  N   UNL A   1      39.994  19.833  25.821  1.00  0.00    -0.352 N 
ATOM     31  C   UNL A   1      41.347  19.757  26.029  1.00  0.00     0.251 C 
ATOM     32  H   UNL A   1      39.568  19.008  25.494  1.00  0.00     0.163 HD
ATOM     33  O   UNL A   1      41.988  18.737  25.819  1.00  0.00    -0.269 OA
BRANCH  31  34
ATOM     34  C   UNL A   1      42.002  20.972  26.529  1.00  0.00     0.039 A 
ATOM     35  C   UNL A   1      42.464  21.924  25.622  1.00  0.00     0.014 A 
ATOM     36  C   UNL A   1      41.989  21.214  27.905  1.00  0.00     0.014 A 
ATOM     37  C   UNL A   1      42.831  23.179  26.100  1.00  0.00     0.010 A 
ATOM     38  C   UNL A   1      42.272  22.488  28.365  1.00  0.00     0.010 A 
ATOM     39  C   UNL A   1      42.684  23.483  27.464  1.00  0.00    -0.014 A 
BRANCH  39  40
ATOM     40  C   UNL A   1      42.932  24.846  27.982  1.00  0.00     0.031 A 
ATOM     41  C   UNL A   1      44.318  25.231  28.403  1.00  0.00     0.074 A 
ATOM     42  C   UNL A   1      41.893  25.679  28.176  1.00  0.00     0.049 A 
ATOM     43  N   UNL A   1      44.728  26.319  28.999  1.00  0.00    -0.248 NA
ATOM     44  C   UNL A   1      45.380  24.238  28.164  1.00  0.00     0.031 C 
ATOM     45  C   UNL A   1      40.490  25.375  27.881  1.00  0.00     0.029 A 
ATOM     46  N   UNL A   1      41.855  26.953  28.681  1.00  0.00    -0.354 N 
ATOM     47  C   UNL A   1      46.080  26.124  29.243  1.00  0.00     0.074 A 
ATOM     48  C   UNL A   1      46.413  24.796  28.775  1.00  0.00     0.031 C 
ATOM     49  C   UNL A   1      39.735  26.443  28.181  1.00  0.00     0.029 A 
ATOM     50  C   UNL A   1      40.593  27.493  28.718  1.00  0.00     0.049 A 
ATOM     51  H   UNL A   1      42.656  27.435  28.988  1.00  0.00     0.167 HD
ATOM     52  C   UNL A   1      46.970  26.985  29.787  1.00  0.00     0.037 A 
ATOM     53  C   UNL A   1      40.181  28.704  29.136  1.00  0.00     0.037 A 
ATOM     54  C   UNL A   1      46.640  28.325  30.188  1.00  0.00     0.049 A 
ATOM     55  C   UNL A   1      41.201  29.673  29.662  1.00  0.00     0.074 A 
ATOM     56  C   UNL A   1      47.479  29.317  30.663  1.00  0.00     0.029 A 
ATOM     57  N   UNL A   1      45.362  28.862  30.146  1.00  0.00    -0.354 N 
ATOM     58  N   UNL A   1      42.492  29.505  29.821  1.00  0.00    -0.248 NA
ATOM     59  C   UNL A   1      40.713  30.999  30.063  1.00  0.00     0.031 C 
ATOM     60  C   UNL A   1      46.703  30.452  30.924  1.00  0.00     0.029 A 
ATOM     61  C   UNL A   1      45.386  30.173  30.589  1.00  0.00     0.049 A 
ATOM     62  H   UNL A   1      44.556  28.383  29.845  1.00  0.00     0.167 HD
ATOM     63  C   UNL A   1      42.973  30.706  30.323  1.00  0.00     0.074 A 
ATOM     64  C   UNL A   1      41.837  31.599  30.428  1.00  0.00     0.031 C 
ATOM     65  C   UNL A   1      44.240  31.038  30.671  1.00  0.00     0.037 A 
BRANCH  52  66
ATOM     66  C   UNL A   1      48.378  26.502  29.955  1.00  0.00     0.057 A 
ATOM     67  C   UNL A   1      48.794  25.833  31.114  1.00  0.00     0.134 A 
ATOM     68  C   UNL A   1      49.332  26.713  28.952  1.00  0.00     0.134 A 
ATOM     69  F   UNL A   1      47.932  25.616  32.119  1.00  0.00    -0.206 F 
ATOM     70  C   UNL A   1      50.117  25.421  31.285  1.00  0.00     0.040 A 
ATOM     71  C   UNL A   1      50.652  26.283  29.101  1.00  0.00     0.040 A 
ATOM     72  F   UNL A   1      49.000  27.345  27.817  1.00  0.00    -0.206 F 
ATOM     73  C   UNL A   1      51.049  25.643  30.273  1.00  0.00     0.006 A 
ENDBRANCH  52  66
BRANCH  53  74
ATOM     74  C   UNL A   1      38.751  29.081  29.032  1.00  0.00     0.057 A 
ATOM     75  C   UNL A   1      37.905  28.995  30.145  1.00  0.00     0.134 A 
ATOM     76  C   UNL A   1      38.194  29.539  27.833  1.00  0.00     0.134 A 
ATOM     77  F   UNL A   1      38.378  28.549  31.318  1.00  0.00    -0.206 F 
ATOM     78  C   UNL A   1      36.555  29.337  30.067  1.00  0.00     0.040 A 
ATOM     79  C   UNL A   1      36.849  29.902  27.744  1.00  0.00     0.040 A 
ATOM     80  F   UNL A   1      38.955  29.654  26.734  1.00  0.00    -0.206 F 
ATOM     81  C   UNL A   1      36.024  29.796  28.862  1.00  0.00     0.006 A 
ENDBRANCH  53  74
BRANCH  65  82
ATOM     82  C   UNL A   1      44.462  32.430  31.176  1.00  0.00     0.057 A 
ATOM     83  C   UNL A   1      44.723  33.491  30.302  1.00  0.00     0.134 A 
ATOM     84  C   UNL A   1      44.356  32.718  32.542  1.00  0.00     0.134 A 
ATOM     85  F   UNL A   1      44.848  33.272  28.985  1.00  0.00    -0.206 F 
ATOM     86  C   UNL A   1      44.878  34.795  30.772  1.00  0.00     0.040 A 
ATOM     87  C   UNL A   1      44.492  34.020  33.021  1.00  0.00     0.040 A 
ATOM     88  F   UNL A   1      44.102  31.741  33.427  1.00  0.00    -0.206 F 
ATOM     89  C   UNL A   1      44.754  35.063  32.134  1.00  0.00     0.006 A 
ENDBRANCH  65  82
ENDBRANCH  39  40
ENDBRANCH  31  34
ENDBRANCH  29  30
ENDBRANCH  28  29
ENDBRANCH   1  28
TORSDOF 16
ENDMDL
