MODEL 1
REMARK VINA RESULT:     -12.3      0.000      0.000
REMARK SMILES CC(C)Cc1cc2c(cc1Cl)C=C(C(=O)NCCCCNC(=O)c1ccc(-c3c4nc(c(-c5c(F)cccc5F)c5ccc([nH]5)c(-c5c(F)cccc5F)c5nc(c(-c6c(F)cccc6F)c6ccc3[nH]6)C=C5)C=C4)cc1)[C@@H](C(F)(F)F)O2
REMARK SMILES IDX 18 1 17 2 16 3 14 4 15 5 13 7 5 8 6 9 10 10 7 11 9 12 11 13
REMARK SMILES IDX 8 14 83 15 12 16 78 17 4 18 2 19 1 20 3 21 79 22 80 23 81 24
REMARK SMILES IDX 82 25 19 26 20 27 21 28 22 29 23 31 24 32 25 33 77 34 26 35
REMARK SMILES IDX 76 36 27 37 28 38 29 39 70 40 30 41 75 42 69 43 71 44 31 45
REMARK SMILES IDX 74 46 68 47 67 48 32 50 58 51 41 52 57 53 42 54 45 55 56 56
REMARK SMILES IDX 72 57 43 58 44 59 55 61 73 62 46 63 33 64 34 65 39 66 35 67
REMARK SMILES IDX 36 68 38 69 40 70 37 71 59 72 60 73 65 74 61 75 62 76 64 77
REMARK SMILES IDX 66 78 63 79 47 80 48 81 53 82 49 83 50 84 52 85 54 86 51 87
REMARK H PARENT 16 6 21 30 71 49 45 60
REMARK Flexibility Score: inf
ROOT
ATOM      1  C   UNL A   1      31.947  29.414  27.028  1.00  0.00     0.023 C 
ENDROOT
BRANCH   1   2
ATOM      2  C   UNL A   1      32.143  30.434  25.909  1.00  0.00     0.116 C 
BRANCH   2   3
ATOM      3  N   UNL A   1      31.080  30.383  24.919  1.00  0.00    -0.352 N 
ATOM      4  C   UNL A   1      30.591  29.477  24.037  1.00  0.00     0.251 C 
ATOM      5  O   UNL A   1      29.622  29.859  23.373  1.00  0.00    -0.270 OA
ATOM      6  H   UNL A   1      30.583  31.232  24.879  1.00  0.00     0.163 HD
BRANCH   4   7
ATOM      7  C   UNL A   1      31.141  28.105  23.818  1.00  0.00     0.067 C 
ATOM      8  C   UNL A   1      31.838  23.098  23.926  1.00  0.00    -0.025 A 
ATOM      9  C   UNL A   1      32.292  24.148  23.117  1.00  0.00     0.052 A 
ATOM     10  C   UNL A   1      31.073  23.419  25.058  1.00  0.00     0.045 A 
ATOM     11  C   UNL A   1      31.921  25.464  23.374  1.00  0.00     0.128 A 
ATOM     12  C   UNL A   1      30.742  24.754  25.342  1.00  0.00     0.032 A 
ATOM     13  Cl  UNL A   1      30.479  22.203  26.130  1.00  0.00    -0.084 Cl
ATOM     14  C   UNL A   1      31.142  25.780  24.480  1.00  0.00     0.019 A 
ATOM     15  O   UNL A   1      32.300  26.368  22.432  1.00  0.00    -0.475 OA
ATOM     16  C   UNL A   1      30.694  27.155  24.662  1.00  0.00     0.025 C 
ATOM     17  C   UNL A   1      32.141  27.772  22.748  1.00  0.00     0.314 C 
BRANCH   8  18
ATOM     18  C   UNL A   1      32.132  21.687  23.469  1.00  0.00     0.040 C 
BRANCH  18  19
ATOM     19  C   UNL A   1      33.020  20.896  24.460  1.00  0.00    -0.013 C 
ATOM     20  C   UNL A   1      32.963  19.378  24.251  1.00  0.00     0.008 C 
ATOM     21  C   UNL A   1      34.473  21.358  24.327  1.00  0.00     0.008 C 
ENDBRANCH  18  19
ENDBRANCH   8  18
BRANCH  17  22
ATOM     22  C   UNL A   1      33.538  28.351  23.030  1.00  0.00     0.429 C 
ATOM     23  F   UNL A   1      34.405  27.984  22.052  1.00  0.00    -0.167 F 
ATOM     24  F   UNL A   1      33.550  29.704  23.060  1.00  0.00    -0.167 F 
ATOM     25  F   UNL A   1      34.047  27.924  24.206  1.00  0.00    -0.167 F 
ENDBRANCH  17  22
ENDBRANCH   4   7
ENDBRANCH   2   3
ENDBRANCH   1   2
BRANCH   1  26
ATOM     26  C   UNL A   1      33.192  28.585  27.351  1.00  0.00     0.023 C 
BRANCH  26  27
ATOM     27  C   UNL A   1      34.514  29.351  27.322  1.00  0.00     0.116 C 
BRANCH  27  28
ATOM     28  N   UNL A   1      34.666  30.342  28.379  1.00  0.00    -0.352 N 
ATOM     29  C   UNL A   1      35.787  30.587  29.144  1.00  0.00     0.251 C 
ATOM     30  H   UNL A   1      33.878  30.901  28.568  1.00  0.00     0.163 HD
ATOM     31  O   UNL A   1      35.762  31.403  30.059  1.00  0.00    -0.269 OA
BRANCH  29  32
ATOM     32  C   UNL A   1      37.005  29.795  28.878  1.00  0.00     0.039 A 
ATOM     33  C   UNL A   1      37.603  29.071  29.908  1.00  0.00     0.014 A 
ATOM     34  C   UNL A   1      37.613  29.880  27.623  1.00  0.00     0.014 A 
ATOM     35  C   UNL A   1      38.900  28.604  29.746  1.00  0.00     0.010 A 
ATOM     36  C   UNL A   1      38.883  29.328  27.435  1.00  0.00     0.010 A 
ATOM     37  C   UNL A   1      39.565  28.748  28.516  1.00  0.00    -0.014 A 
BRANCH  37  38
ATOM     38  C   UNL A   1      40.985  28.319  28.416  1.00  0.00     0.031 A 
ATOM     39  C   UNL A   1      41.341  26.903  28.045  1.00  0.00     0.074 A 
ATOM     40  C   UNL A   1      41.957  29.240  28.564  1.00  0.00     0.049 A 
ATOM     41  N   UNL A   1      42.522  26.381  27.823  1.00  0.00    -0.248 NA
ATOM     42  C   UNL A   1      40.232  25.946  27.909  1.00  0.00     0.031 C 
ATOM     43  C   UNL A   1      41.740  30.643  28.921  1.00  0.00     0.029 A 
ATOM     44  N   UNL A   1      43.313  29.144  28.391  1.00  0.00    -0.354 N 
ATOM     45  C   UNL A   1      42.301  25.037  27.544  1.00  0.00     0.074 A 
ATOM     46  C   UNL A   1      40.875  24.816  27.652  1.00  0.00     0.031 C 
ATOM     47  C   UNL A   1      42.912  31.293  28.869  1.00  0.00     0.029 A 
ATOM     48  C   UNL A   1      43.967  30.345  28.531  1.00  0.00     0.049 A 
ATOM     49  H   UNL A   1      43.774  28.299  28.187  1.00  0.00     0.167 HD
ATOM     50  C   UNL A   1      43.200  24.077  27.216  1.00  0.00     0.037 A 
ATOM     51  C   UNL A   1      45.270  30.649  28.398  1.00  0.00     0.037 A 
ATOM     52  C   UNL A   1      44.616  24.299  27.083  1.00  0.00     0.049 A 
ATOM     53  C   UNL A   1      46.243  29.564  28.042  1.00  0.00     0.074 A 
ATOM     54  C   UNL A   1      45.606  23.393  26.740  1.00  0.00     0.029 A 
ATOM     55  N   UNL A   1      45.245  25.518  27.285  1.00  0.00    -0.354 N 
ATOM     56  N   UNL A   1      46.015  28.302  27.776  1.00  0.00    -0.248 NA
ATOM     57  C   UNL A   1      47.660  29.949  27.978  1.00  0.00     0.031 C 
ATOM     58  C   UNL A   1      46.837  24.058  26.762  1.00  0.00     0.029 A 
ATOM     59  C   UNL A   1      46.610  25.386  27.085  1.00  0.00     0.049 A 
ATOM     60  H   UNL A   1      44.790  26.355  27.533  1.00  0.00     0.167 HD
ATOM     61  C   UNL A   1      47.256  27.743  27.504  1.00  0.00     0.074 A 
ATOM     62  C   UNL A   1      48.229  28.811  27.610  1.00  0.00     0.031 C 
ATOM     63  C   UNL A   1      47.565  26.458  27.203  1.00  0.00     0.037 A 
BRANCH  50  64
ATOM     64  C   UNL A   1      42.674  22.689  26.993  1.00  0.00     0.057 A 
ATOM     65  C   UNL A   1      42.550  22.171  25.697  1.00  0.00     0.134 A 
ATOM     66  C   UNL A   1      42.265  21.873  28.055  1.00  0.00     0.134 A 
ATOM     67  F   UNL A   1      42.917  22.903  24.634  1.00  0.00    -0.206 F 
ATOM     68  C   UNL A   1      42.039  20.893  25.467  1.00  0.00     0.040 A 
ATOM     69  C   UNL A   1      41.774  20.583  27.840  1.00  0.00     0.040 A 
ATOM     70  F   UNL A   1      42.373  22.302  29.322  1.00  0.00    -0.206 F 
ATOM     71  C   UNL A   1      41.656  20.091  26.541  1.00  0.00     0.006 A 
ENDBRANCH  50  64
BRANCH  51  72
ATOM     72  C   UNL A   1      45.728  32.044  28.598  1.00  0.00     0.057 A 
ATOM     73  C   UNL A   1      45.751  32.962  27.542  1.00  0.00     0.134 A 
ATOM     74  C   UNL A   1      46.148  32.492  29.856  1.00  0.00     0.134 A 
ATOM     75  F   UNL A   1      45.363  32.589  26.313  1.00  0.00    -0.206 F 
ATOM     76  C   UNL A   1      46.184  34.275  27.725  1.00  0.00     0.040 A 
ATOM     77  C   UNL A   1      46.561  33.809  30.059  1.00  0.00     0.040 A 
ATOM     78  F   UNL A   1      46.132  31.662  30.909  1.00  0.00    -0.206 F 
ATOM     79  C   UNL A   1      46.585  34.704  28.990  1.00  0.00     0.006 A 
ENDBRANCH  51  72
BRANCH  63  80
ATOM     80  C   UNL A   1      49.012  26.155  26.957  1.00  0.00     0.057 A 
ATOM     81  C   UNL A   1      49.547  26.215  25.666  1.00  0.00     0.134 A 
ATOM     82  C   UNL A   1      49.879  25.815  28.005  1.00  0.00     0.134 A 
ATOM     83  F   UNL A   1      48.768  26.529  24.619  1.00  0.00    -0.206 F 
ATOM     84  C   UNL A   1      50.896  25.956  25.423  1.00  0.00     0.040 A 
ATOM     85  C   UNL A   1      51.235  25.576  27.778  1.00  0.00     0.040 A 
ATOM     86  F   UNL A   1      49.430  25.759  29.267  1.00  0.00    -0.206 F 
ATOM     87  C   UNL A   1      51.747  25.644  26.483  1.00  0.00     0.006 A 
ENDBRANCH  63  80
ENDBRANCH  37  38
ENDBRANCH  29  32
ENDBRANCH  27  28
ENDBRANCH  26  27
ENDBRANCH   1  26
TORSDOF 14
ENDMDL
MODEL 2
REMARK VINA RESULT:     -12.1      3.367      8.124
REMARK SMILES CC(C)Cc1cc2c(cc1Cl)C=C(C(=O)NCCCCNC(=O)c1ccc(-c3c4nc(c(-c5c(F)cccc5F)c5ccc([nH]5)c(-c5c(F)cccc5F)c5nc(c(-c6c(F)cccc6F)c6ccc3[nH]6)C=C5)C=C4)cc1)[C@@H](C(F)(F)F)O2
REMARK SMILES IDX 18 1 17 2 16 3 14 4 15 5 13 7 5 8 6 9 10 10 7 11 9 12 11 13
REMARK SMILES IDX 8 14 83 15 12 16 78 17 4 18 2 19 1 20 3 21 79 22 80 23 81 24
REMARK SMILES IDX 82 25 19 26 20 27 21 28 22 29 23 31 24 32 25 33 77 34 26 35
REMARK SMILES IDX 76 36 27 37 28 38 29 39 70 40 30 41 75 42 69 43 71 44 31 45
REMARK SMILES IDX 74 46 68 47 67 48 32 50 58 51 41 52 57 53 42 54 45 55 56 56
REMARK SMILES IDX 72 57 43 58 44 59 55 61 73 62 46 63 33 64 34 65 39 66 35 67
REMARK SMILES IDX 36 68 38 69 40 70 37 71 59 72 60 73 65 74 61 75 62 76 64 77
REMARK SMILES IDX 66 78 63 79 47 80 48 81 53 82 49 83 50 84 52 85 54 86 51 87
REMARK H PARENT 16 6 21 30 71 49 45 60
REMARK Flexibility Score: inf
ROOT
ATOM      1  C   UNL A   1      36.184  20.784  25.335  1.00  0.00     0.023 C 
ENDROOT
BRANCH   1   2
ATOM      2  C   UNL A   1      35.723  19.549  24.564  1.00  0.00     0.116 C 
BRANCH   2   3
ATOM      3  N   UNL A   1      34.411  19.088  24.987  1.00  0.00    -0.352 N 
ATOM      4  C   UNL A   1      33.180  19.627  25.162  1.00  0.00     0.251 C 
ATOM      5  O   UNL A   1      32.306  18.838  25.533  1.00  0.00    -0.270 OA
ATOM      6  H   UNL A   1      34.419  18.128  25.205  1.00  0.00     0.163 HD
BRANCH   4   7
ATOM      7  C   UNL A   1      32.835  21.067  24.957  1.00  0.00     0.067 C 
ATOM      8  C   UNL A   1      31.773  25.533  22.838  1.00  0.00    -0.025 A 
ATOM      9  C   UNL A   1      31.589  24.966  24.105  1.00  0.00     0.052 A 
ATOM     10  C   UNL A   1      32.496  24.800  21.884  1.00  0.00     0.045 A 
ATOM     11  C   UNL A   1      32.029  23.676  24.384  1.00  0.00     0.128 A 
ATOM     12  C   UNL A   1      32.980  23.518  22.185  1.00  0.00     0.032 A 
ATOM     13  Cl  UNL A   1      32.794  25.415  20.297  1.00  0.00    -0.084 Cl
ATOM     14  C   UNL A   1      32.721  22.939  23.431  1.00  0.00     0.019 A 
ATOM     15  O   UNL A   1      31.657  23.185  25.596  1.00  0.00    -0.475 OA
ATOM     16  C   UNL A   1      33.081  21.558  23.728  1.00  0.00     0.025 C 
ATOM     17  C   UNL A   1      32.265  21.947  26.034  1.00  0.00     0.314 C 
BRANCH   8  18
ATOM     18  C   UNL A   1      31.103  26.861  22.563  1.00  0.00     0.040 C 
BRANCH  18  19
ATOM     19  C   UNL A   1      30.323  27.415  23.780  1.00  0.00    -0.013 C 
ATOM     20  C   UNL A   1      30.744  28.836  24.176  1.00  0.00     0.008 C 
ATOM     21  C   UNL A   1      28.824  27.412  23.473  1.00  0.00     0.008 C 
ENDBRANCH  18  19
ENDBRANCH   8  18
BRANCH  17  22
ATOM     22  C   UNL A   1      33.285  22.286  27.134  1.00  0.00     0.429 C 
ATOM     23  F   UNL A   1      33.875  21.153  27.594  1.00  0.00    -0.167 F 
ATOM     24  F   UNL A   1      34.285  23.085  26.697  1.00  0.00    -0.167 F 
ATOM     25  F   UNL A   1      32.716  22.905  28.193  1.00  0.00    -0.167 F 
ENDBRANCH  17  22
ENDBRANCH   4   7
ENDBRANCH   2   3
ENDBRANCH   1   2
BRANCH   1  26
ATOM     26  C   UNL A   1      37.510  21.372  24.848  1.00  0.00     0.023 C 
BRANCH  26  27
ATOM     27  C   UNL A   1      38.678  21.249  25.824  1.00  0.00     0.116 C 
BRANCH  27  28
ATOM     28  N   UNL A   1      39.503  20.062  25.640  1.00  0.00    -0.352 N 
ATOM     29  C   UNL A   1      40.840  19.915  25.944  1.00  0.00     0.251 C 
ATOM     30  H   UNL A   1      39.054  19.276  25.254  1.00  0.00     0.163 HD
ATOM     31  O   UNL A   1      41.441  18.882  25.669  1.00  0.00    -0.269 OA
BRANCH  29  32
ATOM     32  C   UNL A   1      41.552  21.057  26.553  1.00  0.00     0.039 A 
ATOM     33  C   UNL A   1      41.597  21.188  27.940  1.00  0.00     0.014 A 
ATOM     34  C   UNL A   1      42.067  22.058  25.727  1.00  0.00     0.014 A 
ATOM     35  C   UNL A   1      41.971  22.405  28.495  1.00  0.00     0.010 A 
ATOM     36  C   UNL A   1      42.528  23.249  26.295  1.00  0.00     0.010 A 
ATOM     37  C   UNL A   1      42.418  23.458  27.678  1.00  0.00    -0.014 A 
BRANCH  37  38
ATOM     38  C   UNL A   1      42.716  24.772  28.306  1.00  0.00     0.031 A 
ATOM     39  C   UNL A   1      44.135  25.179  28.612  1.00  0.00     0.074 A 
ATOM     40  C   UNL A   1      41.709  25.643  28.509  1.00  0.00     0.049 A 
ATOM     41  N   UNL A   1      44.584  26.320  29.072  1.00  0.00    -0.248 NA
ATOM     42  C   UNL A   1      45.185  24.175  28.378  1.00  0.00     0.031 C 
ATOM     43  C   UNL A   1      40.294  25.369  28.250  1.00  0.00     0.029 A 
ATOM     44  N   UNL A   1      41.725  26.945  28.935  1.00  0.00    -0.354 N 
ATOM     45  C   UNL A   1      45.960  26.166  29.201  1.00  0.00     0.074 A 
ATOM     46  C   UNL A   1      46.269  24.812  28.799  1.00  0.00     0.031 C 
ATOM     47  C   UNL A   1      39.588  26.490  28.453  1.00  0.00     0.029 A 
ATOM     48  C   UNL A   1      40.488  27.543  28.908  1.00  0.00     0.049 A 
ATOM     49  H   UNL A   1      42.542  27.407  29.231  1.00  0.00     0.167 HD
ATOM     50  C   UNL A   1      46.883  27.072  29.606  1.00  0.00     0.037 A 
ATOM     51  C   UNL A   1      40.121  28.800  29.213  1.00  0.00     0.037 A 
ATOM     52  C   UNL A   1      46.581  28.429  29.984  1.00  0.00     0.049 A 
ATOM     53  C   UNL A   1      41.163  29.780  29.666  1.00  0.00     0.074 A 
ATOM     54  C   UNL A   1      47.450  29.427  30.393  1.00  0.00     0.029 A 
ATOM     55  N   UNL A   1      45.309  28.980  29.994  1.00  0.00    -0.354 N 
ATOM     56  N   UNL A   1      42.458  29.618  29.776  1.00  0.00    -0.248 NA
ATOM     57  C   UNL A   1      40.686  31.116  30.047  1.00  0.00     0.031 C 
ATOM     58  C   UNL A   1      46.700  30.573  30.679  1.00  0.00     0.029 A 
ATOM     59  C   UNL A   1      45.368  30.299  30.414  1.00  0.00     0.049 A 
ATOM     60  H   UNL A   1      44.485  28.504  29.739  1.00  0.00     0.167 HD
ATOM     61  C   UNL A   1      42.953  30.833  30.229  1.00  0.00     0.074 A 
ATOM     62  C   UNL A   1      41.821  31.729  30.346  1.00  0.00     0.031 C 
ATOM     63  C   UNL A   1      44.230  31.174  30.532  1.00  0.00     0.037 A 
BRANCH  50  64
ATOM     64  C   UNL A   1      48.311  26.616  29.677  1.00  0.00     0.057 A 
ATOM     65  C   UNL A   1      48.806  25.992  30.830  1.00  0.00     0.134 A 
ATOM     66  C   UNL A   1      49.205  26.816  28.618  1.00  0.00     0.134 A 
ATOM     67  F   UNL A   1      48.004  25.776  31.884  1.00  0.00    -0.206 F 
ATOM     68  C   UNL A   1      50.137  25.583  30.925  1.00  0.00     0.040 A 
ATOM     69  C   UNL A   1      50.534  26.391  28.692  1.00  0.00     0.040 A 
ATOM     70  F   UNL A   1      48.792  27.392  27.479  1.00  0.00    -0.206 F 
ATOM     71  C   UNL A   1      51.004  25.776  29.851  1.00  0.00     0.006 A 
ENDBRANCH  50  64
BRANCH  51  72
ATOM     72  C   UNL A   1      38.699  29.205  29.093  1.00  0.00     0.057 A 
ATOM     73  C   UNL A   1      38.159  29.612  27.868  1.00  0.00     0.134 A 
ATOM     74  C   UNL A   1      37.848  29.186  30.204  1.00  0.00     0.134 A 
ATOM     75  F   UNL A   1      38.927  29.654  26.770  1.00  0.00    -0.206 F 
ATOM     76  C   UNL A   1      36.823  29.998  27.752  1.00  0.00     0.040 A 
ATOM     77  C   UNL A   1      36.504  29.545  30.097  1.00  0.00     0.040 A 
ATOM     78  F   UNL A   1      38.306  28.787  31.400  1.00  0.00    -0.206 F 
ATOM     79  C   UNL A   1      35.990  29.957  28.869  1.00  0.00     0.006 A 
ENDBRANCH  51  72
BRANCH  63  80
ATOM     80  C   UNL A   1      44.455  32.579  31.003  1.00  0.00     0.057 A 
ATOM     81  C   UNL A   1      44.421  32.890  32.367  1.00  0.00     0.134 A 
ATOM     82  C   UNL A   1      44.717  33.622  30.105  1.00  0.00     0.134 A 
ATOM     83  F   UNL A   1      44.171  31.937  33.278  1.00  0.00    -0.206 F 
ATOM     84  C   UNL A   1      44.649  34.189  32.823  1.00  0.00     0.040 A 
ATOM     85  C   UNL A   1      44.968  34.920  30.550  1.00  0.00     0.040 A 
ATOM     86  F   UNL A   1      44.779  33.383  28.787  1.00  0.00    -0.206 F 
ATOM     87  C   UNL A   1      44.932  35.207  31.914  1.00  0.00     0.006 A 
ENDBRANCH  63  80
ENDBRANCH  37  38
ENDBRANCH  29  32
ENDBRANCH  27  28
ENDBRANCH  26  27
ENDBRANCH   1  26
TORSDOF 14
ENDMDL
MODEL 3
REMARK VINA RESULT:     -12.0      3.615      8.568
REMARK SMILES CC(C)Cc1cc2c(cc1Cl)C=C(C(=O)NCCCCNC(=O)c1ccc(-c3c4nc(c(-c5c(F)cccc5F)c5ccc([nH]5)c(-c5c(F)cccc5F)c5nc(c(-c6c(F)cccc6F)c6ccc3[nH]6)C=C5)C=C4)cc1)[C@@H](C(F)(F)F)O2
REMARK SMILES IDX 18 1 17 2 16 3 14 4 15 5 13 7 5 8 6 9 10 10 7 11 9 12 11 13
REMARK SMILES IDX 8 14 83 15 12 16 78 17 4 18 2 19 1 20 3 21 79 22 80 23 81 24
REMARK SMILES IDX 82 25 19 26 20 27 21 28 22 29 23 31 24 32 25 33 77 34 26 35
REMARK SMILES IDX 76 36 27 37 28 38 29 39 70 40 30 41 75 42 69 43 71 44 31 45
REMARK SMILES IDX 74 46 68 47 67 48 32 50 58 51 41 52 57 53 42 54 45 55 56 56
REMARK SMILES IDX 72 57 43 58 44 59 55 61 73 62 46 63 33 64 34 65 39 66 35 67
REMARK SMILES IDX 36 68 38 69 40 70 37 71 59 72 60 73 65 74 61 75 62 76 64 77
REMARK SMILES IDX 66 78 63 79 47 80 48 81 53 82 49 83 50 84 52 85 54 86 51 87
REMARK H PARENT 16 6 21 30 71 49 45 60
REMARK Flexibility Score: inf
ROOT
ATOM      1  C   UNL A   1      35.538  21.237  25.420  1.00  0.00     0.023 C 
ENDROOT
BRANCH   1   2
ATOM      2  C   UNL A   1      34.031  21.022  25.549  1.00  0.00     0.116 C 
BRANCH   2   3
ATOM      3  N   UNL A   1      33.315  21.374  24.335  1.00  0.00    -0.352 N 
ATOM      4  C   UNL A   1      32.567  22.414  23.891  1.00  0.00     0.251 C 
ATOM      5  O   UNL A   1      32.147  22.306  22.735  1.00  0.00    -0.270 OA
ATOM      6  H   UNL A   1      33.394  20.669  23.652  1.00  0.00     0.163 HD
BRANCH   4   7
ATOM      7  C   UNL A   1      32.222  23.628  24.692  1.00  0.00     0.067 C 
ATOM      8  C   UNL A   1      32.319  28.226  26.794  1.00  0.00    -0.025 A 
ATOM      9  C   UNL A   1      31.338  27.247  26.590  1.00  0.00     0.052 A 
ATOM     10  C   UNL A   1      33.644  27.916  26.450  1.00  0.00     0.045 A 
ATOM     11  C   UNL A   1      31.649  26.037  25.978  1.00  0.00     0.128 A 
ATOM     12  C   UNL A   1      33.962  26.674  25.877  1.00  0.00     0.032 A 
ATOM     13  Cl  UNL A   1      34.932  29.044  26.677  1.00  0.00    -0.084 Cl
ATOM     14  C   UNL A   1      32.956  25.740  25.612  1.00  0.00     0.019 A 
ATOM     15  O   UNL A   1      30.585  25.237  25.700  1.00  0.00    -0.475 OA
ATOM     16  C   UNL A   1      33.226  24.504  24.887  1.00  0.00     0.025 C 
ATOM     17  C   UNL A   1      30.859  23.882  25.271  1.00  0.00     0.314 C 
BRANCH   8  18
ATOM     18  C   UNL A   1      31.862  29.578  27.292  1.00  0.00     0.040 C 
BRANCH  18  19
ATOM     19  C   UNL A   1      31.895  30.675  26.200  1.00  0.00    -0.013 C 
ATOM     20  C   UNL A   1      31.063  30.324  24.960  1.00  0.00     0.008 C 
ATOM     21  C   UNL A   1      31.382  31.994  26.782  1.00  0.00     0.008 C 
ENDBRANCH  18  19
ENDBRANCH   8  18
BRANCH  17  22
ATOM     22  C   UNL A   1      30.519  22.941  26.440  1.00  0.00     0.429 C 
ATOM     23  F   UNL A   1      31.577  22.842  27.286  1.00  0.00    -0.167 F 
ATOM     24  F   UNL A   1      29.478  23.381  27.183  1.00  0.00    -0.167 F 
ATOM     25  F   UNL A   1      30.212  21.692  26.026  1.00  0.00    -0.167 F 
ENDBRANCH  17  22
ENDBRANCH   4   7
ENDBRANCH   2   3
ENDBRANCH   1   2
BRANCH   1  26
ATOM     26  C   UNL A   1      36.026  22.594  25.930  1.00  0.00     0.023 C 
BRANCH  26  27
ATOM     27  C   UNL A   1      37.325  23.100  25.304  1.00  0.00     0.116 C 
BRANCH  27  28
ATOM     28  N   UNL A   1      38.505  22.308  25.626  1.00  0.00    -0.352 N 
ATOM     29  C   UNL A   1      39.637  22.724  26.295  1.00  0.00     0.251 C 
ATOM     30  H   UNL A   1      38.493  21.369  25.332  1.00  0.00     0.163 HD
ATOM     31  O   UNL A   1      40.598  21.976  26.437  1.00  0.00    -0.269 OA
BRANCH  29  32
ATOM     32  C   UNL A   1      39.692  24.117  26.784  1.00  0.00     0.039 A 
ATOM     33  C   UNL A   1      40.199  25.122  25.962  1.00  0.00     0.014 A 
ATOM     34  C   UNL A   1      39.346  24.388  28.110  1.00  0.00     0.014 A 
ATOM     35  C   UNL A   1      40.550  26.343  26.522  1.00  0.00     0.010 A 
ATOM     36  C   UNL A   1      39.617  25.650  28.646  1.00  0.00     0.010 A 
ATOM     37  C   UNL A   1      40.286  26.614  27.876  1.00  0.00    -0.014 A 
BRANCH  37  38
ATOM     38  C   UNL A   1      40.765  27.896  28.456  1.00  0.00     0.031 A 
ATOM     39  C   UNL A   1      42.228  28.258  28.430  1.00  0.00     0.074 A 
ATOM     40  C   UNL A   1      39.861  28.782  28.918  1.00  0.00     0.049 A 
ATOM     41  N   UNL A   1      42.808  29.371  28.806  1.00  0.00    -0.248 NA
ATOM     42  C   UNL A   1      43.161  27.241  27.923  1.00  0.00     0.031 C 
ATOM     43  C   UNL A   1      38.418  28.550  28.992  1.00  0.00     0.029 A 
ATOM     44  N   UNL A   1      40.018  30.066  29.369  1.00  0.00    -0.354 N 
ATOM     45  C   UNL A   1      44.170  29.181  28.601  1.00  0.00     0.074 A 
ATOM     46  C   UNL A   1      44.333  27.836  28.095  1.00  0.00     0.031 C 
ATOM     47  C   UNL A   1      37.814  29.679  29.392  1.00  0.00     0.029 A 
ATOM     48  C   UNL A   1      38.829  30.693  29.654  1.00  0.00     0.049 A 
ATOM     49  H   UNL A   1      40.895  30.498  29.478  1.00  0.00     0.167 HD
ATOM     50  C   UNL A   1      45.190  30.050  28.805  1.00  0.00     0.037 A 
ATOM     51  C   UNL A   1      38.582  31.946  30.076  1.00  0.00     0.037 A 
ATOM     52  C   UNL A   1      45.028  31.398  29.285  1.00  0.00     0.049 A 
ATOM     53  C   UNL A   1      39.732  32.883  30.300  1.00  0.00     0.074 A 
ATOM     54  C   UNL A   1      45.999  32.359  29.509  1.00  0.00     0.029 A 
ATOM     55  N   UNL A   1      43.812  31.977  29.613  1.00  0.00    -0.354 N 
ATOM     56  N   UNL A   1      41.011  32.688  30.095  1.00  0.00    -0.248 NA
ATOM     57  C   UNL A   1      39.400  34.215  30.824  1.00  0.00     0.031 C 
ATOM     58  C   UNL A   1      45.373  33.511  29.999  1.00  0.00     0.029 A 
ATOM     59  C   UNL A   1      44.009  33.278  30.048  1.00  0.00     0.049 A 
ATOM     60  H   UNL A   1      42.937  31.530  29.546  1.00  0.00     0.167 HD
ATOM     61  C   UNL A   1      41.637  33.873  30.457  1.00  0.00     0.074 A 
ATOM     62  C   UNL A   1      40.593  34.790  30.865  1.00  0.00     0.031 C 
ATOM     63  C   UNL A   1      42.959  34.173  30.459  1.00  0.00     0.037 A 
BRANCH  50  64
ATOM     64  C   UNL A   1      46.580  29.558  28.522  1.00  0.00     0.057 A 
ATOM     65  C   UNL A   1      47.351  28.973  29.534  1.00  0.00     0.134 A 
ATOM     66  C   UNL A   1      47.167  29.686  27.256  1.00  0.00     0.134 A 
ATOM     67  F   UNL A   1      46.852  28.826  30.771  1.00  0.00    -0.206 F 
ATOM     68  C   UNL A   1      48.655  28.534  29.298  1.00  0.00     0.040 A 
ATOM     69  C   UNL A   1      48.461  29.229  27.001  1.00  0.00     0.040 A 
ATOM     70  F   UNL A   1      46.476  30.222  26.239  1.00  0.00    -0.206 F 
ATOM     71  C   UNL A   1      49.211  28.654  28.026  1.00  0.00     0.006 A 
ENDBRANCH  50  64
BRANCH  51  72
ATOM     72  C   UNL A   1      37.186  32.387  30.308  1.00  0.00     0.057 A 
ATOM     73  C   UNL A   1      36.538  32.144  31.525  1.00  0.00     0.134 A 
ATOM     74  C   UNL A   1      36.471  33.068  29.317  1.00  0.00     0.134 A 
ATOM     75  F   UNL A   1      37.172  31.491  32.510  1.00  0.00    -0.206 F 
ATOM     76  C   UNL A   1      35.223  32.553  31.746  1.00  0.00     0.040 A 
ATOM     77  C   UNL A   1      35.164  33.505  29.533  1.00  0.00     0.040 A 
ATOM     78  F   UNL A   1      37.046  33.344  28.138  1.00  0.00    -0.206 F 
ATOM     79  C   UNL A   1      34.535  33.243  30.749  1.00  0.00     0.006 A 
ENDBRANCH  51  72
BRANCH  63  80
ATOM     80  C   UNL A   1      43.332  35.554  30.908  1.00  0.00     0.057 A 
ATOM     81  C   UNL A   1      43.517  35.840  32.265  1.00  0.00     0.134 A 
ATOM     82  C   UNL A   1      43.520  36.598  29.992  1.00  0.00     0.134 A 
ATOM     83  F   UNL A   1      43.347  34.885  33.192  1.00  0.00    -0.206 F 
ATOM     84  C   UNL A   1      43.884  37.115  32.697  1.00  0.00     0.040 A 
ATOM     85  C   UNL A   1      43.909  37.871  30.409  1.00  0.00     0.040 A 
ATOM     86  F   UNL A   1      43.374  36.382  28.676  1.00  0.00    -0.206 F 
ATOM     87  C   UNL A   1      44.091  38.132  31.767  1.00  0.00     0.006 A 
ENDBRANCH  63  80
ENDBRANCH  37  38
ENDBRANCH  29  32
ENDBRANCH  27  28
ENDBRANCH  26  27
ENDBRANCH   1  26
TORSDOF 14
ENDMDL
