MODEL 1
REMARK VINA RESULT:     -12.4      0.000      0.000
REMARK SMILES Cc1cc(Br)cc2c1O[C@H](C(F)(F)F)C(C(=O)NCCCCNC(=O)c1ccc(-c3c4nc(c(-c5c(F)cccc5F)c5ccc([nH]5)c(-c5c(F)cccc5F)c5nc(c(-c6c(F)cccc6F)c6ccc3[nH]6)C=C5)C=C4)cc1)=C2
REMARK SMILES IDX 21 1 20 2 19 3 18 4 16 5 17 6 15 8 1 9 2 10 3 11 8 12 4 13
REMARK SMILES IDX 7 14 9 15 5 16 6 17 80 18 10 19 11 20 12 21 13 22 14 23
REMARK SMILES IDX 22 24 23 25 24 26 25 28 26 29 27 30 79 31 28 32 78 33 29 34
REMARK SMILES IDX 30 35 31 36 72 37 32 38 77 39 71 40 73 41 33 42 76 43 70 44
REMARK SMILES IDX 69 45 34 47 60 48 43 49 59 50 44 51 47 52 58 53 74 54 45 55
REMARK SMILES IDX 46 56 57 58 75 59 48 60 35 61 36 62 41 63 37 64 38 65 40 66
REMARK SMILES IDX 42 67 39 68 61 69 62 70 67 71 63 72 64 73 66 74 68 75 65 76
REMARK SMILES IDX 49 77 50 78 55 79 51 80 52 81 54 82 56 83 53 84
REMARK H PARENT 18 7 23 27 73 46 47 57
REMARK Flexibility Score: inf
ROOT
ATOM      1  C   UNL A   1      38.040  20.058  25.001  1.00  0.00     0.023 C 
ENDROOT
BRANCH   1   2
ATOM      2  C   UNL A   1      37.346  21.348  24.559  1.00  0.00     0.023 C 
BRANCH   2   3
ATOM      3  C   UNL A   1      37.431  22.482  25.577  1.00  0.00     0.116 C 
BRANCH   3   4
ATOM      4  N   UNL A   1      36.290  22.489  26.474  1.00  0.00    -0.352 N 
ATOM      5  C   UNL A   1      35.023  22.965  26.455  1.00  0.00     0.251 C 
ATOM      6  O   UNL A   1      34.368  22.747  27.480  1.00  0.00    -0.270 OA
ATOM      7  H   UNL A   1      36.491  22.026  27.320  1.00  0.00     0.163 HD
BRANCH   5   8
ATOM      8  C   UNL A   1      34.394  23.702  25.320  1.00  0.00     0.067 C 
ATOM      9  C   UNL A   1      32.855  25.575  20.762  1.00  0.00     0.048 C 
ATOM     10  C   UNL A   1      32.740  25.997  22.199  1.00  0.00    -0.007 A 
ATOM     11  C   UNL A   1      32.052  27.175  22.518  1.00  0.00     0.023 A 
ATOM     12  C   UNL A   1      33.342  25.269  23.236  1.00  0.00     0.130 A 
ATOM     13  C   UNL A   1      31.960  27.600  23.843  1.00  0.00     0.019 A 
ATOM     14  C   UNL A   1      33.252  25.695  24.567  1.00  0.00     0.019 A 
ATOM     15  O   UNL A   1      34.062  24.157  22.894  1.00  0.00    -0.475 OA
ATOM     16  Br  UNL A   1      31.028  29.195  24.251  1.00  0.00    -0.051 Br
ATOM     17  C   UNL A   1      32.556  26.868  24.870  1.00  0.00     0.027 A 
ATOM     18  C   UNL A   1      33.917  24.927  25.613  1.00  0.00     0.025 C 
ATOM     19  C   UNL A   1      34.232  23.154  23.931  1.00  0.00     0.314 C 
BRANCH  19  20
ATOM     20  C   UNL A   1      33.099  22.115  23.828  1.00  0.00     0.429 C 
ATOM     21  F   UNL A   1      33.536  20.898  24.240  1.00  0.00    -0.167 F 
ATOM     22  F   UNL A   1      32.040  22.424  24.614  1.00  0.00    -0.167 F 
ATOM     23  F   UNL A   1      32.628  21.973  22.570  1.00  0.00    -0.167 F 
ENDBRANCH  19  20
ENDBRANCH   5   8
ENDBRANCH   3   4
ENDBRANCH   2   3
ENDBRANCH   1   2
BRANCH   1  24
ATOM     24  C   UNL A   1      39.256  20.247  25.906  1.00  0.00     0.116 C 
BRANCH  24  25
ATOM     25  N   UNL A   1      40.213  19.150  25.846  1.00  0.00    -0.352 N 
ATOM     26  C   UNL A   1      41.572  19.203  26.049  1.00  0.00     0.251 C 
ATOM     27  H   UNL A   1      39.840  18.263  25.637  1.00  0.00     0.163 HD
ATOM     28  O   UNL A   1      42.272  18.208  25.899  1.00  0.00    -0.269 OA
BRANCH  26  29
ATOM     29  C   UNL A   1      42.180  20.498  26.403  1.00  0.00     0.039 A 
ATOM     30  C   UNL A   1      42.569  21.358  25.376  1.00  0.00     0.014 A 
ATOM     31  C   UNL A   1      42.278  20.885  27.741  1.00  0.00     0.014 A 
ATOM     32  C   UNL A   1      42.990  22.650  25.690  1.00  0.00     0.010 A 
ATOM     33  C   UNL A   1      42.641  22.192  28.049  1.00  0.00     0.010 A 
ATOM     34  C   UNL A   1      42.990  23.086  27.025  1.00  0.00    -0.014 A 
BRANCH  34  35
ATOM     35  C   UNL A   1      43.348  24.481  27.370  1.00  0.00     0.031 A 
ATOM     36  C   UNL A   1      44.780  24.922  27.313  1.00  0.00     0.074 A 
ATOM     37  C   UNL A   1      42.389  25.330  27.784  1.00  0.00     0.049 A 
ATOM     38  N   UNL A   1      45.299  26.082  27.626  1.00  0.00    -0.248 NA
ATOM     39  C   UNL A   1      45.763  23.921  26.868  1.00  0.00     0.031 C 
ATOM     40  C   UNL A   1      40.967  25.003  27.919  1.00  0.00     0.029 A 
ATOM     41  N   UNL A   1      42.465  26.644  28.171  1.00  0.00    -0.354 N 
ATOM     42  C   UNL A   1      46.664  25.947  27.424  1.00  0.00     0.074 A 
ATOM     43  C   UNL A   1      46.903  24.580  27.012  1.00  0.00     0.031 C 
ATOM     44  C   UNL A   1      40.302  26.097  28.325  1.00  0.00     0.029 A 
ATOM     45  C   UNL A   1      41.251  27.190  28.508  1.00  0.00     0.049 A 
ATOM     46  H   UNL A   1      43.311  27.147  28.203  1.00  0.00     0.167 HD
ATOM     47  C   UNL A   1      47.631  26.887  27.544  1.00  0.00     0.037 A 
ATOM     48  C   UNL A   1      40.941  28.435  28.913  1.00  0.00     0.037 A 
ATOM     49  C   UNL A   1      47.390  28.251  27.928  1.00  0.00     0.049 A 
ATOM     50  C   UNL A   1      42.032  29.459  29.046  1.00  0.00     0.074 A 
ATOM     51  C   UNL A   1      48.296  29.290  28.035  1.00  0.00     0.029 A 
ATOM     52  N   UNL A   1      46.146  28.766  28.263  1.00  0.00    -0.354 N 
ATOM     53  N   UNL A   1      43.315  29.331  28.810  1.00  0.00    -0.248 NA
ATOM     54  C   UNL A   1      41.634  30.799  29.501  1.00  0.00     0.031 C 
ATOM     55  C   UNL A   1      47.605  30.429  28.461  1.00  0.00     0.029 A 
ATOM     56  C   UNL A   1      46.263  30.106  28.588  1.00  0.00     0.049 A 
ATOM     57  H   UNL A   1      45.305  28.254  28.267  1.00  0.00     0.167 HD
ATOM     58  C   UNL A   1      43.875  30.575  29.069  1.00  0.00     0.074 A 
ATOM     59  C   UNL A   1      42.790  31.448  29.470  1.00  0.00     0.031 C 
ATOM     60  C   UNL A   1      45.172  30.958  28.981  1.00  0.00     0.037 A 
BRANCH  47  61
ATOM     61  C   UNL A   1      49.037  26.469  27.237  1.00  0.00     0.057 A 
ATOM     62  C   UNL A   1      49.889  25.983  28.237  1.00  0.00     0.134 A 
ATOM     63  C   UNL A   1      49.537  26.528  25.932  1.00  0.00     0.134 A 
ATOM     64  F   UNL A   1      49.474  25.917  29.512  1.00  0.00    -0.206 F 
ATOM     65  C   UNL A   1      51.198  25.590  27.953  1.00  0.00     0.040 A 
ATOM     66  C   UNL A   1      50.836  26.116  25.631  1.00  0.00     0.040 A 
ATOM     67  F   UNL A   1      48.771  26.982  24.929  1.00  0.00    -0.206 F 
ATOM     68  C   UNL A   1      51.671  25.650  26.644  1.00  0.00     0.006 A 
ENDBRANCH  47  61
BRANCH  48  69
ATOM     69  C   UNL A   1      39.526  28.793  29.178  1.00  0.00     0.057 A 
ATOM     70  C   UNL A   1      38.709  29.279  28.151  1.00  0.00     0.134 A 
ATOM     71  C   UNL A   1      38.953  28.642  30.445  1.00  0.00     0.134 A 
ATOM     72  F   UNL A   1      39.208  29.460  26.920  1.00  0.00    -0.206 F 
ATOM     73  C   UNL A   1      37.372  29.611  28.376  1.00  0.00     0.040 A 
ATOM     74  C   UNL A   1      37.613  28.953  30.681  1.00  0.00     0.040 A 
ATOM     75  F   UNL A   1      39.684  28.174  31.467  1.00  0.00    -0.206 F 
ATOM     76  C   UNL A   1      36.819  29.442  29.644  1.00  0.00     0.006 A 
ENDBRANCH  48  69
BRANCH  60  77
ATOM     77  C   UNL A   1      45.492  32.384  29.309  1.00  0.00     0.057 A 
ATOM     78  C   UNL A   1      45.892  32.767  30.594  1.00  0.00     0.134 A 
ATOM     79  C   UNL A   1      45.469  33.368  28.313  1.00  0.00     0.134 A 
ATOM     80  F   UNL A   1      45.922  31.872  31.593  1.00  0.00    -0.206 F 
ATOM     81  C   UNL A   1      46.254  34.084  30.879  1.00  0.00     0.040 A 
ATOM     82  C   UNL A   1      45.848  34.683  28.581  1.00  0.00     0.040 A 
ATOM     83  F   UNL A   1      45.102  33.060  27.059  1.00  0.00    -0.206 F 
ATOM     84  C   UNL A   1      46.240  35.045  29.869  1.00  0.00     0.006 A 
ENDBRANCH  60  77
ENDBRANCH  34  35
ENDBRANCH  26  29
ENDBRANCH  24  25
ENDBRANCH   1  24
TORSDOF 12
ENDMDL
MODEL 2
REMARK VINA RESULT:     -12.4      2.949      7.651
REMARK SMILES Cc1cc(Br)cc2c1O[C@H](C(F)(F)F)C(C(=O)NCCCCNC(=O)c1ccc(-c3c4nc(c(-c5c(F)cccc5F)c5ccc([nH]5)c(-c5c(F)cccc5F)c5nc(c(-c6c(F)cccc6F)c6ccc3[nH]6)C=C5)C=C4)cc1)=C2
REMARK SMILES IDX 21 1 20 2 19 3 18 4 16 5 17 6 15 8 1 9 2 10 3 11 8 12 4 13
REMARK SMILES IDX 7 14 9 15 5 16 6 17 80 18 10 19 11 20 12 21 13 22 14 23
REMARK SMILES IDX 22 24 23 25 24 26 25 28 26 29 27 30 79 31 28 32 78 33 29 34
REMARK SMILES IDX 30 35 31 36 72 37 32 38 77 39 71 40 73 41 33 42 76 43 70 44
REMARK SMILES IDX 69 45 34 47 60 48 43 49 59 50 44 51 47 52 58 53 74 54 45 55
REMARK SMILES IDX 46 56 57 58 75 59 48 60 35 61 36 62 41 63 37 64 38 65 40 66
REMARK SMILES IDX 42 67 39 68 61 69 62 70 67 71 63 72 64 73 66 74 68 75 65 76
REMARK SMILES IDX 49 77 50 78 55 79 51 80 52 81 54 82 56 83 53 84
REMARK H PARENT 18 7 23 27 73 46 47 57
REMARK Flexibility Score: inf
ROOT
ATOM      1  C   UNL A   1      34.006  28.555  25.743  1.00  0.00     0.023 C 
ENDROOT
BRANCH   1   2
ATOM      2  C   UNL A   1      32.794  28.678  24.816  1.00  0.00     0.023 C 
BRANCH   2   3
ATOM      3  C   UNL A   1      32.236  27.341  24.340  1.00  0.00     0.116 C 
BRANCH   3   4
ATOM      4  N   UNL A   1      31.362  26.736  25.328  1.00  0.00    -0.352 N 
ATOM      5  C   UNL A   1      31.223  25.523  25.912  1.00  0.00     0.251 C 
ATOM      6  O   UNL A   1      30.300  25.439  26.729  1.00  0.00    -0.270 OA
ATOM      7  H   UNL A   1      30.694  27.378  25.662  1.00  0.00     0.163 HD
BRANCH   5   8
ATOM      8  C   UNL A   1      32.081  24.331  25.644  1.00  0.00     0.067 C 
ATOM      9  C   UNL A   1      34.069  19.658  24.719  1.00  0.00     0.048 C 
ATOM     10  C   UNL A   1      34.606  21.002  25.120  1.00  0.00    -0.007 A 
ATOM     11  C   UNL A   1      35.985  21.162  25.311  1.00  0.00     0.023 A 
ATOM     12  C   UNL A   1      33.763  22.098  25.356  1.00  0.00     0.130 A 
ATOM     13  C   UNL A   1      36.501  22.394  25.712  1.00  0.00     0.019 A 
ATOM     14  C   UNL A   1      34.280  23.334  25.761  1.00  0.00     0.019 A 
ATOM     15  O   UNL A   1      32.416  21.899  25.225  1.00  0.00    -0.475 OA
ATOM     16  Br  UNL A   1      38.366  22.589  25.966  1.00  0.00    -0.051 Br
ATOM     17  C   UNL A   1      35.658  23.481  25.939  1.00  0.00     0.027 A 
ATOM     18  C   UNL A   1      33.368  24.441  26.025  1.00  0.00     0.025 C 
ATOM     19  C   UNL A   1      31.614  23.080  24.957  1.00  0.00     0.314 C 
BRANCH  19  20
ATOM     20  C   UNL A   1      31.456  23.258  23.435  1.00  0.00     0.429 C 
ATOM     21  F   UNL A   1      30.196  23.659  23.134  1.00  0.00    -0.167 F 
ATOM     22  F   UNL A   1      32.286  24.206  22.936  1.00  0.00    -0.167 F 
ATOM     23  F   UNL A   1      31.697  22.122  22.745  1.00  0.00    -0.167 F 
ENDBRANCH  19  20
ENDBRANCH   5   8
ENDBRANCH   3   4
ENDBRANCH   2   3
ENDBRANCH   1   2
BRANCH   1  24
ATOM     24  C   UNL A   1      33.701  28.659  27.236  1.00  0.00     0.116 C 
BRANCH  24  25
ATOM     25  N   UNL A   1      33.669  30.025  27.740  1.00  0.00    -0.352 N 
ATOM     26  C   UNL A   1      34.692  30.736  28.321  1.00  0.00     0.251 C 
ATOM     27  H   UNL A   1      32.809  30.497  27.652  1.00  0.00     0.163 HD
ATOM     28  O   UNL A   1      34.507  31.862  28.765  1.00  0.00    -0.269 OA
BRANCH  26  29
ATOM     29  C   UNL A   1      36.013  30.092  28.444  1.00  0.00     0.039 A 
ATOM     30  C   UNL A   1      36.911  30.197  27.381  1.00  0.00     0.014 A 
ATOM     31  C   UNL A   1      36.382  29.469  29.638  1.00  0.00     0.014 A 
ATOM     32  C   UNL A   1      38.217  29.740  27.544  1.00  0.00     0.010 A 
ATOM     33  C   UNL A   1      37.701  29.068  29.819  1.00  0.00     0.010 A 
ATOM     34  C   UNL A   1      38.630  29.209  28.777  1.00  0.00    -0.014 A 
BRANCH  34  35
ATOM     35  C   UNL A   1      40.036  28.801  28.998  1.00  0.00     0.031 A 
ATOM     36  C   UNL A   1      40.995  29.749  29.657  1.00  0.00     0.074 A 
ATOM     37  C   UNL A   1      40.458  27.601  28.558  1.00  0.00     0.049 A 
ATOM     38  N   UNL A   1      42.273  29.598  29.891  1.00  0.00    -0.248 NA
ATOM     39  C   UNL A   1      40.451  31.047  30.088  1.00  0.00     0.031 C 
ATOM     40  C   UNL A   1      39.628  26.612  27.867  1.00  0.00     0.029 A 
ATOM     41  N   UNL A   1      41.694  27.009  28.624  1.00  0.00    -0.354 N 
ATOM     42  C   UNL A   1      42.686  30.780  30.488  1.00  0.00     0.074 A 
ATOM     43  C   UNL A   1      41.537  31.659  30.533  1.00  0.00     0.031 C 
ATOM     44  C   UNL A   1      40.370  25.523  27.605  1.00  0.00     0.029 A 
ATOM     45  C   UNL A   1      41.731  25.749  28.080  1.00  0.00     0.049 A 
ATOM     46  H   UNL A   1      42.480  27.446  29.026  1.00  0.00     0.167 HD
ATOM     47  C   UNL A   1      43.906  31.095  30.979  1.00  0.00     0.037 A 
ATOM     48  C   UNL A   1      42.749  24.875  27.980  1.00  0.00     0.037 A 
ATOM     49  C   UNL A   1      45.040  30.211  30.957  1.00  0.00     0.049 A 
ATOM     50  C   UNL A   1      44.098  25.250  28.527  1.00  0.00     0.074 A 
ATOM     51  C   UNL A   1      46.307  30.421  31.469  1.00  0.00     0.029 A 
ATOM     52  N   UNL A   1      45.039  28.944  30.395  1.00  0.00    -0.354 N 
ATOM     53  N   UNL A   1      44.464  26.355  29.128  1.00  0.00    -0.248 NA
ATOM     54  C   UNL A   1      45.173  24.258  28.382  1.00  0.00     0.031 C 
ATOM     55  C   UNL A   1      47.082  29.290  31.194  1.00  0.00     0.029 A 
ATOM     56  C   UNL A   1      46.287  28.363  30.538  1.00  0.00     0.049 A 
ATOM     57  H   UNL A   1      44.264  28.519  29.960  1.00  0.00     0.167 HD
ATOM     58  C   UNL A   1      45.804  26.187  29.450  1.00  0.00     0.074 A 
ATOM     59  C   UNL A   1      46.183  24.867  28.986  1.00  0.00     0.031 C 
ATOM     60  C   UNL A   1      46.643  27.048  30.073  1.00  0.00     0.037 A 
BRANCH  47  61
ATOM     61  C   UNL A   1      44.069  32.450  31.599  1.00  0.00     0.057 A 
ATOM     62  C   UNL A   1      43.834  32.661  32.964  1.00  0.00     0.134 A 
ATOM     63  C   UNL A   1      44.485  33.546  30.835  1.00  0.00     0.134 A 
ATOM     64  F   UNL A   1      43.417  31.654  33.746  1.00  0.00    -0.206 F 
ATOM     65  C   UNL A   1      43.988  33.921  33.544  1.00  0.00     0.040 A 
ATOM     66  C   UNL A   1      44.665  34.806  31.408  1.00  0.00     0.040 A 
ATOM     67  F   UNL A   1      44.728  33.409  29.523  1.00  0.00    -0.206 F 
ATOM     68  C   UNL A   1      44.411  34.997  32.765  1.00  0.00     0.006 A 
ENDBRANCH  47  61
BRANCH  48  69
ATOM     69  C   UNL A   1      42.518  23.539  27.377  1.00  0.00     0.057 A 
ATOM     70  C   UNL A   1      42.175  22.445  28.178  1.00  0.00     0.134 A 
ATOM     71  C   UNL A   1      42.612  23.328  25.997  1.00  0.00     0.134 A 
ATOM     72  F   UNL A   1      42.085  22.583  29.509  1.00  0.00    -0.206 F 
ATOM     73  C   UNL A   1      41.941  21.183  27.630  1.00  0.00     0.040 A 
ATOM     74  C   UNL A   1      42.364  22.076  25.433  1.00  0.00     0.040 A 
ATOM     75  F   UNL A   1      42.930  24.341  25.178  1.00  0.00    -0.206 F 
ATOM     76  C   UNL A   1      42.031  20.997  26.251  1.00  0.00     0.006 A 
ENDBRANCH  48  69
BRANCH  60  77
ATOM     77  C   UNL A   1      48.051  26.591  30.306  1.00  0.00     0.057 A 
ATOM     78  C   UNL A   1      48.404  25.867  31.450  1.00  0.00     0.134 A 
ATOM     79  C   UNL A   1      49.042  26.816  29.344  1.00  0.00     0.134 A 
ATOM     80  F   UNL A   1      47.500  25.630  32.413  1.00  0.00    -0.206 F 
ATOM     81  C   UNL A   1      49.701  25.385  31.632  1.00  0.00     0.040 A 
ATOM     82  C   UNL A   1      50.337  26.322  29.505  1.00  0.00     0.040 A 
ATOM     83  F   UNL A   1      48.762  27.497  28.222  1.00  0.00    -0.206 F 
ATOM     84  C   UNL A   1      50.670  25.605  30.653  1.00  0.00     0.006 A 
ENDBRANCH  60  77
ENDBRANCH  34  35
ENDBRANCH  26  29
ENDBRANCH  24  25
ENDBRANCH   1  24
TORSDOF 12
ENDMDL
MODEL 3
REMARK VINA RESULT:     -12.3      5.353     10.126
REMARK SMILES Cc1cc(Br)cc2c1O[C@H](C(F)(F)F)C(C(=O)NCCCCNC(=O)c1ccc(-c3c4nc(c(-c5c(F)cccc5F)c5ccc([nH]5)c(-c5c(F)cccc5F)c5nc(c(-c6c(F)cccc6F)c6ccc3[nH]6)C=C5)C=C4)cc1)=C2
REMARK SMILES IDX 21 1 20 2 19 3 18 4 16 5 17 6 15 8 1 9 2 10 3 11 8 12 4 13
REMARK SMILES IDX 7 14 9 15 5 16 6 17 80 18 10 19 11 20 12 21 13 22 14 23
REMARK SMILES IDX 22 24 23 25 24 26 25 28 26 29 27 30 79 31 28 32 78 33 29 34
REMARK SMILES IDX 30 35 31 36 72 37 32 38 77 39 71 40 73 41 33 42 76 43 70 44
REMARK SMILES IDX 69 45 34 47 60 48 43 49 59 50 44 51 47 52 58 53 74 54 45 55
REMARK SMILES IDX 46 56 57 58 75 59 48 60 35 61 36 62 41 63 37 64 38 65 40 66
REMARK SMILES IDX 42 67 39 68 61 69 62 70 67 71 63 72 64 73 66 74 68 75 65 76
REMARK SMILES IDX 49 77 50 78 55 79 51 80 52 81 54 82 56 83 53 84
REMARK H PARENT 18 7 23 27 73 46 47 57
REMARK Flexibility Score: inf
ROOT
ATOM      1  C   UNL A   1      31.600  31.909  26.760  1.00  0.00     0.023 C 
ENDROOT
BRANCH   1   2
ATOM      2  C   UNL A   1      31.800  30.397  26.878  1.00  0.00     0.023 C 
BRANCH   2   3
ATOM      3  C   UNL A   1      33.257  29.953  26.794  1.00  0.00     0.116 C 
BRANCH   3   4
ATOM      4  N   UNL A   1      33.640  29.609  25.437  1.00  0.00    -0.352 N 
ATOM      5  C   UNL A   1      33.585  28.513  24.644  1.00  0.00     0.251 C 
ATOM      6  O   UNL A   1      34.054  28.664  23.511  1.00  0.00    -0.270 OA
ATOM      7  H   UNL A   1      34.047  30.374  24.970  1.00  0.00     0.163 HD
BRANCH   5   8
ATOM      8  C   UNL A   1      33.015  27.190  25.036  1.00  0.00     0.067 C 
ATOM      9  C   UNL A   1      30.293  23.242  26.945  1.00  0.00     0.048 C 
ATOM     10  C   UNL A   1      31.626  23.413  26.274  1.00  0.00    -0.007 A 
ATOM     11  C   UNL A   1      32.425  22.286  26.037  1.00  0.00     0.023 A 
ATOM     12  C   UNL A   1      32.119  24.675  25.916  1.00  0.00     0.130 A 
ATOM     13  C   UNL A   1      33.679  22.427  25.443  1.00  0.00     0.019 A 
ATOM     14  C   UNL A   1      33.379  24.817  25.322  1.00  0.00     0.019 A 
ATOM     15  O   UNL A   1      31.348  25.765  26.216  1.00  0.00    -0.475 OA
ATOM     16  Br  UNL A   1      34.744  20.894  25.134  1.00  0.00    -0.051 Br
ATOM     17  C   UNL A   1      34.162  23.685  25.084  1.00  0.00     0.027 A 
ATOM     18  C   UNL A   1      33.870  26.150  24.991  1.00  0.00     0.025 C 
ATOM     19  C   UNL A   1      31.583  26.958  25.422  1.00  0.00     0.314 C 
BRANCH  19  20
ATOM     20  C   UNL A   1      30.630  26.962  24.210  1.00  0.00     0.429 C 
ATOM     21  F   UNL A   1      29.512  26.245  24.486  1.00  0.00    -0.167 F 
ATOM     22  F   UNL A   1      30.212  28.209  23.885  1.00  0.00    -0.167 F 
ATOM     23  F   UNL A   1      31.189  26.433  23.100  1.00  0.00    -0.167 F 
ENDBRANCH  19  20
ENDBRANCH   5   8
ENDBRANCH   3   4
ENDBRANCH   2   3
ENDBRANCH   1   2
BRANCH   1  24
ATOM     24  C   UNL A   1      32.743  32.765  27.303  1.00  0.00     0.116 C 
BRANCH  24  25
ATOM     25  N   UNL A   1      32.349  34.120  27.662  1.00  0.00    -0.352 N 
ATOM     26  C   UNL A   1      32.949  34.962  28.569  1.00  0.00     0.251 C 
ATOM     27  H   UNL A   1      31.557  34.476  27.198  1.00  0.00     0.163 HD
ATOM     28  O   UNL A   1      32.468  36.059  28.826  1.00  0.00    -0.269 OA
BRANCH  26  29
ATOM     29  C   UNL A   1      34.160  34.495  29.266  1.00  0.00     0.039 A 
ATOM     30  C   UNL A   1      34.020  33.865  30.503  1.00  0.00     0.014 A 
ATOM     31  C   UNL A   1      35.410  34.605  28.653  1.00  0.00     0.014 A 
ATOM     32  C   UNL A   1      35.133  33.271  31.097  1.00  0.00     0.010 A 
ATOM     33  C   UNL A   1      36.507  33.962  29.217  1.00  0.00     0.010 A 
ATOM     34  C   UNL A   1      36.374  33.283  30.438  1.00  0.00    -0.014 A 
BRANCH  34  35
ATOM     35  C   UNL A   1      37.546  32.581  31.009  1.00  0.00     0.031 A 
ATOM     36  C   UNL A   1      38.161  33.069  32.287  1.00  0.00     0.074 A 
ATOM     37  C   UNL A   1      38.084  31.540  30.348  1.00  0.00     0.049 A 
ATOM     38  N   UNL A   1      39.218  32.624  32.917  1.00  0.00    -0.248 NA
ATOM     39  C   UNL A   1      37.517  34.226  32.931  1.00  0.00     0.031 C 
ATOM     40  C   UNL A   1      37.598  31.000  29.076  1.00  0.00     0.029 A 
ATOM     41  N   UNL A   1      39.163  30.749  30.654  1.00  0.00    -0.354 N 
ATOM     42  C   UNL A   1      39.369  33.448  34.022  1.00  0.00     0.074 A 
ATOM     43  C   UNL A   1      38.329  34.452  33.952  1.00  0.00     0.031 C 
ATOM     44  C   UNL A   1      38.355  29.946  28.729  1.00  0.00     0.029 A 
ATOM     45  C   UNL A   1      39.395  29.755  29.735  1.00  0.00     0.049 A 
ATOM     46  H   UNL A   1      39.717  30.880  31.458  1.00  0.00     0.167 HD
ATOM     47  C   UNL A   1      40.276  33.359  35.022  1.00  0.00     0.037 A 
ATOM     48  C   UNL A   1      40.339  28.796  29.711  1.00  0.00     0.037 A 
ATOM     49  C   UNL A   1      41.292  32.344  35.105  1.00  0.00     0.049 A 
ATOM     50  C   UNL A   1      41.340  28.722  30.829  1.00  0.00     0.074 A 
ATOM     51  C   UNL A   1      42.230  32.143  36.100  1.00  0.00     0.029 A 
ATOM     52  N   UNL A   1      41.497  31.357  34.153  1.00  0.00    -0.354 N 
ATOM     53  N   UNL A   1      41.446  29.481  31.892  1.00  0.00    -0.248 NA
ATOM     54  C   UNL A   1      42.352  27.658  30.745  1.00  0.00     0.031 C 
ATOM     55  C   UNL A   1      43.021  31.048  35.739  1.00  0.00     0.029 A 
ATOM     56  C   UNL A   1      42.554  30.549  34.533  1.00  0.00     0.049 A 
ATOM     57  H   UNL A   1      40.967  31.246  33.331  1.00  0.00     0.167 HD
ATOM     58  C   UNL A   1      42.522  28.979  32.612  1.00  0.00     0.074 A 
ATOM     59  C   UNL A   1      43.028  27.842  31.870  1.00  0.00     0.031 C 
ATOM     60  C   UNL A   1      43.041  29.421  33.783  1.00  0.00     0.037 A 
BRANCH  47  61
ATOM     61  C   UNL A   1      40.195  34.379  36.116  1.00  0.00     0.057 A 
ATOM     62  C   UNL A   1      39.430  34.156  37.269  1.00  0.00     0.134 A 
ATOM     63  C   UNL A   1      40.903  35.583  36.032  1.00  0.00     0.134 A 
ATOM     64  F   UNL A   1      38.715  33.029  37.402  1.00  0.00    -0.206 F 
ATOM     65  C   UNL A   1      39.356  35.104  38.290  1.00  0.00     0.040 A 
ATOM     66  C   UNL A   1      40.856  36.529  37.057  1.00  0.00     0.040 A 
ATOM     67  F   UNL A   1      41.656  35.857  34.956  1.00  0.00    -0.206 F 
ATOM     68  C   UNL A   1      40.077  36.292  38.188  1.00  0.00     0.006 A 
ENDBRANCH  47  61
BRANCH  48  69
ATOM     69  C   UNL A   1      40.350  27.800  28.612  1.00  0.00     0.057 A 
ATOM     70  C   UNL A   1      39.647  26.596  28.733  1.00  0.00     0.134 A 
ATOM     71  C   UNL A   1      41.041  28.030  27.417  1.00  0.00     0.134 A 
ATOM     72  F   UNL A   1      38.980  26.314  29.861  1.00  0.00    -0.206 F 
ATOM     73  C   UNL A   1      39.636  25.651  27.706  1.00  0.00     0.040 A 
ATOM     74  C   UNL A   1      41.024  27.102  26.375  1.00  0.00     0.040 A 
ATOM     75  F   UNL A   1      41.728  29.168  27.241  1.00  0.00    -0.206 F 
ATOM     76  C   UNL A   1      40.322  25.906  26.520  1.00  0.00     0.006 A 
ENDBRANCH  48  69
BRANCH  60  77
ATOM     77  C   UNL A   1      44.208  28.668  34.346  1.00  0.00     0.057 A 
ATOM     78  C   UNL A   1      45.525  29.061  34.087  1.00  0.00     0.134 A 
ATOM     79  C   UNL A   1      44.008  27.587  35.212  1.00  0.00     0.134 A 
ATOM     80  F   UNL A   1      45.780  30.083  33.256  1.00  0.00    -0.206 F 
ATOM     81  C   UNL A   1      46.608  28.399  34.667  1.00  0.00     0.040 A 
ATOM     82  C   UNL A   1      45.081  26.930  35.814  1.00  0.00     0.040 A 
ATOM     83  F   UNL A   1      42.767  27.168  35.506  1.00  0.00    -0.206 F 
ATOM     84  C   UNL A   1      46.386  27.334  35.540  1.00  0.00     0.006 A 
ENDBRANCH  60  77
ENDBRANCH  34  35
ENDBRANCH  26  29
ENDBRANCH  24  25
ENDBRANCH   1  24
TORSDOF 12
ENDMDL
