MODEL 1
REMARK VINA RESULT:      -9.9      0.000      0.000
REMARK SMILES COc1ccnc(N[C@H](C)CC(=O)NCCCCNC(=O)c2ccc(-c3c4nc(c(-c5c(F)cccc5F)c5ccc([nH]5)c(-c5c(F)cccc5F)c5nc(c(-c6c(F)cccc6F)c6ccc3[nH]6)C=C5)C=C4)cc2)n1
REMARK SMILES IDX 15 1 14 2 12 3 13 4 11 6 9 7 10 8 8 9 7 11 3 12 4 13 76 14
REMARK SMILES IDX 5 15 6 16 2 17 1 18 16 19 17 20 18 21 19 22 20 23 21 25
REMARK SMILES IDX 22 26 23 27 75 28 24 29 74 30 25 31 26 32 27 33 68 34 28 35
REMARK SMILES IDX 73 36 67 37 69 38 29 39 72 40 66 41 65 42 30 44 56 45 39 46
REMARK SMILES IDX 55 47 40 48 43 49 54 50 70 51 41 52 42 53 53 55 71 56 44 57
REMARK SMILES IDX 31 58 32 59 37 60 33 61 34 62 36 63 38 64 35 65 57 66 58 67
REMARK SMILES IDX 63 68 59 69 60 70 62 71 64 72 61 73 45 74 46 75 51 76 47 77
REMARK SMILES IDX 48 78 50 79 52 80 49 81
REMARK H PARENT 14 5 8 10 19 24 69 43 43 54
REMARK Flexibility Score: inf
ROOT
ATOM      1  C   UNL A   1      37.056  23.053  25.588  1.00  0.00     0.116 C 
ENDROOT
BRANCH   1   2
ATOM      2  N   UNL A   1      36.091  22.463  26.495  1.00  0.00    -0.356 N 
ATOM      3  C   UNL A   1      35.032  21.649  26.227  1.00  0.00     0.222 C 
ATOM      4  O   UNL A   1      34.275  21.358  27.153  1.00  0.00    -0.275 OA
ATOM      5  H   UNL A   1      36.222  22.682  27.446  1.00  0.00     0.163 HD
BRANCH   3   6
ATOM      6  C   UNL A   1      34.817  21.115  24.830  1.00  0.00     0.124 C 
BRANCH   6   7
ATOM      7  C   UNL A   1      33.623  21.756  24.122  1.00  0.00     0.088 C 
ATOM      8  C   UNL A   1      32.435  20.819  23.919  1.00  0.00     0.031 C 
BRANCH   7   9
ATOM      9  N   UNL A   1      33.151  22.867  24.922  1.00  0.00    -0.351 N 
ATOM     10  H   UNL A   1      32.644  22.686  25.747  1.00  0.00     0.163 HD
BRANCH   9  11
ATOM     11  C   UNL A   1      33.393  24.163  24.561  1.00  0.00     0.226 A 
ATOM     12  C   UNL A   1      33.689  25.788  22.997  1.00  0.00     0.217 A 
ATOM     13  C   UNL A   1      33.735  26.777  23.945  1.00  0.00     0.088 A 
ATOM     14  N   UNL A   1      33.512  24.490  23.271  1.00  0.00    -0.177 NA
ATOM     15  C   UNL A   1      33.629  26.336  25.237  1.00  0.00     0.121 A 
ATOM     16  N   UNL A   1      33.466  25.043  25.569  1.00  0.00    -0.221 NA
BRANCH  12  17
ATOM     17  O   UNL A   1      33.742  26.115  21.667  1.00  0.00    -0.481 OA
ATOM     18  C   UNL A   1      32.607  25.570  20.999  1.00  0.00     0.280 C 
ENDBRANCH  12  17
ENDBRANCH   9  11
ENDBRANCH   7   9
ENDBRANCH   6   7
ENDBRANCH   3   6
ENDBRANCH   1   2
BRANCH   1  19
ATOM     19  C   UNL A   1      38.466  22.539  25.875  1.00  0.00     0.023 C 
BRANCH  19  20
ATOM     20  C   UNL A   1      38.758  21.147  25.327  1.00  0.00     0.023 C 
BRANCH  20  21
ATOM     21  C   UNL A   1      39.257  20.158  26.366  1.00  0.00     0.116 C 
BRANCH  21  22
ATOM     22  N   UNL A   1      40.403  19.385  25.907  1.00  0.00    -0.352 N 
ATOM     23  C   UNL A   1      41.726  19.747  25.846  1.00  0.00     0.251 C 
ATOM     24  H   UNL A   1      40.200  18.473  25.596  1.00  0.00     0.163 HD
ATOM     25  O   UNL A   1      42.542  19.024  25.292  1.00  0.00    -0.269 OA
BRANCH  23  26
ATOM     26  C   UNL A   1      42.146  21.037  26.431  1.00  0.00     0.039 A 
ATOM     27  C   UNL A   1      42.439  22.100  25.577  1.00  0.00     0.014 A 
ATOM     28  C   UNL A   1      42.207  21.201  27.817  1.00  0.00     0.014 A 
ATOM     29  C   UNL A   1      42.730  23.351  26.119  1.00  0.00     0.010 A 
ATOM     30  C   UNL A   1      42.398  22.467  28.352  1.00  0.00     0.010 A 
ATOM     31  C   UNL A   1      42.673  23.553  27.508  1.00  0.00    -0.014 A 
BRANCH  31  32
ATOM     32  C   UNL A   1      42.911  24.893  28.096  1.00  0.00     0.031 A 
ATOM     33  C   UNL A   1      44.297  25.293  28.519  1.00  0.00     0.074 A 
ATOM     34  C   UNL A   1      41.869  25.723  28.296  1.00  0.00     0.049 A 
ATOM     35  N   UNL A   1      44.702  26.412  29.065  1.00  0.00    -0.248 NA
ATOM     36  C   UNL A   1      45.365  24.295  28.339  1.00  0.00     0.031 C 
ATOM     37  C   UNL A   1      40.469  25.415  27.993  1.00  0.00     0.029 A 
ATOM     38  N   UNL A   1      41.827  26.996  28.802  1.00  0.00    -0.354 N 
ATOM     39  C   UNL A   1      46.059  26.243  29.306  1.00  0.00     0.074 A 
ATOM     40  C   UNL A   1      46.398  24.896  28.907  1.00  0.00     0.031 C 
ATOM     41  C   UNL A   1      39.713  26.488  28.277  1.00  0.00     0.029 A 
ATOM     42  C   UNL A   1      40.567  27.543  28.811  1.00  0.00     0.049 A 
ATOM     43  H   UNL A   1      42.624  27.474  29.127  1.00  0.00     0.167 HD
ATOM     44  C   UNL A   1      46.950  27.141  29.790  1.00  0.00     0.037 A 
ATOM     45  C   UNL A   1      40.152  28.763  29.197  1.00  0.00     0.037 A 
ATOM     46  C   UNL A   1      46.614  28.493  30.146  1.00  0.00     0.049 A 
ATOM     47  C   UNL A   1      41.166  29.751  29.703  1.00  0.00     0.074 A 
ATOM     48  C   UNL A   1      47.454  29.509  30.566  1.00  0.00     0.029 A 
ATOM     49  N   UNL A   1      45.331  29.018  30.122  1.00  0.00    -0.354 N 
ATOM     50  N   UNL A   1      42.462  29.609  29.841  1.00  0.00    -0.248 NA
ATOM     51  C   UNL A   1      40.661  31.072  30.098  1.00  0.00     0.031 C 
ATOM     52  C   UNL A   1      46.673  30.637  30.836  1.00  0.00     0.029 A 
ATOM     53  C   UNL A   1      45.353  30.338  30.541  1.00  0.00     0.049 A 
ATOM     54  H   UNL A   1      44.524  28.525  29.848  1.00  0.00     0.167 HD
ATOM     55  C   UNL A   1      42.930  30.827  30.314  1.00  0.00     0.074 A 
ATOM     56  C   UNL A   1      41.781  31.702  30.421  1.00  0.00     0.031 C 
ATOM     57  C   UNL A   1      44.196  31.190  30.636  1.00  0.00     0.037 A 
BRANCH  44  58
ATOM     58  C   UNL A   1      48.372  26.690  29.947  1.00  0.00     0.057 A 
ATOM     59  C   UNL A   1      48.807  25.998  31.085  1.00  0.00     0.134 A 
ATOM     60  C   UNL A   1      49.313  26.928  28.937  1.00  0.00     0.134 A 
ATOM     61  F   UNL A   1      47.961  25.752  32.096  1.00  0.00    -0.206 F 
ATOM     62  C   UNL A   1      50.132  25.580  31.225  1.00  0.00     0.040 A 
ATOM     63  C   UNL A   1      50.634  26.491  29.054  1.00  0.00     0.040 A 
ATOM     64  F   UNL A   1      48.964  27.582  27.820  1.00  0.00    -0.206 F 
ATOM     65  C   UNL A   1      51.048  25.820  30.203  1.00  0.00     0.006 A 
ENDBRANCH  44  58
BRANCH  45  66
ATOM     66  C   UNL A   1      38.721  29.139  29.078  1.00  0.00     0.057 A 
ATOM     67  C   UNL A   1      37.867  29.076  30.186  1.00  0.00     0.134 A 
ATOM     68  C   UNL A   1      38.170  29.555  27.861  1.00  0.00     0.134 A 
ATOM     69  F   UNL A   1      38.334  28.669  31.376  1.00  0.00    -0.206 F 
ATOM     70  C   UNL A   1      36.512  29.392  30.085  1.00  0.00     0.040 A 
ATOM     71  C   UNL A   1      36.820  29.897  27.751  1.00  0.00     0.040 A 
ATOM     72  F   UNL A   1      38.936  29.644  26.765  1.00  0.00    -0.206 F 
ATOM     73  C   UNL A   1      35.985  29.808  28.863  1.00  0.00     0.006 A 
ENDBRANCH  45  66
BRANCH  57  74
ATOM     74  C   UNL A   1      44.400  32.600  31.104  1.00  0.00     0.057 A 
ATOM     75  C   UNL A   1      44.368  32.938  32.463  1.00  0.00     0.134 A 
ATOM     76  C   UNL A   1      44.656  33.627  30.186  1.00  0.00     0.134 A 
ATOM     77  F   UNL A   1      44.114  32.002  33.391  1.00  0.00    -0.206 F 
ATOM     78  C   UNL A   1      44.555  34.253  32.891  1.00  0.00     0.040 A 
ATOM     79  C   UNL A   1      44.872  34.940  30.603  1.00  0.00     0.040 A 
ATOM     80  F   UNL A   1      44.710  33.367  28.871  1.00  0.00    -0.206 F 
ATOM     81  C   UNL A   1      44.813  35.257  31.959  1.00  0.00     0.006 A 
ENDBRANCH  57  74
ENDBRANCH  31  32
ENDBRANCH  23  26
ENDBRANCH  21  22
ENDBRANCH  20  21
ENDBRANCH  19  20
ENDBRANCH   1  19
TORSDOF 15
ENDMDL
MODEL 2
REMARK VINA RESULT:      -9.7      1.549      3.164
REMARK SMILES COc1ccnc(N[C@H](C)CC(=O)NCCCCNC(=O)c2ccc(-c3c4nc(c(-c5c(F)cccc5F)c5ccc([nH]5)c(-c5c(F)cccc5F)c5nc(c(-c6c(F)cccc6F)c6ccc3[nH]6)C=C5)C=C4)cc2)n1
REMARK SMILES IDX 15 1 14 2 12 3 13 4 11 6 9 7 10 8 8 9 7 11 3 12 4 13 76 14
REMARK SMILES IDX 5 15 6 16 2 17 1 18 16 19 17 20 18 21 19 22 20 23 21 25
REMARK SMILES IDX 22 26 23 27 75 28 24 29 74 30 25 31 26 32 27 33 68 34 28 35
REMARK SMILES IDX 73 36 67 37 69 38 29 39 72 40 66 41 65 42 30 44 56 45 39 46
REMARK SMILES IDX 55 47 40 48 43 49 54 50 70 51 41 52 42 53 53 55 71 56 44 57
REMARK SMILES IDX 31 58 32 59 37 60 33 61 34 62 36 63 38 64 35 65 57 66 58 67
REMARK SMILES IDX 63 68 59 69 60 70 62 71 64 72 61 73 45 74 46 75 51 76 47 77
REMARK SMILES IDX 48 78 50 79 52 80 49 81
REMARK H PARENT 14 5 8 10 19 24 69 43 43 54
REMARK Flexibility Score: inf
ROOT
ATOM      1  C   UNL A   1      37.115  23.055  25.483  1.00  0.00     0.116 C 
ENDROOT
BRANCH   1   2
ATOM      2  N   UNL A   1      36.126  22.358  26.282  1.00  0.00    -0.356 N 
ATOM      3  C   UNL A   1      34.988  21.719  25.891  1.00  0.00     0.222 C 
ATOM      4  O   UNL A   1      34.234  21.290  26.765  1.00  0.00    -0.275 OA
ATOM      5  H   UNL A   1      36.305  22.342  27.250  1.00  0.00     0.163 HD
BRANCH   3   6
ATOM      6  C   UNL A   1      34.682  21.538  24.422  1.00  0.00     0.124 C 
BRANCH   6   7
ATOM      7  C   UNL A   1      33.186  21.406  24.135  1.00  0.00     0.088 C 
ATOM      8  C   UNL A   1      32.628  22.478  23.202  1.00  0.00     0.031 C 
BRANCH   7   9
ATOM      9  N   UNL A   1      32.948  20.127  23.498  1.00  0.00    -0.351 N 
ATOM     10  H   UNL A   1      32.720  20.101  22.540  1.00  0.00     0.163 HD
BRANCH   9  11
ATOM     11  C   UNL A   1      33.030  18.954  24.194  1.00  0.00     0.226 A 
ATOM     12  C   UNL A   1      33.931  16.898  24.560  1.00  0.00     0.217 A 
ATOM     13  C   UNL A   1      33.219  16.725  25.718  1.00  0.00     0.088 A 
ATOM     14  N   UNL A   1      33.866  17.992  23.791  1.00  0.00    -0.177 NA
ATOM     15  C   UNL A   1      32.375  17.757  26.030  1.00  0.00     0.121 A 
ATOM     16  N   UNL A   1      32.258  18.871  25.285  1.00  0.00    -0.221 NA
BRANCH  12  17
ATOM     17  O   UNL A   1      34.841  15.949  24.170  1.00  0.00    -0.481 OA
ATOM     18  C   UNL A   1      35.636  15.566  25.289  1.00  0.00     0.280 C 
ENDBRANCH  12  17
ENDBRANCH   9  11
ENDBRANCH   7   9
ENDBRANCH   6   7
ENDBRANCH   3   6
ENDBRANCH   1   2
BRANCH   1  19
ATOM     19  C   UNL A   1      38.511  22.476  25.708  1.00  0.00     0.023 C 
BRANCH  19  20
ATOM     20  C   UNL A   1      38.670  21.020  25.287  1.00  0.00     0.023 C 
BRANCH  20  21
ATOM     21  C   UNL A   1      39.271  20.121  26.354  1.00  0.00     0.116 C 
BRANCH  21  22
ATOM     22  N   UNL A   1      40.418  19.364  25.875  1.00  0.00    -0.352 N 
ATOM     23  C   UNL A   1      41.737  19.738  25.804  1.00  0.00     0.251 C 
ATOM     24  H   UNL A   1      40.220  18.453  25.557  1.00  0.00     0.163 HD
ATOM     25  O   UNL A   1      42.553  19.028  25.235  1.00  0.00    -0.269 OA
BRANCH  23  26
ATOM     26  C   UNL A   1      42.151  21.025  26.398  1.00  0.00     0.039 A 
ATOM     27  C   UNL A   1      42.449  22.093  25.550  1.00  0.00     0.014 A 
ATOM     28  C   UNL A   1      42.205  21.183  27.785  1.00  0.00     0.014 A 
ATOM     29  C   UNL A   1      42.735  23.342  26.100  1.00  0.00     0.010 A 
ATOM     30  C   UNL A   1      42.391  22.447  28.326  1.00  0.00     0.010 A 
ATOM     31  C   UNL A   1      42.669  23.537  27.490  1.00  0.00    -0.014 A 
BRANCH  31  32
ATOM     32  C   UNL A   1      42.902  24.874  28.085  1.00  0.00     0.031 A 
ATOM     33  C   UNL A   1      44.285  25.276  28.517  1.00  0.00     0.074 A 
ATOM     34  C   UNL A   1      41.858  25.701  28.284  1.00  0.00     0.049 A 
ATOM     35  N   UNL A   1      44.685  26.392  29.070  1.00  0.00    -0.248 NA
ATOM     36  C   UNL A   1      45.356  24.281  28.336  1.00  0.00     0.031 C 
ATOM     37  C   UNL A   1      40.460  25.393  27.974  1.00  0.00     0.029 A 
ATOM     38  N   UNL A   1      41.810  26.972  28.796  1.00  0.00    -0.354 N 
ATOM     39  C   UNL A   1      46.042  26.224  29.316  1.00  0.00     0.074 A 
ATOM     40  C   UNL A   1      46.385  24.880  28.912  1.00  0.00     0.031 C 
ATOM     41  C   UNL A   1      39.700  26.463  28.259  1.00  0.00     0.029 A 
ATOM     42  C   UNL A   1      40.550  27.517  28.802  1.00  0.00     0.049 A 
ATOM     43  H   UNL A   1      42.605  27.450  29.127  1.00  0.00     0.167 HD
ATOM     44  C   UNL A   1      46.929  27.122  29.808  1.00  0.00     0.037 A 
ATOM     45  C   UNL A   1      40.131  28.734  29.192  1.00  0.00     0.037 A 
ATOM     46  C   UNL A   1      46.588  28.471  30.170  1.00  0.00     0.049 A 
ATOM     47  C   UNL A   1      41.140  29.722  29.708  1.00  0.00     0.074 A 
ATOM     48  C   UNL A   1      47.425  29.487  30.599  1.00  0.00     0.029 A 
ATOM     49  N   UNL A   1      45.304  28.994  30.142  1.00  0.00    -0.354 N 
ATOM     50  N   UNL A   1      42.436  29.581  29.851  1.00  0.00    -0.248 NA
ATOM     51  C   UNL A   1      40.630  31.040  30.107  1.00  0.00     0.031 C 
ATOM     52  C   UNL A   1      46.640  30.612  30.870  1.00  0.00     0.029 A 
ATOM     53  C   UNL A   1      45.322  30.312  30.568  1.00  0.00     0.049 A 
ATOM     54  H   UNL A   1      44.499  28.501  29.862  1.00  0.00     0.167 HD
ATOM     55  C   UNL A   1      42.899  30.797  30.332  1.00  0.00     0.074 A 
ATOM     56  C   UNL A   1      41.748  31.670  30.438  1.00  0.00     0.031 C 
ATOM     57  C   UNL A   1      44.163  31.162  30.661  1.00  0.00     0.037 A 
BRANCH  44  58
ATOM     58  C   UNL A   1      48.351  26.673  29.969  1.00  0.00     0.057 A 
ATOM     59  C   UNL A   1      48.802  26.052  31.142  1.00  0.00     0.134 A 
ATOM     60  C   UNL A   1      49.276  26.840  28.932  1.00  0.00     0.134 A 
ATOM     61  F   UNL A   1      47.972  25.875  32.181  1.00  0.00    -0.206 F 
ATOM     62  C   UNL A   1      50.127  25.635  31.285  1.00  0.00     0.040 A 
ATOM     63  C   UNL A   1      50.597  26.403  29.053  1.00  0.00     0.040 A 
ATOM     64  F   UNL A   1      48.911  27.425  27.780  1.00  0.00    -0.206 F 
ATOM     65  C   UNL A   1      51.027  25.805  30.235  1.00  0.00     0.006 A 
ENDBRANCH  44  58
BRANCH  45  66
ATOM     66  C   UNL A   1      38.699  29.108  29.068  1.00  0.00     0.057 A 
ATOM     67  C   UNL A   1      38.176  29.551  27.847  1.00  0.00     0.134 A 
ATOM     68  C   UNL A   1      37.827  29.045  30.160  1.00  0.00     0.134 A 
ATOM     69  F   UNL A   1      38.967  29.649  26.769  1.00  0.00    -0.206 F 
ATOM     70  C   UNL A   1      36.842  29.940  27.721  1.00  0.00     0.040 A 
ATOM     71  C   UNL A   1      36.483  29.407  30.042  1.00  0.00     0.040 A 
ATOM     72  F   UNL A   1      38.264  28.621  31.354  1.00  0.00    -0.206 F 
ATOM     73  C   UNL A   1      35.989  29.864  28.822  1.00  0.00     0.006 A 
ENDBRANCH  45  66
BRANCH  57  74
ATOM     74  C   UNL A   1      44.363  32.570  31.138  1.00  0.00     0.057 A 
ATOM     75  C   UNL A   1      44.609  33.623  30.248  1.00  0.00     0.134 A 
ATOM     76  C   UNL A   1      44.283  32.879  32.502  1.00  0.00     0.134 A 
ATOM     77  F   UNL A   1      44.710  33.389  28.930  1.00  0.00    -0.206 F 
ATOM     78  C   UNL A   1      44.797  34.929  30.700  1.00  0.00     0.040 A 
ATOM     79  C   UNL A   1      44.442  34.185  32.963  1.00  0.00     0.040 A 
ATOM     80  F   UNL A   1      44.040  31.917  33.406  1.00  0.00    -0.206 F 
ATOM     81  C   UNL A   1      44.709  35.213  32.061  1.00  0.00     0.006 A 
ENDBRANCH  57  74
ENDBRANCH  31  32
ENDBRANCH  23  26
ENDBRANCH  21  22
ENDBRANCH  20  21
ENDBRANCH  19  20
ENDBRANCH   1  19
TORSDOF 15
ENDMDL
MODEL 3
REMARK VINA RESULT:      -9.6      4.484      9.637
REMARK SMILES COc1ccnc(N[C@H](C)CC(=O)NCCCCNC(=O)c2ccc(-c3c4nc(c(-c5c(F)cccc5F)c5ccc([nH]5)c(-c5c(F)cccc5F)c5nc(c(-c6c(F)cccc6F)c6ccc3[nH]6)C=C5)C=C4)cc2)n1
REMARK SMILES IDX 15 1 14 2 12 3 13 4 11 6 9 7 10 8 8 9 7 11 3 12 4 13 76 14
REMARK SMILES IDX 5 15 6 16 2 17 1 18 16 19 17 20 18 21 19 22 20 23 21 25
REMARK SMILES IDX 22 26 23 27 75 28 24 29 74 30 25 31 26 32 27 33 68 34 28 35
REMARK SMILES IDX 73 36 67 37 69 38 29 39 72 40 66 41 65 42 30 44 56 45 39 46
REMARK SMILES IDX 55 47 40 48 43 49 54 50 70 51 41 52 42 53 53 55 71 56 44 57
REMARK SMILES IDX 31 58 32 59 37 60 33 61 34 62 36 63 38 64 35 65 57 66 58 67
REMARK SMILES IDX 63 68 59 69 60 70 62 71 64 72 61 73 45 74 46 75 51 76 47 77
REMARK SMILES IDX 48 78 50 79 52 80 49 81
REMARK H PARENT 14 5 8 10 19 24 69 43 43 54
REMARK Flexibility Score: inf
ROOT
ATOM      1  C   UNL A   1      32.168  30.064  25.318  1.00  0.00     0.116 C 
ENDROOT
BRANCH   1   2
ATOM      2  N   UNL A   1      31.097  29.495  24.522  1.00  0.00    -0.356 N 
ATOM      3  C   UNL A   1      31.160  28.609  23.489  1.00  0.00     0.222 C 
ATOM      4  O   UNL A   1      30.120  28.350  22.883  1.00  0.00    -0.275 OA
ATOM      5  H   UNL A   1      30.191  29.792  24.766  1.00  0.00     0.163 HD
BRANCH   3   6
ATOM      6  C   UNL A   1      32.474  27.960  23.121  1.00  0.00     0.124 C 
BRANCH   6   7
ATOM      7  C   UNL A   1      32.722  26.648  23.865  1.00  0.00     0.088 C 
ATOM      8  C   UNL A   1      33.658  26.774  25.065  1.00  0.00     0.031 C 
BRANCH   7   9
ATOM      9  N   UNL A   1      31.457  26.152  24.366  1.00  0.00    -0.351 N 
ATOM     10  H   UNL A   1      30.665  26.736  24.336  1.00  0.00     0.163 HD
BRANCH   9  11
ATOM     11  C   UNL A   1      31.336  24.892  24.882  1.00  0.00     0.226 A 
ATOM     12  C   UNL A   1      30.517  23.422  26.411  1.00  0.00     0.217 A 
ATOM     13  C   UNL A   1      31.041  22.344  25.746  1.00  0.00     0.088 A 
ATOM     14  N   UNL A   1      30.639  24.691  26.004  1.00  0.00    -0.177 NA
ATOM     15  C   UNL A   1      31.758  22.659  24.622  1.00  0.00     0.121 A 
ATOM     16  N   UNL A   1      31.925  23.918  24.177  1.00  0.00    -0.221 NA
BRANCH  12  17
ATOM     17  O   UNL A   1      29.744  23.225  27.527  1.00  0.00    -0.481 OA
ATOM     18  C   UNL A   1      28.785  22.205  27.265  1.00  0.00     0.280 C 
ENDBRANCH  12  17
ENDBRANCH   9  11
ENDBRANCH   7   9
ENDBRANCH   6   7
ENDBRANCH   3   6
ENDBRANCH   1   2
BRANCH   1  19
ATOM     19  C   UNL A   1      31.654  30.524  26.681  1.00  0.00     0.023 C 
BRANCH  19  20
ATOM     20  C   UNL A   1      31.449  32.028  26.808  1.00  0.00     0.023 C 
BRANCH  20  21
ATOM     21  C   UNL A   1      32.693  32.798  27.217  1.00  0.00     0.116 C 
BRANCH  21  22
ATOM     22  N   UNL A   1      32.403  34.161  27.637  1.00  0.00    -0.352 N 
ATOM     23  C   UNL A   1      32.998  34.912  28.621  1.00  0.00     0.251 C 
ATOM     24  H   UNL A   1      31.677  34.609  27.145  1.00  0.00     0.163 HD
ATOM     25  O   UNL A   1      32.530  35.994  28.944  1.00  0.00    -0.269 OA
BRANCH  23  26
ATOM     26  C   UNL A   1      34.193  34.380  29.307  1.00  0.00     0.039 A 
ATOM     27  C   UNL A   1      34.022  33.611  30.459  1.00  0.00     0.014 A 
ATOM     28  C   UNL A   1      35.470  34.607  28.788  1.00  0.00     0.014 A 
ATOM     29  C   UNL A   1      35.133  33.014  31.052  1.00  0.00     0.010 A 
ATOM     30  C   UNL A   1      36.559  33.932  29.320  1.00  0.00     0.010 A 
ATOM     31  C   UNL A   1      36.404  33.138  30.465  1.00  0.00    -0.014 A 
BRANCH  31  32
ATOM     32  C   UNL A   1      37.583  32.451  31.043  1.00  0.00     0.031 A 
ATOM     33  C   UNL A   1      38.180  32.940  32.333  1.00  0.00     0.074 A 
ATOM     34  C   UNL A   1      38.145  31.424  30.377  1.00  0.00     0.049 A 
ATOM     35  N   UNL A   1      39.217  32.484  32.988  1.00  0.00    -0.248 NA
ATOM     36  C   UNL A   1      37.553  34.119  32.955  1.00  0.00     0.031 C 
ATOM     37  C   UNL A   1      37.698  30.908  29.081  1.00  0.00     0.029 A 
ATOM     38  N   UNL A   1      39.214  30.629  30.700  1.00  0.00    -0.354 N 
ATOM     39  C   UNL A   1      39.373  33.327  34.080  1.00  0.00     0.074 A 
ATOM     40  C   UNL A   1      38.367  34.357  33.970  1.00  0.00     0.031 C 
ATOM     41  C   UNL A   1      38.459  29.855  28.742  1.00  0.00     0.029 A 
ATOM     42  C   UNL A   1      39.464  29.643  29.778  1.00  0.00     0.049 A 
ATOM     43  H   UNL A   1      39.751  30.752  31.516  1.00  0.00     0.167 HD
ATOM     44  C   UNL A   1      40.258  33.232  35.102  1.00  0.00     0.037 A 
ATOM     45  C   UNL A   1      40.395  28.671  29.775  1.00  0.00     0.037 A 
ATOM     46  C   UNL A   1      41.230  32.180  35.227  1.00  0.00     0.049 A 
ATOM     47  C   UNL A   1      41.347  28.571  30.934  1.00  0.00     0.074 A 
ATOM     48  C   UNL A   1      42.117  31.943  36.262  1.00  0.00     0.029 A 
ATOM     49  N   UNL A   1      41.440  31.186  34.283  1.00  0.00    -0.354 N 
ATOM     50  N   UNL A   1      41.425  29.321  32.007  1.00  0.00    -0.248 NA
ATOM     51  C   UNL A   1      42.333  27.484  30.887  1.00  0.00     0.031 C 
ATOM     52  C   UNL A   1      42.892  30.829  35.925  1.00  0.00     0.029 A 
ATOM     53  C   UNL A   1      42.459  30.345  34.701  1.00  0.00     0.049 A 
ATOM     54  H   UNL A   1      40.940  31.091  33.440  1.00  0.00     0.167 HD
ATOM     55  C   UNL A   1      42.450  28.783  32.773  1.00  0.00     0.074 A 
ATOM     56  C   UNL A   1      42.951  27.632  32.050  1.00  0.00     0.031 C 
ATOM     57  C   UNL A   1      42.937  29.203  33.966  1.00  0.00     0.037 A 
BRANCH  44  58
ATOM     58  C   UNL A   1      40.203  34.288  36.167  1.00  0.00     0.057 A 
ATOM     59  C   UNL A   1      40.960  35.464  36.081  1.00  0.00     0.134 A 
ATOM     60  C   UNL A   1      39.364  34.139  37.278  1.00  0.00     0.134 A 
ATOM     61  F   UNL A   1      41.795  35.662  35.050  1.00  0.00    -0.206 F 
ATOM     62  C   UNL A   1      40.903  36.443  37.075  1.00  0.00     0.040 A 
ATOM     63  C   UNL A   1      39.279  35.124  38.264  1.00  0.00     0.040 A 
ATOM     64  F   UNL A   1      38.610  33.039  37.421  1.00  0.00    -0.206 F 
ATOM     65  C   UNL A   1      40.054  36.277  38.167  1.00  0.00     0.006 A 
ENDBRANCH  44  58
BRANCH  45  66
ATOM     66  C   UNL A   1      40.446  27.687  28.665  1.00  0.00     0.057 A 
ATOM     67  C   UNL A   1      41.237  27.921  27.534  1.00  0.00     0.134 A 
ATOM     68  C   UNL A   1      39.701  26.503  28.699  1.00  0.00     0.134 A 
ATOM     69  F   UNL A   1      41.960  29.045  27.436  1.00  0.00    -0.206 F 
ATOM     70  C   UNL A   1      41.269  27.023  26.465  1.00  0.00     0.040 A 
ATOM     71  C   UNL A   1      39.743  25.584  27.648  1.00  0.00     0.040 A 
ATOM     72  F   UNL A   1      38.931  26.217  29.758  1.00  0.00    -0.206 F 
ATOM     73  C   UNL A   1      40.523  25.847  26.523  1.00  0.00     0.006 A 
ENDBRANCH  45  66
BRANCH  57  74
ATOM     74  C   UNL A   1      44.047  28.396  34.570  1.00  0.00     0.057 A 
ATOM     75  C   UNL A   1      45.394  28.706  34.343  1.00  0.00     0.134 A 
ATOM     76  C   UNL A   1      43.764  27.308  35.407  1.00  0.00     0.134 A 
ATOM     77  F   UNL A   1      45.730  29.728  33.541  1.00  0.00    -0.206 F 
ATOM     78  C   UNL A   1      46.421  27.948  34.906  1.00  0.00     0.040 A 
ATOM     79  C   UNL A   1      44.782  26.559  35.997  1.00  0.00     0.040 A 
ATOM     80  F   UNL A   1      42.495  26.965  35.672  1.00  0.00    -0.206 F 
ATOM     81  C   UNL A   1      46.115  26.873  35.739  1.00  0.00     0.006 A 
ENDBRANCH  57  74
ENDBRANCH  31  32
ENDBRANCH  23  26
ENDBRANCH  21  22
ENDBRANCH  20  21
ENDBRANCH  19  20
ENDBRANCH   1  19
TORSDOF 15
ENDMDL
