MODEL 1
REMARK VINA RESULT:     -11.2      0.000      0.000
REMARK SMILES CC(C)[C@@H](NS(=O)(=O)c1ccc(Cl)c([N+](=O)[O-])c1)C(=O)NCCCCNC(=O)c1ccc(-c2c3nc(c(-c4c(F)cccc4F)c4ccc([nH]4)c(-c4c(F)cccc4F)c4nc(c(-c5c(F)cccc5F)c5ccc2[nH]5)C=C4)C=C3)cc1
REMARK SMILES IDX 22 1 21 2 19 3 20 4 4 6 2 7 1 8 3 9 5 10 6 12 7 13 8 14 9 15
REMARK SMILES IDX 10 16 18 17 11 18 14 19 12 20 13 21 15 22 16 23 17 24 23 25
REMARK SMILES IDX 24 26 25 27 26 28 27 29 28 31 29 32 30 33 82 34 31 35 81 36
REMARK SMILES IDX 32 37 33 38 34 39 75 40 35 41 80 42 74 43 76 44 36 45 79 46
REMARK SMILES IDX 73 47 72 48 37 50 63 51 46 52 62 53 47 54 50 55 61 56 77 57
REMARK SMILES IDX 48 58 49 59 60 61 78 62 51 63 38 64 39 65 44 66 40 67 41 68
REMARK SMILES IDX 43 69 45 70 42 71 64 72 65 73 70 74 66 75 67 76 69 77 71 78
REMARK SMILES IDX 68 79 52 80 53 81 58 82 54 83 55 84 57 85 59 86 56 87
REMARK H PARENT 21 5 5 11 26 30 76 49 50 60
REMARK Flexibility Score: inf
ROOT
ATOM      1  C   UNL A   1      31.445  29.623  25.110  1.00  0.00     0.116 C 
ENDROOT
BRANCH   1   2
ATOM      2  N   UNL A   1      30.856  29.660  23.776  1.00  0.00    -0.355 N 
ATOM      3  C   UNL A   1      30.600  28.628  22.910  1.00  0.00     0.238 C 
ATOM      4  O   UNL A   1      29.851  28.834  21.953  1.00  0.00    -0.273 OA
ATOM      5  H   UNL A   1      30.607  30.555  23.451  1.00  0.00     0.163 HD
BRANCH   3   6
ATOM      6  C   UNL A   1      31.206  27.241  23.153  1.00  0.00     0.161 C 
BRANCH   6   7
ATOM      7  C   UNL A   1      30.255  26.387  24.041  1.00  0.00     0.010 C 
ATOM      8  C   UNL A   1      29.962  25.008  23.449  1.00  0.00     0.009 C 
ATOM      9  C   UNL A   1      30.822  26.211  25.461  1.00  0.00     0.009 C 
ENDBRANCH   6   7
BRANCH   6  10
ATOM     10  N   UNL A   1      31.483  26.636  21.811  1.00  0.00    -0.198 NA
ATOM     11  H   UNL A   1      31.269  27.352  21.117  1.00  0.00     0.142 HD
BRANCH  10  12
ATOM     12  S   UNL A   1      33.026  26.045  21.444  1.00  0.00     0.241 S 
ATOM     13  O   UNL A   1      33.016  25.590  20.069  1.00  0.00    -0.207 OA
ATOM     14  O   UNL A   1      33.924  27.081  21.890  1.00  0.00    -0.207 OA
BRANCH  12  15
ATOM     15  C   UNL A   1      33.393  24.630  22.466  1.00  0.00     0.089 A 
ATOM     16  C   UNL A   1      32.970  23.371  22.031  1.00  0.00     0.024 A 
ATOM     17  C   UNL A   1      34.054  24.728  23.683  1.00  0.00     0.109 A 
ATOM     18  C   UNL A   1      33.147  22.244  22.850  1.00  0.00     0.029 A 
ATOM     19  C   UNL A   1      34.178  23.614  24.533  1.00  0.00     0.289 A 
ATOM     20  C   UNL A   1      33.719  22.361  24.125  1.00  0.00     0.118 A 
ATOM     21  Cl  UNL A   1      33.758  20.934  25.093  1.00  0.00    -0.077 Cl
BRANCH  19  22
ATOM     22  N   UNL A   1      34.797  23.839  25.839  1.00  0.00     0.064 N 
ATOM     23  O   UNL A   1      36.027  24.012  25.860  1.00  0.00    -0.258 OA
ATOM     24  O   UNL A   1      34.095  23.745  26.851  1.00  0.00    -0.258 OA
ENDBRANCH  19  22
ENDBRANCH  12  15
ENDBRANCH  10  12
ENDBRANCH   6  10
ENDBRANCH   3   6
ENDBRANCH   1   2
BRANCH   1  25
ATOM     25  C   UNL A   1      32.961  29.711  25.074  1.00  0.00     0.023 C 
BRANCH  25  26
ATOM     26  C   UNL A   1      33.661  28.515  25.718  1.00  0.00     0.023 C 
BRANCH  26  27
ATOM     27  C   UNL A   1      33.842  28.615  27.230  1.00  0.00     0.116 C 
BRANCH  27  28
ATOM     28  N   UNL A   1      33.784  29.990  27.707  1.00  0.00    -0.352 N 
ATOM     29  C   UNL A   1      34.734  30.705  28.394  1.00  0.00     0.251 C 
ATOM     30  H   UNL A   1      32.949  30.473  27.509  1.00  0.00     0.163 HD
ATOM     31  O   UNL A   1      34.454  31.791  28.891  1.00  0.00    -0.269 OA
BRANCH  29  32
ATOM     32  C   UNL A   1      36.092  30.147  28.549  1.00  0.00     0.039 A 
ATOM     33  C   UNL A   1      36.973  30.194  27.466  1.00  0.00     0.014 A 
ATOM     34  C   UNL A   1      36.496  29.590  29.766  1.00  0.00     0.014 A 
ATOM     35  C   UNL A   1      38.284  29.739  27.624  1.00  0.00     0.010 A 
ATOM     36  C   UNL A   1      37.820  29.202  29.942  1.00  0.00     0.010 A 
ATOM     37  C   UNL A   1      38.726  29.270  28.872  1.00  0.00    -0.014 A 
BRANCH  37  38
ATOM     38  C   UNL A   1      40.130  28.837  29.079  1.00  0.00     0.031 A 
ATOM     39  C   UNL A   1      41.130  29.787  29.676  1.00  0.00     0.074 A 
ATOM     40  C   UNL A   1      40.519  27.613  28.672  1.00  0.00     0.049 A 
ATOM     41  N   UNL A   1      42.415  29.627  29.864  1.00  0.00    -0.248 NA
ATOM     42  C   UNL A   1      40.622  31.103  30.097  1.00  0.00     0.031 C 
ATOM     43  C   UNL A   1      39.655  26.615  28.040  1.00  0.00     0.029 A 
ATOM     44  N   UNL A   1      41.749  27.006  28.717  1.00  0.00    -0.354 N 
ATOM     45  C   UNL A   1      42.870  30.820  30.408  1.00  0.00     0.074 A 
ATOM     46  C   UNL A   1      41.734  31.714  30.477  1.00  0.00     0.031 C 
ATOM     47  C   UNL A   1      40.377  25.514  27.775  1.00  0.00     0.029 A 
ATOM     48  C   UNL A   1      41.760  25.742  28.181  1.00  0.00     0.049 A 
ATOM     49  H   UNL A   1      42.549  27.436  29.099  1.00  0.00     0.167 HD
ATOM     50  C   UNL A   1      44.115  31.136  30.833  1.00  0.00     0.037 A 
ATOM     51  C   UNL A   1      42.773  24.869  28.026  1.00  0.00     0.037 A 
ATOM     52  C   UNL A   1      45.239  30.239  30.786  1.00  0.00     0.049 A 
ATOM     53  C   UNL A   1      44.151  25.249  28.497  1.00  0.00     0.074 A 
ATOM     54  C   UNL A   1      46.530  30.448  31.240  1.00  0.00     0.029 A 
ATOM     55  N   UNL A   1      45.205  28.959  30.252  1.00  0.00    -0.354 N 
ATOM     56  N   UNL A   1      44.552  26.359  29.067  1.00  0.00    -0.248 NA
ATOM     57  C   UNL A   1      45.213  24.252  28.309  1.00  0.00     0.031 C 
ATOM     58  C   UNL A   1      47.286  29.309  30.948  1.00  0.00     0.029 A 
ATOM     59  C   UNL A   1      46.456  28.373  30.352  1.00  0.00     0.049 A 
ATOM     60  H   UNL A   1      44.409  28.532  29.861  1.00  0.00     0.167 HD
ATOM     61  C   UNL A   1      45.904  26.183  29.331  1.00  0.00     0.074 A 
ATOM     62  C   UNL A   1      46.251  24.854  28.872  1.00  0.00     0.031 C 
ATOM     63  C   UNL A   1      46.780  27.044  29.904  1.00  0.00     0.037 A 
BRANCH  50  64
ATOM     64  C   UNL A   1      44.326  32.510  31.398  1.00  0.00     0.057 A 
ATOM     65  C   UNL A   1      44.190  32.772  32.768  1.00  0.00     0.134 A 
ATOM     66  C   UNL A   1      44.707  33.575  30.571  1.00  0.00     0.134 A 
ATOM     67  F   UNL A   1      43.815  31.799  33.612  1.00  0.00    -0.206 F 
ATOM     68  C   UNL A   1      44.402  34.048  33.292  1.00  0.00     0.040 A 
ATOM     69  C   UNL A   1      44.947  34.849  31.088  1.00  0.00     0.040 A 
ATOM     70  F   UNL A   1      44.861  33.392  29.251  1.00  0.00    -0.206 F 
ATOM     71  C   UNL A   1      44.789  35.090  32.451  1.00  0.00     0.006 A 
ENDBRANCH  50  64
BRANCH  51  72
ATOM     72  C   UNL A   1      42.527  23.539  27.414  1.00  0.00     0.057 A 
ATOM     73  C   UNL A   1      42.616  23.356  26.030  1.00  0.00     0.134 A 
ATOM     74  C   UNL A   1      42.176  22.429  28.191  1.00  0.00     0.134 A 
ATOM     75  F   UNL A   1      42.929  24.387  25.232  1.00  0.00    -0.206 F 
ATOM     76  C   UNL A   1      42.345  22.122  25.437  1.00  0.00     0.040 A 
ATOM     77  C   UNL A   1      41.926  21.183  27.613  1.00  0.00     0.040 A 
ATOM     78  F   UNL A   1      42.078  22.537  29.525  1.00  0.00    -0.206 F 
ATOM     79  C   UNL A   1      42.002  21.030  26.230  1.00  0.00     0.006 A 
ENDBRANCH  51  72
BRANCH  63  80
ATOM     80  C   UNL A   1      48.186  26.560  30.106  1.00  0.00     0.057 A 
ATOM     81  C   UNL A   1      49.189  26.782  29.154  1.00  0.00     0.134 A 
ATOM     82  C   UNL A   1      48.547  25.897  31.285  1.00  0.00     0.134 A 
ATOM     83  F   UNL A   1      48.904  27.400  27.997  1.00  0.00    -0.206 F 
ATOM     84  C   UNL A   1      50.498  26.343  29.360  1.00  0.00     0.040 A 
ATOM     85  C   UNL A   1      49.857  25.476  31.513  1.00  0.00     0.040 A 
ATOM     86  F   UNL A   1      47.635  25.661  32.240  1.00  0.00    -0.206 F 
ATOM     87  C   UNL A   1      50.837  25.694  30.546  1.00  0.00     0.006 A 
ENDBRANCH  63  80
ENDBRANCH  37  38
ENDBRANCH  29  32
ENDBRANCH  27  28
ENDBRANCH  26  27
ENDBRANCH  25  26
ENDBRANCH   1  25
TORSDOF 16
ENDMDL
MODEL 2
REMARK VINA RESULT:     -11.0      1.589      3.428
REMARK SMILES CC(C)[C@@H](NS(=O)(=O)c1ccc(Cl)c([N+](=O)[O-])c1)C(=O)NCCCCNC(=O)c1ccc(-c2c3nc(c(-c4c(F)cccc4F)c4ccc([nH]4)c(-c4c(F)cccc4F)c4nc(c(-c5c(F)cccc5F)c5ccc2[nH]5)C=C4)C=C3)cc1
REMARK SMILES IDX 22 1 21 2 19 3 20 4 4 6 2 7 1 8 3 9 5 10 6 12 7 13 8 14 9 15
REMARK SMILES IDX 10 16 18 17 11 18 14 19 12 20 13 21 15 22 16 23 17 24 23 25
REMARK SMILES IDX 24 26 25 27 26 28 27 29 28 31 29 32 30 33 82 34 31 35 81 36
REMARK SMILES IDX 32 37 33 38 34 39 75 40 35 41 80 42 74 43 76 44 36 45 79 46
REMARK SMILES IDX 73 47 72 48 37 50 63 51 46 52 62 53 47 54 50 55 61 56 77 57
REMARK SMILES IDX 48 58 49 59 60 61 78 62 51 63 38 64 39 65 44 66 40 67 41 68
REMARK SMILES IDX 43 69 45 70 42 71 64 72 65 73 70 74 66 75 67 76 69 77 71 78
REMARK SMILES IDX 68 79 52 80 53 81 58 82 54 83 55 84 57 85 59 86 56 87
REMARK H PARENT 21 5 5 11 26 30 76 49 50 60
REMARK Flexibility Score: inf
ROOT
ATOM      1  C   UNL A   1      34.255  25.545  25.463  1.00  0.00     0.116 C 
ENDROOT
BRANCH   1   2
ATOM      2  N   UNL A   1      34.043  24.435  26.384  1.00  0.00    -0.355 N 
ATOM      3  C   UNL A   1      34.336  23.104  26.224  1.00  0.00     0.238 C 
ATOM      4  O   UNL A   1      34.335  22.377  27.220  1.00  0.00    -0.273 OA
ATOM      5  H   UNL A   1      33.630  24.675  27.245  1.00  0.00     0.163 HD
BRANCH   3   6
ATOM      6  C   UNL A   1      34.692  22.548  24.842  1.00  0.00     0.161 C 
BRANCH   6   7
ATOM      7  C   UNL A   1      36.225  22.296  24.743  1.00  0.00     0.010 C 
ATOM      8  C   UNL A   1      36.605  20.830  24.957  1.00  0.00     0.009 C 
ATOM      9  C   UNL A   1      36.782  22.763  23.386  1.00  0.00     0.009 C 
ENDBRANCH   6   7
BRANCH   6  10
ATOM     10  N   UNL A   1      33.865  21.317  24.631  1.00  0.00    -0.198 NA
ATOM     11  H   UNL A   1      33.808  20.844  25.533  1.00  0.00     0.142 HD
BRANCH  10  12
ATOM     12  S   UNL A   1      32.281  21.443  24.046  1.00  0.00     0.241 S 
ATOM     13  O   UNL A   1      32.188  20.657  22.833  1.00  0.00    -0.207 OA
ATOM     14  O   UNL A   1      31.451  21.167  25.192  1.00  0.00    -0.207 OA
BRANCH  12  15
ATOM     15  C   UNL A   1      31.931  23.137  23.607  1.00  0.00     0.089 A 
ATOM     16  C   UNL A   1      30.832  23.762  24.202  1.00  0.00     0.024 A 
ATOM     17  C   UNL A   1      32.684  23.848  22.684  1.00  0.00     0.109 A 
ATOM     18  C   UNL A   1      30.459  25.058  23.812  1.00  0.00     0.029 A 
ATOM     19  C   UNL A   1      32.279  25.123  22.245  1.00  0.00     0.289 A 
ATOM     20  C   UNL A   1      31.156  25.736  22.803  1.00  0.00     0.118 A 
ATOM     21  Cl  UNL A   1      30.523  27.264  22.312  1.00  0.00    -0.077 Cl
BRANCH  19  22
ATOM     22  N   UNL A   1      33.079  25.750  21.193  1.00  0.00     0.064 N 
ATOM     23  O   UNL A   1      33.866  26.647  21.539  1.00  0.00    -0.258 OA
ATOM     24  O   UNL A   1      32.864  25.434  20.018  1.00  0.00    -0.258 OA
ENDBRANCH  19  22
ENDBRANCH  12  15
ENDBRANCH  10  12
ENDBRANCH   6  10
ENDBRANCH   3   6
ENDBRANCH   1   2
BRANCH   1  25
ATOM     25  C   UNL A   1      33.254  26.668  25.673  1.00  0.00     0.023 C 
BRANCH  25  26
ATOM     26  C   UNL A   1      33.893  27.986  26.110  1.00  0.00     0.023 C 
BRANCH  26  27
ATOM     27  C   UNL A   1      33.534  28.436  27.524  1.00  0.00     0.116 C 
BRANCH  27  28
ATOM     28  N   UNL A   1      33.531  29.886  27.662  1.00  0.00    -0.352 N 
ATOM     29  C   UNL A   1      34.529  30.710  28.122  1.00  0.00     0.251 C 
ATOM     30  H   UNL A   1      32.699  30.336  27.389  1.00  0.00     0.163 HD
ATOM     31  O   UNL A   1      34.297  31.891  28.357  1.00  0.00    -0.269 OA
BRANCH  29  32
ATOM     32  C   UNL A   1      35.879  30.158  28.350  1.00  0.00     0.039 A 
ATOM     33  C   UNL A   1      36.799  30.157  27.298  1.00  0.00     0.014 A 
ATOM     34  C   UNL A   1      36.237  29.656  29.604  1.00  0.00     0.014 A 
ATOM     35  C   UNL A   1      38.102  29.709  27.524  1.00  0.00     0.010 A 
ATOM     36  C   UNL A   1      37.553  29.276  29.846  1.00  0.00     0.010 A 
ATOM     37  C   UNL A   1      38.497  29.295  28.807  1.00  0.00    -0.014 A 
BRANCH  37  38
ATOM     38  C   UNL A   1      39.892  28.871  29.084  1.00  0.00     0.031 A 
ATOM     39  C   UNL A   1      40.847  29.818  29.756  1.00  0.00     0.074 A 
ATOM     40  C   UNL A   1      40.317  27.660  28.674  1.00  0.00     0.049 A 
ATOM     41  N   UNL A   1      42.121  29.665  30.013  1.00  0.00    -0.248 NA
ATOM     42  C   UNL A   1      40.302  31.119  30.175  1.00  0.00     0.031 C 
ATOM     43  C   UNL A   1      39.500  26.667  27.974  1.00  0.00     0.029 A 
ATOM     44  N   UNL A   1      41.549  27.064  28.776  1.00  0.00    -0.354 N 
ATOM     45  C   UNL A   1      42.532  30.850  30.606  1.00  0.00     0.074 A 
ATOM     46  C   UNL A   1      41.385  31.732  30.630  1.00  0.00     0.031 C 
ATOM     47  C   UNL A   1      40.247  25.579  27.726  1.00  0.00     0.029 A 
ATOM     48  C   UNL A   1      41.603  25.811  28.214  1.00  0.00     0.049 A 
ATOM     49  H   UNL A   1      42.321  27.493  29.211  1.00  0.00     0.167 HD
ATOM     50  C   UNL A   1      43.748  31.169  31.108  1.00  0.00     0.037 A 
ATOM     51  C   UNL A   1      42.632  24.951  28.099  1.00  0.00     0.037 A 
ATOM     52  C   UNL A   1      44.882  30.284  31.106  1.00  0.00     0.049 A 
ATOM     53  C   UNL A   1      43.977  25.334  28.655  1.00  0.00     0.074 A 
ATOM     54  C   UNL A   1      46.143  30.495  31.636  1.00  0.00     0.029 A 
ATOM     55  N   UNL A   1      44.892  29.015  30.544  1.00  0.00    -0.354 N 
ATOM     56  N   UNL A   1      44.334  26.436  29.269  1.00  0.00    -0.248 NA
ATOM     57  C   UNL A   1      45.058  24.352  28.505  1.00  0.00     0.031 C 
ATOM     58  C   UNL A   1      46.927  29.370  31.363  1.00  0.00     0.029 A 
ATOM     59  C   UNL A   1      46.141  28.439  30.702  1.00  0.00     0.049 A 
ATOM     60  H   UNL A   1      44.124  28.589  30.100  1.00  0.00     0.167 HD
ATOM     61  C   UNL A   1      45.671  26.267  29.606  1.00  0.00     0.074 A 
ATOM     62  C   UNL A   1      46.057  24.951  29.139  1.00  0.00     0.031 C 
ATOM     63  C   UNL A   1      46.504  27.123  30.245  1.00  0.00     0.037 A 
BRANCH  50  64
ATOM     64  C   UNL A   1      43.912  32.532  31.712  1.00  0.00     0.057 A 
ATOM     65  C   UNL A   1      43.683  32.767  33.075  1.00  0.00     0.134 A 
ATOM     66  C   UNL A   1      44.341  33.616  30.934  1.00  0.00     0.134 A 
ATOM     67  F   UNL A   1      43.259  31.775  33.873  1.00  0.00    -0.206 F 
ATOM     68  C   UNL A   1      43.851  34.033  33.637  1.00  0.00     0.040 A 
ATOM     69  C   UNL A   1      44.538  34.881  31.490  1.00  0.00     0.040 A 
ATOM     70  F   UNL A   1      44.584  33.459  29.624  1.00  0.00    -0.206 F 
ATOM     71  C   UNL A   1      44.288  35.093  32.845  1.00  0.00     0.006 A 
ENDBRANCH  50  64
BRANCH  51  72
ATOM     72  C   UNL A   1      42.435  23.633  27.446  1.00  0.00     0.057 A 
ATOM     73  C   UNL A   1      42.126  22.495  28.202  1.00  0.00     0.134 A 
ATOM     74  C   UNL A   1      42.569  23.472  26.063  1.00  0.00     0.134 A 
ATOM     75  F   UNL A   1      42.004  22.583  29.534  1.00  0.00    -0.206 F 
ATOM     76  C   UNL A   1      41.981  21.241  27.607  1.00  0.00     0.040 A 
ATOM     77  C   UNL A   1      42.402  22.228  25.452  1.00  0.00     0.040 A 
ATOM     78  F   UNL A   1      42.858  24.525  25.282  1.00  0.00    -0.206 F 
ATOM     79  C   UNL A   1      42.115  21.106  26.227  1.00  0.00     0.006 A 
ENDBRANCH  51  72
BRANCH  63  80
ATOM     80  C   UNL A   1      47.901  26.648  30.515  1.00  0.00     0.057 A 
ATOM     81  C   UNL A   1      48.234  25.960  31.689  1.00  0.00     0.134 A 
ATOM     82  C   UNL A   1      48.916  26.849  29.571  1.00  0.00     0.134 A 
ATOM     83  F   UNL A   1      47.310  25.747  32.638  1.00  0.00    -0.206 F 
ATOM     84  C   UNL A   1      49.534  25.507  31.923  1.00  0.00     0.040 A 
ATOM     85  C   UNL A   1      50.212  26.379  29.783  1.00  0.00     0.040 A 
ATOM     86  F   UNL A   1      48.660  27.494  28.423  1.00  0.00    -0.206 F 
ATOM     87  C   UNL A   1      50.526  25.710  30.965  1.00  0.00     0.006 A 
ENDBRANCH  63  80
ENDBRANCH  37  38
ENDBRANCH  29  32
ENDBRANCH  27  28
ENDBRANCH  26  27
ENDBRANCH  25  26
ENDBRANCH   1  25
TORSDOF 16
ENDMDL
MODEL 3
REMARK VINA RESULT:     -10.8      3.671      5.026
REMARK SMILES CC(C)[C@@H](NS(=O)(=O)c1ccc(Cl)c([N+](=O)[O-])c1)C(=O)NCCCCNC(=O)c1ccc(-c2c3nc(c(-c4c(F)cccc4F)c4ccc([nH]4)c(-c4c(F)cccc4F)c4nc(c(-c5c(F)cccc5F)c5ccc2[nH]5)C=C4)C=C3)cc1
REMARK SMILES IDX 22 1 21 2 19 3 20 4 4 6 2 7 1 8 3 9 5 10 6 12 7 13 8 14 9 15
REMARK SMILES IDX 10 16 18 17 11 18 14 19 12 20 13 21 15 22 16 23 17 24 23 25
REMARK SMILES IDX 24 26 25 27 26 28 27 29 28 31 29 32 30 33 82 34 31 35 81 36
REMARK SMILES IDX 32 37 33 38 34 39 75 40 35 41 80 42 74 43 76 44 36 45 79 46
REMARK SMILES IDX 73 47 72 48 37 50 63 51 46 52 62 53 47 54 50 55 61 56 77 57
REMARK SMILES IDX 48 58 49 59 60 61 78 62 51 63 38 64 39 65 44 66 40 67 41 68
REMARK SMILES IDX 43 69 45 70 42 71 64 72 65 73 70 74 66 75 67 76 69 77 71 78
REMARK SMILES IDX 68 79 52 80 53 81 58 82 54 83 55 84 57 85 59 86 56 87
REMARK H PARENT 21 5 5 11 26 30 76 49 50 60
REMARK Flexibility Score: inf
ROOT
ATOM      1  C   UNL A   1      32.809  30.028  25.918  1.00  0.00     0.116 C 
ENDROOT
BRANCH   1   2
ATOM      2  N   UNL A   1      33.175  29.663  24.555  1.00  0.00    -0.355 N 
ATOM      3  C   UNL A   1      32.553  28.798  23.690  1.00  0.00     0.238 C 
ATOM      4  O   UNL A   1      32.859  28.838  22.497  1.00  0.00    -0.273 OA
ATOM      5  H   UNL A   1      33.986  30.099  24.205  1.00  0.00     0.163 HD
BRANCH   3   6
ATOM      6  C   UNL A   1      31.475  27.834  24.196  1.00  0.00     0.161 C 
BRANCH   6   7
ATOM      7  C   UNL A   1      30.244  27.856  23.244  1.00  0.00     0.010 C 
ATOM      8  C   UNL A   1      29.161  26.853  23.643  1.00  0.00     0.009 C 
ATOM      9  C   UNL A   1      29.620  29.261  23.167  1.00  0.00     0.009 C 
ENDBRANCH   6   7
BRANCH   6  10
ATOM     10  N   UNL A   1      32.112  26.485  24.326  1.00  0.00    -0.198 NA
ATOM     11  H   UNL A   1      32.868  26.451  23.643  1.00  0.00     0.142 HD
BRANCH  10  12
ATOM     12  S   UNL A   1      32.769  25.991  25.806  1.00  0.00     0.241 S 
ATOM     13  O   UNL A   1      33.896  26.850  26.105  1.00  0.00    -0.207 OA
ATOM     14  O   UNL A   1      31.634  25.898  26.690  1.00  0.00    -0.207 OA
BRANCH  12  15
ATOM     15  C   UNL A   1      33.396  24.326  25.666  1.00  0.00     0.089 A 
ATOM     16  C   UNL A   1      34.714  24.079  26.059  1.00  0.00     0.024 A 
ATOM     17  C   UNL A   1      32.642  23.276  25.161  1.00  0.00     0.109 A 
ATOM     18  C   UNL A   1      35.281  22.808  25.872  1.00  0.00     0.029 A 
ATOM     19  C   UNL A   1      33.224  22.018  24.915  1.00  0.00     0.289 A 
ATOM     20  C   UNL A   1      34.553  21.776  25.264  1.00  0.00     0.118 A 
ATOM     21  Cl  UNL A   1      35.398  20.302  24.962  1.00  0.00    -0.077 Cl
BRANCH  19  22
ATOM     22  N   UNL A   1      32.378  21.005  24.284  1.00  0.00     0.064 N 
ATOM     23  O   UNL A   1      31.985  20.069  25.000  1.00  0.00    -0.258 OA
ATOM     24  O   UNL A   1      32.182  21.073  23.065  1.00  0.00    -0.258 OA
ENDBRANCH  19  22
ENDBRANCH  12  15
ENDBRANCH  10  12
ENDBRANCH   6  10
ENDBRANCH   3   6
ENDBRANCH   1   2
BRANCH   1  25
ATOM     25  C   UNL A   1      31.447  30.699  25.989  1.00  0.00     0.023 C 
BRANCH  25  26
ATOM     26  C   UNL A   1      31.406  31.908  26.922  1.00  0.00     0.023 C 
BRANCH  26  27
ATOM     27  C   UNL A   1      32.724  32.668  27.046  1.00  0.00     0.116 C 
BRANCH  27  28
ATOM     28  N   UNL A   1      32.536  34.033  27.518  1.00  0.00    -0.352 N 
ATOM     29  C   UNL A   1      33.154  34.676  28.563  1.00  0.00     0.251 C 
ATOM     30  H   UNL A   1      31.875  34.568  27.021  1.00  0.00     0.163 HD
ATOM     31  O   UNL A   1      32.743  35.765  28.951  1.00  0.00    -0.269 OA
BRANCH  29  32
ATOM     32  C   UNL A   1      34.306  34.037  29.230  1.00  0.00     0.039 A 
ATOM     33  C   UNL A   1      34.072  33.076  30.216  1.00  0.00     0.014 A 
ATOM     34  C   UNL A   1      35.612  34.379  28.870  1.00  0.00     0.014 A 
ATOM     35  C   UNL A   1      35.153  32.410  30.798  1.00  0.00     0.010 A 
ATOM     36  C   UNL A   1      36.683  33.667  29.400  1.00  0.00     0.010 A 
ATOM     37  C   UNL A   1      36.464  32.678  30.371  1.00  0.00    -0.014 A 
BRANCH  37  38
ATOM     38  C   UNL A   1      37.622  31.941  30.933  1.00  0.00     0.031 A 
ATOM     39  C   UNL A   1      38.171  32.317  32.281  1.00  0.00     0.074 A 
ATOM     40  C   UNL A   1      38.220  30.977  30.205  1.00  0.00     0.049 A 
ATOM     41  N   UNL A   1      39.221  31.850  32.908  1.00  0.00    -0.248 NA
ATOM     42  C   UNL A   1      37.458  33.378  33.012  1.00  0.00     0.031 C 
ATOM     43  C   UNL A   1      37.809  30.548  28.867  1.00  0.00     0.029 A 
ATOM     44  N   UNL A   1      39.311  30.193  30.485  1.00  0.00    -0.354 N 
ATOM     45  C   UNL A   1      39.303  32.566  34.094  1.00  0.00     0.074 A 
ATOM     46  C   UNL A   1      38.226  33.533  34.080  1.00  0.00     0.031 C 
ATOM     47  C   UNL A   1      38.626  29.566  28.451  1.00  0.00     0.029 A 
ATOM     48  C   UNL A   1      39.638  29.323  29.473  1.00  0.00     0.049 A 
ATOM     49  H   UNL A   1      39.812  30.248  31.331  1.00  0.00     0.167 HD
ATOM     50  C   UNL A   1      40.180  32.417  35.114  1.00  0.00     0.037 A 
ATOM     51  C   UNL A   1      40.647  28.437  29.378  1.00  0.00     0.037 A 
ATOM     52  C   UNL A   1      41.236  31.441  35.137  1.00  0.00     0.049 A 
ATOM     53  C   UNL A   1      41.616  28.299  30.521  1.00  0.00     0.074 A 
ATOM     54  C   UNL A   1      42.146  31.178  36.147  1.00  0.00     0.029 A 
ATOM     55  N   UNL A   1      41.524  30.565  34.101  1.00  0.00    -0.354 N 
ATOM     56  N   UNL A   1      41.644  28.941  31.664  1.00  0.00    -0.248 NA
ATOM     57  C   UNL A   1      42.690  27.309  30.362  1.00  0.00     0.031 C 
ATOM     58  C   UNL A   1      43.008  30.168  35.707  1.00  0.00     0.029 A 
ATOM     59  C   UNL A   1      42.606  29.771  34.441  1.00  0.00     0.049 A 
ATOM     60  H   UNL A   1      41.031  30.516  33.250  1.00  0.00     0.167 HD
ATOM     61  C   UNL A   1      42.716  28.413  32.370  1.00  0.00     0.074 A 
ATOM     62  C   UNL A   1      43.305  27.389  31.533  1.00  0.00     0.031 C 
ATOM     63  C   UNL A   1      43.172  28.746  33.602  1.00  0.00     0.037 A 
BRANCH  50  64
ATOM     64  C   UNL A   1      40.029  33.329  36.296  1.00  0.00     0.057 A 
ATOM     65  C   UNL A   1      40.721  34.545  36.382  1.00  0.00     0.134 A 
ATOM     66  C   UNL A   1      39.152  33.010  37.341  1.00  0.00     0.134 A 
ATOM     67  F   UNL A   1      41.585  34.904  35.421  1.00  0.00    -0.206 F 
ATOM     68  C   UNL A   1      40.565  35.398  37.475  1.00  0.00     0.040 A 
ATOM     69  C   UNL A   1      38.969  33.867  38.427  1.00  0.00     0.040 A 
ATOM     70  F   UNL A   1      38.454  31.864  37.319  1.00  0.00    -0.206 F 
ATOM     71  C   UNL A   1      39.680  35.063  38.498  1.00  0.00     0.006 A 
ENDBRANCH  50  64
BRANCH  51  72
ATOM     72  C   UNL A   1      40.787  27.592  28.166  1.00  0.00     0.057 A 
ATOM     73  C   UNL A   1      41.523  28.036  27.061  1.00  0.00     0.134 A 
ATOM     74  C   UNL A   1      40.176  26.337  28.073  1.00  0.00     0.134 A 
ATOM     75  F   UNL A   1      42.115  29.238  27.083  1.00  0.00    -0.206 F 
ATOM     76  C   UNL A   1      41.627  27.271  25.898  1.00  0.00     0.040 A 
ATOM     77  C   UNL A   1      40.292  25.551  26.925  1.00  0.00     0.040 A 
ATOM     78  F   UNL A   1      39.461  25.852  29.099  1.00  0.00    -0.206 F 
ATOM     79  C   UNL A   1      41.013  26.022  25.829  1.00  0.00     0.006 A 
ENDBRANCH  51  72
BRANCH  63  80
ATOM     80  C   UNL A   1      44.337  27.967  34.137  1.00  0.00     0.057 A 
ATOM     81  C   UNL A   1      45.657  28.405  33.975  1.00  0.00     0.134 A 
ATOM     82  C   UNL A   1      44.130  26.783  34.856  1.00  0.00     0.134 A 
ATOM     83  F   UNL A   1      45.922  29.524  33.285  1.00  0.00    -0.206 F 
ATOM     84  C   UNL A   1      46.733  27.681  34.492  1.00  0.00     0.040 A 
ATOM     85  C   UNL A   1      45.195  26.065  35.399  1.00  0.00     0.040 A 
ATOM     86  F   UNL A   1      42.889  26.314  35.054  1.00  0.00    -0.206 F 
ATOM     87  C   UNL A   1      46.503  26.511  35.213  1.00  0.00     0.006 A 
ENDBRANCH  63  80
ENDBRANCH  37  38
ENDBRANCH  29  32
ENDBRANCH  27  28
ENDBRANCH  26  27
ENDBRANCH  25  26
ENDBRANCH   1  25
TORSDOF 16
ENDMDL
