MODEL 1
REMARK VINA RESULT:     -12.7      0.000      0.000
REMARK SMILES Cc1[nH]c2ccccc2c1/C=C1/SC(=S)N(c2cccc(C(=O)NCCCCNC(=O)c3ccc(-c4c5nc(c(-c6c(F)cccc6F)c6ccc([nH]6)c(-c6c(F)cccc6F)c6nc(c(-c7c(F)cccc7F)c7ccc4[nH]7)C=C6)C=C5)cc3)c2)C1=O
REMARK SMILES IDX 26 1 25 2 24 3 22 4 23 5 21 7 17 8 18 9 86 10 19 11 20 12
REMARK SMILES IDX 16 13 11 14 12 15 13 16 87 17 14 18 88 19 15 20 10 21 1 22
REMARK SMILES IDX 2 23 3 24 4 25 9 27 5 28 8 29 6 30 7 31 27 32 28 33 29 34
REMARK SMILES IDX 30 35 31 37 32 38 33 39 85 40 34 41 84 42 35 43 36 44 37 45
REMARK SMILES IDX 78 46 38 47 83 48 77 49 79 50 39 51 82 52 76 53 75 54 40 56
REMARK SMILES IDX 66 57 49 58 65 59 50 60 53 61 64 62 80 63 51 64 52 65 63 67
REMARK SMILES IDX 81 68 54 69 41 70 42 71 47 72 43 73 44 74 46 75 48 76 45 77
REMARK SMILES IDX 67 78 68 79 73 80 69 81 70 82 72 83 74 84 71 85 55 86 56 87
REMARK SMILES IDX 61 88 57 89 58 90 60 91 62 92 59 93
REMARK H PARENT 24 6 3 26 29 36 79 55 53 66
REMARK Flexibility Score: inf
ROOT
ATOM      1  C   UNL A   1      31.698  29.798  26.025  1.00  0.00     0.023 C 
ENDROOT
BRANCH   1   2
ATOM      2  C   UNL A   1      31.704  29.722  24.503  1.00  0.00     0.116 C 
BRANCH   2   3
ATOM      3  N   UNL A   1      33.026  29.664  23.902  1.00  0.00    -0.352 N 
ATOM      4  C   UNL A   1      33.629  28.694  23.130  1.00  0.00     0.251 C 
ATOM      5  O   UNL A   1      34.783  28.878  22.748  1.00  0.00    -0.269 OA
ATOM      6  H   UNL A   1      33.588  30.453  24.077  1.00  0.00     0.163 HD
BRANCH   4   7
ATOM      7  C   UNL A   1      32.953  27.409  22.808  1.00  0.00     0.041 A 
ATOM      8  C   UNL A   1      31.985  25.290  23.500  1.00  0.00     0.051 A 
ATOM      9  C   UNL A   1      32.060  24.850  22.170  1.00  0.00     0.027 A 
ATOM     10  C   UNL A   1      32.344  26.614  23.785  1.00  0.00     0.040 A 
ATOM     11  C   UNL A   1      32.525  25.693  21.160  1.00  0.00     0.003 A 
ATOM     12  C   UNL A   1      32.998  26.962  21.483  1.00  0.00     0.014 A 
BRANCH   8  13
ATOM     13  N   UNL A   1      31.779  24.356  24.569  1.00  0.00    -0.261 N 
ATOM     14  C   UNL A   1      33.196  21.553  26.454  1.00  0.00     0.032 C 
ATOM     15  C   UNL A   1      32.458  22.563  25.968  1.00  0.00     0.081 C 
ATOM     16  S   UNL A   1      31.156  23.277  26.837  1.00  0.00    -0.054 SA
ATOM     17  C   UNL A   1      32.647  23.263  24.664  1.00  0.00     0.270 C 
ATOM     18  C   UNL A   1      30.879  24.515  25.612  1.00  0.00     0.152 C 
ATOM     19  O   UNL A   1      33.502  22.945  23.848  1.00  0.00    -0.268 OA
ATOM     20  S   UNL A   1      29.623  25.608  25.785  1.00  0.00    -0.051 S 
BRANCH  14  21
ATOM     21  C   UNL A   1      34.312  20.939  25.813  1.00  0.00     0.004 A 
ATOM     22  C   UNL A   1      33.207  18.746  24.880  1.00  0.00     0.065 C 
ATOM     23  C   UNL A   1      34.290  19.728  25.145  1.00  0.00     0.020 A 
ATOM     24  N   UNL A   1      35.579  19.477  24.737  1.00  0.00    -0.358 N 
ATOM     25  C   UNL A   1      36.416  20.508  25.096  1.00  0.00     0.046 A 
ATOM     26  H   UNL A   1      35.864  18.668  24.254  1.00  0.00     0.166 HD
ATOM     27  C   UNL A   1      35.638  21.457  25.759  1.00  0.00     0.007 A 
ATOM     28  C   UNL A   1      37.792  20.663  24.894  1.00  0.00     0.027 A 
ATOM     29  C   UNL A   1      36.266  22.628  26.235  1.00  0.00     0.011 A 
ATOM     30  C   UNL A   1      38.391  21.829  25.379  1.00  0.00     0.002 A 
ATOM     31  C   UNL A   1      37.639  22.801  26.037  1.00  0.00     0.001 A 
ENDBRANCH  14  21
ENDBRANCH   8  13
ENDBRANCH   4   7
ENDBRANCH   2   3
ENDBRANCH   1   2
BRANCH   1  32
ATOM     32  C   UNL A   1      32.374  28.653  26.768  1.00  0.00     0.023 C 
BRANCH  32  33
ATOM     33  C   UNL A   1      33.737  28.956  27.376  1.00  0.00     0.116 C 
BRANCH  33  34
ATOM     34  N   UNL A   1      33.827  30.269  27.999  1.00  0.00    -0.352 N 
ATOM     35  C   UNL A   1      34.896  30.882  28.614  1.00  0.00     0.251 C 
ATOM     36  H   UNL A   1      32.998  30.799  27.976  1.00  0.00     0.163 HD
ATOM     37  O   UNL A   1      34.750  31.974  29.150  1.00  0.00    -0.269 OA
BRANCH  35  38
ATOM     38  C   UNL A   1      36.209  30.202  28.674  1.00  0.00     0.039 A 
ATOM     39  C   UNL A   1      37.028  30.222  27.542  1.00  0.00     0.014 A 
ATOM     40  C   UNL A   1      36.646  29.578  29.843  1.00  0.00     0.014 A 
ATOM     41  C   UNL A   1      38.323  29.703  27.613  1.00  0.00     0.010 A 
ATOM     42  C   UNL A   1      37.963  29.136  29.938  1.00  0.00     0.010 A 
ATOM     43  C   UNL A   1      38.819  29.204  28.828  1.00  0.00    -0.014 A 
BRANCH  43  44
ATOM     44  C   UNL A   1      40.232  28.765  28.966  1.00  0.00     0.031 A 
ATOM     45  C   UNL A   1      41.276  29.721  29.470  1.00  0.00     0.074 A 
ATOM     46  C   UNL A   1      40.591  27.532  28.555  1.00  0.00     0.049 A 
ATOM     47  N   UNL A   1      42.571  29.553  29.573  1.00  0.00    -0.248 NA
ATOM     48  C   UNL A   1      40.809  31.053  29.886  1.00  0.00     0.031 C 
ATOM     49  C   UNL A   1      39.685  26.526  27.995  1.00  0.00     0.029 A 
ATOM     50  N   UNL A   1      41.818  26.918  28.533  1.00  0.00    -0.354 N 
ATOM     51  C   UNL A   1      43.072  30.763  30.037  1.00  0.00     0.074 A 
ATOM     52  C   UNL A   1      41.951  31.669  30.155  1.00  0.00     0.031 C 
ATOM     53  C   UNL A   1      40.383  25.416  27.705  1.00  0.00     0.029 A 
ATOM     54  C   UNL A   1      41.789  25.642  28.023  1.00  0.00     0.049 A 
ATOM     55  H   UNL A   1      42.643  27.351  28.852  1.00  0.00     0.167 HD
ATOM     56  C   UNL A   1      44.349  31.083  30.355  1.00  0.00     0.037 A 
ATOM     57  C   UNL A   1      42.784  24.756  27.827  1.00  0.00     0.037 A 
ATOM     58  C   UNL A   1      45.458  30.169  30.279  1.00  0.00     0.049 A 
ATOM     59  C   UNL A   1      44.190  25.133  28.204  1.00  0.00     0.074 A 
ATOM     60  C   UNL A   1      46.771  30.375  30.662  1.00  0.00     0.029 A 
ATOM     61  N   UNL A   1      45.380  28.876  29.786  1.00  0.00    -0.354 N 
ATOM     62  N   UNL A   1      44.636  26.253  28.718  1.00  0.00    -0.248 NA
ATOM     63  C   UNL A   1      45.232  24.120  27.975  1.00  0.00     0.031 C 
ATOM     64  C   UNL A   1      47.500  29.218  30.364  1.00  0.00     0.029 A 
ATOM     65  C   UNL A   1      46.630  28.278  29.835  1.00  0.00     0.049 A 
ATOM     66  H   UNL A   1      44.561  28.446  29.451  1.00  0.00     0.167 HD
ATOM     67  C   UNL A   1      45.999  26.070  28.904  1.00  0.00     0.074 A 
ATOM     68  C   UNL A   1      46.307  24.727  28.458  1.00  0.00     0.031 C 
ATOM     69  C   UNL A   1      46.915  26.936  29.400  1.00  0.00     0.037 A 
BRANCH  56  70
ATOM     70  C   UNL A   1      44.616  32.484  30.825  1.00  0.00     0.057 A 
ATOM     71  C   UNL A   1      44.565  32.830  32.180  1.00  0.00     0.134 A 
ATOM     72  C   UNL A   1      44.967  33.487  29.913  1.00  0.00     0.134 A 
ATOM     73  F   UNL A   1      44.224  31.919  33.104  1.00  0.00    -0.206 F 
ATOM     74  C   UNL A   1      44.830  34.132  32.611  1.00  0.00     0.040 A 
ATOM     75  C   UNL A   1      45.259  34.786  30.334  1.00  0.00     0.040 A 
ATOM     76  F   UNL A   1      45.040  33.220  28.600  1.00  0.00    -0.206 F 
ATOM     77  C   UNL A   1      45.185  35.112  31.686  1.00  0.00     0.006 A 
ENDBRANCH  56  70
BRANCH  57  78
ATOM     78  C   UNL A   1      42.490  23.412  27.269  1.00  0.00     0.057 A 
ATOM     79  C   UNL A   1      42.088  22.360  28.103  1.00  0.00     0.134 A 
ATOM     80  C   UNL A   1      42.625  23.137  25.904  1.00  0.00     0.134 A 
ATOM     81  F   UNL A   1      41.961  22.558  29.424  1.00  0.00    -0.206 F 
ATOM     82  C   UNL A   1      41.853  21.079  27.602  1.00  0.00     0.040 A 
ATOM     83  C   UNL A   1      42.369  21.865  25.386  1.00  0.00     0.040 A 
ATOM     84  F   UNL A   1      43.001  24.102  25.053  1.00  0.00    -0.206 F 
ATOM     85  C   UNL A   1      41.991  20.831  26.239  1.00  0.00     0.006 A 
ENDBRANCH  57  78
BRANCH  69  86
ATOM     86  C   UNL A   1      48.327  26.445  29.525  1.00  0.00     0.057 A 
ATOM     87  C   UNL A   1      49.266  26.628  28.502  1.00  0.00     0.134 A 
ATOM     88  C   UNL A   1      48.760  25.815  30.699  1.00  0.00     0.134 A 
ATOM     89  F   UNL A   1      48.910  27.211  27.348  1.00  0.00    -0.206 F 
ATOM     90  C   UNL A   1      50.583  26.185  28.637  1.00  0.00     0.040 A 
ATOM     91  C   UNL A   1      50.080  25.390  30.854  1.00  0.00     0.040 A 
ATOM     92  F   UNL A   1      47.912  25.616  31.719  1.00  0.00    -0.206 F 
ATOM     93  C   UNL A   1      50.994  25.570  29.819  1.00  0.00     0.006 A 
ENDBRANCH  69  86
ENDBRANCH  43  44
ENDBRANCH  35  38
ENDBRANCH  33  34
ENDBRANCH  32  33
ENDBRANCH   1  32
TORSDOF 13
ENDMDL
MODEL 2
REMARK VINA RESULT:     -12.6      2.456      3.515
REMARK SMILES Cc1[nH]c2ccccc2c1/C=C1/SC(=S)N(c2cccc(C(=O)NCCCCNC(=O)c3ccc(-c4c5nc(c(-c6c(F)cccc6F)c6ccc([nH]6)c(-c6c(F)cccc6F)c6nc(c(-c7c(F)cccc7F)c7ccc4[nH]7)C=C6)C=C5)cc3)c2)C1=O
REMARK SMILES IDX 26 1 25 2 24 3 22 4 23 5 21 7 17 8 18 9 86 10 19 11 20 12
REMARK SMILES IDX 16 13 11 14 12 15 13 16 87 17 14 18 88 19 15 20 10 21 1 22
REMARK SMILES IDX 2 23 3 24 4 25 9 27 5 28 8 29 6 30 7 31 27 32 28 33 29 34
REMARK SMILES IDX 30 35 31 37 32 38 33 39 85 40 34 41 84 42 35 43 36 44 37 45
REMARK SMILES IDX 78 46 38 47 83 48 77 49 79 50 39 51 82 52 76 53 75 54 40 56
REMARK SMILES IDX 66 57 49 58 65 59 50 60 53 61 64 62 80 63 51 64 52 65 63 67
REMARK SMILES IDX 81 68 54 69 41 70 42 71 47 72 43 73 44 74 46 75 48 76 45 77
REMARK SMILES IDX 67 78 68 79 73 80 69 81 70 82 72 83 74 84 71 85 55 86 56 87
REMARK SMILES IDX 61 88 57 89 58 90 60 91 62 92 59 93
REMARK H PARENT 24 6 3 26 29 36 79 55 53 66
REMARK Flexibility Score: inf
ROOT
ATOM      1  C   UNL A   1      34.498  33.705  28.540  1.00  0.00     0.023 C 
ENDROOT
BRANCH   1   2
ATOM      2  C   UNL A   1      34.139  32.354  27.934  1.00  0.00     0.116 C 
BRANCH   2   3
ATOM      3  N   UNL A   1      35.272  31.481  27.678  1.00  0.00    -0.352 N 
ATOM      4  C   UNL A   1      35.329  30.171  27.253  1.00  0.00     0.251 C 
ATOM      5  O   UNL A   1      36.431  29.640  27.125  1.00  0.00    -0.269 OA
ATOM      6  H   UNL A   1      36.150  31.897  27.836  1.00  0.00     0.163 HD
BRANCH   4   7
ATOM      7  C   UNL A   1      34.102  29.364  27.016  1.00  0.00     0.041 A 
ATOM      8  C   UNL A   1      32.841  27.761  25.694  1.00  0.00     0.051 A 
ATOM      9  C   UNL A   1      31.674  28.172  26.357  1.00  0.00     0.027 A 
ATOM     10  C   UNL A   1      34.066  28.299  26.109  1.00  0.00     0.040 A 
ATOM     11  C   UNL A   1      31.723  29.127  27.372  1.00  0.00     0.003 A 
ATOM     12  C   UNL A   1      32.932  29.744  27.682  1.00  0.00     0.014 A 
BRANCH   8  13
ATOM     13  N   UNL A   1      32.764  27.002  24.480  1.00  0.00    -0.261 N 
ATOM     14  C   UNL A   1      32.896  23.658  22.990  1.00  0.00     0.032 C 
ATOM     15  C   UNL A   1      32.777  24.967  23.257  1.00  0.00     0.081 C 
ATOM     16  S   UNL A   1      32.061  26.087  22.164  1.00  0.00    -0.054 SA
ATOM     17  C   UNL A   1      33.175  25.665  24.514  1.00  0.00     0.270 C 
ATOM     18  C   UNL A   1      32.181  27.432  23.298  1.00  0.00     0.152 C 
ATOM     19  O   UNL A   1      33.717  25.098  25.455  1.00  0.00    -0.268 OA
ATOM     20  S   UNL A   1      31.691  28.966  22.843  1.00  0.00    -0.051 S 
BRANCH  14  21
ATOM     21  C   UNL A   1      33.438  22.665  23.859  1.00  0.00     0.004 A 
ATOM     22  C   UNL A   1      31.267  21.833  25.081  1.00  0.00     0.065 C 
ATOM     23  C   UNL A   1      32.714  21.897  24.752  1.00  0.00     0.020 A 
ATOM     24  N   UNL A   1      33.622  21.120  25.432  1.00  0.00    -0.358 N 
ATOM     25  C   UNL A   1      34.900  21.346  24.977  1.00  0.00     0.046 A 
ATOM     26  H   UNL A   1      33.389  20.487  26.150  1.00  0.00     0.166 HD
ATOM     27  C   UNL A   1      34.812  22.304  23.967  1.00  0.00     0.007 A 
ATOM     28  C   UNL A   1      36.116  20.788  25.388  1.00  0.00     0.027 A 
ATOM     29  C   UNL A   1      35.999  22.717  23.326  1.00  0.00     0.011 A 
ATOM     30  C   UNL A   1      37.278  21.217  24.741  1.00  0.00     0.002 A 
ATOM     31  C   UNL A   1      37.222  22.165  23.721  1.00  0.00     0.001 A 
ENDBRANCH  14  21
ENDBRANCH   8  13
ENDBRANCH   4   7
ENDBRANCH   2   3
ENDBRANCH   1   2
BRANCH   1  32
ATOM     32  C   UNL A   1      34.420  33.813  30.058  1.00  0.00     0.023 C 
BRANCH  32  33
ATOM     33  C   UNL A   1      34.565  32.510  30.833  1.00  0.00     0.116 C 
BRANCH  33  34
ATOM     34  N   UNL A   1      34.963  32.690  32.222  1.00  0.00    -0.352 N 
ATOM     35  C   UNL A   1      36.102  32.274  32.875  1.00  0.00     0.251 C 
ATOM     36  H   UNL A   1      34.319  33.184  32.780  1.00  0.00     0.163 HD
ATOM     37  O   UNL A   1      36.219  32.460  34.080  1.00  0.00    -0.269 OA
BRANCH  35  38
ATOM     38  C   UNL A   1      37.163  31.559  32.133  1.00  0.00     0.039 A 
ATOM     39  C   UNL A   1      37.230  31.706  30.745  1.00  0.00     0.014 A 
ATOM     40  C   UNL A   1      38.108  30.775  32.800  1.00  0.00     0.014 A 
ATOM     41  C   UNL A   1      38.298  31.149  30.038  1.00  0.00     0.010 A 
ATOM     42  C   UNL A   1      39.215  30.291  32.107  1.00  0.00     0.010 A 
ATOM     43  C   UNL A   1      39.327  30.482  30.722  1.00  0.00    -0.014 A 
BRANCH  43  44
ATOM     44  C   UNL A   1      40.538  29.993  30.013  1.00  0.00     0.031 A 
ATOM     45  C   UNL A   1      41.679  30.929  29.727  1.00  0.00     0.074 A 
ATOM     46  C   UNL A   1      40.574  28.727  29.549  1.00  0.00     0.049 A 
ATOM     47  N   UNL A   1      42.775  30.713  29.042  1.00  0.00    -0.248 NA
ATOM     48  C   UNL A   1      41.559  32.298  30.252  1.00  0.00     0.031 C 
ATOM     49  C   UNL A   1      39.510  27.733  29.711  1.00  0.00     0.029 A 
ATOM     50  N   UNL A   1      41.539  28.062  28.834  1.00  0.00    -0.354 N 
ATOM     51  C   UNL A   1      43.458  31.923  29.034  1.00  0.00     0.074 A 
ATOM     52  C   UNL A   1      42.636  32.879  29.742  1.00  0.00     0.031 C 
ATOM     53  C   UNL A   1      39.890  26.582  29.132  1.00  0.00     0.029 A 
ATOM     54  C   UNL A   1      41.205  26.765  28.528  1.00  0.00     0.049 A 
ATOM     55  H   UNL A   1      42.392  28.476  28.566  1.00  0.00     0.167 HD
ATOM     56  C   UNL A   1      44.670  32.205  28.501  1.00  0.00     0.037 A 
ATOM     57  C   UNL A   1      41.880  25.830  27.832  1.00  0.00     0.037 A 
ATOM     58  C   UNL A   1      45.507  31.243  27.834  1.00  0.00     0.049 A 
ATOM     59  C   UNL A   1      43.231  26.167  27.265  1.00  0.00     0.074 A 
ATOM     60  C   UNL A   1      46.788  31.413  27.338  1.00  0.00     0.029 A 
ATOM     61  N   UNL A   1      45.145  29.932  27.571  1.00  0.00    -0.354 N 
ATOM     62  N   UNL A   1      43.900  27.292  27.335  1.00  0.00    -0.248 NA
ATOM     63  C   UNL A   1      43.922  25.102  26.523  1.00  0.00     0.031 C 
ATOM     64  C   UNL A   1      47.187  30.214  26.738  1.00  0.00     0.029 A 
ATOM     65  C   UNL A   1      46.171  29.286  26.899  1.00  0.00     0.049 A 
ATOM     66  H   UNL A   1      44.288  29.519  27.823  1.00  0.00     0.167 HD
ATOM     67  C   UNL A   1      45.100  27.062  26.677  1.00  0.00     0.074 A 
ATOM     68  C   UNL A   1      45.074  25.687  26.224  1.00  0.00     0.031 C 
ATOM     69  C   UNL A   1      46.134  27.913  26.468  1.00  0.00     0.037 A 
BRANCH  56  70
ATOM     70  C   UNL A   1      45.170  33.615  28.625  1.00  0.00     0.057 A 
ATOM     71  C   UNL A   1      45.967  34.024  29.702  1.00  0.00     0.134 A 
ATOM     72  C   UNL A   1      44.884  34.563  27.635  1.00  0.00     0.134 A 
ATOM     73  F   UNL A   1      46.269  33.167  30.689  1.00  0.00    -0.206 F 
ATOM     74  C   UNL A   1      46.442  35.333  29.802  1.00  0.00     0.040 A 
ATOM     75  C   UNL A   1      45.373  35.868  27.711  1.00  0.00     0.040 A 
ATOM     76  F   UNL A   1      44.130  34.235  26.575  1.00  0.00    -0.206 F 
ATOM     77  C   UNL A   1      46.150  36.257  28.801  1.00  0.00     0.006 A 
ENDBRANCH  56  70
BRANCH  57  78
ATOM     78  C   UNL A   1      41.305  24.473  27.650  1.00  0.00     0.057 A 
ATOM     79  C   UNL A   1      41.775  23.388  28.400  1.00  0.00     0.134 A 
ATOM     80  C   UNL A   1      40.297  24.221  26.713  1.00  0.00     0.134 A 
ATOM     81  F   UNL A   1      42.755  23.563  29.299  1.00  0.00    -0.206 F 
ATOM     82  C   UNL A   1      41.279  22.097  28.209  1.00  0.00     0.040 A 
ATOM     83  C   UNL A   1      39.775  22.939  26.529  1.00  0.00     0.040 A 
ATOM     84  F   UNL A   1      39.800  25.219  25.968  1.00  0.00    -0.206 F 
ATOM     85  C   UNL A   1      40.273  21.872  27.272  1.00  0.00     0.006 A 
ENDBRANCH  57  78
BRANCH  69  86
ATOM     86  C   UNL A   1      47.335  27.371  25.752  1.00  0.00     0.057 A 
ATOM     87  C   UNL A   1      47.480  27.482  24.363  1.00  0.00     0.134 A 
ATOM     88  C   UNL A   1      48.376  26.765  26.467  1.00  0.00     0.134 A 
ATOM     89  F   UNL A   1      46.512  28.038  23.620  1.00  0.00    -0.206 F 
ATOM     90  C   UNL A   1      48.612  26.991  23.710  1.00  0.00     0.040 A 
ATOM     91  C   UNL A   1      49.522  26.294  25.827  1.00  0.00     0.040 A 
ATOM     92  F   UNL A   1      48.302  26.635  27.801  1.00  0.00    -0.206 F 
ATOM     93  C   UNL A   1      49.641  26.401  24.444  1.00  0.00     0.006 A 
ENDBRANCH  69  86
ENDBRANCH  43  44
ENDBRANCH  35  38
ENDBRANCH  33  34
ENDBRANCH  32  33
ENDBRANCH   1  32
TORSDOF 13
ENDMDL
MODEL 3
REMARK VINA RESULT:     -12.5      3.073      8.496
REMARK SMILES Cc1[nH]c2ccccc2c1/C=C1/SC(=S)N(c2cccc(C(=O)NCCCCNC(=O)c3ccc(-c4c5nc(c(-c6c(F)cccc6F)c6ccc([nH]6)c(-c6c(F)cccc6F)c6nc(c(-c7c(F)cccc7F)c7ccc4[nH]7)C=C6)C=C5)cc3)c2)C1=O
REMARK SMILES IDX 26 1 25 2 24 3 22 4 23 5 21 7 17 8 18 9 86 10 19 11 20 12
REMARK SMILES IDX 16 13 11 14 12 15 13 16 87 17 14 18 88 19 15 20 10 21 1 22
REMARK SMILES IDX 2 23 3 24 4 25 9 27 5 28 8 29 6 30 7 31 27 32 28 33 29 34
REMARK SMILES IDX 30 35 31 37 32 38 33 39 85 40 34 41 84 42 35 43 36 44 37 45
REMARK SMILES IDX 78 46 38 47 83 48 77 49 79 50 39 51 82 52 76 53 75 54 40 56
REMARK SMILES IDX 66 57 49 58 65 59 50 60 53 61 64 62 80 63 51 64 52 65 63 67
REMARK SMILES IDX 81 68 54 69 41 70 42 71 47 72 43 73 44 74 46 75 48 76 45 77
REMARK SMILES IDX 67 78 68 79 73 80 69 81 70 82 72 83 74 84 71 85 55 86 56 87
REMARK SMILES IDX 61 88 57 89 58 90 60 91 62 92 59 93
REMARK H PARENT 24 6 3 26 29 36 79 55 53 66
REMARK Flexibility Score: inf
ROOT
ATOM      1  C   UNL A   1      41.201  21.153  26.124  1.00  0.00     0.023 C 
ENDROOT
BRANCH   1   2
ATOM      2  C   UNL A   1      39.790  21.584  26.502  1.00  0.00     0.116 C 
BRANCH   2   3
ATOM      3  N   UNL A   1      39.670  22.969  26.928  1.00  0.00    -0.352 N 
ATOM      4  C   UNL A   1      38.701  23.915  26.673  1.00  0.00     0.251 C 
ATOM      5  O   UNL A   1      38.838  25.042  27.145  1.00  0.00    -0.269 OA
ATOM      6  H   UNL A   1      40.409  23.285  27.496  1.00  0.00     0.163 HD
BRANCH   4   7
ATOM      7  C   UNL A   1      37.537  23.634  25.790  1.00  0.00     0.041 A 
ATOM      8  C   UNL A   1      35.139  23.551  25.404  1.00  0.00     0.051 A 
ATOM      9  C   UNL A   1      35.372  22.732  24.289  1.00  0.00     0.027 A 
ATOM     10  C   UNL A   1      36.244  24.078  26.086  1.00  0.00     0.040 A 
ATOM     11  C   UNL A   1      36.671  22.409  23.894  1.00  0.00     0.003 A 
ATOM     12  C   UNL A   1      37.752  22.836  24.661  1.00  0.00     0.014 A 
BRANCH   8  13
ATOM     13  N   UNL A   1      33.827  23.656  25.973  1.00  0.00    -0.261 N 
ATOM     14  C   UNL A   1      30.711  25.581  26.061  1.00  0.00     0.032 C 
ATOM     15  C   UNL A   1      31.701  24.688  26.207  1.00  0.00     0.081 C 
ATOM     16  S   UNL A   1      31.460  23.119  26.872  1.00  0.00    -0.054 SA
ATOM     17  C   UNL A   1      33.125  24.853  25.792  1.00  0.00     0.270 C 
ATOM     18  C   UNL A   1      33.124  22.620  26.570  1.00  0.00     0.152 C 
ATOM     19  O   UNL A   1      33.566  25.882  25.297  1.00  0.00    -0.268 OA
ATOM     20  S   UNL A   1      33.655  21.110  27.059  1.00  0.00    -0.051 S 
BRANCH  14  21
ATOM     21  C   UNL A   1      30.825  26.880  25.482  1.00  0.00     0.004 A 
ATOM     22  C   UNL A   1      29.738  26.474  23.126  1.00  0.00     0.065 C 
ATOM     23  C   UNL A   1      30.400  27.236  24.215  1.00  0.00     0.020 A 
ATOM     24  N   UNL A   1      30.756  28.552  24.034  1.00  0.00    -0.358 N 
ATOM     25  C   UNL A   1      31.364  29.055  25.160  1.00  0.00     0.046 A 
ATOM     26  H   UNL A   1      30.596  29.065  23.209  1.00  0.00     0.166 HD
ATOM     27  C   UNL A   1      31.403  28.026  26.100  1.00  0.00     0.007 A 
ATOM     28  C   UNL A   1      31.888  30.329  25.408  1.00  0.00     0.027 A 
ATOM     29  C   UNL A   1      31.985  28.287  27.359  1.00  0.00     0.011 A 
ATOM     30  C   UNL A   1      32.463  30.561  26.661  1.00  0.00     0.002 A 
ATOM     31  C   UNL A   1      32.508  29.557  27.626  1.00  0.00     0.001 A 
ENDBRANCH  14  21
ENDBRANCH   8  13
ENDBRANCH   4   7
ENDBRANCH   2   3
ENDBRANCH   1   2
BRANCH   1  32
ATOM     32  C   UNL A   1      41.449  19.654  26.012  1.00  0.00     0.023 C 
BRANCH  32  33
ATOM     33  C   UNL A   1      42.865  19.182  26.318  1.00  0.00     0.116 C 
BRANCH  33  34
ATOM     34  N   UNL A   1      43.598  18.715  25.150  1.00  0.00    -0.352 N 
ATOM     35  C   UNL A   1      44.488  19.385  24.341  1.00  0.00     0.251 C 
ATOM     36  H   UNL A   1      43.433  17.777  24.902  1.00  0.00     0.163 HD
ATOM     37  O   UNL A   1      44.949  18.834  23.349  1.00  0.00    -0.269 OA
BRANCH  35  38
ATOM     38  C   UNL A   1      44.850  20.789  24.638  1.00  0.00     0.039 A 
ATOM     39  C   UNL A   1      44.370  21.799  23.800  1.00  0.00     0.014 A 
ATOM     40  C   UNL A   1      45.627  21.114  25.752  1.00  0.00     0.014 A 
ATOM     41  C   UNL A   1      44.587  23.139  24.133  1.00  0.00     0.010 A 
ATOM     42  C   UNL A   1      45.772  22.447  26.126  1.00  0.00     0.010 A 
ATOM     43  C   UNL A   1      45.244  23.473  25.327  1.00  0.00    -0.014 A 
BRANCH  43  44
ATOM     44  C   UNL A   1      45.376  24.885  25.770  1.00  0.00     0.031 A 
ATOM     45  C   UNL A   1      46.714  25.568  25.738  1.00  0.00     0.074 A 
ATOM     46  C   UNL A   1      44.305  25.526  26.283  1.00  0.00     0.049 A 
ATOM     47  N   UNL A   1      47.045  26.761  26.167  1.00  0.00    -0.248 NA
ATOM     48  C   UNL A   1      47.836  24.799  25.177  1.00  0.00     0.031 C 
ATOM     49  C   UNL A   1      42.962  24.958  26.423  1.00  0.00     0.029 A 
ATOM     50  N   UNL A   1      44.182  26.793  26.797  1.00  0.00    -0.354 N 
ATOM     51  C   UNL A   1      48.413  26.871  25.953  1.00  0.00     0.074 A 
ATOM     52  C   UNL A   1      48.859  25.613  25.397  1.00  0.00     0.031 C 
ATOM     53  C   UNL A   1      42.148  25.879  26.963  1.00  0.00     0.029 A 
ATOM     54  C   UNL A   1      42.916  27.087  27.243  1.00  0.00     0.049 A 
ATOM     55  H   UNL A   1      44.931  27.431  26.842  1.00  0.00     0.167 HD
ATOM     56  C   UNL A   1      49.221  27.934  26.181  1.00  0.00     0.037 A 
ATOM     57  C   UNL A   1      42.431  28.203  27.819  1.00  0.00     0.037 A 
ATOM     58  C   UNL A   1      48.771  29.201  26.693  1.00  0.00     0.049 A 
ATOM     59  C   UNL A   1      43.347  29.374  28.046  1.00  0.00     0.074 A 
ATOM     60  C   UNL A   1      49.498  30.364  26.876  1.00  0.00     0.029 A 
ATOM     61  N   UNL A   1      47.475  29.469  27.104  1.00  0.00    -0.354 N 
ATOM     62  N   UNL A   1      44.621  29.493  27.763  1.00  0.00    -0.248 NA
ATOM     63  C   UNL A   1      42.756  30.567  28.670  1.00  0.00     0.031 C 
ATOM     64  C   UNL A   1      48.650  31.326  27.436  1.00  0.00     0.029 A 
ATOM     65  C   UNL A   1      47.386  30.774  27.562  1.00  0.00     0.049 A 
ATOM     66  H   UNL A   1      46.728  28.828  27.076  1.00  0.00     0.167 HD
ATOM     67  C   UNL A   1      44.977  30.779  28.144  1.00  0.00     0.074 A 
ATOM     68  C   UNL A   1      43.782  31.407  28.668  1.00  0.00     0.031 C 
ATOM     69  C   UNL A   1      46.185  31.387  28.066  1.00  0.00     0.037 A 
BRANCH  56  70
ATOM     70  C   UNL A   1      50.681  27.774  25.868  1.00  0.00     0.057 A 
ATOM     71  C   UNL A   1      51.618  27.454  26.858  1.00  0.00     0.134 A 
ATOM     72  C   UNL A   1      51.146  27.903  24.553  1.00  0.00     0.134 A 
ATOM     73  F   UNL A   1      51.238  27.328  28.138  1.00  0.00    -0.206 F 
ATOM     74  C   UNL A   1      52.971  27.291  26.556  1.00  0.00     0.040 A 
ATOM     75  C   UNL A   1      52.493  27.718  24.235  1.00  0.00     0.040 A 
ATOM     76  F   UNL A   1      50.300  28.203  23.556  1.00  0.00    -0.206 F 
ATOM     77  C   UNL A   1      53.410  27.417  25.239  1.00  0.00     0.006 A 
ENDBRANCH  56  70
BRANCH  57  78
ATOM     78  C   UNL A   1      40.998  28.285  28.202  1.00  0.00     0.057 A 
ATOM     79  C   UNL A   1      40.051  28.833  27.327  1.00  0.00     0.134 A 
ATOM     80  C   UNL A   1      40.545  27.846  29.450  1.00  0.00     0.134 A 
ATOM     81  F   UNL A   1      40.429  29.291  26.125  1.00  0.00    -0.206 F 
ATOM     82  C   UNL A   1      38.709  28.961  27.689  1.00  0.00     0.040 A 
ATOM     83  C   UNL A   1      39.200  27.945  29.815  1.00  0.00     0.040 A 
ATOM     84  F   UNL A   1      41.400  27.306  30.330  1.00  0.00    -0.206 F 
ATOM     85  C   UNL A   1      38.281  28.513  28.936  1.00  0.00     0.006 A 
ENDBRANCH  57  78
BRANCH  69  86
ATOM     86  C   UNL A   1      46.266  32.814  28.520  1.00  0.00     0.057 A 
ATOM     87  C   UNL A   1      46.596  33.153  29.839  1.00  0.00     0.134 A 
ATOM     88  C   UNL A   1      46.048  33.862  27.616  1.00  0.00     0.134 A 
ATOM     89  F   UNL A   1      46.802  32.196  30.755  1.00  0.00    -0.206 F 
ATOM     90  C   UNL A   1      46.687  34.485  30.246  1.00  0.00     0.040 A 
ATOM     91  C   UNL A   1      46.161  35.197  28.006  1.00  0.00     0.040 A 
ATOM     92  F   UNL A   1      45.735  33.605  26.337  1.00  0.00    -0.206 F 
ATOM     93  C   UNL A   1      46.476  35.512  29.326  1.00  0.00     0.006 A 
ENDBRANCH  69  86
ENDBRANCH  43  44
ENDBRANCH  35  38
ENDBRANCH  33  34
ENDBRANCH  32  33
ENDBRANCH   1  32
TORSDOF 13
ENDMDL
