MODEL 1
REMARK VINA RESULT:     -11.5      0.000      0.000
REMARK SMILES Cc1nn([C@H]2CCS(=O)(=O)C2)c(C)c1[C@@H]([NH3+])C(=O)NCCCCNC(=O)c1ccc(-c2c3nc(c(-c4c(F)cccc4F)c4ccc([nH]4)c(-c4c(F)cccc4F)c4nc(c(-c5c(F)cccc5F)c5ccc2[nH]5)C=C4)C=C3)cc1
REMARK SMILES IDX 21 1 20 2 19 3 17 4 18 5 15 7 14 8 1 9 2 10 3 11 4 12 12 13
REMARK SMILES IDX 13 14 5 15 6 16 11 17 7 18 8 19 9 20 10 21 16 22 22 26 23 27
REMARK SMILES IDX 24 28 25 29 26 31 27 32 28 33 80 34 29 35 79 36 30 37 31 38
REMARK SMILES IDX 32 39 73 40 33 41 78 42 72 43 74 44 34 45 77 46 71 47 70 48
REMARK SMILES IDX 35 50 61 51 44 52 60 53 45 54 48 55 59 56 75 57 46 58 47 59
REMARK SMILES IDX 58 61 76 62 49 63 36 64 37 65 42 66 38 67 39 68 41 69 43 70
REMARK SMILES IDX 40 71 62 72 63 73 68 74 64 75 65 76 67 77 69 78 66 79 50 80
REMARK SMILES IDX 51 81 56 82 52 83 53 84 55 85 57 86 54 87
REMARK H PARENT 19 6 16 23 16 24 16 25 24 30 74 49 48 60
REMARK Flexibility Score: inf
ROOT
ATOM      1  C   UNL A   1      40.578  20.841  26.307  1.00  0.00     0.023 C 
ENDROOT
BRANCH   1   2
ATOM      2  C   UNL A   1      39.110  20.973  25.899  1.00  0.00     0.116 C 
BRANCH   2   3
ATOM      3  N   UNL A   1      38.720  22.341  25.632  1.00  0.00    -0.351 N 
ATOM      4  C   UNL A   1      37.474  22.905  25.569  1.00  0.00     0.283 C 
ATOM      5  O   UNL A   1      37.434  24.132  25.401  1.00  0.00    -0.268 OA
ATOM      6  H   UNL A   1      39.466  22.963  25.470  1.00  0.00     0.163 HD
BRANCH   4   7
ATOM      7  C   UNL A   1      36.145  22.108  25.749  1.00  0.00     0.306 C 
BRANCH   7   8
ATOM      8  C   UNL A   1      34.906  22.963  25.659  1.00  0.00     0.063 A 
ATOM      9  C   UNL A   1      33.780  22.329  27.957  1.00  0.00     0.069 C 
ATOM     10  C   UNL A   1      33.939  23.112  26.702  1.00  0.00     0.069 A 
ATOM     11  N   UNL A   1      33.046  24.065  26.418  1.00  0.00    -0.177 NA
ATOM     12  N   UNL A   1      33.390  24.500  25.193  1.00  0.00    -0.265 N 
ATOM     13  C   UNL A   1      34.319  23.666  24.602  1.00  0.00     0.046 A 
ATOM     14  C   UNL A   1      34.554  23.601  23.134  1.00  0.00     0.067 C 
BRANCH  12  15
ATOM     15  C   UNL A   1      32.730  25.710  24.695  1.00  0.00     0.123 C 
ATOM     16  C   UNL A   1      31.720  26.285  25.722  1.00  0.00     0.044 C 
ATOM     17  C   UNL A   1      33.666  26.874  24.409  1.00  0.00     0.164 C 
ATOM     18  C   UNL A   1      31.289  27.666  25.247  1.00  0.00     0.139 C 
ATOM     19  S   UNL A   1      32.680  28.330  24.366  1.00  0.00     0.152 S 
ATOM     20  O   UNL A   1      32.291  28.566  22.987  1.00  0.00    -0.229 OA
ATOM     21  O   UNL A   1      33.334  29.325  25.184  1.00  0.00    -0.229 OA
ENDBRANCH  12  15
ENDBRANCH   7   8
BRANCH   7  22
ATOM     22  N   UNL A   1      36.099  20.938  24.857  1.00  0.00    -0.343 N 
ATOM     23  H   UNL A   1      35.825  20.115  25.392  1.00  0.00     0.345 HD
ATOM     24  H   UNL A   1      37.020  20.786  24.448  1.00  0.00     0.345 HD
ATOM     25  H   UNL A   1      35.419  21.103  24.115  1.00  0.00     0.345 HD
ENDBRANCH   7  22
ENDBRANCH   4   7
ENDBRANCH   2   3
ENDBRANCH   1   2
BRANCH   1  26
ATOM     26  C   UNL A   1      41.290  19.502  26.079  1.00  0.00     0.023 C 
BRANCH  26  27
ATOM     27  C   UNL A   1      42.763  19.511  26.480  1.00  0.00     0.116 C 
BRANCH  27  28
ATOM     28  N   UNL A   1      43.702  19.138  25.405  1.00  0.00    -0.352 N 
ATOM     29  C   UNL A   1      44.306  19.998  24.494  1.00  0.00     0.251 C 
ATOM     30  H   UNL A   1      43.924  18.183  25.326  1.00  0.00     0.163 HD
ATOM     31  O   UNL A   1      44.775  19.616  23.430  1.00  0.00    -0.269 OA
BRANCH  29  32
ATOM     32  C   UNL A   1      44.395  21.416  24.864  1.00  0.00     0.039 A 
ATOM     33  C   UNL A   1      43.471  22.373  24.429  1.00  0.00     0.014 A 
ATOM     34  C   UNL A   1      45.364  21.716  25.812  1.00  0.00     0.014 A 
ATOM     35  C   UNL A   1      43.467  23.621  25.049  1.00  0.00     0.010 A 
ATOM     36  C   UNL A   1      45.205  22.843  26.561  1.00  0.00     0.010 A 
ATOM     37  C   UNL A   1      44.321  23.833  26.141  1.00  0.00    -0.014 A 
BRANCH  37  38
ATOM     38  C   UNL A   1      44.248  25.025  26.975  1.00  0.00     0.031 A 
ATOM     39  C   UNL A   1      45.303  26.042  26.707  1.00  0.00     0.074 A 
ATOM     40  C   UNL A   1      43.143  25.289  27.709  1.00  0.00     0.049 A 
ATOM     41  N   UNL A   1      46.241  26.425  27.506  1.00  0.00    -0.248 NA
ATOM     42  C   UNL A   1      45.428  26.593  25.346  1.00  0.00     0.031 C 
ATOM     43  C   UNL A   1      41.905  24.501  27.810  1.00  0.00     0.029 A 
ATOM     44  N   UNL A   1      42.834  26.402  28.426  1.00  0.00    -0.354 N 
ATOM     45  C   UNL A   1      46.930  27.434  26.837  1.00  0.00     0.074 A 
ATOM     46  C   UNL A   1      46.527  27.344  25.459  1.00  0.00     0.031 C 
ATOM     47  C   UNL A   1      40.914  25.264  28.319  1.00  0.00     0.029 A 
ATOM     48  C   UNL A   1      41.483  26.525  28.748  1.00  0.00     0.049 A 
ATOM     49  H   UNL A   1      43.509  27.067  28.695  1.00  0.00     0.167 HD
ATOM     50  C   UNL A   1      47.563  28.423  27.530  1.00  0.00     0.037 A 
ATOM     51  C   UNL A   1      40.885  27.613  29.298  1.00  0.00     0.037 A 
ATOM     52  C   UNL A   1      47.699  28.064  28.922  1.00  0.00     0.049 A 
ATOM     53  C   UNL A   1      41.963  28.416  29.932  1.00  0.00     0.074 A 
ATOM     54  C   UNL A   1      48.289  27.013  29.597  1.00  0.00     0.029 A 
ATOM     55  N   UNL A   1      46.817  28.630  29.813  1.00  0.00    -0.354 N 
ATOM     56  N   UNL A   1      42.643  28.008  30.970  1.00  0.00    -0.248 NA
ATOM     57  C   UNL A   1      42.621  29.420  29.107  1.00  0.00     0.031 C 
ATOM     58  C   UNL A   1      47.372  26.691  30.641  1.00  0.00     0.029 A 
ATOM     59  C   UNL A   1      46.334  27.623  30.607  1.00  0.00     0.049 A 
ATOM     60  H   UNL A   1      46.577  29.584  29.869  1.00  0.00     0.167 HD
ATOM     61  C   UNL A   1      43.958  28.351  30.684  1.00  0.00     0.074 A 
ATOM     62  C   UNL A   1      43.874  29.278  29.554  1.00  0.00     0.031 C 
ATOM     63  C   UNL A   1      45.003  27.618  31.172  1.00  0.00     0.037 A 
BRANCH  50  64
ATOM     64  C   UNL A   1      47.697  29.857  27.070  1.00  0.00     0.057 A 
ATOM     65  C   UNL A   1      48.946  30.495  27.194  1.00  0.00     0.134 A 
ATOM     66  C   UNL A   1      46.614  30.718  26.803  1.00  0.00     0.134 A 
ATOM     67  F   UNL A   1      50.060  29.789  27.447  1.00  0.00    -0.206 F 
ATOM     68  C   UNL A   1      49.087  31.888  27.158  1.00  0.00     0.040 A 
ATOM     69  C   UNL A   1      46.752  32.106  26.714  1.00  0.00     0.040 A 
ATOM     70  F   UNL A   1      45.351  30.286  26.717  1.00  0.00    -0.206 F 
ATOM     71  C   UNL A   1      47.986  32.699  26.930  1.00  0.00     0.006 A 
ENDBRANCH  50  64
BRANCH  51  72
ATOM     72  C   UNL A   1      39.528  28.154  29.036  1.00  0.00     0.057 A 
ATOM     73  C   UNL A   1      38.557  28.197  30.048  1.00  0.00     0.134 A 
ATOM     74  C   UNL A   1      39.235  28.893  27.875  1.00  0.00     0.134 A 
ATOM     75  F   UNL A   1      38.754  27.554  31.208  1.00  0.00    -0.206 F 
ATOM     76  C   UNL A   1      37.383  28.956  29.928  1.00  0.00     0.040 A 
ATOM     77  C   UNL A   1      38.065  29.651  27.741  1.00  0.00     0.040 A 
ATOM     78  F   UNL A   1      40.113  28.981  26.866  1.00  0.00    -0.206 F 
ATOM     79  C   UNL A   1      37.141  29.698  28.776  1.00  0.00     0.006 A 
ENDBRANCH  51  72
BRANCH  63  80
ATOM     80  C   UNL A   1      44.718  26.561  32.207  1.00  0.00     0.057 A 
ATOM     81  C   UNL A   1      44.505  25.204  31.917  1.00  0.00     0.134 A 
ATOM     82  C   UNL A   1      44.842  26.901  33.557  1.00  0.00     0.134 A 
ATOM     83  F   UNL A   1      44.472  24.758  30.657  1.00  0.00    -0.206 F 
ATOM     84  C   UNL A   1      44.383  24.240  32.924  1.00  0.00     0.040 A 
ATOM     85  C   UNL A   1      44.756  25.944  34.572  1.00  0.00     0.040 A 
ATOM     86  F   UNL A   1      45.106  28.167  33.913  1.00  0.00    -0.206 F 
ATOM     87  C   UNL A   1      44.517  24.609  34.258  1.00  0.00     0.006 A 
ENDBRANCH  63  80
ENDBRANCH  37  38
ENDBRANCH  29  32
ENDBRANCH  27  28
ENDBRANCH  26  27
ENDBRANCH   1  26
TORSDOF 14
ENDMDL
MODEL 2
REMARK VINA RESULT:     -11.4      4.204      9.450
REMARK SMILES Cc1nn([C@H]2CCS(=O)(=O)C2)c(C)c1[C@@H]([NH3+])C(=O)NCCCCNC(=O)c1ccc(-c2c3nc(c(-c4c(F)cccc4F)c4ccc([nH]4)c(-c4c(F)cccc4F)c4nc(c(-c5c(F)cccc5F)c5ccc2[nH]5)C=C4)C=C3)cc1
REMARK SMILES IDX 21 1 20 2 19 3 17 4 18 5 15 7 14 8 1 9 2 10 3 11 4 12 12 13
REMARK SMILES IDX 13 14 5 15 6 16 11 17 7 18 8 19 9 20 10 21 16 22 22 26 23 27
REMARK SMILES IDX 24 28 25 29 26 31 27 32 28 33 80 34 29 35 79 36 30 37 31 38
REMARK SMILES IDX 32 39 73 40 33 41 78 42 72 43 74 44 34 45 77 46 71 47 70 48
REMARK SMILES IDX 35 50 61 51 44 52 60 53 45 54 48 55 59 56 75 57 46 58 47 59
REMARK SMILES IDX 58 61 76 62 49 63 36 64 37 65 42 66 38 67 39 68 41 69 43 70
REMARK SMILES IDX 40 71 62 72 63 73 68 74 64 75 65 76 67 77 69 78 66 79 50 80
REMARK SMILES IDX 51 81 56 82 52 83 53 84 55 85 57 86 54 87
REMARK H PARENT 19 6 16 23 16 24 16 25 24 30 74 49 48 60
REMARK Flexibility Score: inf
ROOT
ATOM      1  C   UNL A   1      32.027  30.316  26.812  1.00  0.00     0.023 C 
ENDROOT
BRANCH   1   2
ATOM      2  C   UNL A   1      32.804  29.772  25.612  1.00  0.00     0.116 C 
BRANCH   2   3
ATOM      3  N   UNL A   1      31.965  29.543  24.455  1.00  0.00    -0.351 N 
ATOM      4  C   UNL A   1      32.215  28.830  23.312  1.00  0.00     0.283 C 
ATOM      5  O   UNL A   1      31.277  28.731  22.510  1.00  0.00    -0.268 OA
ATOM      6  H   UNL A   1      31.076  29.966  24.494  1.00  0.00     0.163 HD
BRANCH   4   7
ATOM      7  C   UNL A   1      33.567  28.112  23.011  1.00  0.00     0.306 C 
BRANCH   7   8
ATOM      8  C   UNL A   1      33.574  26.650  23.379  1.00  0.00     0.063 A 
ATOM      9  C   UNL A   1      32.420  25.660  21.224  1.00  0.00     0.069 C 
ATOM     10  C   UNL A   1      33.154  25.589  22.517  1.00  0.00     0.069 A 
ATOM     11  N   UNL A   1      33.435  24.389  23.034  1.00  0.00    -0.177 NA
ATOM     12  N   UNL A   1      33.986  24.655  24.232  1.00  0.00    -0.265 N 
ATOM     13  C   UNL A   1      33.820  25.981  24.582  1.00  0.00     0.046 A 
ATOM     14  C   UNL A   1      33.896  26.481  25.981  1.00  0.00     0.067 C 
BRANCH  12  15
ATOM     15  C   UNL A   1      34.610  23.541  24.951  1.00  0.00     0.123 C 
ATOM     16  C   UNL A   1      33.683  22.971  26.056  1.00  0.00     0.044 C 
ATOM     17  C   UNL A   1      34.941  22.333  24.089  1.00  0.00     0.164 C 
ATOM     18  C   UNL A   1      34.288  21.667  26.560  1.00  0.00     0.139 C 
ATOM     19  S   UNL A   1      35.148  20.965  25.175  1.00  0.00     0.152 S 
ATOM     20  O   UNL A   1      36.559  20.865  25.503  1.00  0.00    -0.229 OA
ATOM     21  O   UNL A   1      34.380  19.863  24.643  1.00  0.00    -0.229 OA
ENDBRANCH  12  15
ENDBRANCH   7   8
BRANCH   7  22
ATOM     22  N   UNL A   1      34.005  28.357  21.627  1.00  0.00    -0.343 N 
ATOM     23  H   UNL A   1      34.168  27.466  21.161  1.00  0.00     0.345 HD
ATOM     24  H   UNL A   1      34.867  28.901  21.634  1.00  0.00     0.345 HD
ATOM     25  H   UNL A   1      33.281  28.874  21.129  1.00  0.00     0.345 HD
ENDBRANCH   7  22
ENDBRANCH   4   7
ENDBRANCH   2   3
ENDBRANCH   1   2
BRANCH   1  26
ATOM     26  C   UNL A   1      31.746  31.821  26.887  1.00  0.00     0.023 C 
BRANCH  26  27
ATOM     27  C   UNL A   1      32.927  32.645  27.396  1.00  0.00     0.116 C 
BRANCH  27  28
ATOM     28  N   UNL A   1      32.589  34.014  27.830  1.00  0.00    -0.352 N 
ATOM     29  C   UNL A   1      33.110  34.690  28.928  1.00  0.00     0.251 C 
ATOM     30  H   UNL A   1      31.927  34.498  27.287  1.00  0.00     0.163 HD
ATOM     31  O   UNL A   1      32.554  35.651  29.443  1.00  0.00    -0.269 OA
BRANCH  29  32
ATOM     32  C   UNL A   1      34.401  34.226  29.454  1.00  0.00     0.039 A 
ATOM     33  C   UNL A   1      34.507  33.271  30.470  1.00  0.00     0.014 A 
ATOM     34  C   UNL A   1      35.515  34.678  28.758  1.00  0.00     0.014 A 
ATOM     35  C   UNL A   1      35.751  32.688  30.706  1.00  0.00     0.010 A 
ATOM     36  C   UNL A   1      36.663  33.947  28.837  1.00  0.00     0.010 A 
ATOM     37  C   UNL A   1      36.818  33.013  29.857  1.00  0.00    -0.014 A 
BRANCH  37  38
ATOM     38  C   UNL A   1      38.094  32.311  29.896  1.00  0.00     0.031 A 
ATOM     39  C   UNL A   1      38.081  30.954  29.283  1.00  0.00     0.074 A 
ATOM     40  C   UNL A   1      39.237  32.970  30.199  1.00  0.00     0.049 A 
ATOM     41  N   UNL A   1      38.269  29.825  29.879  1.00  0.00    -0.248 NA
ATOM     42  C   UNL A   1      37.666  30.815  27.876  1.00  0.00     0.031 C 
ATOM     43  C   UNL A   1      39.411  34.394  30.523  1.00  0.00     0.029 A 
ATOM     44  N   UNL A   1      40.522  32.528  30.148  1.00  0.00    -0.354 N 
ATOM     45  C   UNL A   1      38.230  28.852  28.882  1.00  0.00     0.074 A 
ATOM     46  C   UNL A   1      37.653  29.488  27.729  1.00  0.00     0.031 C 
ATOM     47  C   UNL A   1      40.708  34.741  30.387  1.00  0.00     0.029 A 
ATOM     48  C   UNL A   1      41.481  33.540  30.148  1.00  0.00     0.049 A 
ATOM     49  H   UNL A   1      40.755  31.572  30.114  1.00  0.00     0.167 HD
ATOM     50  C   UNL A   1      38.927  27.688  29.018  1.00  0.00     0.037 A 
ATOM     51  C   UNL A   1      42.811  33.385  29.929  1.00  0.00     0.037 A 
ATOM     52  C   UNL A   1      39.351  27.503  30.386  1.00  0.00     0.049 A 
ATOM     53  C   UNL A   1      43.120  31.952  30.183  1.00  0.00     0.074 A 
ATOM     54  C   UNL A   1      38.695  27.423  31.600  1.00  0.00     0.029 A 
ATOM     55  N   UNL A   1      40.661  27.791  30.689  1.00  0.00    -0.354 N 
ATOM     56  N   UNL A   1      43.039  31.401  31.364  1.00  0.00    -0.248 NA
ATOM     57  C   UNL A   1      43.011  31.037  29.056  1.00  0.00     0.031 C 
ATOM     58  C   UNL A   1      39.511  28.167  32.502  1.00  0.00     0.029 A 
ATOM     59  C   UNL A   1      40.660  28.567  31.818  1.00  0.00     0.049 A 
ATOM     60  H   UNL A   1      41.454  27.493  30.186  1.00  0.00     0.167 HD
ATOM     61  C   UNL A   1      42.430  30.174  31.137  1.00  0.00     0.074 A 
ATOM     62  C   UNL A   1      42.497  29.977  29.688  1.00  0.00     0.031 C 
ATOM     63  C   UNL A   1      41.651  29.583  32.091  1.00  0.00     0.037 A 
BRANCH  50  64
ATOM     64  C   UNL A   1      39.572  26.925  27.884  1.00  0.00     0.057 A 
ATOM     65  C   UNL A   1      39.492  25.519  27.880  1.00  0.00     0.134 A 
ATOM     66  C   UNL A   1      40.508  27.469  26.982  1.00  0.00     0.134 A 
ATOM     67  F   UNL A   1      38.639  24.874  28.692  1.00  0.00    -0.206 F 
ATOM     68  C   UNL A   1      40.349  24.718  27.115  1.00  0.00     0.040 A 
ATOM     69  C   UNL A   1      41.332  26.679  26.176  1.00  0.00     0.040 A 
ATOM     70  F   UNL A   1      40.755  28.781  26.901  1.00  0.00    -0.206 F 
ATOM     71  C   UNL A   1      41.282  25.298  26.267  1.00  0.00     0.006 A 
ENDBRANCH  50  64
BRANCH  51  72
ATOM     72  C   UNL A   1      43.745  34.294  29.219  1.00  0.00     0.057 A 
ATOM     73  C   UNL A   1      43.873  34.255  27.823  1.00  0.00     0.134 A 
ATOM     74  C   UNL A   1      44.324  35.408  29.855  1.00  0.00     0.134 A 
ATOM     75  F   UNL A   1      43.327  33.254  27.117  1.00  0.00    -0.206 F 
ATOM     76  C   UNL A   1      44.508  35.276  27.100  1.00  0.00     0.040 A 
ATOM     77  C   UNL A   1      44.966  36.430  29.147  1.00  0.00     0.040 A 
ATOM     78  F   UNL A   1      44.212  35.589  31.179  1.00  0.00    -0.206 F 
ATOM     79  C   UNL A   1      45.045  36.376  27.761  1.00  0.00     0.006 A 
ENDBRANCH  51  72
BRANCH  63  80
ATOM     80  C   UNL A   1      41.640  30.175  33.477  1.00  0.00     0.057 A 
ATOM     81  C   UNL A   1      40.720  31.139  33.921  1.00  0.00     0.134 A 
ATOM     82  C   UNL A   1      42.478  29.617  34.447  1.00  0.00     0.134 A 
ATOM     83  F   UNL A   1      39.807  31.661  33.096  1.00  0.00    -0.206 F 
ATOM     84  C   UNL A   1      40.665  31.552  35.256  1.00  0.00     0.040 A 
ATOM     85  C   UNL A   1      42.411  29.996  35.789  1.00  0.00     0.040 A 
ATOM     86  F   UNL A   1      43.343  28.647  34.113  1.00  0.00    -0.206 F 
ATOM     87  C   UNL A   1      41.508  30.974  36.198  1.00  0.00     0.006 A 
ENDBRANCH  63  80
ENDBRANCH  37  38
ENDBRANCH  29  32
ENDBRANCH  27  28
ENDBRANCH  26  27
ENDBRANCH   1  26
TORSDOF 14
ENDMDL
MODEL 3
REMARK VINA RESULT:     -11.3      4.958     10.321
REMARK SMILES Cc1nn([C@H]2CCS(=O)(=O)C2)c(C)c1[C@@H]([NH3+])C(=O)NCCCCNC(=O)c1ccc(-c2c3nc(c(-c4c(F)cccc4F)c4ccc([nH]4)c(-c4c(F)cccc4F)c4nc(c(-c5c(F)cccc5F)c5ccc2[nH]5)C=C4)C=C3)cc1
REMARK SMILES IDX 21 1 20 2 19 3 17 4 18 5 15 7 14 8 1 9 2 10 3 11 4 12 12 13
REMARK SMILES IDX 13 14 5 15 6 16 11 17 7 18 8 19 9 20 10 21 16 22 22 26 23 27
REMARK SMILES IDX 24 28 25 29 26 31 27 32 28 33 80 34 29 35 79 36 30 37 31 38
REMARK SMILES IDX 32 39 73 40 33 41 78 42 72 43 74 44 34 45 77 46 71 47 70 48
REMARK SMILES IDX 35 50 61 51 44 52 60 53 45 54 48 55 59 56 75 57 46 58 47 59
REMARK SMILES IDX 58 61 76 62 49 63 36 64 37 65 42 66 38 67 39 68 41 69 43 70
REMARK SMILES IDX 40 71 62 72 63 73 68 74 64 75 65 76 67 77 69 78 66 79 50 80
REMARK SMILES IDX 51 81 56 82 52 83 53 84 55 85 57 86 54 87
REMARK H PARENT 19 6 16 23 16 24 16 25 24 30 74 49 48 60
REMARK Flexibility Score: inf
ROOT
ATOM      1  C   UNL A   1      33.865  33.518  28.545  1.00  0.00     0.023 C 
ENDROOT
BRANCH   1   2
ATOM      2  C   UNL A   1      33.338  32.391  27.656  1.00  0.00     0.116 C 
BRANCH   2   3
ATOM      3  N   UNL A   1      33.946  31.111  27.950  1.00  0.00    -0.351 N 
ATOM      4  C   UNL A   1      33.976  29.959  27.210  1.00  0.00     0.283 C 
ATOM      5  O   UNL A   1      34.646  29.025  27.673  1.00  0.00    -0.268 OA
ATOM      6  H   UNL A   1      34.411  31.060  28.817  1.00  0.00     0.163 HD
BRANCH   4   7
ATOM      7  C   UNL A   1      33.273  29.792  25.827  1.00  0.00     0.306 C 
BRANCH   7   8
ATOM      8  C   UNL A   1      33.121  28.356  25.391  1.00  0.00     0.063 A 
ATOM      9  C   UNL A   1      34.187  28.522  22.986  1.00  0.00     0.069 C 
ATOM     10  C   UNL A   1      33.633  27.814  24.171  1.00  0.00     0.069 A 
ATOM     11  N   UNL A   1      33.509  26.484  24.129  1.00  0.00    -0.177 NA
ATOM     12  N   UNL A   1      32.887  26.163  25.277  1.00  0.00    -0.265 N 
ATOM     13  C   UNL A   1      32.391  27.284  25.914  1.00  0.00     0.046 A 
ATOM     14  C   UNL A   1      31.297  27.245  26.922  1.00  0.00     0.067 C 
BRANCH  12  15
ATOM     15  C   UNL A   1      32.809  24.743  25.630  1.00  0.00     0.123 C 
ATOM     16  C   UNL A   1      31.426  24.134  25.281  1.00  0.00     0.044 C 
ATOM     17  C   UNL A   1      33.800  23.851  24.899  1.00  0.00     0.164 C 
ATOM     18  C   UNL A   1      31.522  22.620  25.424  1.00  0.00     0.139 C 
ATOM     19  S   UNL A   1      33.201  22.202  25.028  1.00  0.00     0.152 S 
ATOM     20  O   UNL A   1      33.818  21.592  26.192  1.00  0.00    -0.229 OA
ATOM     21  O   UNL A   1      33.249  21.615  23.708  1.00  0.00    -0.229 OA
ENDBRANCH  12  15
ENDBRANCH   7   8
BRANCH   7  22
ATOM     22  N   UNL A   1      32.009  30.544  25.776  1.00  0.00    -0.343 N 
ATOM     23  H   UNL A   1      32.197  31.534  25.931  1.00  0.00     0.345 HD
ATOM     24  H   UNL A   1      31.379  30.199  26.500  1.00  0.00     0.345 HD
ATOM     25  H   UNL A   1      31.577  30.420  24.861  1.00  0.00     0.345 HD
ENDBRANCH   7  22
ENDBRANCH   4   7
ENDBRANCH   2   3
ENDBRANCH   1   2
BRANCH   1  26
ATOM     26  C   UNL A   1      33.060  34.820  28.641  1.00  0.00     0.023 C 
BRANCH  26  27
ATOM     27  C   UNL A   1      33.621  35.819  29.651  1.00  0.00     0.116 C 
BRANCH  27  28
ATOM     28  N   UNL A   1      32.775  36.041  30.839  1.00  0.00    -0.352 N 
ATOM     29  C   UNL A   1      32.783  35.299  32.015  1.00  0.00     0.251 C 
ATOM     30  H   UNL A   1      32.141  36.792  30.795  1.00  0.00     0.163 HD
ATOM     31  O   UNL A   1      31.848  35.292  32.804  1.00  0.00    -0.269 OA
BRANCH  29  32
ATOM     32  C   UNL A   1      33.993  34.521  32.312  1.00  0.00     0.039 A 
ATOM     33  C   UNL A   1      34.049  33.129  32.190  1.00  0.00     0.014 A 
ATOM     34  C   UNL A   1      35.131  35.278  32.563  1.00  0.00     0.014 A 
ATOM     35  C   UNL A   1      35.297  32.510  32.215  1.00  0.00     0.010 A 
ATOM     36  C   UNL A   1      36.347  34.697  32.358  1.00  0.00     0.010 A 
ATOM     37  C   UNL A   1      36.446  33.312  32.268  1.00  0.00    -0.014 A 
BRANCH  37  38
ATOM     38  C   UNL A   1      37.788  32.774  32.097  1.00  0.00     0.031 A 
ATOM     39  C   UNL A   1      38.578  32.653  33.355  1.00  0.00     0.074 A 
ATOM     40  C   UNL A   1      38.151  32.172  30.941  1.00  0.00     0.049 A 
ATOM     41  N   UNL A   1      39.658  33.289  33.664  1.00  0.00    -0.248 NA
ATOM     42  C   UNL A   1      38.032  31.846  34.461  1.00  0.00     0.031 C 
ATOM     43  C   UNL A   1      37.343  31.959  29.731  1.00  0.00     0.029 A 
ATOM     44  N   UNL A   1      39.292  31.494  30.647  1.00  0.00    -0.354 N 
ATOM     45  C   UNL A   1      40.057  32.790  34.902  1.00  0.00     0.074 A 
ATOM     46  C   UNL A   1      38.924  32.077  35.428  1.00  0.00     0.031 C 
ATOM     47  C   UNL A   1      37.911  31.008  28.960  1.00  0.00     0.029 A 
ATOM     48  C   UNL A   1      39.204  30.676  29.521  1.00  0.00     0.049 A 
ATOM     49  H   UNL A   1      40.113  31.573  31.187  1.00  0.00     0.167 HD
ATOM     50  C   UNL A   1      41.373  32.782  35.258  1.00  0.00     0.037 A 
ATOM     51  C   UNL A   1      40.128  29.769  29.114  1.00  0.00     0.037 A 
ATOM     52  C   UNL A   1      42.144  33.635  34.384  1.00  0.00     0.049 A 
ATOM     53  C   UNL A   1      41.411  30.147  29.764  1.00  0.00     0.074 A 
ATOM     54  C   UNL A   1      42.091  34.974  34.047  1.00  0.00     0.029 A 
ATOM     55  N   UNL A   1      42.878  33.030  33.392  1.00  0.00    -0.354 N 
ATOM     56  N   UNL A   1      42.060  31.244  29.482  1.00  0.00    -0.248 NA
ATOM     57  C   UNL A   1      41.690  29.574  31.074  1.00  0.00     0.031 C 
ATOM     58  C   UNL A   1      42.338  35.004  32.642  1.00  0.00     0.029 A 
ATOM     59  C   UNL A   1      42.627  33.704  32.225  1.00  0.00     0.049 A 
ATOM     60  H   UNL A   1      43.476  32.253  33.501  1.00  0.00     0.167 HD
ATOM     61  C   UNL A   1      42.470  31.737  30.714  1.00  0.00     0.074 A 
ATOM     62  C   UNL A   1      42.270  30.631  31.652  1.00  0.00     0.031 C 
ATOM     63  C   UNL A   1      42.629  33.077  30.923  1.00  0.00     0.037 A 
BRANCH  50  64
ATOM     64  C   UNL A   1      42.036  31.724  36.110  1.00  0.00     0.057 A 
ATOM     65  C   UNL A   1      42.882  32.130  37.160  1.00  0.00     0.134 A 
ATOM     66  C   UNL A   1      42.128  30.360  35.767  1.00  0.00     0.134 A 
ATOM     67  F   UNL A   1      42.891  33.403  37.585  1.00  0.00    -0.206 F 
ATOM     68  C   UNL A   1      43.817  31.270  37.750  1.00  0.00     0.040 A 
ATOM     69  C   UNL A   1      43.022  29.481  36.385  1.00  0.00     0.040 A 
ATOM     70  F   UNL A   1      41.441  29.822  34.754  1.00  0.00    -0.206 F 
ATOM     71  C   UNL A   1      43.897  29.943  37.354  1.00  0.00     0.006 A 
ENDBRANCH  50  64
BRANCH  51  72
ATOM     72  C   UNL A   1      39.908  28.446  28.479  1.00  0.00     0.057 A 
ATOM     73  C   UNL A   1      40.430  28.155  27.210  1.00  0.00     0.134 A 
ATOM     74  C   UNL A   1      39.424  27.344  29.208  1.00  0.00     0.134 A 
ATOM     75  F   UNL A   1      40.949  29.129  26.448  1.00  0.00    -0.206 F 
ATOM     76  C   UNL A   1      40.499  26.845  26.710  1.00  0.00     0.040 A 
ATOM     77  C   UNL A   1      39.481  26.034  28.719  1.00  0.00     0.040 A 
ATOM     78  F   UNL A   1      38.960  27.486  30.458  1.00  0.00    -0.206 F 
ATOM     79  C   UNL A   1      40.036  25.777  27.472  1.00  0.00     0.006 A 
ENDBRANCH  51  72
BRANCH  63  80
ATOM     80  C   UNL A   1      42.570  34.002  29.735  1.00  0.00     0.057 A 
ATOM     81  C   UNL A   1      41.427  34.719  29.344  1.00  0.00     0.134 A 
ATOM     82  C   UNL A   1      43.761  34.312  29.071  1.00  0.00     0.134 A 
ATOM     83  F   UNL A   1      40.262  34.572  29.981  1.00  0.00    -0.206 F 
ATOM     84  C   UNL A   1      41.463  35.670  28.318  1.00  0.00     0.040 A 
ATOM     85  C   UNL A   1      43.818  35.282  28.068  1.00  0.00     0.040 A 
ATOM     86  F   UNL A   1      44.907  33.712  29.427  1.00  0.00    -0.206 F 
ATOM     87  C   UNL A   1      42.664  35.960  27.681  1.00  0.00     0.006 A 
ENDBRANCH  63  80
ENDBRANCH  37  38
ENDBRANCH  29  32
ENDBRANCH  27  28
ENDBRANCH  26  27
ENDBRANCH   1  26
TORSDOF 14
ENDMDL
