MODEL 1
REMARK VINA RESULT:     -11.6      0.000      0.000
REMARK SMILES O=C(NCCCCNC(=O)[C@@H](Cc1ccccc1)Nc1ccc(Cl)c(Br)c1)c1ccc(-c2c3nc(c(-c4c(F)cccc4F)c4ccc([nH]4)c(-c4c(F)cccc4F)c4nc(c(-c5c(F)cccc5F)c5ccc2[nH]5)C=C4)C=C3)cc1
REMARK SMILES IDX 5 1 4 2 3 3 1 4 2 5 28 7 29 8 81 9 30 10 80 11 31 12 32 13
REMARK SMILES IDX 33 14 74 15 34 16 79 17 73 18 75 19 35 20 78 21 72 22 71 23
REMARK SMILES IDX 36 25 62 26 45 27 61 28 46 29 49 30 60 31 76 32 47 33 48 34
REMARK SMILES IDX 59 36 77 37 50 38 37 39 38 40 43 41 39 42 40 43 42 44 44 45
REMARK SMILES IDX 41 46 63 47 64 48 69 49 65 50 66 51 68 52 70 53 67 54 51 55
REMARK SMILES IDX 52 56 57 57 53 58 54 59 56 60 58 61 55 62 6 63 7 64 8 65
REMARK SMILES IDX 9 66 10 68 11 69 12 70 13 71 14 72 18 73 15 74 17 75 16 76
REMARK SMILES IDX 19 77 20 79 21 80 27 81 22 82 25 83 23 84 26 85 24 86
REMARK H PARENT 3 6 75 24 49 35 8 67 19 78
REMARK Flexibility Score: inf
ROOT
ATOM      1  C   UNL A   1      33.641  28.922  27.473  1.00  0.00     0.023 C 
ENDROOT
BRANCH   1   2
ATOM      2  C   UNL A   1      34.591  30.109  27.402  1.00  0.00     0.116 C 
BRANCH   2   3
ATOM      3  N   UNL A   1      34.752  30.841  28.655  1.00  0.00    -0.352 N 
ATOM      4  O   UNL A   1      35.816  31.465  30.559  1.00  0.00    -0.269 OA
ATOM      5  C   UNL A   1      35.831  30.832  29.520  1.00  0.00     0.251 C 
ATOM      6  H   UNL A   1      33.996  31.414  28.917  1.00  0.00     0.163 HD
BRANCH   5   7
ATOM      7  C   UNL A   1      36.985  29.968  29.178  1.00  0.00     0.039 A 
ATOM      8  C   UNL A   1      37.588  29.193  30.166  1.00  0.00     0.014 A 
ATOM      9  C   UNL A   1      37.552  30.064  27.905  1.00  0.00     0.014 A 
ATOM     10  C   UNL A   1      38.876  28.721  29.960  1.00  0.00     0.010 A 
ATOM     11  C   UNL A   1      38.801  29.482  27.664  1.00  0.00     0.010 A 
ATOM     12  C   UNL A   1      39.508  28.873  28.712  1.00  0.00    -0.014 A 
BRANCH  12  13
ATOM     13  C   UNL A   1      40.913  28.410  28.558  1.00  0.00     0.031 A 
ATOM     14  C   UNL A   1      41.232  27.001  28.124  1.00  0.00     0.074 A 
ATOM     15  C   UNL A   1      41.911  29.300  28.721  1.00  0.00     0.049 A 
ATOM     16  N   UNL A   1      42.401  26.455  27.894  1.00  0.00    -0.248 NA
ATOM     17  C   UNL A   1      40.101  26.079  27.936  1.00  0.00     0.031 C 
ATOM     18  C   UNL A   1      41.734  30.694  29.136  1.00  0.00     0.029 A 
ATOM     19  N   UNL A   1      43.260  29.184  28.515  1.00  0.00    -0.354 N 
ATOM     20  C   UNL A   1      42.150  25.124  27.583  1.00  0.00     0.074 A 
ATOM     21  C   UNL A   1      40.718  24.939  27.656  1.00  0.00     0.031 C 
ATOM     22  C   UNL A   1      42.914  31.326  29.065  1.00  0.00     0.029 A 
ATOM     23  C   UNL A   1      43.940  30.366  28.676  1.00  0.00     0.049 A 
ATOM     24  H   UNL A   1      43.700  28.337  28.275  1.00  0.00     0.167 HD
ATOM     25  C   UNL A   1      43.034  24.147  27.264  1.00  0.00     0.037 A 
ATOM     26  C   UNL A   1      45.246  30.652  28.531  1.00  0.00     0.037 A 
ATOM     27  C   UNL A   1      44.454  24.343  27.133  1.00  0.00     0.049 A 
ATOM     28  C   UNL A   1      46.196  29.559  28.148  1.00  0.00     0.074 A 
ATOM     29  C   UNL A   1      45.423  23.422  26.772  1.00  0.00     0.029 A 
ATOM     30  N   UNL A   1      45.108  25.546  27.347  1.00  0.00    -0.354 N 
ATOM     31  N   UNL A   1      45.940  28.306  27.866  1.00  0.00    -0.248 NA
ATOM     32  C   UNL A   1      47.620  29.917  28.083  1.00  0.00     0.031 C 
ATOM     33  C   UNL A   1      46.668  24.062  26.795  1.00  0.00     0.029 A 
ATOM     34  C   UNL A   1      46.468  25.388  27.138  1.00  0.00     0.049 A 
ATOM     35  H   UNL A   1      44.671  26.389  27.607  1.00  0.00     0.167 HD
ATOM     36  C   UNL A   1      47.170  27.724  27.587  1.00  0.00     0.074 A 
ATOM     37  C   UNL A   1      48.165  28.768  27.709  1.00  0.00     0.031 C 
ATOM     38  C   UNL A   1      47.446  26.436  27.269  1.00  0.00     0.037 A 
BRANCH  25  39
ATOM     39  C   UNL A   1      42.494  22.761  27.055  1.00  0.00     0.057 A 
ATOM     40  C   UNL A   1      42.386  22.187  25.783  1.00  0.00     0.134 A 
ATOM     41  C   UNL A   1      42.127  21.972  28.154  1.00  0.00     0.134 A 
ATOM     42  F   UNL A   1      42.709  22.893  24.689  1.00  0.00    -0.206 F 
ATOM     43  C   UNL A   1      41.916  20.883  25.610  1.00  0.00     0.040 A 
ATOM     44  C   UNL A   1      41.676  20.661  27.995  1.00  0.00     0.040 A 
ATOM     45  F   UNL A   1      42.214  22.461  29.401  1.00  0.00    -0.206 F 
ATOM     46  C   UNL A   1      41.565  20.114  26.719  1.00  0.00     0.006 A 
ENDBRANCH  25  39
BRANCH  26  47
ATOM     47  C   UNL A   1      45.720  32.040  28.745  1.00  0.00     0.057 A 
ATOM     48  C   UNL A   1      46.195  32.454  29.993  1.00  0.00     0.134 A 
ATOM     49  C   UNL A   1      45.738  32.974  27.701  1.00  0.00     0.134 A 
ATOM     50  F   UNL A   1      46.187  31.609  31.034  1.00  0.00    -0.206 F 
ATOM     51  C   UNL A   1      46.671  33.750  30.197  1.00  0.00     0.040 A 
ATOM     52  C   UNL A   1      46.232  34.264  27.886  1.00  0.00     0.040 A 
ATOM     53  F   UNL A   1      45.302  32.632  26.479  1.00  0.00    -0.206 F 
ATOM     54  C   UNL A   1      46.698  34.656  29.139  1.00  0.00     0.006 A 
ENDBRANCH  26  47
BRANCH  38  55
ATOM     55  C   UNL A   1      48.885  26.100  27.021  1.00  0.00     0.057 A 
ATOM     56  C   UNL A   1      49.488  26.334  25.779  1.00  0.00     0.134 A 
ATOM     57  C   UNL A   1      49.674  25.545  28.034  1.00  0.00     0.134 A 
ATOM     58  F   UNL A   1      48.777  26.849  24.765  1.00  0.00    -0.206 F 
ATOM     59  C   UNL A   1      50.823  26.005  25.546  1.00  0.00     0.040 A 
ATOM     60  C   UNL A   1      51.016  25.229  27.820  1.00  0.00     0.040 A 
ATOM     61  F   UNL A   1      49.154  25.301  29.247  1.00  0.00    -0.206 F 
ATOM     62  C   UNL A   1      51.592  25.454  26.570  1.00  0.00     0.006 A 
ENDBRANCH  38  55
ENDBRANCH  12  13
ENDBRANCH   5   7
ENDBRANCH   2   3
ENDBRANCH   1   2
BRANCH   1  63
ATOM     63  C   UNL A   1      33.967  27.808  26.490  1.00  0.00     0.023 C 
BRANCH  63  64
ATOM     64  C   UNL A   1      32.790  26.911  26.112  1.00  0.00     0.116 C 
BRANCH  64  65
ATOM     65  N   UNL A   1      32.706  26.770  24.677  1.00  0.00    -0.354 N 
ATOM     66  C   UNL A   1      33.244  25.846  23.838  1.00  0.00     0.242 C 
ATOM     67  H   UNL A   1      32.166  27.461  24.230  1.00  0.00     0.163 HD
ATOM     68  O   UNL A   1      33.198  26.118  22.632  1.00  0.00    -0.273 OA
BRANCH  66  69
ATOM     69  C   UNL A   1      33.855  24.501  24.306  1.00  0.00     0.173 C 
BRANCH  69  70
ATOM     70  C   UNL A   1      35.122  24.597  25.183  1.00  0.00     0.070 C 
BRANCH  70  71
ATOM     71  C   UNL A   1      36.182  23.516  25.227  1.00  0.00    -0.045 A 
ATOM     72  C   UNL A   1      36.154  22.396  24.386  1.00  0.00     0.004 A 
ATOM     73  C   UNL A   1      37.301  23.684  26.064  1.00  0.00     0.004 A 
ATOM     74  C   UNL A   1      37.165  21.429  24.444  1.00  0.00     0.000 A 
ATOM     75  C   UNL A   1      38.319  22.726  26.113  1.00  0.00     0.000 A 
ATOM     76  C   UNL A   1      38.243  21.589  25.313  1.00  0.00     0.000 A 
ENDBRANCH  70  71
ENDBRANCH  69  70
BRANCH  69  77
ATOM     77  N   UNL A   1      32.826  23.558  24.780  1.00  0.00    -0.373 N 
ATOM     78  H   UNL A   1      32.233  23.847  25.511  1.00  0.00     0.161 HD
BRANCH  77  79
ATOM     79  C   UNL A   1      32.644  22.287  24.255  1.00  0.00     0.036 A 
ATOM     80  C   UNL A   1      32.301  22.160  22.903  1.00  0.00     0.027 A 
ATOM     81  C   UNL A   1      32.753  21.110  25.005  1.00  0.00     0.043 A 
ATOM     82  C   UNL A   1      32.140  20.905  22.304  1.00  0.00     0.024 A 
ATOM     83  C   UNL A   1      32.600  19.846  24.415  1.00  0.00     0.038 A 
ATOM     84  C   UNL A   1      32.301  19.742  23.057  1.00  0.00     0.055 A 
ATOM     85  Br  UNL A   1      32.828  18.327  25.535  1.00  0.00    -0.049 Br
ATOM     86  Cl  UNL A   1      32.119  18.228  22.248  1.00  0.00    -0.083 Cl
ENDBRANCH  77  79
ENDBRANCH  69  77
ENDBRANCH  66  69
ENDBRANCH  64  65
ENDBRANCH  63  64
ENDBRANCH   1  63
TORSDOF 15
ENDMDL
MODEL 2
REMARK VINA RESULT:     -11.6      4.337      8.650
REMARK SMILES O=C(NCCCCNC(=O)[C@@H](Cc1ccccc1)Nc1ccc(Cl)c(Br)c1)c1ccc(-c2c3nc(c(-c4c(F)cccc4F)c4ccc([nH]4)c(-c4c(F)cccc4F)c4nc(c(-c5c(F)cccc5F)c5ccc2[nH]5)C=C4)C=C3)cc1
REMARK SMILES IDX 5 1 4 2 3 3 1 4 2 5 28 7 29 8 81 9 30 10 80 11 31 12 32 13
REMARK SMILES IDX 33 14 74 15 34 16 79 17 73 18 75 19 35 20 78 21 72 22 71 23
REMARK SMILES IDX 36 25 62 26 45 27 61 28 46 29 49 30 60 31 76 32 47 33 48 34
REMARK SMILES IDX 59 36 77 37 50 38 37 39 38 40 43 41 39 42 40 43 42 44 44 45
REMARK SMILES IDX 41 46 63 47 64 48 69 49 65 50 66 51 68 52 70 53 67 54 51 55
REMARK SMILES IDX 52 56 57 57 53 58 54 59 56 60 58 61 55 62 6 63 7 64 8 65
REMARK SMILES IDX 9 66 10 68 11 69 12 70 13 71 14 72 18 73 15 74 17 75 16 76
REMARK SMILES IDX 19 77 20 79 21 80 27 81 22 82 25 83 23 84 26 85 24 86
REMARK H PARENT 3 6 75 24 49 35 8 67 19 78
REMARK Flexibility Score: inf
ROOT
ATOM      1  C   UNL A   1      32.176  30.000  26.914  1.00  0.00     0.023 C 
ENDROOT
BRANCH   1   2
ATOM      2  C   UNL A   1      33.140  31.139  27.210  1.00  0.00     0.116 C 
BRANCH   2   3
ATOM      3  N   UNL A   1      32.511  32.443  27.397  1.00  0.00    -0.352 N 
ATOM      4  O   UNL A   1      32.356  34.568  28.178  1.00  0.00    -0.269 OA
ATOM      5  C   UNL A   1      33.010  33.548  28.063  1.00  0.00     0.251 C 
ATOM      6  H   UNL A   1      31.617  32.549  26.999  1.00  0.00     0.163 HD
BRANCH   5   7
ATOM      7  C   UNL A   1      34.344  33.430  28.697  1.00  0.00     0.039 A 
ATOM      8  C   UNL A   1      35.477  33.866  28.013  1.00  0.00     0.014 A 
ATOM      9  C   UNL A   1      34.464  32.739  29.904  1.00  0.00     0.014 A 
ATOM     10  C   UNL A   1      36.722  33.397  28.405  1.00  0.00     0.010 A 
ATOM     11  C   UNL A   1      35.733  32.370  30.361  1.00  0.00     0.010 A 
ATOM     12  C   UNL A   1      36.867  32.629  29.575  1.00  0.00    -0.014 A 
BRANCH  12  13
ATOM     13  C   UNL A   1      38.211  32.092  29.919  1.00  0.00     0.031 A 
ATOM     14  C   UNL A   1      39.086  32.768  30.946  1.00  0.00     0.074 A 
ATOM     15  C   UNL A   1      38.607  30.930  29.366  1.00  0.00     0.049 A 
ATOM     16  N   UNL A   1      40.260  32.400  31.397  1.00  0.00    -0.248 NA
ATOM     17  C   UNL A   1      38.591  34.021  31.536  1.00  0.00     0.031 C 
ATOM     18  C   UNL A   1      37.851  30.176  28.363  1.00  0.00     0.029 A 
ATOM     19  N   UNL A   1      39.712  30.155  29.599  1.00  0.00    -0.354 N 
ATOM     20  C   UNL A   1      40.662  33.394  32.280  1.00  0.00     0.074 A 
ATOM     21  C   UNL A   1      39.610  34.387  32.302  1.00  0.00     0.031 C 
ATOM     22  C   UNL A   1      38.467  29.008  28.135  1.00  0.00     0.029 A 
ATOM     23  C   UNL A   1      39.697  28.964  28.916  1.00  0.00     0.049 A 
ATOM     24  H   UNL A   1      40.446  30.425  30.197  1.00  0.00     0.167 HD
ATOM     25  C   UNL A   1      41.804  33.472  33.006  1.00  0.00     0.037 A 
ATOM     26  C   UNL A   1      40.576  27.946  28.912  1.00  0.00     0.037 A 
ATOM     27  C   UNL A   1      42.825  32.458  33.030  1.00  0.00     0.049 A 
ATOM     28  C   UNL A   1      41.815  28.045  29.748  1.00  0.00     0.074 A 
ATOM     29  C   UNL A   1      43.997  32.430  33.769  1.00  0.00     0.029 A 
ATOM     30  N   UNL A   1      42.793  31.286  32.291  1.00  0.00    -0.354 N 
ATOM     31  N   UNL A   1      42.180  28.997  30.570  1.00  0.00    -0.248 NA
ATOM     32  C   UNL A   1      42.772  26.936  29.639  1.00  0.00     0.031 C 
ATOM     33  C   UNL A   1      44.687  31.253  33.453  1.00  0.00     0.029 A 
ATOM     34  C   UNL A   1      43.928  30.535  32.545  1.00  0.00     0.049 A 
ATOM     35  H   UNL A   1      42.069  31.026  31.676  1.00  0.00     0.167 HD
ATOM     36  C   UNL A   1      43.410  28.602  31.080  1.00  0.00     0.074 A 
ATOM     37  C   UNL A   1      43.713  27.313  30.494  1.00  0.00     0.031 C 
ATOM     38  C   UNL A   1      44.217  29.257  31.949  1.00  0.00     0.037 A 
BRANCH  25  39
ATOM     39  C   UNL A   1      42.026  34.712  33.824  1.00  0.00     0.057 A 
ATOM     40  C   UNL A   1      42.669  35.842  33.305  1.00  0.00     0.134 A 
ATOM     41  C   UNL A   1      41.539  34.791  35.136  1.00  0.00     0.134 A 
ATOM     42  F   UNL A   1      43.170  35.828  32.061  1.00  0.00    -0.206 F 
ATOM     43  C   UNL A   1      42.836  37.001  34.068  1.00  0.00     0.040 A 
ATOM     44  C   UNL A   1      41.680  35.950  35.900  1.00  0.00     0.040 A 
ATOM     45  F   UNL A   1      40.907  33.745  35.690  1.00  0.00    -0.206 F 
ATOM     46  C   UNL A   1      42.334  37.058  35.367  1.00  0.00     0.006 A 
ENDBRANCH  25  39
BRANCH  26  47
ATOM     47  C   UNL A   1      40.300  26.744  28.089  1.00  0.00     0.057 A 
ATOM     48  C   UNL A   1      39.446  25.736  28.550  1.00  0.00     0.134 A 
ATOM     49  C   UNL A   1      40.855  26.591  26.812  1.00  0.00     0.134 A 
ATOM     50  F   UNL A   1      38.898  25.821  29.770  1.00  0.00    -0.206 F 
ATOM     51  C   UNL A   1      39.157  24.616  27.771  1.00  0.00     0.040 A 
ATOM     52  C   UNL A   1      40.554  25.488  26.014  1.00  0.00     0.040 A 
ATOM     53  F   UNL A   1      41.674  27.529  26.314  1.00  0.00    -0.206 F 
ATOM     54  C   UNL A   1      39.705  24.494  26.496  1.00  0.00     0.006 A 
ENDBRANCH  26  47
BRANCH  38  55
ATOM     55  C   UNL A   1      45.498  28.574  32.320  1.00  0.00     0.057 A 
ATOM     56  C   UNL A   1      46.678  28.791  31.598  1.00  0.00     0.134 A 
ATOM     57  C   UNL A   1      45.553  27.700  33.411  1.00  0.00     0.134 A 
ATOM     58  F   UNL A   1      46.683  29.606  30.533  1.00  0.00    -0.206 F 
ATOM     59  C   UNL A   1      47.866  28.143  31.936  1.00  0.00     0.040 A 
ATOM     60  C   UNL A   1      46.739  27.060  33.771  1.00  0.00     0.040 A 
ATOM     61  F   UNL A   1      44.456  27.454  34.144  1.00  0.00    -0.206 F 
ATOM     62  C   UNL A   1      47.899  27.276  33.027  1.00  0.00     0.006 A 
ENDBRANCH  38  55
ENDBRANCH  12  13
ENDBRANCH   5   7
ENDBRANCH   2   3
ENDBRANCH   1   2
BRANCH   1  63
ATOM     63  C   UNL A   1      31.879  29.808  25.435  1.00  0.00     0.023 C 
BRANCH  63  64
ATOM     64  C   UNL A   1      32.079  28.387  24.913  1.00  0.00     0.116 C 
BRANCH  64  65
ATOM     65  N   UNL A   1      31.727  28.310  23.514  1.00  0.00    -0.354 N 
ATOM     66  C   UNL A   1      30.589  27.886  22.903  1.00  0.00     0.242 C 
ATOM     67  H   UNL A   1      32.431  28.617  22.899  1.00  0.00     0.163 HD
ATOM     68  O   UNL A   1      30.666  27.710  21.680  1.00  0.00    -0.273 OA
BRANCH  66  69
ATOM     69  C   UNL A   1      29.242  27.661  23.635  1.00  0.00     0.173 C 
BRANCH  69  70
ATOM     70  C   UNL A   1      28.042  28.485  23.121  1.00  0.00     0.070 C 
BRANCH  70  71
ATOM     71  C   UNL A   1      28.150  29.942  22.720  1.00  0.00    -0.045 A 
ATOM     72  C   UNL A   1      28.448  30.958  23.637  1.00  0.00     0.004 A 
ATOM     73  C   UNL A   1      28.056  30.288  21.358  1.00  0.00     0.004 A 
ATOM     74  C   UNL A   1      28.558  32.290  23.221  1.00  0.00     0.000 A 
ATOM     75  C   UNL A   1      28.180  31.617  20.940  1.00  0.00     0.000 A 
ATOM     76  C   UNL A   1      28.417  32.621  21.875  1.00  0.00     0.000 A 
ENDBRANCH  70  71
ENDBRANCH  69  70
BRANCH  69  77
ATOM     77  N   UNL A   1      28.973  26.231  23.876  1.00  0.00    -0.373 N 
ATOM     78  H   UNL A   1      28.074  25.888  23.671  1.00  0.00     0.161 HD
BRANCH  77  79
ATOM     79  C   UNL A   1      29.915  25.343  24.374  1.00  0.00     0.036 A 
ATOM     80  C   UNL A   1      30.241  25.401  25.735  1.00  0.00     0.027 A 
ATOM     81  C   UNL A   1      30.591  24.401  23.589  1.00  0.00     0.043 A 
ATOM     82  C   UNL A   1      31.156  24.509  26.306  1.00  0.00     0.024 A 
ATOM     83  C   UNL A   1      31.505  23.498  24.151  1.00  0.00     0.038 A 
ATOM     84  C   UNL A   1      31.783  23.545  25.517  1.00  0.00     0.055 A 
ATOM     85  Br  UNL A   1      32.313  22.233  22.984  1.00  0.00    -0.049 Br
ATOM     86  Cl  UNL A   1      32.876  22.457  26.292  1.00  0.00    -0.083 Cl
ENDBRANCH  77  79
ENDBRANCH  69  77
ENDBRANCH  66  69
ENDBRANCH  64  65
ENDBRANCH  63  64
ENDBRANCH   1  63
TORSDOF 15
ENDMDL
MODEL 3
REMARK VINA RESULT:     -11.6      4.885      7.438
REMARK SMILES O=C(NCCCCNC(=O)[C@@H](Cc1ccccc1)Nc1ccc(Cl)c(Br)c1)c1ccc(-c2c3nc(c(-c4c(F)cccc4F)c4ccc([nH]4)c(-c4c(F)cccc4F)c4nc(c(-c5c(F)cccc5F)c5ccc2[nH]5)C=C4)C=C3)cc1
REMARK SMILES IDX 5 1 4 2 3 3 1 4 2 5 28 7 29 8 81 9 30 10 80 11 31 12 32 13
REMARK SMILES IDX 33 14 74 15 34 16 79 17 73 18 75 19 35 20 78 21 72 22 71 23
REMARK SMILES IDX 36 25 62 26 45 27 61 28 46 29 49 30 60 31 76 32 47 33 48 34
REMARK SMILES IDX 59 36 77 37 50 38 37 39 38 40 43 41 39 42 40 43 42 44 44 45
REMARK SMILES IDX 41 46 63 47 64 48 69 49 65 50 66 51 68 52 70 53 67 54 51 55
REMARK SMILES IDX 52 56 57 57 53 58 54 59 56 60 58 61 55 62 6 63 7 64 8 65
REMARK SMILES IDX 9 66 10 68 11 69 12 70 13 71 14 72 18 73 15 74 17 75 16 76
REMARK SMILES IDX 19 77 20 79 21 80 27 81 22 82 25 83 23 84 26 85 24 86
REMARK H PARENT 3 6 75 24 49 35 8 67 19 78
REMARK Flexibility Score: inf
ROOT
ATOM      1  C   UNL A   1      31.012  31.784  26.463  1.00  0.00     0.023 C 
ENDROOT
BRANCH   1   2
ATOM      2  C   UNL A   1      32.258  32.658  26.504  1.00  0.00     0.116 C 
BRANCH   2   3
ATOM      3  N   UNL A   1      32.149  33.842  27.351  1.00  0.00    -0.352 N 
ATOM      4  O   UNL A   1      32.801  35.286  28.975  1.00  0.00    -0.269 OA
ATOM      5  C   UNL A   1      33.038  34.296  28.308  1.00  0.00     0.251 C 
ATOM      6  H   UNL A   1      31.339  34.387  27.224  1.00  0.00     0.163 HD
BRANCH   5   7
ATOM      7  C   UNL A   1      34.263  33.498  28.549  1.00  0.00     0.039 A 
ATOM      8  C   UNL A   1      34.166  32.124  28.756  1.00  0.00     0.014 A 
ATOM      9  C   UNL A   1      35.481  34.159  28.722  1.00  0.00     0.014 A 
ATOM     10  C   UNL A   1      35.216  31.460  29.373  1.00  0.00     0.010 A 
ATOM     11  C   UNL A   1      36.577  33.456  29.232  1.00  0.00     0.010 A 
ATOM     12  C   UNL A   1      36.431  32.119  29.635  1.00  0.00    -0.014 A 
BRANCH  12  13
ATOM     13  C   UNL A   1      37.504  31.386  30.357  1.00  0.00     0.031 A 
ATOM     14  C   UNL A   1      38.444  30.456  29.631  1.00  0.00     0.074 A 
ATOM     15  C   UNL A   1      37.691  31.634  31.668  1.00  0.00     0.049 A 
ATOM     16  N   UNL A   1      39.464  29.782  30.104  1.00  0.00    -0.248 NA
ATOM     17  C   UNL A   1      38.209  30.243  28.194  1.00  0.00     0.031 C 
ATOM     18  C   UNL A   1      36.852  32.515  32.484  1.00  0.00     0.029 A 
ATOM     19  N   UNL A   1      38.666  31.211  32.532  1.00  0.00    -0.354 N 
ATOM     20  C   UNL A   1      39.956  29.033  29.042  1.00  0.00     0.074 A 
ATOM     21  C   UNL A   1      39.124  29.331  27.897  1.00  0.00     0.031 C 
ATOM     22  C   UNL A   1      37.400  32.638  33.701  1.00  0.00     0.029 A 
ATOM     23  C   UNL A   1      38.582  31.788  33.775  1.00  0.00     0.049 A 
ATOM     24  H   UNL A   1      39.360  30.557  32.286  1.00  0.00     0.167 HD
ATOM     25  C   UNL A   1      41.007  28.177  29.023  1.00  0.00     0.037 A 
ATOM     26  C   UNL A   1      39.364  31.649  34.860  1.00  0.00     0.037 A 
ATOM     27  C   UNL A   1      41.872  27.924  30.146  1.00  0.00     0.049 A 
ATOM     28  C   UNL A   1      40.537  30.719  34.802  1.00  0.00     0.074 A 
ATOM     29  C   UNL A   1      42.988  27.105  30.209  1.00  0.00     0.029 A 
ATOM     30  N   UNL A   1      41.727  28.496  31.400  1.00  0.00    -0.354 N 
ATOM     31  N   UNL A   1      40.981  30.015  33.791  1.00  0.00    -0.248 NA
ATOM     32  C   UNL A   1      41.305  30.550  36.043  1.00  0.00     0.031 C 
ATOM     33  C   UNL A   1      43.500  27.160  31.511  1.00  0.00     0.029 A 
ATOM     34  C   UNL A   1      42.723  28.038  32.247  1.00  0.00     0.049 A 
ATOM     35  H   UNL A   1      41.020  29.133  31.652  1.00  0.00     0.167 HD
ATOM     36  C   UNL A   1      42.083  29.319  34.271  1.00  0.00     0.074 A 
ATOM     37  C   UNL A   1      42.253  29.708  35.656  1.00  0.00     0.031 C 
ATOM     38  C   UNL A   1      42.875  28.431  33.623  1.00  0.00     0.037 A 
BRANCH  25  39
ATOM     39  C   UNL A   1      41.271  27.426  27.750  1.00  0.00     0.057 A 
ATOM     40  C   UNL A   1      42.077  27.947  26.731  1.00  0.00     0.134 A 
ATOM     41  C   UNL A   1      40.751  26.138  27.568  1.00  0.00     0.134 A 
ATOM     42  F   UNL A   1      42.596  29.179  26.837  1.00  0.00    -0.206 F 
ATOM     43  C   UNL A   1      42.342  27.219  25.568  1.00  0.00     0.040 A 
ATOM     44  C   UNL A   1      41.025  25.393  26.420  1.00  0.00     0.040 A 
ATOM     45  F   UNL A   1      39.976  25.578  28.510  1.00  0.00    -0.206 F 
ATOM     46  C   UNL A   1      41.821  25.936  25.414  1.00  0.00     0.006 A 
ENDBRANCH  25  39
BRANCH  26  47
ATOM     47  C   UNL A   1      39.057  32.421  36.087  1.00  0.00     0.057 A 
ATOM     48  C   UNL A   1      38.264  31.874  37.102  1.00  0.00     0.134 A 
ATOM     49  C   UNL A   1      39.573  33.707  36.288  1.00  0.00     0.134 A 
ATOM     50  F   UNL A   1      37.729  30.653  36.957  1.00  0.00    -0.206 F 
ATOM     51  C   UNL A   1      37.993  32.581  38.274  1.00  0.00     0.040 A 
ATOM     52  C   UNL A   1      39.330  34.414  37.465  1.00  0.00     0.040 A 
ATOM     53  F   UNL A   1      40.347  34.279  35.354  1.00  0.00    -0.206 F 
ATOM     54  C   UNL A   1      38.534  33.851  38.461  1.00  0.00     0.006 A 
ENDBRANCH  26  47
BRANCH  38  55
ATOM     55  C   UNL A   1      44.000  27.835  34.411  1.00  0.00     0.057 A 
ATOM     56  C   UNL A   1      43.855  26.620  35.091  1.00  0.00     0.134 A 
ATOM     57  C   UNL A   1      45.241  28.478  34.484  1.00  0.00     0.134 A 
ATOM     58  F   UNL A   1      42.684  25.966  35.071  1.00  0.00    -0.206 F 
ATOM     59  C   UNL A   1      44.900  26.075  35.837  1.00  0.00     0.040 A 
ATOM     60  C   UNL A   1      46.300  27.934  35.211  1.00  0.00     0.040 A 
ATOM     61  F   UNL A   1      45.444  29.644  33.851  1.00  0.00    -0.206 F 
ATOM     62  C   UNL A   1      46.128  26.731  35.896  1.00  0.00     0.006 A 
ENDBRANCH  38  55
ENDBRANCH  12  13
ENDBRANCH   5   7
ENDBRANCH   2   3
ENDBRANCH   1   2
BRANCH   1  63
ATOM     63  C   UNL A   1      31.042  30.713  25.384  1.00  0.00     0.023 C 
BRANCH  63  64
ATOM     64  C   UNL A   1      32.175  29.697  25.510  1.00  0.00     0.116 C 
BRANCH  64  65
ATOM     65  N   UNL A   1      32.950  29.653  24.291  1.00  0.00    -0.354 N 
ATOM     66  C   UNL A   1      33.116  28.662  23.376  1.00  0.00     0.242 C 
ATOM     67  H   UNL A   1      33.441  30.481  24.090  1.00  0.00     0.163 HD
ATOM     68  O   UNL A   1      34.030  28.830  22.558  1.00  0.00    -0.273 OA
BRANCH  66  69
ATOM     69  C   UNL A   1      32.222  27.400  23.289  1.00  0.00     0.173 C 
BRANCH  69  70
ATOM     70  C   UNL A   1      31.005  27.491  22.342  1.00  0.00     0.070 C 
BRANCH  70  71
ATOM     71  C   UNL A   1      29.920  28.538  22.488  1.00  0.00    -0.045 A 
ATOM     72  C   UNL A   1      30.048  29.835  21.974  1.00  0.00     0.004 A 
ATOM     73  C   UNL A   1      28.688  28.175  23.064  1.00  0.00     0.004 A 
ATOM     74  C   UNL A   1      29.013  30.767  22.113  1.00  0.00     0.000 A 
ATOM     75  C   UNL A   1      27.648  29.101  23.190  1.00  0.00     0.000 A 
ATOM     76  C   UNL A   1      27.816  30.404  22.727  1.00  0.00     0.000 A 
ENDBRANCH  70  71
ENDBRANCH  69  70
BRANCH  69  77
ATOM     77  N   UNL A   1      33.015  26.162  23.185  1.00  0.00    -0.373 N 
ATOM     78  H   UNL A   1      33.341  25.894  22.295  1.00  0.00     0.161 HD
BRANCH  77  79
ATOM     79  C   UNL A   1      33.330  25.354  24.267  1.00  0.00     0.036 A 
ATOM     80  C   UNL A   1      32.309  24.992  25.156  1.00  0.00     0.027 A 
ATOM     81  C   UNL A   1      34.622  24.897  24.550  1.00  0.00     0.043 A 
ATOM     82  C   UNL A   1      32.554  24.149  26.246  1.00  0.00     0.024 A 
ATOM     83  C   UNL A   1      34.879  24.047  25.637  1.00  0.00     0.038 A 
ATOM     84  C   UNL A   1      33.839  23.664  26.484  1.00  0.00     0.055 A 
ATOM     85  Br  UNL A   1      36.669  23.454  25.877  1.00  0.00    -0.049 Br
ATOM     86  Cl  UNL A   1      34.064  22.605  27.828  1.00  0.00    -0.083 Cl
ENDBRANCH  77  79
ENDBRANCH  69  77
ENDBRANCH  66  69
ENDBRANCH  64  65
ENDBRANCH  63  64
ENDBRANCH   1  63
TORSDOF 15
ENDMDL
