MODEL 1
REMARK VINA RESULT:     -11.5      0.000      0.000
REMARK SMILES COc1ccc(NC(C)(C)C2=N[C@@H](C(=O)NCCCCNC(=O)c3ccc(-c4c5nc(c(-c6c(F)cccc6F)c6ccc([nH]6)c(-c6c(F)cccc6F)c6nc(c(-c7c(F)cccc7F)c7ccc4[nH]7)C=C6)C=C5)cc3)CS2)cc1
REMARK SMILES IDX 17 1 16 2 14 3 15 4 13 6 11 7 12 8 79 9 78 10 8 11 9 12
REMARK SMILES IDX 10 13 7 14 6 16 3 17 4 18 81 19 5 20 80 21 2 22 1 23 18 24
REMARK SMILES IDX 19 25 20 26 21 27 22 28 23 30 24 31 25 32 77 33 26 34 76 35
REMARK SMILES IDX 27 36 28 37 29 38 70 39 30 40 75 41 69 42 71 43 31 44 74 45
REMARK SMILES IDX 68 46 67 47 32 49 58 50 41 51 57 52 42 53 45 54 56 55 72 56
REMARK SMILES IDX 43 57 44 58 55 60 73 61 46 62 33 63 34 64 39 65 35 66 36 67
REMARK SMILES IDX 38 68 40 69 37 70 59 71 60 72 65 73 61 74 62 75 64 76 66 77
REMARK SMILES IDX 63 78 47 79 48 80 53 81 49 82 50 83 52 84 54 85 51 86
REMARK H PARENT 16 5 7 15 21 29 71 48 45 59
REMARK Flexibility Score: inf
ROOT
ATOM      1  C   UNL A   1      35.529  22.011  24.514  1.00  0.00     0.116 C 
ENDROOT
BRANCH   1   2
ATOM      2  N   UNL A   1      35.216  21.812  25.915  1.00  0.00    -0.354 N 
ATOM      3  C   UNL A   1      34.144  22.257  26.631  1.00  0.00     0.245 C 
ATOM      4  O   UNL A   1      34.123  21.996  27.839  1.00  0.00    -0.273 OA
ATOM      5  H   UNL A   1      35.871  21.280  26.423  1.00  0.00     0.163 HD
BRANCH   3   6
ATOM      6  C   UNL A   1      33.047  23.120  26.010  1.00  0.00     0.205 C 
ATOM      7  C   UNL A   1      32.389  25.297  25.930  1.00  0.00     0.094 C 
ATOM      8  N   UNL A   1      33.455  24.552  25.910  1.00  0.00    -0.266 NA
ATOM      9  S   UNL A   1      30.856  24.444  26.133  1.00  0.00    -0.106 SA
ATOM     10  C   UNL A   1      31.744  23.010  26.777  1.00  0.00     0.113 C 
BRANCH   7  11
ATOM     11  C   UNL A   1      32.427  26.842  25.787  1.00  0.00     0.080 C 
ATOM     12  C   UNL A   1      33.777  27.498  26.110  1.00  0.00     0.042 C 
ATOM     13  C   UNL A   1      31.399  27.374  26.816  1.00  0.00     0.042 C 
BRANCH  11  14
ATOM     14  N   UNL A   1      31.971  27.318  24.461  1.00  0.00    -0.374 N 
ATOM     15  H   UNL A   1      32.567  27.083  23.713  1.00  0.00     0.161 HD
BRANCH  14  16
ATOM     16  C   UNL A   1      30.852  28.035  24.101  1.00  0.00     0.035 A 
ATOM     17  C   UNL A   1      28.591  29.363  22.995  1.00  0.00     0.119 A 
ATOM     18  C   UNL A   1      29.672  30.080  23.502  1.00  0.00     0.048 A 
ATOM     19  C   UNL A   1      28.606  27.979  23.105  1.00  0.00     0.048 A 
ATOM     20  C   UNL A   1      30.772  29.423  24.069  1.00  0.00     0.029 A 
ATOM     21  C   UNL A   1      29.729  27.330  23.639  1.00  0.00     0.029 A 
BRANCH  17  22
ATOM     22  O   UNL A   1      27.674  30.118  22.329  1.00  0.00    -0.497 OA
ATOM     23  C   UNL A   1      28.062  30.786  21.137  1.00  0.00     0.278 C 
ENDBRANCH  17  22
ENDBRANCH  14  16
ENDBRANCH  11  14
ENDBRANCH   7  11
ENDBRANCH   3   6
ENDBRANCH   1   2
BRANCH   1  24
ATOM     24  C   UNL A   1      37.004  21.750  24.236  1.00  0.00     0.023 C 
BRANCH  24  25
ATOM     25  C   UNL A   1      37.586  20.508  24.903  1.00  0.00     0.023 C 
BRANCH  25  26
ATOM     26  C   UNL A   1      38.822  20.740  25.766  1.00  0.00     0.116 C 
BRANCH  26  27
ATOM     27  N   UNL A   1      39.818  19.679  25.682  1.00  0.00    -0.352 N 
ATOM     28  C   UNL A   1      41.146  19.699  26.039  1.00  0.00     0.251 C 
ATOM     29  H   UNL A   1      39.493  18.825  25.318  1.00  0.00     0.163 HD
ATOM     30  O   UNL A   1      41.864  18.718  25.867  1.00  0.00    -0.269 OA
BRANCH  28  31
ATOM     31  C   UNL A   1      41.731  20.940  26.581  1.00  0.00     0.039 A 
ATOM     32  C   UNL A   1      42.251  21.881  25.688  1.00  0.00     0.014 A 
ATOM     33  C   UNL A   1      41.701  21.202  27.951  1.00  0.00     0.014 A 
ATOM     34  C   UNL A   1      42.644  23.132  26.161  1.00  0.00     0.010 A 
ATOM     35  C   UNL A   1      42.008  22.477  28.407  1.00  0.00     0.010 A 
ATOM     36  C   UNL A   1      42.469  23.459  27.515  1.00  0.00    -0.014 A 
BRANCH  36  37
ATOM     37  C   UNL A   1      42.740  24.824  28.025  1.00  0.00     0.031 A 
ATOM     38  C   UNL A   1      44.126  25.197  28.467  1.00  0.00     0.074 A 
ATOM     39  C   UNL A   1      41.720  25.692  28.181  1.00  0.00     0.049 A 
ATOM     40  N   UNL A   1      44.540  26.285  29.063  1.00  0.00    -0.248 NA
ATOM     41  C   UNL A   1      45.181  24.195  28.241  1.00  0.00     0.031 C 
ATOM     42  C   UNL A   1      40.319  25.429  27.841  1.00  0.00     0.029 A 
ATOM     43  N   UNL A   1      41.703  26.969  28.682  1.00  0.00    -0.354 N 
ATOM     44  C   UNL A   1      45.891  26.087  29.309  1.00  0.00     0.074 A 
ATOM     45  C   UNL A   1      46.218  24.756  28.843  1.00  0.00     0.031 C 
ATOM     46  C   UNL A   1      39.586  26.519  28.121  1.00  0.00     0.029 A 
ATOM     47  C   UNL A   1      40.454  27.541  28.693  1.00  0.00     0.049 A 
ATOM     48  H   UNL A   1      42.511  27.433  29.003  1.00  0.00     0.167 HD
ATOM     49  C   UNL A   1      46.786  26.944  29.855  1.00  0.00     0.037 A 
ATOM     50  C   UNL A   1      40.054  28.752  29.126  1.00  0.00     0.037 A 
ATOM     51  C   UNL A   1      46.466  28.280  30.279  1.00  0.00     0.049 A 
ATOM     52  C   UNL A   1      41.073  29.697  29.700  1.00  0.00     0.074 A 
ATOM     53  C   UNL A   1      47.311  29.248  30.794  1.00  0.00     0.029 A 
ATOM     54  N   UNL A   1      45.199  28.840  30.227  1.00  0.00    -0.354 N 
ATOM     55  N   UNL A   1      42.358  29.515  29.880  1.00  0.00    -0.248 NA
ATOM     56  C   UNL A   1      40.586  31.017  30.123  1.00  0.00     0.031 C 
ATOM     57  C   UNL A   1      46.549  30.387  31.076  1.00  0.00     0.029 A 
ATOM     58  C   UNL A   1      45.237  30.140  30.703  1.00  0.00     0.049 A 
ATOM     59  H   UNL A   1      44.391  28.382  29.900  1.00  0.00     0.167 HD
ATOM     60  C   UNL A   1      42.839  30.705  30.409  1.00  0.00     0.074 A 
ATOM     61  C   UNL A   1      41.709  31.606  30.511  1.00  0.00     0.031 C 
ATOM     62  C   UNL A   1      44.104  31.025  30.776  1.00  0.00     0.037 A 
BRANCH  49  63
ATOM     63  C   UNL A   1      48.196  26.459  30.010  1.00  0.00     0.057 A 
ATOM     64  C   UNL A   1      48.626  25.801  31.170  1.00  0.00     0.134 A 
ATOM     65  C   UNL A   1      49.133  26.637  28.984  1.00  0.00     0.134 A 
ATOM     66  F   UNL A   1      47.783  25.613  32.196  1.00  0.00    -0.206 F 
ATOM     67  C   UNL A   1      49.942  25.361  31.315  1.00  0.00     0.040 A 
ATOM     68  C   UNL A   1      50.445  26.178  29.106  1.00  0.00     0.040 A 
ATOM     69  F   UNL A   1      48.787  27.257  27.846  1.00  0.00    -0.206 F 
ATOM     70  C   UNL A   1      50.854  25.545  30.278  1.00  0.00     0.006 A 
ENDBRANCH  49  63
BRANCH  50  71
ATOM     71  C   UNL A   1      38.633  29.157  29.001  1.00  0.00     0.057 A 
ATOM     72  C   UNL A   1      37.766  29.081  30.098  1.00  0.00     0.134 A 
ATOM     73  C   UNL A   1      38.102  29.618  27.790  1.00  0.00     0.134 A 
ATOM     74  F   UNL A   1      38.213  28.631  31.279  1.00  0.00    -0.206 F 
ATOM     75  C   UNL A   1      36.418  29.428  29.991  1.00  0.00     0.040 A 
ATOM     76  C   UNL A   1      36.762  29.990  27.675  1.00  0.00     0.040 A 
ATOM     77  F   UNL A   1      38.883  29.722  26.705  1.00  0.00    -0.206 F 
ATOM     78  C   UNL A   1      35.914  29.888  28.778  1.00  0.00     0.006 A 
ENDBRANCH  50  71
BRANCH  62  79
ATOM     79  C   UNL A   1      44.340  32.418  31.274  1.00  0.00     0.057 A 
ATOM     80  C   UNL A   1      44.283  32.736  32.637  1.00  0.00     0.134 A 
ATOM     81  C   UNL A   1      44.667  33.445  30.380  1.00  0.00     0.134 A 
ATOM     82  F   UNL A   1      43.961  31.799  33.540  1.00  0.00    -0.206 F 
ATOM     83  C   UNL A   1      44.527  34.033  33.091  1.00  0.00     0.040 A 
ATOM     84  C   UNL A   1      44.936  34.740  30.824  1.00  0.00     0.040 A 
ATOM     85  F   UNL A   1      44.744  33.203  29.062  1.00  0.00    -0.206 F 
ATOM     86  C   UNL A   1      44.860  35.037  32.183  1.00  0.00     0.006 A 
ENDBRANCH  62  79
ENDBRANCH  36  37
ENDBRANCH  28  31
ENDBRANCH  26  27
ENDBRANCH  25  26
ENDBRANCH  24  25
ENDBRANCH   1  24
TORSDOF 15
ENDMDL
MODEL 2
REMARK VINA RESULT:     -11.4      4.031      9.739
REMARK SMILES COc1ccc(NC(C)(C)C2=N[C@@H](C(=O)NCCCCNC(=O)c3ccc(-c4c5nc(c(-c6c(F)cccc6F)c6ccc([nH]6)c(-c6c(F)cccc6F)c6nc(c(-c7c(F)cccc7F)c7ccc4[nH]7)C=C6)C=C5)cc3)CS2)cc1
REMARK SMILES IDX 17 1 16 2 14 3 15 4 13 6 11 7 12 8 79 9 78 10 8 11 9 12
REMARK SMILES IDX 10 13 7 14 6 16 3 17 4 18 81 19 5 20 80 21 2 22 1 23 18 24
REMARK SMILES IDX 19 25 20 26 21 27 22 28 23 30 24 31 25 32 77 33 26 34 76 35
REMARK SMILES IDX 27 36 28 37 29 38 70 39 30 40 75 41 69 42 71 43 31 44 74 45
REMARK SMILES IDX 68 46 67 47 32 49 58 50 41 51 57 52 42 53 45 54 56 55 72 56
REMARK SMILES IDX 43 57 44 58 55 60 73 61 46 62 33 63 34 64 39 65 35 66 36 67
REMARK SMILES IDX 38 68 40 69 37 70 59 71 60 72 65 73 61 74 62 75 64 76 66 77
REMARK SMILES IDX 63 78 47 79 48 80 53 81 49 82 50 83 52 84 54 85 51 86
REMARK H PARENT 16 5 7 15 21 29 71 48 45 59
REMARK Flexibility Score: inf
ROOT
ATOM      1  C   UNL A   1      33.254  29.985  26.730  1.00  0.00     0.116 C 
ENDROOT
BRANCH   1   2
ATOM      2  N   UNL A   1      33.650  29.705  25.364  1.00  0.00    -0.354 N 
ATOM      3  C   UNL A   1      33.542  28.546  24.655  1.00  0.00     0.245 C 
ATOM      4  O   UNL A   1      34.000  28.539  23.507  1.00  0.00    -0.273 OA
ATOM      5  H   UNL A   1      34.055  30.460  24.878  1.00  0.00     0.163 HD
BRANCH   3   6
ATOM      6  C   UNL A   1      32.964  27.268  25.261  1.00  0.00     0.205 C 
ATOM      7  C   UNL A   1      32.800  25.046  24.794  1.00  0.00     0.094 C 
ATOM      8  N   UNL A   1      33.630  26.046  24.721  1.00  0.00    -0.266 NA
ATOM      9  S   UNL A   1      31.189  25.425  25.409  1.00  0.00    -0.106 SA
ATOM     10  C   UNL A   1      31.466  27.171  25.049  1.00  0.00     0.113 C 
BRANCH   7  11
ATOM     11  C   UNL A   1      33.172  23.599  24.373  1.00  0.00     0.080 C 
ATOM     12  C   UNL A   1      33.781  23.459  22.972  1.00  0.00     0.042 C 
ATOM     13  C   UNL A   1      31.836  22.816  24.375  1.00  0.00     0.042 C 
BRANCH  11  14
ATOM     14  N   UNL A   1      34.054  22.916  25.347  1.00  0.00    -0.374 N 
ATOM     15  H   UNL A   1      33.605  22.623  26.173  1.00  0.00     0.161 HD
BRANCH  14  16
ATOM     16  C   UNL A   1      35.398  22.623  25.290  1.00  0.00     0.035 A 
ATOM     17  C   UNL A   1      38.102  21.750  25.453  1.00  0.00     0.119 A 
ATOM     18  C   UNL A   1      37.748  23.063  25.755  1.00  0.00     0.048 A 
ATOM     19  C   UNL A   1      37.114  20.887  25.000  1.00  0.00     0.048 A 
ATOM     20  C   UNL A   1      36.420  23.496  25.647  1.00  0.00     0.029 A 
ATOM     21  C   UNL A   1      35.781  21.320  24.934  1.00  0.00     0.029 A 
BRANCH  17  22
ATOM     22  O   UNL A   1      39.390  21.428  25.758  1.00  0.00    -0.497 OA
ATOM     23  C   UNL A   1      40.027  22.079  26.849  1.00  0.00     0.278 C 
ENDBRANCH  17  22
ENDBRANCH  14  16
ENDBRANCH  11  14
ENDBRANCH   7  11
ENDBRANCH   3   6
ENDBRANCH   1   2
BRANCH   1  24
ATOM     24  C   UNL A   1      31.802  30.440  26.801  1.00  0.00     0.023 C 
BRANCH  24  25
ATOM     25  C   UNL A   1      31.587  31.950  26.758  1.00  0.00     0.023 C 
BRANCH  25  26
ATOM     26  C   UNL A   1      32.755  32.797  27.253  1.00  0.00     0.116 C 
BRANCH  26  27
ATOM     27  N   UNL A   1      32.391  34.158  27.625  1.00  0.00    -0.352 N 
ATOM     28  C   UNL A   1      32.989  35.004  28.530  1.00  0.00     0.251 C 
ATOM     29  H   UNL A   1      31.604  34.525  27.163  1.00  0.00     0.163 HD
ATOM     30  O   UNL A   1      32.528  36.120  28.755  1.00  0.00    -0.269 OA
BRANCH  28  31
ATOM     31  C   UNL A   1      34.167  34.540  29.286  1.00  0.00     0.039 A 
ATOM     32  C   UNL A   1      33.970  33.937  30.531  1.00  0.00     0.014 A 
ATOM     33  C   UNL A   1      35.447  34.635  28.738  1.00  0.00     0.014 A 
ATOM     34  C   UNL A   1      35.046  33.332  31.179  1.00  0.00     0.010 A 
ATOM     35  C   UNL A   1      36.498  33.956  29.340  1.00  0.00     0.010 A 
ATOM     36  C   UNL A   1      36.304  33.286  30.560  1.00  0.00    -0.014 A 
BRANCH  36  37
ATOM     37  C   UNL A   1      37.433  32.529  31.151  1.00  0.00     0.031 A 
ATOM     38  C   UNL A   1      38.045  32.986  32.444  1.00  0.00     0.074 A 
ATOM     39  C   UNL A   1      37.966  31.492  30.475  1.00  0.00     0.049 A 
ATOM     40  N   UNL A   1      39.116  32.547  33.054  1.00  0.00    -0.248 NA
ATOM     41  C   UNL A   1      37.386  34.114  33.122  1.00  0.00     0.031 C 
ATOM     42  C   UNL A   1      37.497  30.986  29.183  1.00  0.00     0.029 A 
ATOM     43  N   UNL A   1      39.035  30.685  30.777  1.00  0.00    -0.354 N 
ATOM     44  C   UNL A   1      39.274  33.360  34.167  1.00  0.00     0.074 A 
ATOM     45  C   UNL A   1      38.219  34.351  34.124  1.00  0.00     0.031 C 
ATOM     46  C   UNL A   1      38.257  29.941  28.817  1.00  0.00     0.029 A 
ATOM     47  C   UNL A   1      39.289  29.727  29.825  1.00  0.00     0.049 A 
ATOM     48  H   UNL A   1      39.569  30.782  31.599  1.00  0.00     0.167 HD
ATOM     49  C   UNL A   1      40.201  33.278  35.150  1.00  0.00     0.037 A 
ATOM     50  C   UNL A   1      40.252  28.788  29.769  1.00  0.00     0.037 A 
ATOM     51  C   UNL A   1      41.222  32.267  35.212  1.00  0.00     0.049 A 
ATOM     52  C   UNL A   1      41.251  28.698  30.888  1.00  0.00     0.074 A 
ATOM     53  C   UNL A   1      42.176  32.061  36.193  1.00  0.00     0.029 A 
ATOM     54  N   UNL A   1      41.415  31.284  34.253  1.00  0.00    -0.354 N 
ATOM     55  N   UNL A   1      41.359  29.443  31.961  1.00  0.00    -0.248 NA
ATOM     56  C   UNL A   1      42.259  27.632  30.792  1.00  0.00     0.031 C 
ATOM     57  C   UNL A   1      42.961  30.967  35.816  1.00  0.00     0.029 A 
ATOM     58  C   UNL A   1      42.473  30.470  34.618  1.00  0.00     0.049 A 
ATOM     59  H   UNL A   1      40.878  31.179  33.434  1.00  0.00     0.167 HD
ATOM     60  C   UNL A   1      42.423  28.919  32.682  1.00  0.00     0.074 A 
ATOM     61  C   UNL A   1      42.923  27.787  31.929  1.00  0.00     0.031 C 
ATOM     62  C   UNL A   1      42.940  29.336  33.863  1.00  0.00     0.037 A 
BRANCH  49  63
ATOM     63  C   UNL A   1      40.140  34.304  36.242  1.00  0.00     0.057 A 
ATOM     64  C   UNL A   1      40.852  35.508  36.162  1.00  0.00     0.134 A 
ATOM     65  C   UNL A   1      39.349  34.095  37.379  1.00  0.00     0.134 A 
ATOM     66  F   UNL A   1      41.640  35.762  35.106  1.00  0.00    -0.206 F 
ATOM     67  C   UNL A   1      40.801  36.456  37.184  1.00  0.00     0.040 A 
ATOM     68  C   UNL A   1      39.269  35.047  38.396  1.00  0.00     0.040 A 
ATOM     69  F   UNL A   1      38.640  32.965  37.517  1.00  0.00    -0.206 F 
ATOM     70  C   UNL A   1      40.003  36.228  38.303  1.00  0.00     0.006 A 
ENDBRANCH  49  63
BRANCH  50  71
ATOM     71  C   UNL A   1      40.300  27.834  28.634  1.00  0.00     0.057 A 
ATOM     72  C   UNL A   1      39.617  26.613  28.695  1.00  0.00     0.134 A 
ATOM     73  C   UNL A   1      41.029  28.109  27.471  1.00  0.00     0.134 A 
ATOM     74  F   UNL A   1      38.916  26.287  29.790  1.00  0.00    -0.206 F 
ATOM     75  C   UNL A   1      39.675  25.689  27.650  1.00  0.00     0.040 A 
ATOM     76  C   UNL A   1      41.077  27.204  26.410  1.00  0.00     0.040 A 
ATOM     77  F   UNL A   1      41.697  29.265  27.348  1.00  0.00    -0.206 F 
ATOM     78  C   UNL A   1      40.404  25.986  26.501  1.00  0.00     0.006 A 
ENDBRANCH  50  71
BRANCH  62  79
ATOM     79  C   UNL A   1      44.071  28.537  34.435  1.00  0.00     0.057 A 
ATOM     80  C   UNL A   1      43.850  27.424  35.256  1.00  0.00     0.134 A 
ATOM     81  C   UNL A   1      45.398  28.862  34.124  1.00  0.00     0.134 A 
ATOM     82  F   UNL A   1      42.603  27.071  35.600  1.00  0.00    -0.206 F 
ATOM     83  C   UNL A   1      44.911  26.673  35.763  1.00  0.00     0.040 A 
ATOM     84  C   UNL A   1      46.466  28.105  34.607  1.00  0.00     0.040 A 
ATOM     85  F   UNL A   1      45.675  29.912  33.336  1.00  0.00    -0.206 F 
ATOM     86  C   UNL A   1      46.223  27.010  35.433  1.00  0.00     0.006 A 
ENDBRANCH  62  79
ENDBRANCH  36  37
ENDBRANCH  28  31
ENDBRANCH  26  27
ENDBRANCH  25  26
ENDBRANCH  24  25
ENDBRANCH   1  24
TORSDOF 15
ENDMDL
MODEL 3
REMARK VINA RESULT:     -11.4      2.065      2.837
REMARK SMILES COc1ccc(NC(C)(C)C2=N[C@@H](C(=O)NCCCCNC(=O)c3ccc(-c4c5nc(c(-c6c(F)cccc6F)c6ccc([nH]6)c(-c6c(F)cccc6F)c6nc(c(-c7c(F)cccc7F)c7ccc4[nH]7)C=C6)C=C5)cc3)CS2)cc1
REMARK SMILES IDX 17 1 16 2 14 3 15 4 13 6 11 7 12 8 79 9 78 10 8 11 9 12
REMARK SMILES IDX 10 13 7 14 6 16 3 17 4 18 81 19 5 20 80 21 2 22 1 23 18 24
REMARK SMILES IDX 19 25 20 26 21 27 22 28 23 30 24 31 25 32 77 33 26 34 76 35
REMARK SMILES IDX 27 36 28 37 29 38 70 39 30 40 75 41 69 42 71 43 31 44 74 45
REMARK SMILES IDX 68 46 67 47 32 49 58 50 41 51 57 52 42 53 45 54 56 55 72 56
REMARK SMILES IDX 43 57 44 58 55 60 73 61 46 62 33 63 34 64 39 65 35 66 36 67
REMARK SMILES IDX 38 68 40 69 37 70 59 71 60 72 65 73 61 74 62 75 64 76 66 77
REMARK SMILES IDX 63 78 47 79 48 80 53 81 49 82 50 83 52 84 54 85 51 86
REMARK H PARENT 16 5 7 15 21 29 71 48 45 59
REMARK Flexibility Score: inf
ROOT
ATOM      1  C   UNL A   1      35.571  20.752  24.970  1.00  0.00     0.116 C 
ENDROOT
BRANCH   1   2
ATOM      2  N   UNL A   1      35.063  21.084  26.286  1.00  0.00    -0.354 N 
ATOM      3  C   UNL A   1      34.041  21.917  26.631  1.00  0.00     0.245 C 
ATOM      4  O   UNL A   1      33.823  22.078  27.837  1.00  0.00    -0.273 OA
ATOM      5  H   UNL A   1      35.521  20.645  27.040  1.00  0.00     0.163 HD
BRANCH   3   6
ATOM      6  C   UNL A   1      33.241  22.703  25.593  1.00  0.00     0.205 C 
ATOM      7  C   UNL A   1      31.728  24.401  25.488  1.00  0.00     0.094 C 
ATOM      8  N   UNL A   1      32.810  24.034  26.112  1.00  0.00    -0.266 NA
ATOM      9  S   UNL A   1      31.081  23.243  24.323  1.00  0.00    -0.106 SA
ATOM     10  C   UNL A   1      32.032  21.926  25.108  1.00  0.00     0.113 C 
BRANCH   7  11
ATOM     11  C   UNL A   1      31.027  25.764  25.731  1.00  0.00     0.080 C 
ATOM     12  C   UNL A   1      29.514  25.689  25.975  1.00  0.00     0.042 C 
ATOM     13  C   UNL A   1      31.244  26.573  24.428  1.00  0.00     0.042 C 
BRANCH  11  14
ATOM     14  N   UNL A   1      31.647  26.555  26.818  1.00  0.00    -0.374 N 
ATOM     15  H   UNL A   1      31.565  26.157  27.715  1.00  0.00     0.161 HD
BRANCH  14  16
ATOM     16  C   UNL A   1      32.319  27.757  26.783  1.00  0.00     0.035 A 
ATOM     17  C   UNL A   1      33.926  30.094  27.007  1.00  0.00     0.119 A 
ATOM     18  C   UNL A   1      32.553  30.138  27.235  1.00  0.00     0.048 A 
ATOM     19  C   UNL A   1      34.490  28.894  26.596  1.00  0.00     0.048 A 
ATOM     20  C   UNL A   1      31.761  28.991  27.098  1.00  0.00     0.029 A 
ATOM     21  C   UNL A   1      33.694  27.743  26.500  1.00  0.00     0.029 A 
BRANCH  17  22
ATOM     22  O   UNL A   1      34.591  31.237  27.335  1.00  0.00    -0.497 OA
ATOM     23  C   UNL A   1      34.181  31.972  28.481  1.00  0.00     0.278 C 
ENDBRANCH  17  22
ENDBRANCH  14  16
ENDBRANCH  11  14
ENDBRANCH   7  11
ENDBRANCH   3   6
ENDBRANCH   1   2
BRANCH   1  24
ATOM     24  C   UNL A   1      37.051  21.095  24.848  1.00  0.00     0.023 C 
BRANCH  24  25
ATOM     25  C   UNL A   1      38.011  19.923  25.019  1.00  0.00     0.023 C 
BRANCH  25  26
ATOM     26  C   UNL A   1      39.275  20.216  25.822  1.00  0.00     0.116 C 
BRANCH  26  27
ATOM     27  N   UNL A   1      40.237  19.122  25.843  1.00  0.00    -0.352 N 
ATOM     28  C   UNL A   1      41.579  19.147  26.142  1.00  0.00     0.251 C 
ATOM     29  H   UNL A   1      39.875  18.238  25.608  1.00  0.00     0.163 HD
ATOM     30  O   UNL A   1      42.263  18.130  26.076  1.00  0.00    -0.269 OA
BRANCH  28  31
ATOM     31  C   UNL A   1      42.220  20.429  26.491  1.00  0.00     0.039 A 
ATOM     32  C   UNL A   1      42.755  21.212  25.464  1.00  0.00     0.014 A 
ATOM     33  C   UNL A   1      42.226  20.886  27.809  1.00  0.00     0.014 A 
ATOM     34  C   UNL A   1      43.202  22.502  25.746  1.00  0.00     0.010 A 
ATOM     35  C   UNL A   1      42.588  22.201  28.073  1.00  0.00     0.010 A 
ATOM     36  C   UNL A   1      43.066  23.026  27.041  1.00  0.00    -0.014 A 
BRANCH  36  37
ATOM     37  C   UNL A   1      43.395  24.440  27.345  1.00  0.00     0.031 A 
ATOM     38  C   UNL A   1      44.825  24.898  27.312  1.00  0.00     0.074 A 
ATOM     39  C   UNL A   1      42.420  25.280  27.745  1.00  0.00     0.049 A 
ATOM     40  N   UNL A   1      45.334  26.048  27.673  1.00  0.00    -0.248 NA
ATOM     41  C   UNL A   1      45.820  23.919  26.845  1.00  0.00     0.031 C 
ATOM     42  C   UNL A   1      41.001  24.939  27.872  1.00  0.00     0.029 A 
ATOM     43  N   UNL A   1      42.479  26.595  28.135  1.00  0.00    -0.354 N 
ATOM     44  C   UNL A   1      46.705  25.920  27.506  1.00  0.00     0.074 A 
ATOM     45  C   UNL A   1      46.955  24.567  27.057  1.00  0.00     0.031 C 
ATOM     46  C   UNL A   1      40.323  26.022  28.285  1.00  0.00     0.029 A 
ATOM     47  C   UNL A   1      41.260  27.120  28.489  1.00  0.00     0.049 A 
ATOM     48  H   UNL A   1      43.317  27.113  28.158  1.00  0.00     0.167 HD
ATOM     49  C   UNL A   1      47.670  26.852  27.688  1.00  0.00     0.037 A 
ATOM     50  C   UNL A   1      40.938  28.349  28.936  1.00  0.00     0.037 A 
ATOM     51  C   UNL A   1      47.414  28.208  28.093  1.00  0.00     0.049 A 
ATOM     52  C   UNL A   1      42.024  29.375  29.100  1.00  0.00     0.074 A 
ATOM     53  C   UNL A   1      48.314  29.247  28.253  1.00  0.00     0.029 A 
ATOM     54  N   UNL A   1      46.159  28.716  28.394  1.00  0.00    -0.354 N 
ATOM     55  N   UNL A   1      43.311  29.256  28.890  1.00  0.00    -0.248 NA
ATOM     56  C   UNL A   1      41.609  30.709  29.558  1.00  0.00     0.031 C 
ATOM     57  C   UNL A   1      47.607  30.377  28.674  1.00  0.00     0.029 A 
ATOM     58  C   UNL A   1      46.261  30.052  28.741  1.00  0.00     0.049 A 
ATOM     59  H   UNL A   1      45.319  28.202  28.364  1.00  0.00     0.167 HD
ATOM     60  C   UNL A   1      43.858  30.504  29.159  1.00  0.00     0.074 A 
ATOM     61  C   UNL A   1      42.759  31.368  29.539  1.00  0.00     0.031 C 
ATOM     62  C   UNL A   1      45.152  30.899  29.096  1.00  0.00     0.037 A 
BRANCH  49  63
ATOM     63  C   UNL A   1      49.087  26.434  27.435  1.00  0.00     0.057 A 
ATOM     64  C   UNL A   1      49.900  25.929  28.460  1.00  0.00     0.134 A 
ATOM     65  C   UNL A   1      49.644  26.521  26.153  1.00  0.00     0.134 A 
ATOM     66  F   UNL A   1      49.433  25.835  29.714  1.00  0.00    -0.206 F 
ATOM     67  C   UNL A   1      51.222  25.551  28.224  1.00  0.00     0.040 A 
ATOM     68  C   UNL A   1      50.956  26.121  25.899  1.00  0.00     0.040 A 
ATOM     69  F   UNL A   1      48.920  26.992  25.127  1.00  0.00    -0.206 F 
ATOM     70  C   UNL A   1      51.752  25.641  26.938  1.00  0.00     0.006 A 
ENDBRANCH  49  63
BRANCH  50  71
ATOM     71  C   UNL A   1      39.524  28.690  29.225  1.00  0.00     0.057 A 
ATOM     72  C   UNL A   1      38.703  29.245  28.235  1.00  0.00     0.134 A 
ATOM     73  C   UNL A   1      38.960  28.483  30.489  1.00  0.00     0.134 A 
ATOM     74  F   UNL A   1      39.192  29.482  27.010  1.00  0.00    -0.206 F 
ATOM     75  C   UNL A   1      37.379  29.601  28.497  1.00  0.00     0.040 A 
ATOM     76  C   UNL A   1      37.631  28.814  30.759  1.00  0.00     0.040 A 
ATOM     77  F   UNL A   1      39.692  27.948  31.477  1.00  0.00    -0.206 F 
ATOM     78  C   UNL A   1      36.839  29.382  29.761  1.00  0.00     0.006 A 
ENDBRANCH  50  71
BRANCH  62  79
ATOM     79  C   UNL A   1      45.443  32.338  29.397  1.00  0.00     0.057 A 
ATOM     80  C   UNL A   1      45.791  32.768  30.683  1.00  0.00     0.134 A 
ATOM     81  C   UNL A   1      45.413  33.296  28.376  1.00  0.00     0.134 A 
ATOM     82  F   UNL A   1      45.823  31.900  31.705  1.00  0.00    -0.206 F 
ATOM     83  C   UNL A   1      46.082  34.108  30.947  1.00  0.00     0.040 A 
ATOM     84  C   UNL A   1      45.725  34.633  28.623  1.00  0.00     0.040 A 
ATOM     85  F   UNL A   1      45.094  32.945  27.121  1.00  0.00    -0.206 F 
ATOM     86  C   UNL A   1      46.055  35.042  29.913  1.00  0.00     0.006 A 
ENDBRANCH  62  79
ENDBRANCH  36  37
ENDBRANCH  28  31
ENDBRANCH  26  27
ENDBRANCH  25  26
ENDBRANCH  24  25
ENDBRANCH   1  24
TORSDOF 15
ENDMDL
