MODEL 1
REMARK VINA RESULT:     -12.0      0.000      0.000
REMARK SMILES C[C@@H](C(=O)NCCCCNC(=O)c1ccc(-c2c3nc(c(-c4c(F)cccc4F)c4ccc([nH]4)c(-c4c(F)cccc4F)c4nc(c(-c5c(F)cccc5F)c5ccc2[nH]5)C=C4)C=C3)cc1)c1ccc(-c2cccc(OC(=O)Nc3ccccc3)c2)c(F)c1
REMARK SMILES IDX 6 1 5 2 3 3 4 4 2 6 1 7 67 8 68 9 89 10 69 11 87 12 70 13
REMARK SMILES IDX 88 14 71 15 72 16 86 17 73 18 75 19 74 20 76 21 77 22 78 23
REMARK SMILES IDX 79 24 80 26 81 27 85 28 82 29 84 30 83 31 7 32 8 33 9 34
REMARK SMILES IDX 10 35 11 36 12 38 13 39 14 40 66 41 15 42 65 43 16 44 17 45
REMARK SMILES IDX 18 46 59 47 19 48 64 49 58 50 60 51 20 52 63 53 57 54 56 55
REMARK SMILES IDX 21 57 47 58 30 59 46 60 31 61 34 62 45 63 61 64 32 65 33 66
REMARK SMILES IDX 44 68 62 69 35 70 22 71 23 72 28 73 24 74 25 75 27 76 29 77
REMARK SMILES IDX 26 78 48 79 49 80 54 81 50 82 51 83 53 84 55 85 52 86 36 87
REMARK SMILES IDX 37 88 42 89 38 90 39 91 41 92 43 93 40 94
REMARK H PARENT 5 5 79 25 10 37 60 56 34 67
REMARK Flexibility Score: inf
ROOT
ATOM      1  C   UNL A   1      36.372  23.099  25.049  1.00  0.00     0.116 C 
ENDROOT
BRANCH   1   2
ATOM      2  N   UNL A   1      35.358  23.525  24.109  1.00  0.00    -0.356 N 
ATOM      3  C   UNL A   1      34.107  24.020  24.333  1.00  0.00     0.227 C 
ATOM      4  O   UNL A   1      33.396  24.188  23.340  1.00  0.00    -0.274 OA
ATOM      5  H   UNL A   1      35.610  23.445  23.160  1.00  0.00     0.163 HD
BRANCH   3   6
ATOM      6  C   UNL A   1      33.665  24.376  25.762  1.00  0.00     0.105 C 
ATOM      7  C   UNL A   1      32.466  23.543  26.237  1.00  0.00     0.023 C 
BRANCH   6   8
ATOM      8  C   UNL A   1      33.335  25.857  25.901  1.00  0.00    -0.033 A 
ATOM      9  C   UNL A   1      34.108  26.829  25.252  1.00  0.00     0.005 A 
ATOM     10  C   UNL A   1      32.263  26.277  26.700  1.00  0.00     0.044 A 
ATOM     11  C   UNL A   1      33.851  28.192  25.447  1.00  0.00     0.012 A 
ATOM     12  C   UNL A   1      32.015  27.629  26.891  1.00  0.00     0.131 A 
ATOM     13  C   UNL A   1      32.816  28.613  26.296  1.00  0.00     0.018 A 
ATOM     14  F   UNL A   1      31.002  27.977  27.700  1.00  0.00    -0.206 F 
BRANCH  13  15
ATOM     15  C   UNL A   1      32.639  30.028  26.641  1.00  0.00    -0.012 A 
ATOM     16  C   UNL A   1      31.531  30.773  26.218  1.00  0.00     0.009 A 
ATOM     17  C   UNL A   1      33.625  30.665  27.416  1.00  0.00     0.056 A 
ATOM     18  C   UNL A   1      31.407  32.121  26.569  1.00  0.00     0.004 A 
ATOM     19  C   UNL A   1      33.510  32.008  27.749  1.00  0.00     0.133 A 
ATOM     20  C   UNL A   1      32.397  32.740  27.335  1.00  0.00     0.047 A 
BRANCH  19  21
ATOM     21  O   UNL A   1      34.478  32.726  28.493  1.00  0.00    -0.410 OA
BRANCH  21  22
ATOM     22  C   UNL A   1      35.075  33.929  28.120  1.00  0.00     0.417 C 
ATOM     23  O   UNL A   1      34.681  34.687  27.237  1.00  0.00    -0.224 OA
ATOM     24  N   UNL A   1      36.131  34.316  28.904  1.00  0.00    -0.291 N 
ATOM     25  H   UNL A   1      36.460  35.228  28.730  1.00  0.00     0.173 HD
BRANCH  24  26
ATOM     26  C   UNL A   1      36.817  33.629  29.913  1.00  0.00     0.044 A 
ATOM     27  C   UNL A   1      38.115  33.197  29.614  1.00  0.00     0.026 A 
ATOM     28  C   UNL A   1      36.271  33.329  31.162  1.00  0.00     0.026 A 
ATOM     29  C   UNL A   1      38.874  32.519  30.569  1.00  0.00     0.002 A 
ATOM     30  C   UNL A   1      37.025  32.633  32.111  1.00  0.00     0.002 A 
ATOM     31  C   UNL A   1      38.329  32.238  31.819  1.00  0.00     0.000 A 
ENDBRANCH  24  26
ENDBRANCH  21  22
ENDBRANCH  19  21
ENDBRANCH  13  15
ENDBRANCH   6   8
ENDBRANCH   3   6
ENDBRANCH   1   2
BRANCH   1  32
ATOM     32  C   UNL A   1      36.199  21.621  25.406  1.00  0.00     0.023 C 
BRANCH  32  33
ATOM     33  C   UNL A   1      37.355  20.721  24.966  1.00  0.00     0.023 C 
BRANCH  33  34
ATOM     34  C   UNL A   1      38.645  20.888  25.761  1.00  0.00     0.116 C 
BRANCH  34  35
ATOM     35  N   UNL A   1      39.490  19.704  25.725  1.00  0.00    -0.352 N 
ATOM     36  C   UNL A   1      40.836  19.599  25.981  1.00  0.00     0.251 C 
ATOM     37  H   UNL A   1      39.035  18.865  25.486  1.00  0.00     0.163 HD
ATOM     38  O   UNL A   1      41.426  18.543  25.785  1.00  0.00    -0.269 OA
BRANCH  36  39
ATOM     39  C   UNL A   1      41.574  20.785  26.458  1.00  0.00     0.039 A 
ATOM     40  C   UNL A   1      42.103  21.673  25.519  1.00  0.00     0.014 A 
ATOM     41  C   UNL A   1      41.698  21.042  27.827  1.00  0.00     0.014 A 
ATOM     42  C   UNL A   1      42.680  22.869  25.950  1.00  0.00     0.010 A 
ATOM     43  C   UNL A   1      42.217  22.260  28.251  1.00  0.00     0.010 A 
ATOM     44  C   UNL A   1      42.697  23.192  27.317  1.00  0.00    -0.014 A 
BRANCH  44  45
ATOM     45  C   UNL A   1      43.167  24.517  27.793  1.00  0.00     0.031 A 
ATOM     46  C   UNL A   1      42.175  25.582  28.163  1.00  0.00     0.074 A 
ATOM     47  C   UNL A   1      44.486  24.792  27.787  1.00  0.00     0.049 A 
ATOM     48  N   UNL A   1      42.386  26.836  28.469  1.00  0.00    -0.248 NA
ATOM     49  C   UNL A   1      40.755  25.193  28.160  1.00  0.00     0.031 C 
ATOM     50  C   UNL A   1      45.545  23.857  27.400  1.00  0.00     0.029 A 
ATOM     51  N   UNL A   1      45.161  25.950  28.088  1.00  0.00    -0.354 N 
ATOM     52  C   UNL A   1      41.130  27.392  28.672  1.00  0.00     0.074 A 
ATOM     53  C   UNL A   1      40.159  26.348  28.423  1.00  0.00     0.031 C 
ATOM     54  C   UNL A   1      46.733  24.478  27.487  1.00  0.00     0.029 A 
ATOM     55  C   UNL A   1      46.519  25.863  27.893  1.00  0.00     0.049 A 
ATOM     56  H   UNL A   1      44.714  26.765  28.414  1.00  0.00     0.167 HD
ATOM     57  C   UNL A   1      40.818  28.655  29.044  1.00  0.00     0.037 A 
ATOM     58  C   UNL A   1      47.480  26.800  28.002  1.00  0.00     0.037 A 
ATOM     59  C   UNL A   1      41.788  29.678  29.327  1.00  0.00     0.049 A 
ATOM     60  C   UNL A   1      47.102  28.197  28.410  1.00  0.00     0.074 A 
ATOM     61  C   UNL A   1      41.573  30.957  29.813  1.00  0.00     0.029 A 
ATOM     62  N   UNL A   1      43.155  29.545  29.143  1.00  0.00    -0.354 N 
ATOM     63  N   UNL A   1      45.917  28.683  28.690  1.00  0.00    -0.248 NA
ATOM     64  C   UNL A   1      48.193  29.177  28.515  1.00  0.00     0.031 C 
ATOM     65  C   UNL A   1      42.805  31.614  29.874  1.00  0.00     0.029 A 
ATOM     66  C   UNL A   1      43.793  30.731  29.469  1.00  0.00     0.049 A 
ATOM     67  H   UNL A   1      43.606  28.729  28.827  1.00  0.00     0.167 HD
ATOM     68  C   UNL A   1      46.122  30.016  29.022  1.00  0.00     0.074 A 
ATOM     69  C   UNL A   1      47.547  30.258  28.926  1.00  0.00     0.031 C 
ATOM     70  C   UNL A   1      45.211  30.956  29.372  1.00  0.00     0.037 A 
BRANCH  57  71
ATOM     71  C   UNL A   1      39.366  29.011  29.169  1.00  0.00     0.057 A 
ATOM     72  C   UNL A   1      38.624  29.485  28.081  1.00  0.00     0.134 A 
ATOM     73  C   UNL A   1      38.688  28.810  30.378  1.00  0.00     0.134 A 
ATOM     74  F   UNL A   1      39.217  29.708  26.899  1.00  0.00    -0.206 F 
ATOM     75  C   UNL A   1      37.260  29.763  28.195  1.00  0.00     0.040 A 
ATOM     76  C   UNL A   1      37.321  29.061  30.498  1.00  0.00     0.040 A 
ATOM     77  F   UNL A   1      39.341  28.351  31.458  1.00  0.00    -0.206 F 
ATOM     78  C   UNL A   1      36.604  29.542  29.404  1.00  0.00     0.006 A 
ENDBRANCH  57  71
BRANCH  58  79
ATOM     79  C   UNL A   1      48.894  26.458  27.705  1.00  0.00     0.057 A 
ATOM     80  C   UNL A   1      49.394  26.521  26.400  1.00  0.00     0.134 A 
ATOM     81  C   UNL A   1      49.770  26.038  28.713  1.00  0.00     0.134 A 
ATOM     82  F   UNL A   1      48.597  26.895  25.389  1.00  0.00    -0.206 F 
ATOM     83  C   UNL A   1      50.710  26.157  26.103  1.00  0.00     0.040 A 
ATOM     84  C   UNL A   1      51.094  25.696  28.434  1.00  0.00     0.040 A 
ATOM     85  F   UNL A   1      49.353  25.961  29.985  1.00  0.00    -0.206 F 
ATOM     86  C   UNL A   1      51.564  25.746  27.123  1.00  0.00     0.006 A 
ENDBRANCH  58  79
BRANCH  70  87
ATOM     87  C   UNL A   1      45.725  32.326  29.696  1.00  0.00     0.057 A 
ATOM     88  C   UNL A   1      45.798  33.332  28.725  1.00  0.00     0.134 A 
ATOM     89  C   UNL A   1      46.098  32.659  31.005  1.00  0.00     0.134 A 
ATOM     90  F   UNL A   1      45.468  33.072  27.451  1.00  0.00    -0.206 F 
ATOM     91  C   UNL A   1      46.234  34.619  29.042  1.00  0.00     0.040 A 
ATOM     92  C   UNL A   1      46.513  33.948  31.338  1.00  0.00     0.040 A 
ATOM     93  F   UNL A   1      46.044  31.742  31.983  1.00  0.00    -0.206 F 
ATOM     94  C   UNL A   1      46.585  34.932  30.355  1.00  0.00     0.006 A 
ENDBRANCH  70  87
ENDBRANCH  44  45
ENDBRANCH  36  39
ENDBRANCH  34  35
ENDBRANCH  33  34
ENDBRANCH  32  33
ENDBRANCH   1  32
TORSDOF 16
ENDMDL
MODEL 2
REMARK VINA RESULT:     -11.9      1.913      2.940
REMARK SMILES C[C@@H](C(=O)NCCCCNC(=O)c1ccc(-c2c3nc(c(-c4c(F)cccc4F)c4ccc([nH]4)c(-c4c(F)cccc4F)c4nc(c(-c5c(F)cccc5F)c5ccc2[nH]5)C=C4)C=C3)cc1)c1ccc(-c2cccc(OC(=O)Nc3ccccc3)c2)c(F)c1
REMARK SMILES IDX 6 1 5 2 3 3 4 4 2 6 1 7 67 8 68 9 89 10 69 11 87 12 70 13
REMARK SMILES IDX 88 14 71 15 72 16 86 17 73 18 75 19 74 20 76 21 77 22 78 23
REMARK SMILES IDX 79 24 80 26 81 27 85 28 82 29 84 30 83 31 7 32 8 33 9 34
REMARK SMILES IDX 10 35 11 36 12 38 13 39 14 40 66 41 15 42 65 43 16 44 17 45
REMARK SMILES IDX 18 46 59 47 19 48 64 49 58 50 60 51 20 52 63 53 57 54 56 55
REMARK SMILES IDX 21 57 47 58 30 59 46 60 31 61 34 62 45 63 61 64 32 65 33 66
REMARK SMILES IDX 44 68 62 69 35 70 22 71 23 72 28 73 24 74 25 75 27 76 29 77
REMARK SMILES IDX 26 78 48 79 49 80 54 81 50 82 51 83 53 84 55 85 52 86 36 87
REMARK SMILES IDX 37 88 42 89 38 90 39 91 41 92 43 93 40 94
REMARK H PARENT 5 5 79 25 10 37 60 56 34 67
REMARK Flexibility Score: inf
ROOT
ATOM      1  C   UNL A   1      34.339  24.692  24.808  1.00  0.00     0.116 C 
ENDROOT
BRANCH   1   2
ATOM      2  N   UNL A   1      34.210  25.847  23.946  1.00  0.00    -0.356 N 
ATOM      3  C   UNL A   1      33.375  26.920  24.038  1.00  0.00     0.227 C 
ATOM      4  O   UNL A   1      33.387  27.710  23.092  1.00  0.00    -0.274 OA
ATOM      5  H   UNL A   1      34.821  25.860  23.173  1.00  0.00     0.163 HD
BRANCH   3   6
ATOM      6  C   UNL A   1      32.512  27.119  25.295  1.00  0.00     0.105 C 
ATOM      7  C   UNL A   1      31.021  27.284  24.973  1.00  0.00     0.023 C 
BRANCH   6   8
ATOM      8  C   UNL A   1      32.983  28.309  26.123  1.00  0.00    -0.033 A 
ATOM      9  C   UNL A   1      32.186  29.455  26.252  1.00  0.00     0.005 A 
ATOM     10  C   UNL A   1      34.234  28.288  26.755  1.00  0.00     0.044 A 
ATOM     11  C   UNL A   1      32.656  30.577  26.946  1.00  0.00     0.012 A 
ATOM     12  C   UNL A   1      34.694  29.404  27.440  1.00  0.00     0.131 A 
ATOM     13  C   UNL A   1      33.934  30.578  27.527  1.00  0.00     0.018 A 
ATOM     14  F   UNL A   1      35.917  29.346  27.992  1.00  0.00    -0.206 F 
BRANCH  13  15
ATOM     15  C   UNL A   1      34.506  31.795  28.111  1.00  0.00    -0.012 A 
ATOM     16  C   UNL A   1      35.681  32.384  27.625  1.00  0.00     0.009 A 
ATOM     17  C   UNL A   1      33.859  32.388  29.210  1.00  0.00     0.056 A 
ATOM     18  C   UNL A   1      36.191  33.543  28.217  1.00  0.00     0.004 A 
ATOM     19  C   UNL A   1      34.376  33.530  29.809  1.00  0.00     0.133 A 
ATOM     20  C   UNL A   1      35.539  34.117  29.311  1.00  0.00     0.047 A 
BRANCH  19  21
ATOM     21  O   UNL A   1      33.802  34.161  30.939  1.00  0.00    -0.410 OA
BRANCH  21  22
ATOM     22  C   UNL A   1      33.842  35.525  31.228  1.00  0.00     0.417 C 
ATOM     23  O   UNL A   1      33.159  36.396  30.694  1.00  0.00    -0.224 OA
ATOM     24  N   UNL A   1      34.649  35.868  32.281  1.00  0.00    -0.291 N 
ATOM     25  H   UNL A   1      34.567  36.805  32.574  1.00  0.00     0.173 HD
BRANCH  24  26
ATOM     26  C   UNL A   1      35.569  35.105  33.010  1.00  0.00     0.044 A 
ATOM     27  C   UNL A   1      35.145  34.617  34.252  1.00  0.00     0.026 A 
ATOM     28  C   UNL A   1      36.873  34.841  32.585  1.00  0.00     0.026 A 
ATOM     29  C   UNL A   1      35.994  33.833  35.034  1.00  0.00     0.002 A 
ATOM     30  C   UNL A   1      37.729  34.073  33.379  1.00  0.00     0.002 A 
ATOM     31  C   UNL A   1      37.287  33.560  34.596  1.00  0.00     0.000 A 
ENDBRANCH  24  26
ENDBRANCH  21  22
ENDBRANCH  19  21
ENDBRANCH  13  15
ENDBRANCH   6   8
ENDBRANCH   3   6
ENDBRANCH   1   2
BRANCH   1  32
ATOM     32  C   UNL A   1      34.266  23.396  23.997  1.00  0.00     0.023 C 
BRANCH  32  33
ATOM     33  C   UNL A   1      35.586  22.625  23.910  1.00  0.00     0.023 C 
BRANCH  33  34
ATOM     34  C   UNL A   1      36.245  22.316  25.249  1.00  0.00     0.116 C 
BRANCH  34  35
ATOM     35  N   UNL A   1      37.130  21.163  25.191  1.00  0.00    -0.352 N 
ATOM     36  C   UNL A   1      38.435  21.058  25.609  1.00  0.00     0.251 C 
ATOM     37  H   UNL A   1      36.741  20.348  24.800  1.00  0.00     0.163 HD
ATOM     38  O   UNL A   1      39.084  20.045  25.374  1.00  0.00    -0.269 OA
BRANCH  36  39
ATOM     39  C   UNL A   1      39.061  22.195  26.311  1.00  0.00     0.039 A 
ATOM     40  C   UNL A   1      40.167  21.955  27.130  1.00  0.00     0.014 A 
ATOM     41  C   UNL A   1      38.588  23.496  26.121  1.00  0.00     0.014 A 
ATOM     42  C   UNL A   1      40.857  23.032  27.690  1.00  0.00     0.010 A 
ATOM     43  C   UNL A   1      39.311  24.570  26.629  1.00  0.00     0.010 A 
ATOM     44  C   UNL A   1      40.461  24.350  27.403  1.00  0.00    -0.014 A 
BRANCH  44  45
ATOM     45  C   UNL A   1      41.259  25.514  27.859  1.00  0.00     0.031 A 
ATOM     46  C   UNL A   1      40.621  26.585  28.698  1.00  0.00     0.074 A 
ATOM     47  C   UNL A   1      42.527  25.659  27.425  1.00  0.00     0.049 A 
ATOM     48  N   UNL A   1      41.111  27.737  29.078  1.00  0.00    -0.248 NA
ATOM     49  C   UNL A   1      39.240  26.341  29.144  1.00  0.00     0.031 C 
ATOM     50  C   UNL A   1      43.241  24.713  26.565  1.00  0.00     0.029 A 
ATOM     51  N   UNL A   1      43.432  26.673  27.624  1.00  0.00    -0.354 N 
ATOM     52  C   UNL A   1      40.095  28.365  29.785  1.00  0.00     0.074 A 
ATOM     53  C   UNL A   1      38.949  27.481  29.755  1.00  0.00     0.031 C 
ATOM     54  C   UNL A   1      44.470  25.191  26.311  1.00  0.00     0.029 A 
ATOM     55  C   UNL A   1      44.617  26.493  26.952  1.00  0.00     0.049 A 
ATOM     56  H   UNL A   1      43.249  27.454  28.194  1.00  0.00     0.167 HD
ATOM     57  C   UNL A   1      40.121  29.564  30.413  1.00  0.00     0.037 A 
ATOM     58  C   UNL A   1      45.690  27.298  26.841  1.00  0.00     0.037 A 
ATOM     59  C   UNL A   1      41.274  30.421  30.472  1.00  0.00     0.049 A 
ATOM     60  C   UNL A   1      45.688  28.628  27.543  1.00  0.00     0.074 A 
ATOM     61  C   UNL A   1      41.431  31.605  31.172  1.00  0.00     0.029 A 
ATOM     62  N   UNL A   1      42.465  30.193  29.800  1.00  0.00    -0.354 N 
ATOM     63  N   UNL A   1      44.753  29.167  28.288  1.00  0.00    -0.248 NA
ATOM     64  C   UNL A   1      46.888  29.464  27.389  1.00  0.00     0.031 C 
ATOM     65  C   UNL A   1      42.698  32.119  30.884  1.00  0.00     0.029 A 
ATOM     66  C   UNL A   1      43.347  31.233  30.039  1.00  0.00     0.049 A 
ATOM     67  H   UNL A   1      42.655  29.408  29.237  1.00  0.00     0.167 HD
ATOM     68  C   UNL A   1      45.258  30.391  28.705  1.00  0.00     0.074 A 
ATOM     69  C   UNL A   1      46.588  30.510  28.146  1.00  0.00     0.031 C 
ATOM     70  C   UNL A   1      44.669  31.335  29.479  1.00  0.00     0.037 A 
BRANCH  57  71
ATOM     71  C   UNL A   1      38.866  30.028  31.090  1.00  0.00     0.057 A 
ATOM     72  C   UNL A   1      37.893  30.774  30.414  1.00  0.00     0.134 A 
ATOM     73  C   UNL A   1      38.599  29.664  32.416  1.00  0.00     0.134 A 
ATOM     74  F   UNL A   1      38.093  31.162  29.146  1.00  0.00    -0.206 F 
ATOM     75  C   UNL A   1      36.704  31.156  31.039  1.00  0.00     0.040 A 
ATOM     76  C   UNL A   1      37.404  30.019  33.043  1.00  0.00     0.040 A 
ATOM     77  F   UNL A   1      39.488  28.944  33.117  1.00  0.00    -0.206 F 
ATOM     78  C   UNL A   1      36.454  30.770  32.354  1.00  0.00     0.006 A 
ENDBRANCH  57  71
BRANCH  58  79
ATOM     79  C   UNL A   1      46.855  26.882  26.020  1.00  0.00     0.057 A 
ATOM     80  C   UNL A   1      46.925  27.187  24.657  1.00  0.00     0.134 A 
ATOM     81  C   UNL A   1      47.913  26.149  26.573  1.00  0.00     0.134 A 
ATOM     82  F   UNL A   1      45.933  27.868  24.067  1.00  0.00    -0.206 F 
ATOM     83  C   UNL A   1      47.994  26.761  23.866  1.00  0.00     0.040 A 
ATOM     84  C   UNL A   1      49.000  25.738  25.800  1.00  0.00     0.040 A 
ATOM     85  F   UNL A   1      47.908  25.829  27.875  1.00  0.00    -0.206 F 
ATOM     86  C   UNL A   1      49.037  26.037  24.438  1.00  0.00     0.006 A 
ENDBRANCH  58  79
BRANCH  70  87
ATOM     87  C   UNL A   1      45.465  32.568  29.785  1.00  0.00     0.057 A 
ATOM     88  C   UNL A   1      46.348  32.622  30.870  1.00  0.00     0.134 A 
ATOM     89  C   UNL A   1      45.389  33.693  28.953  1.00  0.00     0.134 A 
ATOM     90  F   UNL A   1      46.456  31.583  31.711  1.00  0.00    -0.206 F 
ATOM     91  C   UNL A   1      47.120  33.756  31.123  1.00  0.00     0.040 A 
ATOM     92  C   UNL A   1      46.173  34.823  29.182  1.00  0.00     0.040 A 
ATOM     93  F   UNL A   1      44.567  33.702  27.892  1.00  0.00    -0.206 F 
ATOM     94  C   UNL A   1      47.040  34.858  30.273  1.00  0.00     0.006 A 
ENDBRANCH  70  87
ENDBRANCH  44  45
ENDBRANCH  36  39
ENDBRANCH  34  35
ENDBRANCH  33  34
ENDBRANCH  32  33
ENDBRANCH   1  32
TORSDOF 16
ENDMDL
MODEL 3
REMARK VINA RESULT:     -11.9      4.108      8.031
REMARK SMILES C[C@@H](C(=O)NCCCCNC(=O)c1ccc(-c2c3nc(c(-c4c(F)cccc4F)c4ccc([nH]4)c(-c4c(F)cccc4F)c4nc(c(-c5c(F)cccc5F)c5ccc2[nH]5)C=C4)C=C3)cc1)c1ccc(-c2cccc(OC(=O)Nc3ccccc3)c2)c(F)c1
REMARK SMILES IDX 6 1 5 2 3 3 4 4 2 6 1 7 67 8 68 9 89 10 69 11 87 12 70 13
REMARK SMILES IDX 88 14 71 15 72 16 86 17 73 18 75 19 74 20 76 21 77 22 78 23
REMARK SMILES IDX 79 24 80 26 81 27 85 28 82 29 84 30 83 31 7 32 8 33 9 34
REMARK SMILES IDX 10 35 11 36 12 38 13 39 14 40 66 41 15 42 65 43 16 44 17 45
REMARK SMILES IDX 18 46 59 47 19 48 64 49 58 50 60 51 20 52 63 53 57 54 56 55
REMARK SMILES IDX 21 57 47 58 30 59 46 60 31 61 34 62 45 63 61 64 32 65 33 66
REMARK SMILES IDX 44 68 62 69 35 70 22 71 23 72 28 73 24 74 25 75 27 76 29 77
REMARK SMILES IDX 26 78 48 79 49 80 54 81 50 82 51 83 53 84 55 85 52 86 36 87
REMARK SMILES IDX 37 88 42 89 38 90 39 91 41 92 43 93 40 94
REMARK H PARENT 5 5 79 25 10 37 60 56 34 67
REMARK Flexibility Score: inf
ROOT
ATOM      1  C   UNL A   1      43.513  23.829  24.704  1.00  0.00     0.116 C 
ENDROOT
BRANCH   1   2
ATOM      2  N   UNL A   1      42.568  22.827  25.147  1.00  0.00    -0.356 N 
ATOM      3  C   UNL A   1      42.216  22.452  26.410  1.00  0.00     0.227 C 
ATOM      4  O   UNL A   1      41.469  21.475  26.505  1.00  0.00    -0.274 OA
ATOM      5  H   UNL A   1      42.108  22.341  24.424  1.00  0.00     0.163 HD
BRANCH   3   6
ATOM      6  C   UNL A   1      42.711  23.260  27.620  1.00  0.00     0.105 C 
ATOM      7  C   UNL A   1      42.965  22.385  28.855  1.00  0.00     0.023 C 
BRANCH   6   8
ATOM      8  C   UNL A   1      41.746  24.380  27.987  1.00  0.00    -0.033 A 
ATOM      9  C   UNL A   1      40.379  24.278  27.690  1.00  0.00     0.005 A 
ATOM     10  C   UNL A   1      42.210  25.547  28.611  1.00  0.00     0.044 A 
ATOM     11  C   UNL A   1      39.510  25.344  27.956  1.00  0.00     0.012 A 
ATOM     12  C   UNL A   1      41.344  26.599  28.871  1.00  0.00     0.131 A 
ATOM     13  C   UNL A   1      39.987  26.534  28.525  1.00  0.00     0.018 A 
ATOM     14  F   UNL A   1      41.848  27.709  29.431  1.00  0.00    -0.206 F 
BRANCH  13  15
ATOM     15  C   UNL A   1      39.127  27.715  28.657  1.00  0.00    -0.012 A 
ATOM     16  C   UNL A   1      39.011  28.679  27.646  1.00  0.00     0.009 A 
ATOM     17  C   UNL A   1      38.402  27.896  29.848  1.00  0.00     0.056 A 
ATOM     18  C   UNL A   1      38.182  29.791  27.819  1.00  0.00     0.004 A 
ATOM     19  C   UNL A   1      37.591  29.011  30.025  1.00  0.00     0.133 A 
ATOM     20  C   UNL A   1      37.471  29.958  29.009  1.00  0.00     0.047 A 
BRANCH  19  21
ATOM     21  O   UNL A   1      36.861  29.279  31.209  1.00  0.00    -0.410 OA
BRANCH  21  22
ATOM     22  C   UNL A   1      37.366  29.260  32.509  1.00  0.00     0.417 C 
ATOM     23  O   UNL A   1      37.413  28.281  33.251  1.00  0.00    -0.224 OA
ATOM     24  N   UNL A   1      37.951  30.431  32.917  1.00  0.00    -0.291 N 
ATOM     25  H   UNL A   1      38.430  30.374  33.775  1.00  0.00     0.173 HD
BRANCH  24  26
ATOM     26  C   UNL A   1      37.979  31.694  32.313  1.00  0.00     0.044 A 
ATOM     27  C   UNL A   1      39.145  32.039  31.621  1.00  0.00     0.026 A 
ATOM     28  C   UNL A   1      36.937  32.620  32.395  1.00  0.00     0.026 A 
ATOM     29  C   UNL A   1      39.249  33.272  30.976  1.00  0.00     0.002 A 
ATOM     30  C   UNL A   1      37.050  33.863  31.765  1.00  0.00     0.002 A 
ATOM     31  C   UNL A   1      38.200  34.184  31.047  1.00  0.00     0.000 A 
ENDBRANCH  24  26
ENDBRANCH  21  22
ENDBRANCH  19  21
ENDBRANCH  13  15
ENDBRANCH   6   8
ENDBRANCH   3   6
ENDBRANCH   1   2
BRANCH   1  32
ATOM     32  C   UNL A   1      44.787  23.177  24.163  1.00  0.00     0.023 C 
BRANCH  32  33
ATOM     33  C   UNL A   1      45.834  22.845  25.229  1.00  0.00     0.023 C 
BRANCH  33  34
ATOM     34  C   UNL A   1      46.558  24.049  25.821  1.00  0.00     0.116 C 
BRANCH  34  35
ATOM     35  N   UNL A   1      46.883  25.059  24.826  1.00  0.00    -0.352 N 
ATOM     36  C   UNL A   1      46.693  26.419  24.886  1.00  0.00     0.251 C 
ATOM     37  H   UNL A   1      47.296  24.723  23.998  1.00  0.00     0.163 HD
ATOM     38  O   UNL A   1      46.910  27.121  23.906  1.00  0.00    -0.269 OA
BRANCH  36  39
ATOM     39  C   UNL A   1      46.188  27.021  26.135  1.00  0.00     0.039 A 
ATOM     40  C   UNL A   1      47.105  27.428  27.107  1.00  0.00     0.014 A 
ATOM     41  C   UNL A   1      44.818  27.230  26.321  1.00  0.00     0.014 A 
ATOM     42  C   UNL A   1      46.657  28.126  28.230  1.00  0.00     0.010 A 
ATOM     43  C   UNL A   1      44.380  27.978  27.409  1.00  0.00     0.010 A 
ATOM     44  C   UNL A   1      45.296  28.447  28.364  1.00  0.00    -0.014 A 
BRANCH  44  45
ATOM     45  C   UNL A   1      44.810  29.313  29.467  1.00  0.00     0.031 A 
ATOM     46  C   UNL A   1      44.444  28.712  30.794  1.00  0.00     0.074 A 
ATOM     47  C   UNL A   1      44.594  30.622  29.233  1.00  0.00     0.049 A 
ATOM     48  N   UNL A   1      43.878  29.278  31.829  1.00  0.00    -0.248 NA
ATOM     49  C   UNL A   1      44.727  27.278  30.972  1.00  0.00     0.031 C 
ATOM     50  C   UNL A   1      44.861  31.313  27.970  1.00  0.00     0.029 A 
ATOM     51  N   UNL A   1      44.073  31.602  30.043  1.00  0.00    -0.354 N 
ATOM     52  C   UNL A   1      43.715  28.269  32.769  1.00  0.00     0.074 A 
ATOM     53  C   UNL A   1      44.212  27.048  32.171  1.00  0.00     0.031 C 
ATOM     54  C   UNL A   1      44.502  32.602  28.089  1.00  0.00     0.029 A 
ATOM     55  C   UNL A   1      43.941  32.820  29.418  1.00  0.00     0.049 A 
ATOM     56  H   UNL A   1      43.818  31.447  30.981  1.00  0.00     0.167 HD
ATOM     57  C   UNL A   1      43.207  28.358  34.020  1.00  0.00     0.037 A 
ATOM     58  C   UNL A   1      43.404  33.974  29.857  1.00  0.00     0.037 A 
ATOM     59  C   UNL A   1      42.750  29.582  34.623  1.00  0.00     0.049 A 
ATOM     60  C   UNL A   1      42.841  34.041  31.250  1.00  0.00     0.074 A 
ATOM     61  C   UNL A   1      42.318  29.792  35.921  1.00  0.00     0.029 A 
ATOM     62  N   UNL A   1      42.656  30.799  33.968  1.00  0.00    -0.354 N 
ATOM     63  N   UNL A   1      42.780  33.101  32.161  1.00  0.00    -0.248 NA
ATOM     64  C   UNL A   1      42.270  35.328  31.675  1.00  0.00     0.031 C 
ATOM     65  C   UNL A   1      41.915  31.125  36.037  1.00  0.00     0.029 A 
ATOM     66  C   UNL A   1      42.137  31.756  34.824  1.00  0.00     0.049 A 
ATOM     67  H   UNL A   1      42.919  30.960  33.033  1.00  0.00     0.167 HD
ATOM     68  C   UNL A   1      42.184  33.686  33.271  1.00  0.00     0.074 A 
ATOM     69  C   UNL A   1      41.918  35.066  32.925  1.00  0.00     0.031 C 
ATOM     70  C   UNL A   1      41.881  33.127  34.467  1.00  0.00     0.037 A 
BRANCH  57  71
ATOM     71  C   UNL A   1      43.117  27.100  34.831  1.00  0.00     0.057 A 
ATOM     72  C   UNL A   1      44.197  26.628  35.587  1.00  0.00     0.134 A 
ATOM     73  C   UNL A   1      41.912  26.390  34.908  1.00  0.00     0.134 A 
ATOM     74  F   UNL A   1      45.381  27.257  35.548  1.00  0.00    -0.206 F 
ATOM     75  C   UNL A   1      44.087  25.484  36.380  1.00  0.00     0.040 A 
ATOM     76  C   UNL A   1      41.783  25.259  35.715  1.00  0.00     0.040 A 
ATOM     77  F   UNL A   1      40.838  26.793  34.213  1.00  0.00    -0.206 F 
ATOM     78  C   UNL A   1      42.874  24.802  36.452  1.00  0.00     0.006 A 
ENDBRANCH  57  71
BRANCH  58  79
ATOM     79  C   UNL A   1      43.354  35.161  28.966  1.00  0.00     0.057 A 
ATOM     80  C   UNL A   1      44.493  35.940  28.736  1.00  0.00     0.134 A 
ATOM     81  C   UNL A   1      42.164  35.557  28.344  1.00  0.00     0.134 A 
ATOM     82  F   UNL A   1      45.657  35.623  29.321  1.00  0.00    -0.206 F 
ATOM     83  C   UNL A   1      44.447  37.085  27.937  1.00  0.00     0.040 A 
ATOM     84  C   UNL A   1      42.109  36.684  27.522  1.00  0.00     0.040 A 
ATOM     85  F   UNL A   1      41.039  34.849  28.519  1.00  0.00    -0.206 F 
ATOM     86  C   UNL A   1      43.252  37.457  27.325  1.00  0.00     0.006 A 
ENDBRANCH  58  79
BRANCH  70  87
ATOM     87  C   UNL A   1      41.247  34.011  35.499  1.00  0.00     0.057 A 
ATOM     88  C   UNL A   1      42.016  34.776  36.384  1.00  0.00     0.134 A 
ATOM     89  C   UNL A   1      39.854  34.141  35.570  1.00  0.00     0.134 A 
ATOM     90  F   UNL A   1      43.354  34.685  36.375  1.00  0.00    -0.206 F 
ATOM     91  C   UNL A   1      41.421  35.632  37.312  1.00  0.00     0.040 A 
ATOM     92  C   UNL A   1      39.249  35.011  36.477  1.00  0.00     0.040 A 
ATOM     93  F   UNL A   1      39.061  33.441  34.745  1.00  0.00    -0.206 F 
ATOM     94  C   UNL A   1      40.033  35.757  37.354  1.00  0.00     0.006 A 
ENDBRANCH  70  87
ENDBRANCH  44  45
ENDBRANCH  36  39
ENDBRANCH  34  35
ENDBRANCH  33  34
ENDBRANCH  32  33
ENDBRANCH   1  32
TORSDOF 16
ENDMDL
