MODEL 1
REMARK VINA RESULT:     -13.0      0.000      0.000
REMARK SMILES O=C(Cn1nc(-c2ccc(Br)cc2)ccc1=O)N[C@H](C(=O)NCCCCNC(=O)c1ccc(-c2c3nc(c(-c4c(F)cccc4F)c4ccc([nH]4)c(-c4c(F)cccc4F)c4nc(c(-c5c(F)cccc5F)c5ccc2[nH]5)C=C4)C=C3)cc1)c1ccccc1
REMARK SMILES IDX 23 1 22 2 20 3 21 4 19 6 18 7 1 8 2 9 3 11 4 12 5 13 16 14
REMARK SMILES IDX 6 15 15 16 17 17 14 18 7 19 8 20 13 21 9 22 12 23 10 24
REMARK SMILES IDX 11 25 84 26 85 27 89 28 86 29 88 30 87 31 24 32 25 33 26 34
REMARK SMILES IDX 27 35 28 36 29 38 30 39 31 40 83 41 32 42 82 43 33 44 34 45
REMARK SMILES IDX 35 46 76 47 36 48 81 49 75 50 77 51 37 52 80 53 74 54 73 55
REMARK SMILES IDX 38 57 64 58 47 59 63 60 48 61 51 62 62 63 78 64 49 65 50 66
REMARK SMILES IDX 61 68 79 69 52 70 39 71 40 72 45 73 41 74 42 75 44 76 46 77
REMARK SMILES IDX 43 78 65 79 66 80 71 81 67 82 68 83 70 84 72 85 69 86 53 87
REMARK SMILES IDX 54 88 59 89 55 90 56 91 58 92 60 93 57 94
REMARK H PARENT 22 5 18 10 27 37 77 56 51 67
REMARK Flexibility Score: inf
ROOT
ATOM      1  C   UNL A   1      32.101  29.657  25.660  1.00  0.00     0.116 C 
ENDROOT
BRANCH   1   2
ATOM      2  N   UNL A   1      31.455  28.393  25.941  1.00  0.00    -0.354 N 
ATOM      3  C   UNL A   1      31.031  27.441  25.044  1.00  0.00     0.247 C 
ATOM      4  O   UNL A   1      30.420  26.476  25.513  1.00  0.00    -0.272 OA
ATOM      5  H   UNL A   1      31.300  28.189  26.891  1.00  0.00     0.163 HD
BRANCH   3   6
ATOM      6  C   UNL A   1      31.128  27.733  23.514  1.00  0.00     0.202 C 
BRANCH   6   7
ATOM      7  N   UNL A   1      31.467  26.623  22.617  1.00  0.00    -0.339 N 
ATOM      8  O   UNL A   1      33.738  26.810  22.794  1.00  0.00    -0.273 OA
ATOM      9  C   UNL A   1      32.752  26.141  22.488  1.00  0.00     0.242 C 
ATOM     10  H   UNL A   1      30.749  26.208  22.086  1.00  0.00     0.164 HD
BRANCH   9  11
ATOM     11  C   UNL A   1      32.898  24.836  21.700  1.00  0.00     0.248 C 
BRANCH  11  12
ATOM     12  N   UNL A   1      33.132  23.662  22.534  1.00  0.00    -0.220 N 
ATOM     13  N   UNL A   1      34.442  23.445  22.928  1.00  0.00    -0.169 NA
ATOM     14  C   UNL A   1      32.048  23.118  23.218  1.00  0.00     0.267 A 
ATOM     15  C   UNL A   1      34.647  22.541  23.837  1.00  0.00     0.091 A 
ATOM     16  C   UNL A   1      32.345  21.962  24.084  1.00  0.00     0.075 A 
ATOM     17  O   UNL A   1      30.890  23.511  23.121  1.00  0.00    -0.268 OA
ATOM     18  C   UNL A   1      33.605  21.656  24.395  1.00  0.00     0.036 A 
BRANCH  15  19
ATOM     19  C   UNL A   1      35.980  22.416  24.463  1.00  0.00     0.002 A 
ATOM     20  C   UNL A   1      36.522  23.556  25.069  1.00  0.00     0.011 A 
ATOM     21  C   UNL A   1      36.649  21.190  24.528  1.00  0.00     0.011 A 
ATOM     22  C   UNL A   1      37.728  23.467  25.765  1.00  0.00     0.016 A 
ATOM     23  C   UNL A   1      37.864  21.107  25.216  1.00  0.00     0.016 A 
ATOM     24  C   UNL A   1      38.391  22.242  25.838  1.00  0.00     0.018 A 
ATOM     25  Br  UNL A   1      40.015  22.117  26.797  1.00  0.00    -0.051 Br
ENDBRANCH  15  19
ENDBRANCH  11  12
ENDBRANCH   9  11
ENDBRANCH   6   7
BRANCH   6  26
ATOM     26  C   UNL A   1      29.979  28.562  22.954  1.00  0.00    -0.016 A 
ATOM     27  C   UNL A   1      30.208  29.690  22.155  1.00  0.00     0.006 A 
ATOM     28  C   UNL A   1      28.649  28.218  23.255  1.00  0.00     0.006 A 
ATOM     29  C   UNL A   1      29.145  30.477  21.708  1.00  0.00     0.000 A 
ATOM     30  C   UNL A   1      27.586  28.999  22.796  1.00  0.00     0.000 A 
ATOM     31  C   UNL A   1      27.835  30.136  22.032  1.00  0.00     0.000 A 
ENDBRANCH   6  26
ENDBRANCH   3   6
ENDBRANCH   1   2
BRANCH   1  32
ATOM     32  C   UNL A   1      31.140  30.842  25.711  1.00  0.00     0.023 C 
BRANCH  32  33
ATOM     33  C   UNL A   1      31.379  31.825  26.857  1.00  0.00     0.023 C 
BRANCH  33  34
ATOM     34  C   UNL A   1      32.324  32.979  26.539  1.00  0.00     0.116 C 
BRANCH  34  35
ATOM     35  N   UNL A   1      32.241  34.067  27.509  1.00  0.00    -0.352 N 
ATOM     36  C   UNL A   1      33.068  34.362  28.568  1.00  0.00     0.251 C 
ATOM     37  H   UNL A   1      31.480  34.680  27.386  1.00  0.00     0.163 HD
ATOM     38  O   UNL A   1      32.771  35.245  29.367  1.00  0.00    -0.269 OA
BRANCH  36  39
ATOM     39  C   UNL A   1      34.299  33.568  28.770  1.00  0.00     0.039 A 
ATOM     40  C   UNL A   1      34.220  32.211  29.081  1.00  0.00     0.014 A 
ATOM     41  C   UNL A   1      35.540  34.210  28.724  1.00  0.00     0.014 A 
ATOM     42  C   UNL A   1      35.348  31.554  29.561  1.00  0.00     0.010 A 
ATOM     43  C   UNL A   1      36.688  33.519  29.120  1.00  0.00     0.010 A 
ATOM     44  C   UNL A   1      36.589  32.208  29.614  1.00  0.00    -0.014 A 
BRANCH  44  45
ATOM     45  C   UNL A   1      37.748  31.529  30.250  1.00  0.00     0.031 A 
ATOM     46  C   UNL A   1      38.053  31.745  31.712  1.00  0.00     0.074 A 
ATOM     47  C   UNL A   1      38.487  30.659  29.536  1.00  0.00     0.049 A 
ATOM     48  N   UNL A   1      39.017  31.238  32.440  1.00  0.00    -0.248 NA
ATOM     49  C   UNL A   1      37.162  32.652  32.453  1.00  0.00     0.031 C 
ATOM     50  C   UNL A   1      38.281  30.339  28.122  1.00  0.00     0.029 A 
ATOM     51  N   UNL A   1      39.542  29.866  29.907  1.00  0.00    -0.354 N 
ATOM     52  C   UNL A   1      38.863  31.780  33.711  1.00  0.00     0.074 A 
ATOM     53  C   UNL A   1      37.730  32.678  33.650  1.00  0.00     0.031 C 
ATOM     54  C   UNL A   1      39.148  29.382  27.759  1.00  0.00     0.029 A 
ATOM     55  C   UNL A   1      40.009  29.066  28.894  1.00  0.00     0.049 A 
ATOM     56  H   UNL A   1      39.928  29.869  30.814  1.00  0.00     0.167 HD
ATOM     57  C   UNL A   1      39.587  31.543  34.831  1.00  0.00     0.037 A 
ATOM     58  C   UNL A   1      41.027  28.187  28.875  1.00  0.00     0.037 A 
ATOM     59  C   UNL A   1      40.695  30.627  34.905  1.00  0.00     0.049 A 
ATOM     60  C   UNL A   1      41.844  27.979  30.116  1.00  0.00     0.074 A 
ATOM     61  C   UNL A   1      41.477  30.302  36.001  1.00  0.00     0.029 A 
ATOM     62  N   UNL A   1      41.174  29.881  33.838  1.00  0.00    -0.354 N 
ATOM     63  N   UNL A   1      41.689  28.505  31.306  1.00  0.00    -0.248 NA
ATOM     64  C   UNL A   1      42.989  27.064  30.007  1.00  0.00     0.031 C 
ATOM     65  C   UNL A   1      42.452  29.386  35.588  1.00  0.00     0.029 A 
ATOM     66  C   UNL A   1      42.254  29.113  34.245  1.00  0.00     0.049 A 
ATOM     67  H   UNL A   1      40.802  29.896  32.927  1.00  0.00     0.167 HD
ATOM     68  C   UNL A   1      42.707  27.978  32.089  1.00  0.00     0.074 A 
ATOM     69  C   UNL A   1      43.460  27.074  31.245  1.00  0.00     0.031 C 
ATOM     70  C   UNL A   1      42.995  28.224  33.390  1.00  0.00     0.037 A 
BRANCH  57  71
ATOM     71  C   UNL A   1      39.214  32.303  36.071  1.00  0.00     0.057 A 
ATOM     72  C   UNL A   1      38.282  31.777  36.975  1.00  0.00     0.134 A 
ATOM     73  C   UNL A   1      39.749  33.565  36.357  1.00  0.00     0.134 A 
ATOM     74  F   UNL A   1      37.725  30.577  36.759  1.00  0.00    -0.206 F 
ATOM     75  C   UNL A   1      37.896  32.480  38.118  1.00  0.00     0.040 A 
ATOM     76  C   UNL A   1      39.388  34.268  37.508  1.00  0.00     0.040 A 
ATOM     77  F   UNL A   1      40.657  34.119  35.539  1.00  0.00    -0.206 F 
ATOM     78  C   UNL A   1      38.454  33.728  38.390  1.00  0.00     0.006 A 
ENDBRANCH  57  71
BRANCH  58  79
ATOM     79  C   UNL A   1      41.343  27.447  27.628  1.00  0.00     0.057 A 
ATOM     80  C   UNL A   1      42.207  27.981  26.664  1.00  0.00     0.134 A 
ATOM     81  C   UNL A   1      40.793  26.185  27.378  1.00  0.00     0.134 A 
ATOM     82  F   UNL A   1      42.763  29.188  26.847  1.00  0.00    -0.206 F 
ATOM     83  C   UNL A   1      42.504  27.291  25.489  1.00  0.00     0.040 A 
ATOM     84  C   UNL A   1      41.102  25.474  26.217  1.00  0.00     0.040 A 
ATOM     85  F   UNL A   1      39.977  25.613  28.275  1.00  0.00    -0.206 F 
ATOM     86  C   UNL A   1      41.955  26.030  25.267  1.00  0.00     0.006 A 
ENDBRANCH  58  79
BRANCH  70  87
ATOM     87  C   UNL A   1      44.164  27.489  33.975  1.00  0.00     0.057 A 
ATOM     88  C   UNL A   1      43.998  26.227  34.557  1.00  0.00     0.134 A 
ATOM     89  C   UNL A   1      45.452  28.039  33.971  1.00  0.00     0.134 A 
ATOM     90  F   UNL A   1      42.788  25.649  34.597  1.00  0.00    -0.206 F 
ATOM     91  C   UNL A   1      45.074  25.535  35.114  1.00  0.00     0.040 A 
ATOM     92  C   UNL A   1      46.540  27.346  34.505  1.00  0.00     0.040 A 
ATOM     93  F   UNL A   1      45.679  29.238  33.413  1.00  0.00    -0.206 F 
ATOM     94  C   UNL A   1      46.351  26.092  35.083  1.00  0.00     0.006 A 
ENDBRANCH  70  87
ENDBRANCH  44  45
ENDBRANCH  36  39
ENDBRANCH  34  35
ENDBRANCH  33  34
ENDBRANCH  32  33
ENDBRANCH   1  32
TORSDOF 16
ENDMDL
MODEL 2
REMARK VINA RESULT:     -12.8      1.196      1.752
REMARK SMILES O=C(Cn1nc(-c2ccc(Br)cc2)ccc1=O)N[C@H](C(=O)NCCCCNC(=O)c1ccc(-c2c3nc(c(-c4c(F)cccc4F)c4ccc([nH]4)c(-c4c(F)cccc4F)c4nc(c(-c5c(F)cccc5F)c5ccc2[nH]5)C=C4)C=C3)cc1)c1ccccc1
REMARK SMILES IDX 23 1 22 2 20 3 21 4 19 6 18 7 1 8 2 9 3 11 4 12 5 13 16 14
REMARK SMILES IDX 6 15 15 16 17 17 14 18 7 19 8 20 13 21 9 22 12 23 10 24
REMARK SMILES IDX 11 25 84 26 85 27 89 28 86 29 88 30 87 31 24 32 25 33 26 34
REMARK SMILES IDX 27 35 28 36 29 38 30 39 31 40 83 41 32 42 82 43 33 44 34 45
REMARK SMILES IDX 35 46 76 47 36 48 81 49 75 50 77 51 37 52 80 53 74 54 73 55
REMARK SMILES IDX 38 57 64 58 47 59 63 60 48 61 51 62 62 63 78 64 49 65 50 66
REMARK SMILES IDX 61 68 79 69 52 70 39 71 40 72 45 73 41 74 42 75 44 76 46 77
REMARK SMILES IDX 43 78 65 79 66 80 71 81 67 82 68 83 70 84 72 85 69 86 53 87
REMARK SMILES IDX 54 88 59 89 55 90 56 91 58 92 60 93 57 94
REMARK H PARENT 22 5 18 10 27 37 77 56 51 67
REMARK Flexibility Score: inf
ROOT
ATOM      1  C   UNL A   1      31.877  29.583  25.680  1.00  0.00     0.116 C 
ENDROOT
BRANCH   1   2
ATOM      2  N   UNL A   1      31.320  28.273  25.941  1.00  0.00    -0.354 N 
ATOM      3  C   UNL A   1      30.991  27.296  25.030  1.00  0.00     0.247 C 
ATOM      4  O   UNL A   1      30.442  26.287  25.481  1.00  0.00    -0.272 OA
ATOM      5  H   UNL A   1      31.158  28.053  26.886  1.00  0.00     0.163 HD
BRANCH   3   6
ATOM      6  C   UNL A   1      31.103  27.603  23.505  1.00  0.00     0.202 C 
BRANCH   6   7
ATOM      7  N   UNL A   1      31.421  26.495  22.597  1.00  0.00    -0.339 N 
ATOM      8  O   UNL A   1      33.682  26.828  22.537  1.00  0.00    -0.273 OA
ATOM      9  C   UNL A   1      32.715  26.091  22.346  1.00  0.00     0.242 C 
ATOM     10  H   UNL A   1      30.682  26.023  22.149  1.00  0.00     0.164 HD
BRANCH   9  11
ATOM     11  C   UNL A   1      32.865  24.780  21.570  1.00  0.00     0.248 C 
BRANCH  11  12
ATOM     12  N   UNL A   1      33.120  23.616  22.413  1.00  0.00    -0.220 N 
ATOM     13  N   UNL A   1      34.429  23.441  22.831  1.00  0.00    -0.169 NA
ATOM     14  C   UNL A   1      32.041  23.044  23.082  1.00  0.00     0.267 A 
ATOM     15  C   UNL A   1      34.645  22.547  23.747  1.00  0.00     0.091 A 
ATOM     16  C   UNL A   1      32.358  21.901  23.959  1.00  0.00     0.075 A 
ATOM     17  O   UNL A   1      30.874  23.402  22.965  1.00  0.00    -0.268 OA
ATOM     18  C   UNL A   1      33.621  21.634  24.292  1.00  0.00     0.036 A 
BRANCH  15  19
ATOM     19  C   UNL A   1      35.971  22.465  24.396  1.00  0.00     0.002 A 
ATOM     20  C   UNL A   1      36.493  23.637  24.957  1.00  0.00     0.011 A 
ATOM     21  C   UNL A   1      36.652  21.251  24.524  1.00  0.00     0.011 A 
ATOM     22  C   UNL A   1      37.690  23.592  25.672  1.00  0.00     0.016 A 
ATOM     23  C   UNL A   1      37.858  21.212  25.232  1.00  0.00     0.016 A 
ATOM     24  C   UNL A   1      38.364  22.380  25.809  1.00  0.00     0.018 A 
ATOM     25  Br  UNL A   1      39.977  22.315  26.795  1.00  0.00    -0.051 Br
ENDBRANCH  15  19
ENDBRANCH  11  12
ENDBRANCH   9  11
ENDBRANCH   6   7
BRANCH   6  26
ATOM     26  C   UNL A   1      29.977  28.465  22.948  1.00  0.00    -0.016 A 
ATOM     27  C   UNL A   1      30.237  29.586  22.148  1.00  0.00     0.006 A 
ATOM     28  C   UNL A   1      28.639  28.159  23.251  1.00  0.00     0.006 A 
ATOM     29  C   UNL A   1      29.196  30.404  21.703  1.00  0.00     0.000 A 
ATOM     30  C   UNL A   1      27.598  28.971  22.796  1.00  0.00     0.000 A 
ATOM     31  C   UNL A   1      27.877  30.100  22.031  1.00  0.00     0.000 A 
ENDBRANCH   6  26
ENDBRANCH   3   6
ENDBRANCH   1   2
BRANCH   1  32
ATOM     32  C   UNL A   1      32.196  30.360  26.954  1.00  0.00     0.023 C 
BRANCH  32  33
ATOM     33  C   UNL A   1      31.855  31.850  26.910  1.00  0.00     0.023 C 
BRANCH  33  34
ATOM     34  C   UNL A   1      32.975  32.787  27.350  1.00  0.00     0.116 C 
BRANCH  34  35
ATOM     35  N   UNL A   1      32.502  34.132  27.662  1.00  0.00    -0.352 N 
ATOM     36  C   UNL A   1      32.974  35.034  28.589  1.00  0.00     0.251 C 
ATOM     37  H   UNL A   1      31.733  34.440  27.131  1.00  0.00     0.163 HD
ATOM     38  O   UNL A   1      32.367  36.078  28.810  1.00  0.00    -0.269 OA
BRANCH  36  39
ATOM     39  C   UNL A   1      34.194  34.712  29.359  1.00  0.00     0.039 A 
ATOM     40  C   UNL A   1      35.450  34.800  28.758  1.00  0.00     0.014 A 
ATOM     41  C   UNL A   1      34.071  34.242  30.669  1.00  0.00     0.014 A 
ATOM     42  C   UNL A   1      36.547  34.214  29.380  1.00  0.00     0.010 A 
ATOM     43  C   UNL A   1      35.194  33.737  31.329  1.00  0.00     0.010 A 
ATOM     44  C   UNL A   1      36.426  33.649  30.660  1.00  0.00    -0.014 A 
BRANCH  44  45
ATOM     45  C   UNL A   1      37.577  32.915  31.248  1.00  0.00     0.031 A 
ATOM     46  C   UNL A   1      38.118  33.300  32.604  1.00  0.00     0.074 A 
ATOM     47  C   UNL A   1      38.093  31.853  30.601  1.00  0.00     0.049 A 
ATOM     48  N   UNL A   1      39.111  32.775  33.277  1.00  0.00    -0.248 NA
ATOM     49  C   UNL A   1      37.460  34.423  33.290  1.00  0.00     0.031 C 
ATOM     50  C   UNL A   1      37.645  31.360  29.297  1.00  0.00     0.029 A 
ATOM     51  N   UNL A   1      39.089  30.983  30.962  1.00  0.00    -0.354 N 
ATOM     52  C   UNL A   1      39.212  33.516  34.450  1.00  0.00     0.074 A 
ATOM     53  C   UNL A   1      38.197  34.545  34.385  1.00  0.00     0.031 C 
ATOM     54  C   UNL A   1      38.329  30.247  28.992  1.00  0.00     0.029 A 
ATOM     55  C   UNL A   1      39.303  29.984  30.045  1.00  0.00     0.049 A 
ATOM     56  H   UNL A   1      39.603  31.066  31.799  1.00  0.00     0.167 HD
ATOM     57  C   UNL A   1      40.060  33.347  35.492  1.00  0.00     0.037 A 
ATOM     58  C   UNL A   1      40.196  28.978  30.043  1.00  0.00     0.037 A 
ATOM     59  C   UNL A   1      41.050  32.305  35.577  1.00  0.00     0.049 A 
ATOM     60  C   UNL A   1      41.157  28.843  31.188  1.00  0.00     0.074 A 
ATOM     61  C   UNL A   1      41.940  32.039  36.603  1.00  0.00     0.029 A 
ATOM     62  N   UNL A   1      41.274  31.350  34.597  1.00  0.00    -0.354 N 
ATOM     63  N   UNL A   1      41.242  29.556  32.284  1.00  0.00    -0.248 NA
ATOM     64  C   UNL A   1      42.155  27.769  31.087  1.00  0.00     0.031 C 
ATOM     65  C   UNL A   1      42.728  30.944  36.228  1.00  0.00     0.029 A 
ATOM     66  C   UNL A   1      42.303  30.506  34.985  1.00  0.00     0.049 A 
ATOM     67  H   UNL A   1      40.776  31.282  33.750  1.00  0.00     0.167 HD
ATOM     68  C   UNL A   1      42.294  29.012  33.008  1.00  0.00     0.074 A 
ATOM     69  C   UNL A   1      42.802  27.896  32.237  1.00  0.00     0.031 C 
ATOM     70  C   UNL A   1      42.798  29.404  34.203  1.00  0.00     0.037 A 
BRANCH  57  71
ATOM     71  C   UNL A   1      39.967  34.327  36.626  1.00  0.00     0.057 A 
ATOM     72  C   UNL A   1      39.168  34.050  37.744  1.00  0.00     0.134 A 
ATOM     73  C   UNL A   1      40.639  35.556  36.602  1.00  0.00     0.134 A 
ATOM     74  F   UNL A   1      38.493  32.895  37.829  1.00  0.00    -0.206 F 
ATOM     75  C   UNL A   1      39.041  34.960  38.795  1.00  0.00     0.040 A 
ATOM     76  C   UNL A   1      40.537  36.465  37.658  1.00  0.00     0.040 A 
ATOM     77  F   UNL A   1      41.430  35.877  35.568  1.00  0.00    -0.206 F 
ATOM     78  C   UNL A   1      39.732  36.169  38.756  1.00  0.00     0.006 A 
ENDBRANCH  57  71
BRANCH  58  79
ATOM     79  C   UNL A   1      40.234  28.024  28.907  1.00  0.00     0.057 A 
ATOM     80  C   UNL A   1      40.970  28.302  27.748  1.00  0.00     0.134 A 
ATOM     81  C   UNL A   1      39.541  26.810  28.958  1.00  0.00     0.134 A 
ATOM     82  F   UNL A   1      41.653  29.452  27.639  1.00  0.00    -0.206 F 
ATOM     83  C   UNL A   1      41.006  27.412  26.676  1.00  0.00     0.040 A 
ATOM     84  C   UNL A   1      39.589  25.899  27.902  1.00  0.00     0.040 A 
ATOM     85  F   UNL A   1      38.838  26.480  30.051  1.00  0.00    -0.206 F 
ATOM     86  C   UNL A   1      40.319  26.202  26.754  1.00  0.00     0.006 A 
ENDBRANCH  58  79
BRANCH  70  87
ATOM     87  C   UNL A   1      43.945  28.608  34.748  1.00  0.00     0.057 A 
ATOM     88  C   UNL A   1      45.268  28.973  34.468  1.00  0.00     0.134 A 
ATOM     89  C   UNL A   1      43.739  27.471  35.541  1.00  0.00     0.134 A 
ATOM     90  F   UNL A   1      45.532  30.048  33.710  1.00  0.00    -0.206 F 
ATOM     91  C   UNL A   1      46.346  28.236  34.959  1.00  0.00     0.040 A 
ATOM     92  C   UNL A   1      44.810  26.740  36.057  1.00  0.00     0.040 A 
ATOM     93  F   UNL A   1      42.495  27.080  35.858  1.00  0.00    -0.206 F 
ATOM     94  C   UNL A   1      46.118  27.120  35.762  1.00  0.00     0.006 A 
ENDBRANCH  70  87
ENDBRANCH  44  45
ENDBRANCH  36  39
ENDBRANCH  34  35
ENDBRANCH  33  34
ENDBRANCH  32  33
ENDBRANCH   1  32
TORSDOF 16
ENDMDL
MODEL 3
REMARK VINA RESULT:     -12.7      4.610     10.154
REMARK SMILES O=C(Cn1nc(-c2ccc(Br)cc2)ccc1=O)N[C@H](C(=O)NCCCCNC(=O)c1ccc(-c2c3nc(c(-c4c(F)cccc4F)c4ccc([nH]4)c(-c4c(F)cccc4F)c4nc(c(-c5c(F)cccc5F)c5ccc2[nH]5)C=C4)C=C3)cc1)c1ccccc1
REMARK SMILES IDX 23 1 22 2 20 3 21 4 19 6 18 7 1 8 2 9 3 11 4 12 5 13 16 14
REMARK SMILES IDX 6 15 15 16 17 17 14 18 7 19 8 20 13 21 9 22 12 23 10 24
REMARK SMILES IDX 11 25 84 26 85 27 89 28 86 29 88 30 87 31 24 32 25 33 26 34
REMARK SMILES IDX 27 35 28 36 29 38 30 39 31 40 83 41 32 42 82 43 33 44 34 45
REMARK SMILES IDX 35 46 76 47 36 48 81 49 75 50 77 51 37 52 80 53 74 54 73 55
REMARK SMILES IDX 38 57 64 58 47 59 63 60 48 61 51 62 62 63 78 64 49 65 50 66
REMARK SMILES IDX 61 68 79 69 52 70 39 71 40 72 45 73 41 74 42 75 44 76 46 77
REMARK SMILES IDX 43 78 65 79 66 80 71 81 67 82 68 83 70 84 72 85 69 86 53 87
REMARK SMILES IDX 54 88 59 89 55 90 56 91 58 92 60 93 57 94
REMARK H PARENT 22 5 18 10 27 37 77 56 51 67
REMARK Flexibility Score: inf
ROOT
ATOM      1  C   UNL A   1      36.458  22.456  24.674  1.00  0.00     0.116 C 
ENDROOT
BRANCH   1   2
ATOM      2  N   UNL A   1      35.635  22.914  23.575  1.00  0.00    -0.354 N 
ATOM      3  C   UNL A   1      34.274  22.783  23.424  1.00  0.00     0.247 C 
ATOM      4  O   UNL A   1      33.799  23.173  22.354  1.00  0.00    -0.272 OA
ATOM      5  H   UNL A   1      36.107  23.376  22.846  1.00  0.00     0.163 HD
BRANCH   3   6
ATOM      6  C   UNL A   1      33.464  21.959  24.473  1.00  0.00     0.202 C 
BRANCH   6   7
ATOM      7  N   UNL A   1      32.191  22.510  24.953  1.00  0.00    -0.339 N 
ATOM      8  O   UNL A   1      33.002  23.432  26.881  1.00  0.00    -0.273 OA
ATOM      9  C   UNL A   1      32.115  23.367  26.030  1.00  0.00     0.242 C 
ATOM     10  H   UNL A   1      31.361  22.257  24.488  1.00  0.00     0.164 HD
BRANCH   9  11
ATOM     11  C   UNL A   1      30.756  24.035  26.254  1.00  0.00     0.248 C 
BRANCH  11  12
ATOM     12  N   UNL A   1      30.642  25.363  25.660  1.00  0.00    -0.220 N 
ATOM     13  N   UNL A   1      31.224  26.402  26.370  1.00  0.00    -0.169 NA
ATOM     14  C   UNL A   1      30.379  25.449  24.295  1.00  0.00     0.267 A 
ATOM     15  C   UNL A   1      31.326  27.547  25.769  1.00  0.00     0.091 A 
ATOM     16  C   UNL A   1      30.322  26.812  23.733  1.00  0.00     0.075 A 
ATOM     17  O   UNL A   1      30.167  24.490  23.561  1.00  0.00    -0.268 OA
ATOM     18  C   UNL A   1      30.770  27.852  24.435  1.00  0.00     0.036 A 
BRANCH  15  19
ATOM     19  C   UNL A   1      32.131  28.627  26.377  1.00  0.00     0.002 A 
ATOM     20  C   UNL A   1      33.453  28.330  26.731  1.00  0.00     0.011 A 
ATOM     21  C   UNL A   1      31.631  29.924  26.522  1.00  0.00     0.011 A 
ATOM     22  C   UNL A   1      34.288  29.340  27.210  1.00  0.00     0.016 A 
ATOM     23  C   UNL A   1      32.468  30.932  27.014  1.00  0.00     0.016 A 
ATOM     24  C   UNL A   1      33.792  30.636  27.346  1.00  0.00     0.018 A 
ATOM     25  Br  UNL A   1      34.929  32.009  27.977  1.00  0.00    -0.051 Br
ENDBRANCH  15  19
ENDBRANCH  11  12
ENDBRANCH   9  11
ENDBRANCH   6   7
BRANCH   6  26
ATOM     26  C   UNL A   1      33.334  20.476  24.150  1.00  0.00    -0.016 A 
ATOM     27  C   UNL A   1      34.188  19.523  24.721  1.00  0.00     0.006 A 
ATOM     28  C   UNL A   1      32.356  20.035  23.241  1.00  0.00     0.006 A 
ATOM     29  C   UNL A   1      34.099  18.176  24.361  1.00  0.00     0.000 A 
ATOM     30  C   UNL A   1      32.260  18.686  22.892  1.00  0.00     0.000 A 
ATOM     31  C   UNL A   1      33.139  17.759  23.443  1.00  0.00     0.000 A 
ENDBRANCH   6  26
ENDBRANCH   3   6
ENDBRANCH   1   2
BRANCH   1  32
ATOM     32  C   UNL A   1      37.507  21.433  24.248  1.00  0.00     0.023 C 
BRANCH  32  33
ATOM     33  C   UNL A   1      37.887  20.407  25.315  1.00  0.00     0.023 C 
BRANCH  33  34
ATOM     34  C   UNL A   1      39.247  20.624  25.971  1.00  0.00     0.116 C 
BRANCH  34  35
ATOM     35  N   UNL A   1      40.102  19.443  25.911  1.00  0.00    -0.352 N 
ATOM     36  C   UNL A   1      41.464  19.337  26.085  1.00  0.00     0.251 C 
ATOM     37  H   UNL A   1      39.637  18.597  25.719  1.00  0.00     0.163 HD
ATOM     38  O   UNL A   1      42.041  18.276  25.866  1.00  0.00    -0.269 OA
BRANCH  36  39
ATOM     39  C   UNL A   1      42.238  20.530  26.487  1.00  0.00     0.039 A 
ATOM     40  C   UNL A   1      42.319  20.898  27.830  1.00  0.00     0.014 A 
ATOM     41  C   UNL A   1      42.822  21.329  25.501  1.00  0.00     0.014 A 
ATOM     42  C   UNL A   1      42.783  22.166  28.164  1.00  0.00     0.010 A 
ATOM     43  C   UNL A   1      43.373  22.565  25.851  1.00  0.00     0.010 A 
ATOM     44  C   UNL A   1      43.288  23.026  27.175  1.00  0.00    -0.014 A 
BRANCH  44  45
ATOM     45  C   UNL A   1      43.656  24.420  27.536  1.00  0.00     0.031 A 
ATOM     46  C   UNL A   1      45.078  24.900  27.380  1.00  0.00     0.074 A 
ATOM     47  C   UNL A   1      42.701  25.281  27.936  1.00  0.00     0.049 A 
ATOM     48  N   UNL A   1      45.586  26.080  27.641  1.00  0.00    -0.248 NA
ATOM     49  C   UNL A   1      46.058  23.929  26.869  1.00  0.00     0.031 C 
ATOM     50  C   UNL A   1      41.285  24.952  28.103  1.00  0.00     0.029 A 
ATOM     51  N   UNL A   1      42.773  26.614  28.249  1.00  0.00    -0.354 N 
ATOM     52  C   UNL A   1      46.942  25.984  27.349  1.00  0.00     0.074 A 
ATOM     53  C   UNL A   1      47.185  24.625  26.918  1.00  0.00     0.031 C 
ATOM     54  C   UNL A   1      40.613  26.064  28.439  1.00  0.00     0.029 A 
ATOM     55  C   UNL A   1      41.558  27.167  28.571  1.00  0.00     0.049 A 
ATOM     56  H   UNL A   1      43.614  27.126  28.243  1.00  0.00     0.167 HD
ATOM     57  C   UNL A   1      47.897  26.944  27.418  1.00  0.00     0.037 A 
ATOM     58  C   UNL A   1      41.242  28.419  28.948  1.00  0.00     0.037 A 
ATOM     59  C   UNL A   1      47.655  28.306  27.815  1.00  0.00     0.049 A 
ATOM     60  C   UNL A   1      42.326  29.450  29.063  1.00  0.00     0.074 A 
ATOM     61  C   UNL A   1      48.554  29.356  27.894  1.00  0.00     0.029 A 
ATOM     62  N   UNL A   1      46.419  28.810  28.192  1.00  0.00    -0.354 N 
ATOM     63  N   UNL A   1      43.603  29.341  28.791  1.00  0.00    -0.248 NA
ATOM     64  C   UNL A   1      41.925  30.776  29.553  1.00  0.00     0.031 C 
ATOM     65  C   UNL A   1      47.867  30.487  28.354  1.00  0.00     0.029 A 
ATOM     66  C   UNL A   1      46.535  30.150  28.525  1.00  0.00     0.049 A 
ATOM     67  H   UNL A   1      45.582  28.291  28.220  1.00  0.00     0.167 HD
ATOM     68  C   UNL A   1      44.156  30.584  29.064  1.00  0.00     0.074 A 
ATOM     69  C   UNL A   1      43.072  31.438  29.504  1.00  0.00     0.031 C 
ATOM     70  C   UNL A   1      45.447  30.982  28.966  1.00  0.00     0.037 A 
BRANCH  57  71
ATOM     71  C   UNL A   1      49.303  26.547  27.072  1.00  0.00     0.057 A 
ATOM     72  C   UNL A   1      49.755  26.609  25.747  1.00  0.00     0.134 A 
ATOM     73  C   UNL A   1      50.200  26.076  28.038  1.00  0.00     0.134 A 
ATOM     74  F   UNL A   1      48.946  27.045  24.771  1.00  0.00    -0.206 F 
ATOM     75  C   UNL A   1      51.048  26.216  25.397  1.00  0.00     0.040 A 
ATOM     76  C   UNL A   1      51.503  25.700  27.704  1.00  0.00     0.040 A 
ATOM     77  F   UNL A   1      49.835  26.005  29.327  1.00  0.00    -0.206 F 
ATOM     78  C   UNL A   1      51.928  25.765  26.378  1.00  0.00     0.006 A 
ENDBRANCH  57  71
BRANCH  58  79
ATOM     79  C   UNL A   1      39.833  28.764  29.261  1.00  0.00     0.057 A 
ATOM     80  C   UNL A   1      38.972  29.268  28.277  1.00  0.00     0.134 A 
ATOM     81  C   UNL A   1      39.314  28.590  30.548  1.00  0.00     0.134 A 
ATOM     82  F   UNL A   1      39.413  29.459  27.025  1.00  0.00    -0.206 F 
ATOM     83  C   UNL A   1      37.649  29.598  28.566  1.00  0.00     0.040 A 
ATOM     84  C   UNL A   1      37.984  28.892  30.844  1.00  0.00     0.040 A 
ATOM     85  F   UNL A   1      40.084  28.089  31.525  1.00  0.00    -0.206 F 
ATOM     86  C   UNL A   1      37.149  29.404  29.852  1.00  0.00     0.006 A 
ENDBRANCH  58  79
BRANCH  70  87
ATOM     87  C   UNL A   1      45.746  32.407  29.325  1.00  0.00     0.057 A 
ATOM     88  C   UNL A   1      45.673  33.419  28.361  1.00  0.00     0.134 A 
ATOM     89  C   UNL A   1      46.117  32.774  30.625  1.00  0.00     0.134 A 
ATOM     90  F   UNL A   1      45.329  33.132  27.096  1.00  0.00    -0.206 F 
ATOM     91  C   UNL A   1      45.957  34.748  28.676  1.00  0.00     0.040 A 
ATOM     92  C   UNL A   1      46.381  34.103  30.958  1.00  0.00     0.040 A 
ATOM     93  F   UNL A   1      46.188  31.852  31.598  1.00  0.00    -0.206 F 
ATOM     94  C   UNL A   1      46.306  35.094  29.980  1.00  0.00     0.006 A 
ENDBRANCH  70  87
ENDBRANCH  44  45
ENDBRANCH  36  39
ENDBRANCH  34  35
ENDBRANCH  33  34
ENDBRANCH  32  33
ENDBRANCH   1  32
TORSDOF 16
ENDMDL
