MODEL 1
REMARK VINA RESULT:     -12.1      0.000      0.000
REMARK SMILES CCOC(=O)C1=NN(c2ccc([N+](=O)[O-])cc2C(F)(F)F)[C@@](C)(C(=O)NCCCCNC(=O)c2ccc(-c3c4nc(c(-c5c(F)cccc5F)c5ccc([nH]5)c(-c5c(F)cccc5F)c5nc(c(-c6c(F)cccc6F)c6ccc3[nH]6)C=C5)C=C4)cc2)C1
REMARK SMILES IDX 28 1 27 2 26 3 24 4 25 5 22 7 6 8 7 9 88 10 8 11 23 12 4 13
REMARK SMILES IDX 5 14 3 15 2 16 1 17 9 18 10 19 17 20 11 21 16 22 12 23 18 24
REMARK SMILES IDX 19 25 20 26 21 27 13 28 14 29 15 30 29 31 30 32 31 33 32 34
REMARK SMILES IDX 33 36 34 37 35 38 87 39 36 40 86 41 37 42 38 43 39 44 80 45
REMARK SMILES IDX 40 46 85 47 79 48 81 49 41 50 84 51 78 52 77 53 42 55 68 56
REMARK SMILES IDX 51 57 67 58 52 59 55 60 66 61 82 62 53 63 54 64 65 66 83 67
REMARK SMILES IDX 56 68 43 69 44 70 49 71 45 72 46 73 48 74 50 75 47 76 69 77
REMARK SMILES IDX 70 78 75 79 71 80 72 81 74 82 76 83 73 84 57 85 58 86 63 87
REMARK SMILES IDX 59 88 60 89 62 90 64 91 61 92
REMARK H PARENT 26 6 31 35 81 54 55 65
REMARK Flexibility Score: inf
ROOT
ATOM      1  C   UNL A   1      31.604  30.943  26.336  1.00  0.00     0.023 C 
ENDROOT
BRANCH   1   2
ATOM      2  C   UNL A   1      32.964  30.309  26.617  1.00  0.00     0.116 C 
BRANCH   2   3
ATOM      3  N   UNL A   1      33.465  29.645  25.436  1.00  0.00    -0.354 N 
ATOM      4  C   UNL A   1      33.248  28.403  24.929  1.00  0.00     0.248 C 
ATOM      5  O   UNL A   1      34.027  28.080  24.023  1.00  0.00    -0.272 OA
ATOM      6  H   UNL A   1      34.079  30.196  24.897  1.00  0.00     0.163 HD
BRANCH   4   7
ATOM      7  C   UNL A   1      32.085  27.460  25.377  1.00  0.00     0.144 C 
ATOM      8  C   UNL A   1      30.600  27.625  23.635  1.00  0.00     0.149 C 
ATOM      9  N   UNL A   1      31.220  26.510  23.395  1.00  0.00    -0.169 NA
ATOM     10  C   UNL A   1      30.761  28.177  25.010  1.00  0.00     0.106 C 
ATOM     11  N   UNL A   1      31.952  26.233  24.529  1.00  0.00    -0.249 N 
ATOM     12  C   UNL A   1      32.092  27.246  26.886  1.00  0.00     0.048 C 
BRANCH   8  13
ATOM     13  C   UNL A   1      29.736  28.347  22.641  1.00  0.00     0.354 C 
ATOM     14  O   UNL A   1      30.206  28.848  21.635  1.00  0.00    -0.245 OA
BRANCH  13  15
ATOM     15  O   UNL A   1      28.462  28.387  23.070  1.00  0.00    -0.461 OA
BRANCH  15  16
ATOM     16  C   UNL A   1      27.768  29.610  22.790  1.00  0.00     0.230 C 
ATOM     17  C   UNL A   1      28.432  30.774  23.502  1.00  0.00     0.049 C 
ENDBRANCH  15  16
ENDBRANCH  13  15
ENDBRANCH   8  13
BRANCH  11  18
ATOM     18  C   UNL A   1      32.801  25.135  24.464  1.00  0.00     0.073 A 
ATOM     19  C   UNL A   1      33.866  25.154  23.535  1.00  0.00     0.036 A 
ATOM     20  C   UNL A   1      32.635  23.967  25.233  1.00  0.00     0.088 A 
ATOM     21  C   UNL A   1      34.821  24.134  23.465  1.00  0.00     0.088 A 
ATOM     22  C   UNL A   1      33.627  22.954  25.199  1.00  0.00     0.101 A 
ATOM     23  C   UNL A   1      34.722  23.052  24.335  1.00  0.00     0.270 A 
BRANCH  20  24
ATOM     24  C   UNL A   1      31.411  23.691  26.073  1.00  0.00     0.418 C 
ATOM     25  F   UNL A   1      31.590  24.050  27.378  1.00  0.00    -0.166 F 
ATOM     26  F   UNL A   1      30.334  24.412  25.650  1.00  0.00    -0.166 F 
ATOM     27  F   UNL A   1      31.008  22.393  26.113  1.00  0.00    -0.166 F 
ENDBRANCH  20  24
BRANCH  23  28
ATOM     28  N   UNL A   1      35.770  22.025  24.354  1.00  0.00     0.062 N 
ATOM     29  O   UNL A   1      36.917  22.367  24.035  1.00  0.00    -0.258 OA
ATOM     30  O   UNL A   1      35.448  20.884  24.713  1.00  0.00    -0.258 OA
ENDBRANCH  23  28
ENDBRANCH  11  18
ENDBRANCH   4   7
ENDBRANCH   2   3
ENDBRANCH   1   2
BRANCH   1  31
ATOM     31  C   UNL A   1      31.437  32.378  26.819  1.00  0.00     0.023 C 
BRANCH  31  32
ATOM     32  C   UNL A   1      32.720  33.057  27.265  1.00  0.00     0.116 C 
BRANCH  32  33
ATOM     33  N   UNL A   1      32.514  34.412  27.753  1.00  0.00    -0.352 N 
ATOM     34  C   UNL A   1      33.178  35.076  28.755  1.00  0.00     0.251 C 
ATOM     35  H   UNL A   1      31.801  34.922  27.305  1.00  0.00     0.163 HD
ATOM     36  O   UNL A   1      32.812  36.189  29.113  1.00  0.00    -0.269 OA
BRANCH  34  37
ATOM     37  C   UNL A   1      34.321  34.419  29.418  1.00  0.00     0.039 A 
ATOM     38  C   UNL A   1      34.088  33.643  30.555  1.00  0.00     0.014 A 
ATOM     39  C   UNL A   1      35.609  34.535  28.889  1.00  0.00     0.014 A 
ATOM     40  C   UNL A   1      35.142  32.927  31.125  1.00  0.00     0.010 A 
ATOM     41  C   UNL A   1      36.637  33.758  29.405  1.00  0.00     0.010 A 
ATOM     42  C   UNL A   1      36.415  32.955  30.533  1.00  0.00    -0.014 A 
BRANCH  42  43
ATOM     43  C   UNL A   1      37.545  32.177  31.094  1.00  0.00     0.031 A 
ATOM     44  C   UNL A   1      38.035  32.478  32.483  1.00  0.00     0.074 A 
ATOM     45  C   UNL A   1      38.173  31.260  30.334  1.00  0.00     0.049 A 
ATOM     46  N   UNL A   1      39.072  31.996  33.117  1.00  0.00    -0.248 NA
ATOM     47  C   UNL A   1      37.278  33.485  33.244  1.00  0.00     0.031 C 
ATOM     48  C   UNL A   1      37.826  30.916  28.954  1.00  0.00     0.029 A 
ATOM     49  N   UNL A   1      39.248  30.456  30.615  1.00  0.00    -0.354 N 
ATOM     50  C   UNL A   1      39.109  32.662  34.335  1.00  0.00     0.074 A 
ATOM     51  C   UNL A   1      38.021  33.614  34.334  1.00  0.00     0.031 C 
ATOM     52  C   UNL A   1      38.655  29.953  28.519  1.00  0.00     0.029 A 
ATOM     53  C   UNL A   1      39.609  29.633  29.577  1.00  0.00     0.049 A 
ATOM     54  H   UNL A   1      39.716  30.467  31.482  1.00  0.00     0.167 HD
ATOM     55  C   UNL A   1      39.959  32.479  35.372  1.00  0.00     0.037 A 
ATOM     56  C   UNL A   1      40.597  28.724  29.492  1.00  0.00     0.037 A 
ATOM     57  C   UNL A   1      41.007  31.496  35.393  1.00  0.00     0.049 A 
ATOM     58  C   UNL A   1      41.493  28.502  30.678  1.00  0.00     0.074 A 
ATOM     59  C   UNL A   1      41.888  31.194  36.415  1.00  0.00     0.029 A 
ATOM     60  N   UNL A   1      41.299  30.639  34.343  1.00  0.00    -0.354 N 
ATOM     61  N   UNL A   1      41.490  29.109  31.841  1.00  0.00    -0.248 NA
ATOM     62  C   UNL A   1      42.522  27.461  30.545  1.00  0.00     0.031 C 
ATOM     63  C   UNL A   1      42.727  30.162  35.978  1.00  0.00     0.029 A 
ATOM     64  C   UNL A   1      42.347  29.805  34.695  1.00  0.00     0.049 A 
ATOM     65  H   UNL A   1      40.831  30.626  33.477  1.00  0.00     0.167 HD
ATOM     66  C   UNL A   1      42.494  28.505  32.586  1.00  0.00     0.074 A 
ATOM     67  C   UNL A   1      43.079  27.479  31.748  1.00  0.00     0.031 C 
ATOM     68  C   UNL A   1      42.897  28.776  33.851  1.00  0.00     0.037 A 
BRANCH  55  69
ATOM     69  C   UNL A   1      39.772  33.355  36.574  1.00  0.00     0.057 A 
ATOM     70  C   UNL A   1      38.908  32.997  37.617  1.00  0.00     0.134 A 
ATOM     71  C   UNL A   1      40.472  34.562  36.696  1.00  0.00     0.134 A 
ATOM     72  F   UNL A   1      38.195  31.863  37.549  1.00  0.00    -0.206 F 
ATOM     73  C   UNL A   1      38.727  33.820  38.729  1.00  0.00     0.040 A 
ATOM     74  C   UNL A   1      40.317  35.382  37.816  1.00  0.00     0.040 A 
ATOM     75  F   UNL A   1      41.315  34.962  35.734  1.00  0.00    -0.206 F 
ATOM     76  C   UNL A   1      39.438  35.015  38.833  1.00  0.00     0.006 A 
ENDBRANCH  55  69
BRANCH  56  77
ATOM     77  C   UNL A   1      40.766  27.920  28.257  1.00  0.00     0.057 A 
ATOM     78  C   UNL A   1      41.564  28.383  27.205  1.00  0.00     0.134 A 
ATOM     79  C   UNL A   1      40.131  26.684  28.094  1.00  0.00     0.134 A 
ATOM     80  F   UNL A   1      42.181  29.570  27.299  1.00  0.00    -0.206 F 
ATOM     81  C   UNL A   1      41.709  27.655  26.024  1.00  0.00     0.040 A 
ATOM     82  C   UNL A   1      40.283  25.936  26.926  1.00  0.00     0.040 A 
ATOM     83  F   UNL A   1      39.361  26.184  29.071  1.00  0.00    -0.206 F 
ATOM     84  C   UNL A   1      41.070  26.425  25.884  1.00  0.00     0.006 A 
ENDBRANCH  56  77
BRANCH  68  85
ATOM     85  C   UNL A   1      43.987  27.921  34.418  1.00  0.00     0.057 A 
ATOM     86  C   UNL A   1      43.718  26.683  35.013  1.00  0.00     0.134 A 
ATOM     87  C   UNL A   1      45.324  28.328  34.333  1.00  0.00     0.134 A 
ATOM     88  F   UNL A   1      42.456  26.247  35.135  1.00  0.00    -0.206 F 
ATOM     89  C   UNL A   1      44.744  25.885  35.520  1.00  0.00     0.040 A 
ATOM     90  C   UNL A   1      46.360  27.529  34.818  1.00  0.00     0.040 A 
ATOM     91  F   UNL A   1      45.644  29.502  33.768  1.00  0.00    -0.206 F 
ATOM     92  C   UNL A   1      46.069  26.305  35.418  1.00  0.00     0.006 A 
ENDBRANCH  68  85
ENDBRANCH  42  43
ENDBRANCH  34  37
ENDBRANCH  32  33
ENDBRANCH  31  32
ENDBRANCH   1  31
TORSDOF 17
ENDMDL
MODEL 2
REMARK VINA RESULT:     -12.0      2.816      5.277
REMARK SMILES CCOC(=O)C1=NN(c2ccc([N+](=O)[O-])cc2C(F)(F)F)[C@@](C)(C(=O)NCCCCNC(=O)c2ccc(-c3c4nc(c(-c5c(F)cccc5F)c5ccc([nH]5)c(-c5c(F)cccc5F)c5nc(c(-c6c(F)cccc6F)c6ccc3[nH]6)C=C5)C=C4)cc2)C1
REMARK SMILES IDX 28 1 27 2 26 3 24 4 25 5 22 7 6 8 7 9 88 10 8 11 23 12 4 13
REMARK SMILES IDX 5 14 3 15 2 16 1 17 9 18 10 19 17 20 11 21 16 22 12 23 18 24
REMARK SMILES IDX 19 25 20 26 21 27 13 28 14 29 15 30 29 31 30 32 31 33 32 34
REMARK SMILES IDX 33 36 34 37 35 38 87 39 36 40 86 41 37 42 38 43 39 44 80 45
REMARK SMILES IDX 40 46 85 47 79 48 81 49 41 50 84 51 78 52 77 53 42 55 68 56
REMARK SMILES IDX 51 57 67 58 52 59 55 60 66 61 82 62 53 63 54 64 65 66 83 67
REMARK SMILES IDX 56 68 43 69 44 70 49 71 45 72 46 73 48 74 50 75 47 76 69 77
REMARK SMILES IDX 70 78 75 79 71 80 72 81 74 82 76 83 73 84 57 85 58 86 63 87
REMARK SMILES IDX 59 88 60 89 62 90 64 91 61 92
REMARK H PARENT 26 6 31 35 81 54 55 65
REMARK Flexibility Score: inf
ROOT
ATOM      1  C   UNL A   1      31.826  27.933  27.222  1.00  0.00     0.023 C 
ENDROOT
BRANCH   1   2
ATOM      2  C   UNL A   1      30.912  26.961  26.480  1.00  0.00     0.116 C 
BRANCH   2   3
ATOM      3  N   UNL A   1      31.174  25.603  26.897  1.00  0.00    -0.354 N 
ATOM      4  C   UNL A   1      31.855  24.585  26.307  1.00  0.00     0.248 C 
ATOM      5  O   UNL A   1      31.678  23.480  26.837  1.00  0.00    -0.272 OA
ATOM      6  H   UNL A   1      30.787  25.371  27.773  1.00  0.00     0.163 HD
BRANCH   4   7
ATOM      7  C   UNL A   1      32.836  24.763  25.104  1.00  0.00     0.144 C 
ATOM      8  C   UNL A   1      32.385  22.924  23.806  1.00  0.00     0.149 C 
ATOM      9  N   UNL A   1      31.722  23.874  23.220  1.00  0.00    -0.169 NA
ATOM     10  C   UNL A   1      33.417  23.360  24.789  1.00  0.00     0.106 C 
ATOM     11  N   UNL A   1      32.145  25.047  23.806  1.00  0.00    -0.249 N 
ATOM     12  C   UNL A   1      34.002  25.674  25.467  1.00  0.00     0.048 C 
BRANCH   8  13
ATOM     13  C   UNL A   1      32.192  21.460  23.533  1.00  0.00     0.354 C 
ATOM     14  O   UNL A   1      32.125  21.029  22.395  1.00  0.00    -0.245 OA
BRANCH  13  15
ATOM     15  O   UNL A   1      32.054  20.783  24.686  1.00  0.00    -0.461 OA
BRANCH  15  16
ATOM     16  C   UNL A   1      32.749  19.530  24.739  1.00  0.00     0.230 C 
ATOM     17  C   UNL A   1      34.250  19.755  24.762  1.00  0.00     0.049 C 
ENDBRANCH  15  16
ENDBRANCH  13  15
ENDBRANCH   8  13
BRANCH  11  18
ATOM     18  C   UNL A   1      31.481  26.205  23.421  1.00  0.00     0.073 A 
ATOM     19  C   UNL A   1      30.069  26.232  23.481  1.00  0.00     0.036 A 
ATOM     20  C   UNL A   1      32.128  27.349  22.914  1.00  0.00     0.088 A 
ATOM     21  C   UNL A   1      29.326  27.383  23.200  1.00  0.00     0.088 A 
ATOM     22  C   UNL A   1      31.383  28.531  22.674  1.00  0.00     0.101 A 
ATOM     23  C   UNL A   1      29.994  28.549  22.838  1.00  0.00     0.270 A 
BRANCH  20  24
ATOM     24  C   UNL A   1      33.592  27.383  22.547  1.00  0.00     0.418 C 
ATOM     25  F   UNL A   1      34.049  26.161  22.143  1.00  0.00    -0.166 F 
ATOM     26  F   UNL A   1      33.833  28.218  21.497  1.00  0.00    -0.166 F 
ATOM     27  F   UNL A   1      34.437  27.767  23.541  1.00  0.00    -0.166 F 
ENDBRANCH  20  24
BRANCH  23  28
ATOM     28  N   UNL A   1      29.245  29.796  22.643  1.00  0.00     0.062 N 
ATOM     29  O   UNL A   1      28.609  29.926  21.588  1.00  0.00    -0.258 OA
ATOM     30  O   UNL A   1      29.274  30.632  23.556  1.00  0.00    -0.258 OA
ENDBRANCH  23  28
ENDBRANCH  11  18
ENDBRANCH   4   7
ENDBRANCH   2   3
ENDBRANCH   1   2
BRANCH   1  31
ATOM     31  C   UNL A   1      32.493  28.996  26.359  1.00  0.00     0.023 C 
BRANCH  31  32
ATOM     32  C   UNL A   1      33.835  29.487  26.871  1.00  0.00     0.116 C 
BRANCH  32  33
ATOM     33  N   UNL A   1      33.772  30.811  27.471  1.00  0.00    -0.352 N 
ATOM     34  C   UNL A   1      34.654  31.404  28.340  1.00  0.00     0.251 C 
ATOM     35  H   UNL A   1      32.992  31.355  27.218  1.00  0.00     0.163 HD
ATOM     36  O   UNL A   1      34.401  32.497  28.834  1.00  0.00    -0.269 OA
BRANCH  34  37
ATOM     37  C   UNL A   1      35.897  30.695  28.700  1.00  0.00     0.039 A 
ATOM     38  C   UNL A   1      37.086  31.045  28.055  1.00  0.00     0.014 A 
ATOM     39  C   UNL A   1      35.892  29.721  29.701  1.00  0.00     0.014 A 
ATOM     40  C   UNL A   1      38.285  30.460  28.465  1.00  0.00     0.010 A 
ATOM     41  C   UNL A   1      37.094  29.203  30.163  1.00  0.00     0.010 A 
ATOM     42  C   UNL A   1      38.301  29.562  29.543  1.00  0.00    -0.014 A 
BRANCH  42  43
ATOM     43  C   UNL A   1      39.563  28.953  30.024  1.00  0.00     0.031 A 
ATOM     44  C   UNL A   1      40.237  29.513  31.246  1.00  0.00     0.074 A 
ATOM     45  C   UNL A   1      40.139  27.956  29.326  1.00  0.00     0.049 A 
ATOM     46  N   UNL A   1      41.396  29.203  31.767  1.00  0.00    -0.248 NA
ATOM     47  C   UNL A   1      39.528  30.592  31.953  1.00  0.00     0.031 C 
ATOM     48  C   UNL A   1      39.611  27.364  28.095  1.00  0.00     0.029 A 
ATOM     49  N   UNL A   1      41.306  27.271  29.549  1.00  0.00    -0.354 N 
ATOM     50  C   UNL A   1      41.566  30.068  32.840  1.00  0.00     0.074 A 
ATOM     51  C   UNL A   1      40.417  30.945  32.869  1.00  0.00     0.031 C 
ATOM     52  C   UNL A   1      40.438  26.387  27.688  1.00  0.00     0.029 A 
ATOM     53  C   UNL A   1      41.568  26.305  28.609  1.00  0.00     0.049 A 
ATOM     54  H   UNL A   1      41.900  27.455  30.313  1.00  0.00     0.167 HD
ATOM     55  C   UNL A   1      42.579  30.111  33.738  1.00  0.00     0.037 A 
ATOM     56  C   UNL A   1      42.601  25.450  28.507  1.00  0.00     0.037 A 
ATOM     57  C   UNL A   1      43.694  29.203  33.740  1.00  0.00     0.049 A 
ATOM     58  C   UNL A   1      43.685  25.482  29.548  1.00  0.00     0.074 A 
ATOM     59  C   UNL A   1      44.745  29.128  34.637  1.00  0.00     0.029 A 
ATOM     60  N   UNL A   1      43.889  28.198  32.807  1.00  0.00    -0.354 N 
ATOM     61  N   UNL A   1      43.813  26.277  30.583  1.00  0.00    -0.248 NA
ATOM     62  C   UNL A   1      44.762  24.491  29.413  1.00  0.00     0.031 C 
ATOM     63  C   UNL A   1      45.586  28.084  34.236  1.00  0.00     0.029 A 
ATOM     64  C   UNL A   1      45.042  27.494  33.107  1.00  0.00     0.049 A 
ATOM     65  H   UNL A   1      43.295  28.012  32.043  1.00  0.00     0.167 HD
ATOM     66  C   UNL A   1      44.966  25.864  31.237  1.00  0.00     0.074 A 
ATOM     67  C   UNL A   1      45.495  24.744  30.487  1.00  0.00     0.031 C 
ATOM     68  C   UNL A   1      45.537  26.368  32.358  1.00  0.00     0.037 A 
BRANCH  55  69
ATOM     69  C   UNL A   1      42.510  31.167  34.799  1.00  0.00     0.057 A 
ATOM     70  C   UNL A   1      43.059  32.441  34.606  1.00  0.00     0.134 A 
ATOM     71  C   UNL A   1      41.876  30.911  36.022  1.00  0.00     0.134 A 
ATOM     72  F   UNL A   1      43.695  32.739  33.464  1.00  0.00    -0.206 F 
ATOM     73  C   UNL A   1      43.003  33.418  35.601  1.00  0.00     0.040 A 
ATOM     74  C   UNL A   1      41.792  31.889  37.015  1.00  0.00     0.040 A 
ATOM     75  F   UNL A   1      41.330  29.712  36.270  1.00  0.00    -0.206 F 
ATOM     76  C   UNL A   1      42.362  33.143  36.809  1.00  0.00     0.006 A 
ENDBRANCH  55  69
BRANCH  56  77
ATOM     77  C   UNL A   1      42.641  24.458  27.406  1.00  0.00     0.057 A 
ATOM     78  C   UNL A   1      43.207  24.785  26.168  1.00  0.00     0.134 A 
ATOM     79  C   UNL A   1      42.111  23.173  27.556  1.00  0.00     0.134 A 
ATOM     80  F   UNL A   1      43.714  26.009  25.961  1.00  0.00    -0.206 F 
ATOM     81  C   UNL A   1      43.225  23.875  25.110  1.00  0.00     0.040 A 
ATOM     82  C   UNL A   1      42.140  22.245  26.513  1.00  0.00     0.040 A 
ATOM     83  F   UNL A   1      41.563  22.798  28.722  1.00  0.00    -0.206 F 
ATOM     84  C   UNL A   1      42.693  22.599  25.283  1.00  0.00     0.006 A 
ENDBRANCH  56  77
BRANCH  68  85
ATOM     85  C   UNL A   1      46.767  25.683  32.864  1.00  0.00     0.057 A 
ATOM     86  C   UNL A   1      48.043  26.021  32.398  1.00  0.00     0.134 A 
ATOM     87  C   UNL A   1      46.675  24.699  33.857  1.00  0.00     0.134 A 
ATOM     88  F   UNL A   1      48.193  26.946  31.439  1.00  0.00    -0.206 F 
ATOM     89  C   UNL A   1      49.186  25.390  32.891  1.00  0.00     0.040 A 
ATOM     90  C   UNL A   1      47.812  24.076  34.371  1.00  0.00     0.040 A 
ATOM     91  F   UNL A   1      45.480  24.337  34.347  1.00  0.00    -0.206 F 
ATOM     92  C   UNL A   1      49.071  24.419  33.884  1.00  0.00     0.006 A 
ENDBRANCH  68  85
ENDBRANCH  42  43
ENDBRANCH  34  37
ENDBRANCH  32  33
ENDBRANCH  31  32
ENDBRANCH   1  31
TORSDOF 17
ENDMDL
MODEL 3
REMARK VINA RESULT:     -12.0      1.430      7.030
REMARK SMILES CCOC(=O)C1=NN(c2ccc([N+](=O)[O-])cc2C(F)(F)F)[C@@](C)(C(=O)NCCCCNC(=O)c2ccc(-c3c4nc(c(-c5c(F)cccc5F)c5ccc([nH]5)c(-c5c(F)cccc5F)c5nc(c(-c6c(F)cccc6F)c6ccc3[nH]6)C=C5)C=C4)cc2)C1
REMARK SMILES IDX 28 1 27 2 26 3 24 4 25 5 22 7 6 8 7 9 88 10 8 11 23 12 4 13
REMARK SMILES IDX 5 14 3 15 2 16 1 17 9 18 10 19 17 20 11 21 16 22 12 23 18 24
REMARK SMILES IDX 19 25 20 26 21 27 13 28 14 29 15 30 29 31 30 32 31 33 32 34
REMARK SMILES IDX 33 36 34 37 35 38 87 39 36 40 86 41 37 42 38 43 39 44 80 45
REMARK SMILES IDX 40 46 85 47 79 48 81 49 41 50 84 51 78 52 77 53 42 55 68 56
REMARK SMILES IDX 51 57 67 58 52 59 55 60 66 61 82 62 53 63 54 64 65 66 83 67
REMARK SMILES IDX 56 68 43 69 44 70 49 71 45 72 46 73 48 74 50 75 47 76 69 77
REMARK SMILES IDX 70 78 75 79 71 80 72 81 74 82 76 83 73 84 57 85 58 86 63 87
REMARK SMILES IDX 59 88 60 89 62 90 64 91 61 92
REMARK H PARENT 26 6 31 35 81 54 55 65
REMARK Flexibility Score: inf
ROOT
ATOM      1  C   UNL A   1      31.972  30.065  27.132  1.00  0.00     0.023 C 
ENDROOT
BRANCH   1   2
ATOM      2  C   UNL A   1      31.793  29.103  25.960  1.00  0.00     0.116 C 
BRANCH   2   3
ATOM      3  N   UNL A   1      32.337  27.805  26.286  1.00  0.00    -0.354 N 
ATOM      4  C   UNL A   1      32.813  26.796  25.507  1.00  0.00     0.248 C 
ATOM      5  O   UNL A   1      32.981  25.727  26.107  1.00  0.00    -0.272 OA
ATOM      6  H   UNL A   1      32.370  27.614  27.252  1.00  0.00     0.163 HD
BRANCH   4   7
ATOM      7  C   UNL A   1      33.191  26.952  23.999  1.00  0.00     0.144 C 
ATOM      8  C   UNL A   1      32.799  24.851  23.160  1.00  0.00     0.149 C 
ATOM      9  N   UNL A   1      31.737  25.515  22.815  1.00  0.00    -0.169 NA
ATOM     10  C   UNL A   1      33.965  25.669  23.597  1.00  0.00     0.106 C 
ATOM     11  N   UNL A   1      32.017  26.838  23.075  1.00  0.00    -0.249 N 
ATOM     12  C   UNL A   1      34.119  28.139  23.776  1.00  0.00     0.048 C 
BRANCH   8  13
ATOM     13  C   UNL A   1      32.916  23.354  23.116  1.00  0.00     0.354 C 
ATOM     14  O   UNL A   1      33.951  22.807  22.779  1.00  0.00    -0.245 OA
BRANCH  13  15
ATOM     15  O   UNL A   1      31.740  22.783  23.431  1.00  0.00    -0.461 OA
BRANCH  15  16
ATOM     16  C   UNL A   1      31.701  22.150  24.717  1.00  0.00     0.230 C 
ATOM     17  C   UNL A   1      30.837  22.947  25.676  1.00  0.00     0.049 C 
ENDBRANCH  15  16
ENDBRANCH  13  15
ENDBRANCH   8  13
BRANCH  11  18
ATOM     18  C   UNL A   1      30.975  27.738  22.894  1.00  0.00     0.073 A 
ATOM     19  C   UNL A   1      31.256  28.996  22.314  1.00  0.00     0.036 A 
ATOM     20  C   UNL A   1      29.650  27.499  23.309  1.00  0.00     0.088 A 
ATOM     21  C   UNL A   1      30.254  29.925  22.011  1.00  0.00     0.088 A 
ATOM     22  C   UNL A   1      28.627  28.417  22.962  1.00  0.00     0.101 A 
ATOM     23  C   UNL A   1      28.929  29.611  22.298  1.00  0.00     0.270 A 
BRANCH  20  24
ATOM     24  C   UNL A   1      29.247  26.325  24.169  1.00  0.00     0.418 C 
ATOM     25  F   UNL A   1      27.914  26.340  24.466  1.00  0.00    -0.166 F 
ATOM     26  F   UNL A   1      29.456  25.137  23.535  1.00  0.00    -0.166 F 
ATOM     27  F   UNL A   1      29.878  26.233  25.369  1.00  0.00    -0.166 F 
ENDBRANCH  20  24
BRANCH  23  28
ATOM     28  N   UNL A   1      27.852  30.522  21.894  1.00  0.00     0.062 N 
ATOM     29  O   UNL A   1      27.080  30.926  22.774  1.00  0.00    -0.258 OA
ATOM     30  O   UNL A   1      27.797  30.852  20.701  1.00  0.00    -0.258 OA
ENDBRANCH  23  28
ENDBRANCH  11  18
ENDBRANCH   4   7
ENDBRANCH   2   3
ENDBRANCH   1   2
BRANCH   1  31
ATOM     31  C   UNL A   1      31.492  31.491  26.890  1.00  0.00     0.023 C 
BRANCH  31  32
ATOM     32  C   UNL A   1      32.596  32.505  26.647  1.00  0.00     0.116 C 
BRANCH  32  33
ATOM     33  N   UNL A   1      32.353  33.784  27.297  1.00  0.00    -0.352 N 
ATOM     34  C   UNL A   1      33.041  34.366  28.333  1.00  0.00     0.251 C 
ATOM     35  H   UNL A   1      31.594  34.302  26.946  1.00  0.00     0.163 HD
ATOM     36  O   UNL A   1      32.643  35.411  28.835  1.00  0.00    -0.269 OA
BRANCH  34  37
ATOM     37  C   UNL A   1      34.249  33.701  28.858  1.00  0.00     0.039 A 
ATOM     38  C   UNL A   1      35.487  34.330  28.708  1.00  0.00     0.014 A 
ATOM     39  C   UNL A   1      34.149  32.483  29.536  1.00  0.00     0.014 A 
ATOM     40  C   UNL A   1      36.619  33.766  29.297  1.00  0.00     0.010 A 
ATOM     41  C   UNL A   1      35.259  31.968  30.191  1.00  0.00     0.010 A 
ATOM     42  C   UNL A   1      36.505  32.599  30.070  1.00  0.00    -0.014 A 
BRANCH  42  43
ATOM     43  C   UNL A   1      37.683  31.997  30.738  1.00  0.00     0.031 A 
ATOM     44  C   UNL A   1      38.479  30.940  30.025  1.00  0.00     0.074 A 
ATOM     45  C   UNL A   1      37.988  32.342  32.003  1.00  0.00     0.049 A 
ATOM     46  N   UNL A   1      39.469  30.210  30.468  1.00  0.00    -0.248 NA
ATOM     47  C   UNL A   1      38.081  30.637  28.641  1.00  0.00     0.031 C 
ATOM     48  C   UNL A   1      37.261  33.315  32.820  1.00  0.00     0.029 A 
ATOM     49  N   UNL A   1      38.991  31.901  32.829  1.00  0.00    -0.354 N 
ATOM     50  C   UNL A   1      39.790  29.344  29.431  1.00  0.00     0.074 A 
ATOM     51  C   UNL A   1      38.861  29.605  28.354  1.00  0.00     0.031 C 
ATOM     52  C   UNL A   1      37.857  33.416  34.019  1.00  0.00     0.029 A 
ATOM     53  C   UNL A   1      38.988  32.495  34.067  1.00  0.00     0.049 A 
ATOM     54  H   UNL A   1      39.652  31.222  32.559  1.00  0.00     0.167 HD
ATOM     55  C   UNL A   1      40.787  28.429  29.371  1.00  0.00     0.037 A 
ATOM     56  C   UNL A   1      39.808  32.316  35.118  1.00  0.00     0.037 A 
ATOM     57  C   UNL A   1      41.743  28.209  30.421  1.00  0.00     0.049 A 
ATOM     58  C   UNL A   1      40.940  31.333  35.006  1.00  0.00     0.074 A 
ATOM     59  C   UNL A   1      42.822  27.344  30.439  1.00  0.00     0.029 A 
ATOM     60  N   UNL A   1      41.742  28.876  31.636  1.00  0.00    -0.354 N 
ATOM     61  N   UNL A   1      41.259  30.551  34.004  1.00  0.00    -0.248 NA
ATOM     62  C   UNL A   1      41.833  31.216  36.168  1.00  0.00     0.031 C 
ATOM     63  C   UNL A   1      43.468  27.478  31.673  1.00  0.00     0.029 A 
ATOM     64  C   UNL A   1      42.805  28.445  32.410  1.00  0.00     0.049 A 
ATOM     65  H   UNL A   1      41.083  29.556  31.908  1.00  0.00     0.167 HD
ATOM     66  C   UNL A   1      42.403  29.873  34.400  1.00  0.00     0.074 A 
ATOM     67  C   UNL A   1      42.727  30.340  35.732  1.00  0.00     0.031 C 
ATOM     68  C   UNL A   1      43.121  28.943  33.724  1.00  0.00     0.037 A 
BRANCH  55  69
ATOM     69  C   UNL A   1      40.896  27.616  28.117  1.00  0.00     0.057 A 
ATOM     70  C   UNL A   1      40.254  26.378  27.986  1.00  0.00     0.134 A 
ATOM     71  C   UNL A   1      41.639  28.081  27.025  1.00  0.00     0.134 A 
ATOM     72  F   UNL A   1      39.544  25.870  29.003  1.00  0.00    -0.206 F 
ATOM     73  C   UNL A   1      40.368  25.618  26.821  1.00  0.00     0.040 A 
ATOM     74  C   UNL A   1      41.740  27.341  25.846  1.00  0.00     0.040 A 
ATOM     75  F   UNL A   1      42.277  29.259  27.086  1.00  0.00    -0.206 F 
ATOM     76  C   UNL A   1      41.108  26.103  25.744  1.00  0.00     0.006 A 
ENDBRANCH  55  69
BRANCH  56  77
ATOM     77  C   UNL A   1      39.621  33.114  36.353  1.00  0.00     0.057 A 
ATOM     78  C   UNL A   1      38.777  32.667  37.376  1.00  0.00     0.134 A 
ATOM     79  C   UNL A   1      40.268  34.341  36.538  1.00  0.00     0.134 A 
ATOM     80  F   UNL A   1      38.117  31.506  37.244  1.00  0.00    -0.206 F 
ATOM     81  C   UNL A   1      38.565  33.420  38.531  1.00  0.00     0.040 A 
ATOM     82  C   UNL A   1      40.081  35.096  37.698  1.00  0.00     0.040 A 
ATOM     83  F   UNL A   1      41.096  34.819  35.598  1.00  0.00    -0.206 F 
ATOM     84  C   UNL A   1      39.222  34.637  38.695  1.00  0.00     0.006 A 
ENDBRANCH  56  77
BRANCH  68  85
ATOM     85  C   UNL A   1      44.350  28.411  34.393  1.00  0.00     0.057 A 
ATOM     86  C   UNL A   1      45.592  29.042  34.263  1.00  0.00     0.134 A 
ATOM     87  C   UNL A   1      44.278  27.273  35.206  1.00  0.00     0.134 A 
ATOM     88  F   UNL A   1      45.725  30.127  33.487  1.00  0.00    -0.206 F 
ATOM     89  C   UNL A   1      46.727  28.549  34.907  1.00  0.00     0.040 A 
ATOM     90  C   UNL A   1      45.402  26.782  35.871  1.00  0.00     0.040 A 
ATOM     91  F   UNL A   1      43.114  26.628  35.374  1.00  0.00    -0.206 F 
ATOM     92  C   UNL A   1      46.632  27.419  35.718  1.00  0.00     0.006 A 
ENDBRANCH  68  85
ENDBRANCH  42  43
ENDBRANCH  34  37
ENDBRANCH  32  33
ENDBRANCH  31  32
ENDBRANCH   1  31
TORSDOF 17
ENDMDL
