MODEL 1
REMARK VINA RESULT:     -11.1      0.000      0.000
REMARK SMILES C[C@H]1[C@@H](C(=O)NCCCCNC(=O)c2ccc(-c3c4nc(c(-c5c(F)cccc5F)c5ccc([nH]5)c(-c5c(F)cccc5F)c5nc(c(-c6c(F)cccc6F)c6ccc3[nH]6)C=C5)C=C4)cc2)CC[N@@H+]1CC(=O)NNC(=O)c1cccs1
REMARK SMILES IDX 7 1 6 2 4 3 5 4 3 6 1 7 2 8 70 9 68 10 69 11 71 13 72 14
REMARK SMILES IDX 73 15 74 16 75 18 76 19 77 21 78 22 79 23 82 24 80 25 81 26
REMARK SMILES IDX 8 27 9 28 10 29 11 30 12 31 13 33 14 34 15 35 67 36 16 37
REMARK SMILES IDX 66 38 17 39 18 40 19 41 60 42 20 43 65 44 59 45 61 46 21 47
REMARK SMILES IDX 64 48 58 49 57 50 22 52 48 53 31 54 47 55 32 56 35 57 46 58
REMARK SMILES IDX 62 59 33 60 34 61 45 63 63 64 36 65 23 66 24 67 29 68 25 69
REMARK SMILES IDX 26 70 28 71 30 72 27 73 49 74 50 75 55 76 51 77 52 78 54 79
REMARK SMILES IDX 56 80 53 81 37 82 38 83 43 84 39 85 40 86 42 87 44 88 41 89
REMARK H PARENT 6 5 70 12 74 17 75 20 11 32 61 51 35 62
REMARK Flexibility Score: inf
ROOT
ATOM      1  C   UNL A   1      37.626  23.576  26.020  1.00  0.00     0.116 C 
ENDROOT
BRANCH   1   2
ATOM      2  N   UNL A   1      37.395  23.585  24.592  1.00  0.00    -0.356 N 
ATOM      3  C   UNL A   1      36.272  23.245  23.899  1.00  0.00     0.229 C 
ATOM      4  O   UNL A   1      36.409  23.028  22.693  1.00  0.00    -0.275 OA
ATOM      5  H   UNL A   1      38.157  23.879  24.043  1.00  0.00     0.163 HD
BRANCH   3   6
ATOM      6  C   UNL A   1      34.907  23.254  24.588  1.00  0.00     0.142 C 
ATOM      7  C   UNL A   1      35.231  20.713  25.248  1.00  0.00     0.076 C 
ATOM      8  C   UNL A   1      34.421  21.999  25.345  1.00  0.00     0.194 C 
ATOM      9  N   UNL A   1      33.099  21.661  24.809  1.00  0.00    -0.324 N 
ATOM     10  C   UNL A   1      33.781  23.548  23.581  1.00  0.00     0.081 C 
ATOM     11  C   UNL A   1      33.010  22.248  23.478  1.00  0.00     0.263 C 
ATOM     12  H   UNL A   1      33.022  20.648  24.725  1.00  0.00     0.348 HD
BRANCH   9  13
ATOM     13  C   UNL A   1      31.953  21.856  25.703  1.00  0.00     0.365 C 
BRANCH  13  14
ATOM     14  C   UNL A   1      32.161  22.851  26.843  1.00  0.00     0.293 C 
ATOM     15  O   UNL A   1      32.703  22.516  27.900  1.00  0.00    -0.267 OA
ATOM     16  N   UNL A   1      31.765  24.157  26.710  1.00  0.00    -0.262 N 
ATOM     17  H   UNL A   1      32.026  24.781  27.425  1.00  0.00     0.191 HD
BRANCH  16  18
ATOM     18  N   UNL A   1      31.024  24.678  25.650  1.00  0.00    -0.263 N 
ATOM     19  C   UNL A   1      30.802  26.038  25.474  1.00  0.00     0.279 C 
ATOM     20  H   UNL A   1      30.639  24.052  24.995  1.00  0.00     0.191 HD
ATOM     21  O   UNL A   1      29.788  26.376  24.860  1.00  0.00    -0.266 OA
BRANCH  19  22
ATOM     22  C   UNL A   1      31.784  26.971  26.004  1.00  0.00     0.094 A 
ATOM     23  C   UNL A   1      31.719  27.770  27.133  1.00  0.00     0.026 A 
ATOM     24  S   UNL A   1      33.305  27.121  25.227  1.00  0.00    -0.139 S 
ATOM     25  C   UNL A   1      32.901  28.541  27.327  1.00  0.00     0.012 A 
ATOM     26  C   UNL A   1      33.845  28.283  26.360  1.00  0.00     0.065 A 
ENDBRANCH  19  22
ENDBRANCH  16  18
ENDBRANCH  13  14
ENDBRANCH   9  13
ENDBRANCH   3   6
ENDBRANCH   1   2
BRANCH   1  27
ATOM     27  C   UNL A   1      38.908  22.793  26.314  1.00  0.00     0.023 C 
BRANCH  27  28
ATOM     28  C   UNL A   1      39.003  21.435  25.641  1.00  0.00     0.023 C 
BRANCH  28  29
ATOM     29  C   UNL A   1      39.466  20.323  26.560  1.00  0.00     0.116 C 
BRANCH  29  30
ATOM     30  N   UNL A   1      40.522  19.500  25.984  1.00  0.00    -0.352 N 
ATOM     31  C   UNL A   1      41.861  19.791  25.824  1.00  0.00     0.251 C 
ATOM     32  H   UNL A   1      40.239  18.613  25.662  1.00  0.00     0.163 HD
ATOM     33  O   UNL A   1      42.599  19.043  25.214  1.00  0.00    -0.269 OA
BRANCH  31  34
ATOM     34  C   UNL A   1      42.365  21.061  26.382  1.00  0.00     0.039 A 
ATOM     35  C   UNL A   1      42.692  22.104  25.513  1.00  0.00     0.014 A 
ATOM     36  C   UNL A   1      42.410  21.244  27.765  1.00  0.00     0.014 A 
ATOM     37  C   UNL A   1      42.971  23.366  26.038  1.00  0.00     0.010 A 
ATOM     38  C   UNL A   1      42.573  22.522  28.276  1.00  0.00     0.010 A 
ATOM     39  C   UNL A   1      42.862  23.594  27.420  1.00  0.00    -0.014 A 
BRANCH  39  40
ATOM     40  C   UNL A   1      43.066  24.940  28.008  1.00  0.00     0.031 A 
ATOM     41  C   UNL A   1      44.440  25.343  28.466  1.00  0.00     0.074 A 
ATOM     42  C   UNL A   1      42.012  25.751  28.216  1.00  0.00     0.049 A 
ATOM     43  N   UNL A   1      44.814  26.413  29.119  1.00  0.00    -0.248 NA
ATOM     44  C   UNL A   1      45.532  24.392  28.200  1.00  0.00     0.031 C 
ATOM     45  C   UNL A   1      40.619  25.444  27.884  1.00  0.00     0.029 A 
ATOM     46  N   UNL A   1      41.950  27.005  28.771  1.00  0.00    -0.354 N 
ATOM     47  C   UNL A   1      46.167  26.241  29.374  1.00  0.00     0.074 A 
ATOM     48  C   UNL A   1      46.538  24.941  28.860  1.00  0.00     0.031 C 
ATOM     49  C   UNL A   1      39.845  26.493  28.210  1.00  0.00     0.029 A 
ATOM     50  C   UNL A   1      40.681  27.531  28.804  1.00  0.00     0.049 A 
ATOM     51  H   UNL A   1      42.739  27.482  29.114  1.00  0.00     0.167 HD
ATOM     52  C   UNL A   1      47.035  27.102  29.953  1.00  0.00     0.037 A 
ATOM     53  C   UNL A   1      40.246  28.720  29.260  1.00  0.00     0.037 A 
ATOM     54  C   UNL A   1      46.678  28.421  30.399  1.00  0.00     0.049 A 
ATOM     55  C   UNL A   1      41.239  29.686  29.842  1.00  0.00     0.074 A 
ATOM     56  C   UNL A   1      47.496  29.407  30.920  1.00  0.00     0.029 A 
ATOM     57  N   UNL A   1      45.394  28.941  30.357  1.00  0.00    -0.354 N 
ATOM     58  N   UNL A   1      42.530  29.538  30.017  1.00  0.00    -0.248 NA
ATOM     59  C   UNL A   1      40.717  30.988  30.284  1.00  0.00     0.031 C 
ATOM     60  C   UNL A   1      46.701  30.520  31.215  1.00  0.00     0.029 A 
ATOM     61  C   UNL A   1      45.394  30.235  30.848  1.00  0.00     0.049 A 
ATOM     62  H   UNL A   1      44.599  28.462  30.028  1.00  0.00     0.167 HD
ATOM     63  C   UNL A   1      42.979  30.733  30.565  1.00  0.00     0.074 A 
ATOM     64  C   UNL A   1      41.823  31.600  30.682  1.00  0.00     0.031 C 
ATOM     65  C   UNL A   1      44.233  31.080  30.941  1.00  0.00     0.037 A 
BRANCH  52  66
ATOM     66  C   UNL A   1      48.454  26.644  30.112  1.00  0.00     0.057 A 
ATOM     67  C   UNL A   1      48.876  25.929  31.241  1.00  0.00     0.134 A 
ATOM     68  C   UNL A   1      49.410  26.919  29.127  1.00  0.00     0.134 A 
ATOM     69  F   UNL A   1      48.014  25.650  32.231  1.00  0.00    -0.206 F 
ATOM     70  C   UNL A   1      50.205  25.532  31.399  1.00  0.00     0.040 A 
ATOM     71  C   UNL A   1      50.735  26.504  29.261  1.00  0.00     0.040 A 
ATOM     72  F   UNL A   1      49.072  27.598  28.020  1.00  0.00    -0.206 F 
ATOM     73  C   UNL A   1      51.137  25.816  30.404  1.00  0.00     0.006 A 
ENDBRANCH  52  66
BRANCH  53  74
ATOM     74  C   UNL A   1      38.812  29.083  29.144  1.00  0.00     0.057 A 
ATOM     75  C   UNL A   1      38.281  29.520  27.925  1.00  0.00     0.134 A 
ATOM     76  C   UNL A   1      37.943  29.007  30.238  1.00  0.00     0.134 A 
ATOM     77  F   UNL A   1      39.070  29.630  26.846  1.00  0.00    -0.206 F 
ATOM     78  C   UNL A   1      36.940  29.887  27.801  1.00  0.00     0.040 A 
ATOM     79  C   UNL A   1      36.595  29.350  30.123  1.00  0.00     0.040 A 
ATOM     80  F   UNL A   1      38.389  28.587  31.430  1.00  0.00    -0.206 F 
ATOM     81  C   UNL A   1      36.091  29.799  28.903  1.00  0.00     0.006 A 
ENDBRANCH  53  74
BRANCH  65  82
ATOM     82  C   UNL A   1      44.424  32.464  31.481  1.00  0.00     0.057 A 
ATOM     83  C   UNL A   1      44.695  33.551  30.641  1.00  0.00     0.134 A 
ATOM     84  C   UNL A   1      44.287  32.719  32.851  1.00  0.00     0.134 A 
ATOM     85  F   UNL A   1      44.849  33.367  29.321  1.00  0.00    -0.206 F 
ATOM     86  C   UNL A   1      44.841  34.842  31.148  1.00  0.00     0.040 A 
ATOM     87  C   UNL A   1      44.409  34.009  33.367  1.00  0.00     0.040 A 
ATOM     88  F   UNL A   1      44.019  31.720  33.706  1.00  0.00    -0.206 F 
ATOM     89  C   UNL A   1      44.691  35.074  32.515  1.00  0.00     0.006 A 
ENDBRANCH  65  82
ENDBRANCH  39  40
ENDBRANCH  31  34
ENDBRANCH  29  30
ENDBRANCH  28  29
ENDBRANCH  27  28
ENDBRANCH   1  27
TORSDOF 15
ENDMDL
MODEL 2
REMARK VINA RESULT:     -11.0      4.159      9.298
REMARK SMILES C[C@H]1[C@@H](C(=O)NCCCCNC(=O)c2ccc(-c3c4nc(c(-c5c(F)cccc5F)c5ccc([nH]5)c(-c5c(F)cccc5F)c5nc(c(-c6c(F)cccc6F)c6ccc3[nH]6)C=C5)C=C4)cc2)CC[N@@H+]1CC(=O)NNC(=O)c1cccs1
REMARK SMILES IDX 7 1 6 2 4 3 5 4 3 6 1 7 2 8 70 9 68 10 69 11 71 13 72 14
REMARK SMILES IDX 73 15 74 16 75 18 76 19 77 21 78 22 79 23 82 24 80 25 81 26
REMARK SMILES IDX 8 27 9 28 10 29 11 30 12 31 13 33 14 34 15 35 67 36 16 37
REMARK SMILES IDX 66 38 17 39 18 40 19 41 60 42 20 43 65 44 59 45 61 46 21 47
REMARK SMILES IDX 64 48 58 49 57 50 22 52 48 53 31 54 47 55 32 56 35 57 46 58
REMARK SMILES IDX 62 59 33 60 34 61 45 63 63 64 36 65 23 66 24 67 29 68 25 69
REMARK SMILES IDX 26 70 28 71 30 72 27 73 49 74 50 75 55 76 51 77 52 78 54 79
REMARK SMILES IDX 56 80 53 81 37 82 38 83 43 84 39 85 40 86 42 87 44 88 41 89
REMARK H PARENT 6 5 70 12 74 17 75 20 11 32 61 51 35 62
REMARK Flexibility Score: inf
ROOT
ATOM      1  C   UNL A   1      32.395  29.897  25.613  1.00  0.00     0.116 C 
ENDROOT
BRANCH   1   2
ATOM      2  N   UNL A   1      31.392  29.919  24.570  1.00  0.00    -0.356 N 
ATOM      3  C   UNL A   1      31.188  29.036  23.553  1.00  0.00     0.229 C 
ATOM      4  O   UNL A   1      30.489  29.422  22.615  1.00  0.00    -0.275 OA
ATOM      5  H   UNL A   1      30.769  30.680  24.599  1.00  0.00     0.163 HD
BRANCH   3   6
ATOM      6  C   UNL A   1      31.717  27.604  23.655  1.00  0.00     0.142 C 
ATOM      7  C   UNL A   1      33.985  28.370  22.529  1.00  0.00     0.076 C 
ATOM      8  C   UNL A   1      33.164  27.288  23.218  1.00  0.00     0.194 C 
ATOM      9  N   UNL A   1      33.087  26.189  22.250  1.00  0.00    -0.324 N 
ATOM     10  C   UNL A   1      30.851  26.635  22.831  1.00  0.00     0.081 C 
ATOM     11  C   UNL A   1      31.743  26.204  21.685  1.00  0.00     0.263 C 
ATOM     12  H   UNL A   1      33.758  26.358  21.501  1.00  0.00     0.348 HD
BRANCH   9  13
ATOM     13  C   UNL A   1      33.616  24.891  22.679  1.00  0.00     0.365 C 
BRANCH  13  14
ATOM     14  C   UNL A   1      33.093  23.674  21.919  1.00  0.00     0.293 C 
ATOM     15  O   UNL A   1      33.480  23.414  20.776  1.00  0.00    -0.267 OA
ATOM     16  N   UNL A   1      32.190  22.823  22.501  1.00  0.00    -0.262 N 
ATOM     17  H   UNL A   1      31.975  21.994  22.016  1.00  0.00     0.191 HD
BRANCH  16  18
ATOM     18  N   UNL A   1      31.548  23.030  23.722  1.00  0.00    -0.263 N 
ATOM     19  C   UNL A   1      31.873  22.332  24.879  1.00  0.00     0.279 C 
ATOM     20  H   UNL A   1      30.830  23.701  23.766  1.00  0.00     0.191 HD
ATOM     21  O   UNL A   1      30.993  22.200  25.731  1.00  0.00    -0.266 OA
BRANCH  19  22
ATOM     22  C   UNL A   1      33.229  21.823  25.019  1.00  0.00     0.094 A 
ATOM     23  C   UNL A   1      34.369  22.469  25.466  1.00  0.00     0.026 A 
ATOM     24  S   UNL A   1      33.547  20.175  24.671  1.00  0.00    -0.139 S 
ATOM     25  C   UNL A   1      35.512  21.620  25.472  1.00  0.00     0.012 A 
ATOM     26  C   UNL A   1      35.204  20.343  25.062  1.00  0.00     0.065 A 
ENDBRANCH  19  22
ENDBRANCH  16  18
ENDBRANCH  13  14
ENDBRANCH   9  13
ENDBRANCH   3   6
ENDBRANCH   1   2
BRANCH   1  27
ATOM     27  C   UNL A   1      31.813  30.530  26.879  1.00  0.00     0.023 C 
BRANCH  27  28
ATOM     28  C   UNL A   1      31.611  32.034  26.814  1.00  0.00     0.023 C 
BRANCH  28  29
ATOM     29  C   UNL A   1      32.776  32.836  27.356  1.00  0.00     0.116 C 
BRANCH  29  30
ATOM     30  N   UNL A   1      32.426  34.213  27.683  1.00  0.00    -0.352 N 
ATOM     31  C   UNL A   1      32.993  35.055  28.617  1.00  0.00     0.251 C 
ATOM     32  H   UNL A   1      31.681  34.594  27.165  1.00  0.00     0.163 HD
ATOM     33  O   UNL A   1      32.510  36.145  28.857  1.00  0.00    -0.269 OA
BRANCH  31  34
ATOM     34  C   UNL A   1      34.182  34.578  29.350  1.00  0.00     0.039 A 
ATOM     35  C   UNL A   1      34.011  33.937  30.579  1.00  0.00     0.014 A 
ATOM     36  C   UNL A   1      35.444  34.675  28.765  1.00  0.00     0.014 A 
ATOM     37  C   UNL A   1      35.103  33.306  31.175  1.00  0.00     0.010 A 
ATOM     38  C   UNL A   1      36.498  33.950  29.299  1.00  0.00     0.010 A 
ATOM     39  C   UNL A   1      36.341  33.265  30.513  1.00  0.00    -0.014 A 
BRANCH  39  40
ATOM     40  C   UNL A   1      37.502  32.530  31.071  1.00  0.00     0.031 A 
ATOM     41  C   UNL A   1      38.111  32.991  32.367  1.00  0.00     0.074 A 
ATOM     42  C   UNL A   1      38.061  31.523  30.374  1.00  0.00     0.049 A 
ATOM     43  N   UNL A   1      39.198  32.577  32.963  1.00  0.00    -0.248 NA
ATOM     44  C   UNL A   1      37.434  34.101  33.057  1.00  0.00     0.031 C 
ATOM     45  C   UNL A   1      37.609  31.032  29.071  1.00  0.00     0.029 A 
ATOM     46  N   UNL A   1      39.146  30.735  30.666  1.00  0.00    -0.354 N 
ATOM     47  C   UNL A   1      39.354  33.400  34.070  1.00  0.00     0.074 A 
ATOM     48  C   UNL A   1      38.286  34.374  34.031  1.00  0.00     0.031 C 
ATOM     49  C   UNL A   1      38.388  30.005  28.691  1.00  0.00     0.029 A 
ATOM     50  C   UNL A   1      39.414  29.788  29.706  1.00  0.00     0.049 A 
ATOM     51  H   UNL A   1      39.683  30.838  31.484  1.00  0.00     0.167 HD
ATOM     52  C   UNL A   1      40.283  33.332  35.051  1.00  0.00     0.037 A 
ATOM     53  C   UNL A   1      40.377  28.850  29.657  1.00  0.00     0.037 A 
ATOM     54  C   UNL A   1      41.299  32.319  35.123  1.00  0.00     0.049 A 
ATOM     55  C   UNL A   1      41.359  28.753  30.790  1.00  0.00     0.074 A 
ATOM     56  C   UNL A   1      42.236  32.105  36.117  1.00  0.00     0.029 A 
ATOM     57  N   UNL A   1      41.498  31.339  34.162  1.00  0.00    -0.354 N 
ATOM     58  N   UNL A   1      41.456  29.496  31.866  1.00  0.00    -0.248 NA
ATOM     59  C   UNL A   1      42.363  27.681  30.707  1.00  0.00     0.031 C 
ATOM     60  C   UNL A   1      43.018  31.005  35.748  1.00  0.00     0.029 A 
ATOM     61  C   UNL A   1      42.547  30.518  34.539  1.00  0.00     0.049 A 
ATOM     62  H   UNL A   1      40.973  31.241  33.336  1.00  0.00     0.167 HD
ATOM     63  C   UNL A   1      42.512  28.970  32.599  1.00  0.00     0.074 A 
ATOM     64  C   UNL A   1      43.016  27.836  31.850  1.00  0.00     0.031 C 
ATOM     65  C   UNL A   1      43.020  29.388  33.782  1.00  0.00     0.037 A 
BRANCH  52  66
ATOM     66  C   UNL A   1      40.218  34.370  36.131  1.00  0.00     0.057 A 
ATOM     67  C   UNL A   1      39.467  34.174  37.298  1.00  0.00     0.134 A 
ATOM     68  C   UNL A   1      40.914  35.578  36.006  1.00  0.00     0.134 A 
ATOM     69  F   UNL A   1      38.762  33.046  37.472  1.00  0.00    -0.206 F 
ATOM     70  C   UNL A   1      39.385  35.155  38.287  1.00  0.00     0.040 A 
ATOM     71  C   UNL A   1      40.861  36.556  37.000  1.00  0.00     0.040 A 
ATOM     72  F   UNL A   1      41.653  35.829  34.915  1.00  0.00    -0.206 F 
ATOM     73  C   UNL A   1      40.088  36.349  38.141  1.00  0.00     0.006 A 
ENDBRANCH  52  66
BRANCH  53  74
ATOM     74  C   UNL A   1      40.434  27.900  28.519  1.00  0.00     0.057 A 
ATOM     75  C   UNL A   1      41.157  28.212  27.361  1.00  0.00     0.134 A 
ATOM     76  C   UNL A   1      39.774  26.668  28.556  1.00  0.00     0.134 A 
ATOM     77  F   UNL A   1      41.796  29.387  27.262  1.00  0.00    -0.206 F 
ATOM     78  C   UNL A   1      41.205  27.342  26.272  1.00  0.00     0.040 A 
ATOM     79  C   UNL A   1      39.831  25.777  27.482  1.00  0.00     0.040 A 
ATOM     80  F   UNL A   1      39.073  26.307  29.640  1.00  0.00    -0.206 F 
ATOM     81  C   UNL A   1      40.543  26.117  26.332  1.00  0.00     0.006 A 
ENDBRANCH  53  74
BRANCH  65  82
ATOM     82  C   UNL A   1      44.157  28.598  34.354  1.00  0.00     0.057 A 
ATOM     83  C   UNL A   1      45.491  28.947  34.111  1.00  0.00     0.134 A 
ATOM     84  C   UNL A   1      43.913  27.506  35.196  1.00  0.00     0.134 A 
ATOM     85  F   UNL A   1      45.787  29.976  33.303  1.00  0.00    -0.206 F 
ATOM     86  C   UNL A   1      46.544  28.226  34.672  1.00  0.00     0.040 A 
ATOM     87  C   UNL A   1      44.957  26.790  35.780  1.00  0.00     0.040 A 
ATOM     88  F   UNL A   1      42.655  27.128  35.473  1.00  0.00    -0.206 F 
ATOM     89  C   UNL A   1      46.277  27.147  35.516  1.00  0.00     0.006 A 
ENDBRANCH  65  82
ENDBRANCH  39  40
ENDBRANCH  31  34
ENDBRANCH  29  30
ENDBRANCH  28  29
ENDBRANCH  27  28
ENDBRANCH   1  27
TORSDOF 15
ENDMDL
MODEL 3
REMARK VINA RESULT:     -10.9      3.861      9.070
REMARK SMILES C[C@H]1[C@@H](C(=O)NCCCCNC(=O)c2ccc(-c3c4nc(c(-c5c(F)cccc5F)c5ccc([nH]5)c(-c5c(F)cccc5F)c5nc(c(-c6c(F)cccc6F)c6ccc3[nH]6)C=C5)C=C4)cc2)CC[N@@H+]1CC(=O)NNC(=O)c1cccs1
REMARK SMILES IDX 7 1 6 2 4 3 5 4 3 6 1 7 2 8 70 9 68 10 69 11 71 13 72 14
REMARK SMILES IDX 73 15 74 16 75 18 76 19 77 21 78 22 79 23 82 24 80 25 81 26
REMARK SMILES IDX 8 27 9 28 10 29 11 30 12 31 13 33 14 34 15 35 67 36 16 37
REMARK SMILES IDX 66 38 17 39 18 40 19 41 60 42 20 43 65 44 59 45 61 46 21 47
REMARK SMILES IDX 64 48 58 49 57 50 22 52 48 53 31 54 47 55 32 56 35 57 46 58
REMARK SMILES IDX 62 59 33 60 34 61 45 63 63 64 36 65 23 66 24 67 29 68 25 69
REMARK SMILES IDX 26 70 28 71 30 72 27 73 49 74 50 75 55 76 51 77 52 78 54 79
REMARK SMILES IDX 56 80 53 81 37 82 38 83 43 84 39 85 40 86 42 87 44 88 41 89
REMARK H PARENT 6 5 70 12 74 17 75 20 11 32 61 51 35 62
REMARK Flexibility Score: inf
ROOT
ATOM      1  C   UNL A   1      33.149  29.836  26.115  1.00  0.00     0.116 C 
ENDROOT
BRANCH   1   2
ATOM      2  N   UNL A   1      33.137  29.702  24.674  1.00  0.00    -0.356 N 
ATOM      3  C   UNL A   1      32.749  28.642  23.911  1.00  0.00     0.229 C 
ATOM      4  O   UNL A   1      33.121  28.638  22.736  1.00  0.00    -0.275 OA
ATOM      5  H   UNL A   1      33.454  30.488  24.174  1.00  0.00     0.163 HD
BRANCH   3   6
ATOM      6  C   UNL A   1      31.802  27.585  24.482  1.00  0.00     0.142 C 
ATOM      7  C   UNL A   1      33.880  26.221  25.386  1.00  0.00     0.076 C 
ATOM      8  C   UNL A   1      32.371  26.408  25.303  1.00  0.00     0.194 C 
ATOM      9  N   UNL A   1      31.865  25.175  24.691  1.00  0.00    -0.324 N 
ATOM     10  C   UNL A   1      30.990  26.908  23.363  1.00  0.00     0.081 C 
ATOM     11  C   UNL A   1      31.517  25.489  23.311  1.00  0.00     0.263 C 
ATOM     12  H   UNL A   1      32.606  24.475  24.690  1.00  0.00     0.348 HD
BRANCH   9  13
ATOM     13  C   UNL A   1      30.889  24.404  25.468  1.00  0.00     0.365 C 
BRANCH  13  14
ATOM     14  C   UNL A   1      31.471  23.418  26.478  1.00  0.00     0.293 C 
ATOM     15  O   UNL A   1      31.763  23.768  27.625  1.00  0.00    -0.267 OA
ATOM     16  N   UNL A   1      31.666  22.105  26.138  1.00  0.00    -0.262 N 
ATOM     17  H   UNL A   1      31.933  21.488  26.857  1.00  0.00     0.191 HD
BRANCH  16  18
ATOM     18  N   UNL A   1      31.520  21.565  24.860  1.00  0.00    -0.263 N 
ATOM     19  C   UNL A   1      32.558  21.503  23.938  1.00  0.00     0.279 C 
ATOM     20  H   UNL A   1      30.640  21.211  24.598  1.00  0.00     0.191 HD
ATOM     21  O   UNL A   1      32.259  21.490  22.743  1.00  0.00    -0.266 OA
BRANCH  19  22
ATOM     22  C   UNL A   1      33.922  21.439  24.439  1.00  0.00     0.094 A 
ATOM     23  C   UNL A   1      34.605  20.371  24.996  1.00  0.00     0.026 A 
ATOM     24  S   UNL A   1      34.934  22.815  24.300  1.00  0.00    -0.139 S 
ATOM     25  C   UNL A   1      35.943  20.703  25.354  1.00  0.00     0.012 A 
ATOM     26  C   UNL A   1      36.252  22.004  25.029  1.00  0.00     0.065 A 
ENDBRANCH  19  22
ENDBRANCH  16  18
ENDBRANCH  13  14
ENDBRANCH   9  13
ENDBRANCH   3   6
ENDBRANCH   1   2
BRANCH   1  27
ATOM     27  C   UNL A   1      31.782  30.342  26.581  1.00  0.00     0.023 C 
BRANCH  27  28
ATOM     28  C   UNL A   1      31.622  31.852  26.587  1.00  0.00     0.023 C 
BRANCH  28  29
ATOM     29  C   UNL A   1      32.737  32.588  27.302  1.00  0.00     0.116 C 
BRANCH  29  30
ATOM     30  N   UNL A   1      32.407  33.973  27.612  1.00  0.00    -0.352 N 
ATOM     31  C   UNL A   1      32.993  34.821  28.529  1.00  0.00     0.251 C 
ATOM     32  H   UNL A   1      31.661  34.357  27.096  1.00  0.00     0.163 HD
ATOM     33  O   UNL A   1      32.526  35.920  28.758  1.00  0.00    -0.269 OA
BRANCH  31  34
ATOM     34  C   UNL A   1      34.183  34.339  29.258  1.00  0.00     0.039 A 
ATOM     35  C   UNL A   1      34.010  33.589  30.422  1.00  0.00     0.014 A 
ATOM     36  C   UNL A   1      35.455  34.544  28.723  1.00  0.00     0.014 A 
ATOM     37  C   UNL A   1      35.114  32.961  30.999  1.00  0.00     0.010 A 
ATOM     38  C   UNL A   1      36.528  33.826  29.228  1.00  0.00     0.010 A 
ATOM     39  C   UNL A   1      36.371  33.034  30.375  1.00  0.00    -0.014 A 
BRANCH  39  40
ATOM     40  C   UNL A   1      37.550  32.309  30.906  1.00  0.00     0.031 A 
ATOM     41  C   UNL A   1      38.206  32.797  32.169  1.00  0.00     0.074 A 
ATOM     42  C   UNL A   1      38.082  31.285  30.212  1.00  0.00     0.049 A 
ATOM     43  N   UNL A   1      39.314  32.394  32.734  1.00  0.00    -0.248 NA
ATOM     44  C   UNL A   1      37.557  33.924  32.859  1.00  0.00     0.031 C 
ATOM     45  C   UNL A   1      37.582  30.767  28.937  1.00  0.00     0.029 A 
ATOM     46  N   UNL A   1      39.177  30.502  30.482  1.00  0.00    -0.354 N 
ATOM     47  C   UNL A   1      39.511  33.241  33.816  1.00  0.00     0.074 A 
ATOM     48  C   UNL A   1      38.444  34.217  33.795  1.00  0.00     0.031 C 
ATOM     49  C   UNL A   1      38.346  29.731  28.553  1.00  0.00     0.029 A 
ATOM     50  C   UNL A   1      39.408  29.534  29.534  1.00  0.00     0.049 A 
ATOM     51  H   UNL A   1      39.743  30.622  31.277  1.00  0.00     0.167 HD
ATOM     52  C   UNL A   1      40.475  33.193  34.764  1.00  0.00     0.037 A 
ATOM     53  C   UNL A   1      40.367  28.593  29.470  1.00  0.00     0.037 A 
ATOM     54  C   UNL A   1      41.493  32.179  34.821  1.00  0.00     0.049 A 
ATOM     55  C   UNL A   1      41.390  28.518  30.569  1.00  0.00     0.074 A 
ATOM     56  C   UNL A   1      42.464  31.985  35.786  1.00  0.00     0.029 A 
ATOM     57  N   UNL A   1      41.655  31.178  33.876  1.00  0.00    -0.354 N 
ATOM     58  N   UNL A   1      41.527  29.285  31.624  1.00  0.00    -0.248 NA
ATOM     59  C   UNL A   1      42.389  27.443  30.473  1.00  0.00     0.031 C 
ATOM     60  C   UNL A   1      43.231  30.876  35.413  1.00  0.00     0.029 A 
ATOM     61  C   UNL A   1      42.715  30.364  34.232  1.00  0.00     0.049 A 
ATOM     62  H   UNL A   1      41.100  31.063  33.072  1.00  0.00     0.167 HD
ATOM     63  C   UNL A   1      42.607  28.773  32.330  1.00  0.00     0.074 A 
ATOM     64  C   UNL A   1      43.083  27.622  31.588  1.00  0.00     0.031 C 
ATOM     65  C   UNL A   1      43.159  29.216  33.484  1.00  0.00     0.037 A 
BRANCH  52  66
ATOM     66  C   UNL A   1      40.451  34.254  35.823  1.00  0.00     0.057 A 
ATOM     67  C   UNL A   1      39.731  34.091  37.014  1.00  0.00     0.134 A 
ATOM     68  C   UNL A   1      41.156  35.452  35.652  1.00  0.00     0.134 A 
ATOM     69  F   UNL A   1      39.019  32.975  37.231  1.00  0.00    -0.206 F 
ATOM     70  C   UNL A   1      39.686  35.095  37.983  1.00  0.00     0.040 A 
ATOM     71  C   UNL A   1      41.141  36.451  36.626  1.00  0.00     0.040 A 
ATOM     72  F   UNL A   1      41.868  35.671  34.536  1.00  0.00    -0.206 F 
ATOM     73  C   UNL A   1      40.397  36.277  37.792  1.00  0.00     0.006 A 
ENDBRANCH  52  66
BRANCH  53  74
ATOM     74  C   UNL A   1      40.382  27.618  28.353  1.00  0.00     0.057 A 
ATOM     75  C   UNL A   1      39.651  26.426  28.433  1.00  0.00     0.134 A 
ATOM     76  C   UNL A   1      41.120  27.846  27.187  1.00  0.00     0.134 A 
ATOM     77  F   UNL A   1      38.939  26.145  29.534  1.00  0.00    -0.206 F 
ATOM     78  C   UNL A   1      39.669  25.485  27.402  1.00  0.00     0.040 A 
ATOM     79  C   UNL A   1      41.130  26.924  26.138  1.00  0.00     0.040 A 
ATOM     80  F   UNL A   1      41.833  28.972  27.045  1.00  0.00    -0.206 F 
ATOM     81  C   UNL A   1      40.408  25.736  26.248  1.00  0.00     0.006 A 
ENDBRANCH  53  74
BRANCH  65  82
ATOM     82  C   UNL A   1      44.315  28.436  34.031  1.00  0.00     0.057 A 
ATOM     83  C   UNL A   1      44.125  27.333  34.872  1.00  0.00     0.134 A 
ATOM     84  C   UNL A   1      45.628  28.764  33.674  1.00  0.00     0.134 A 
ATOM     85  F   UNL A   1      42.891  26.978  35.259  1.00  0.00    -0.206 F 
ATOM     86  C   UNL A   1      45.205  26.592  35.352  1.00  0.00     0.040 A 
ATOM     87  C   UNL A   1      46.715  28.018  34.130  1.00  0.00     0.040 A 
ATOM     88  F   UNL A   1      45.874  29.806  32.865  1.00  0.00    -0.206 F 
ATOM     89  C   UNL A   1      46.505  26.931  34.976  1.00  0.00     0.006 A 
ENDBRANCH  65  82
ENDBRANCH  39  40
ENDBRANCH  31  34
ENDBRANCH  29  30
ENDBRANCH  28  29
ENDBRANCH  27  28
ENDBRANCH   1  27
TORSDOF 15
ENDMDL
