MODEL 1
REMARK VINA RESULT:     -11.8      0.000      0.000
REMARK SMILES O=C(NCCCCNC(=O)c1cccc(OS(=O)(=O)c2cccc([N+](=O)[O-])c2)c1)c1ccc(-c2c3nc(c(-c4c(F)cccc4F)c4ccc([nH]4)c(-c4c(F)cccc4F)c4nc(c(-c5c(F)cccc5F)c5ccc2[nH]5)C=C4)C=C3)cc1
REMARK SMILES IDX 6 1 5 2 4 3 3 4 1 5 2 6 30 8 31 9 83 10 32 11 82 12 33 13
REMARK SMILES IDX 34 14 35 15 76 16 36 17 81 18 75 19 77 20 37 21 80 22 74 23
REMARK SMILES IDX 73 24 38 26 64 27 47 28 63 29 48 30 51 31 62 32 78 33 49 34
REMARK SMILES IDX 50 35 61 37 79 38 52 39 39 40 40 41 45 42 41 43 42 44 44 45
REMARK SMILES IDX 46 46 43 47 65 48 66 49 71 50 67 51 68 52 70 53 72 54 69 55
REMARK SMILES IDX 53 56 54 57 59 58 55 59 56 60 58 61 60 62 57 63 7 64 8 65
REMARK SMILES IDX 9 66 10 68 11 69 12 70 29 71 13 72 15 73 14 74 16 75 17 76
REMARK SMILES IDX 18 77 19 78 20 79 21 80 28 81 22 82 24 83 23 84 25 85 26 86
REMARK SMILES IDX 27 87
REMARK H PARENT 3 7 77 25 51 36 8 67
REMARK Flexibility Score: inf
ROOT
ATOM      1  C   UNL A   1      36.552  20.439  24.952  1.00  0.00     0.023 C 
ENDROOT
BRANCH   1   2
ATOM      2  C   UNL A   1      37.805  19.566  24.953  1.00  0.00     0.023 C 
BRANCH   2   3
ATOM      3  C   UNL A   1      38.994  20.138  25.713  1.00  0.00     0.116 C 
BRANCH   3   4
ATOM      4  N   UNL A   1      40.131  19.231  25.749  1.00  0.00    -0.352 N 
ATOM      5  O   UNL A   1      42.300  18.625  25.895  1.00  0.00    -0.269 OA
ATOM      6  C   UNL A   1      41.442  19.485  26.075  1.00  0.00     0.251 C 
ATOM      7  H   UNL A   1      39.931  18.299  25.505  1.00  0.00     0.163 HD
BRANCH   6   8
ATOM      8  C   UNL A   1      41.829  20.806  26.617  1.00  0.00     0.039 A 
ATOM      9  C   UNL A   1      41.894  21.023  27.996  1.00  0.00     0.014 A 
ATOM     10  C   UNL A   1      42.143  21.841  25.731  1.00  0.00     0.014 A 
ATOM     11  C   UNL A   1      42.128  22.303  28.485  1.00  0.00     0.010 A 
ATOM     12  C   UNL A   1      42.459  23.110  26.226  1.00  0.00     0.010 A 
ATOM     13  C   UNL A   1      42.422  23.359  27.606  1.00  0.00    -0.014 A 
BRANCH  13  14
ATOM     14  C   UNL A   1      42.741  24.698  28.160  1.00  0.00     0.031 A 
ATOM     15  C   UNL A   1      44.153  25.084  28.504  1.00  0.00     0.074 A 
ATOM     16  C   UNL A   1      41.741  25.585  28.326  1.00  0.00     0.049 A 
ATOM     17  N   UNL A   1      44.603  26.218  28.980  1.00  0.00    -0.248 NA
ATOM     18  C   UNL A   1      45.194  24.066  28.296  1.00  0.00     0.031 C 
ATOM     19  C   UNL A   1      40.328  25.321  28.040  1.00  0.00     0.029 A 
ATOM     20  N   UNL A   1      41.756  26.886  28.754  1.00  0.00    -0.354 N 
ATOM     21  C   UNL A   1      45.972  26.047  29.145  1.00  0.00     0.074 A 
ATOM     22  C   UNL A   1      46.279  24.692  28.738  1.00  0.00     0.031 C 
ATOM     23  C   UNL A   1      39.619  26.438  28.260  1.00  0.00     0.029 A 
ATOM     24  C   UNL A   1      40.516  27.477  28.752  1.00  0.00     0.049 A 
ATOM     25  H   UNL A   1      42.575  27.352  29.038  1.00  0.00     0.167 HD
ATOM     26  C   UNL A   1      46.887  26.942  29.589  1.00  0.00     0.037 A 
ATOM     27  C   UNL A   1      40.138  28.716  29.117  1.00  0.00     0.037 A 
ATOM     28  C   UNL A   1      46.583  28.297  29.972  1.00  0.00     0.049 A 
ATOM     29  C   UNL A   1      41.173  29.682  29.609  1.00  0.00     0.074 A 
ATOM     30  C   UNL A   1      47.451  29.288  30.397  1.00  0.00     0.029 A 
ATOM     31  N   UNL A   1      45.313  28.851  29.975  1.00  0.00    -0.354 N 
ATOM     32  N   UNL A   1      42.467  29.513  29.733  1.00  0.00    -0.248 NA
ATOM     33  C   UNL A   1      40.696  31.010  30.021  1.00  0.00     0.031 C 
ATOM     34  C   UNL A   1      46.702  30.432  30.690  1.00  0.00     0.029 A 
ATOM     35  C   UNL A   1      45.372  30.165  30.412  1.00  0.00     0.049 A 
ATOM     36  H   UNL A   1      44.491  28.382  29.705  1.00  0.00     0.167 HD
ATOM     37  C   UNL A   1      42.961  30.714  30.223  1.00  0.00     0.074 A 
ATOM     38  C   UNL A   1      41.830  31.609  30.355  1.00  0.00     0.031 C 
ATOM     39  C   UNL A   1      44.236  31.042  30.539  1.00  0.00     0.037 A 
BRANCH  26  40
ATOM     40  C   UNL A   1      48.312  26.485  29.696  1.00  0.00     0.057 A 
ATOM     41  C   UNL A   1      49.239  26.710  28.671  1.00  0.00     0.134 A 
ATOM     42  C   UNL A   1      48.777  25.869  30.866  1.00  0.00     0.134 A 
ATOM     43  F   UNL A   1      48.855  27.287  27.522  1.00  0.00    -0.206 F 
ATOM     44  C   UNL A   1      50.575  26.327  28.799  1.00  0.00     0.040 A 
ATOM     45  C   UNL A   1      50.115  25.499  31.013  1.00  0.00     0.040 A 
ATOM     46  F   UNL A   1      47.942  25.632  31.888  1.00  0.00    -0.206 F 
ATOM     47  C   UNL A   1      51.019  25.727  29.977  1.00  0.00     0.006 A 
ENDBRANCH  26  40
BRANCH  27  48
ATOM     48  C   UNL A   1      38.710  29.104  29.027  1.00  0.00     0.057 A 
ATOM     49  C   UNL A   1      37.872  29.038  30.145  1.00  0.00     0.134 A 
ATOM     50  C   UNL A   1      38.156  29.565  27.827  1.00  0.00     0.134 A 
ATOM     51  F   UNL A   1      38.344  28.590  31.317  1.00  0.00    -0.206 F 
ATOM     52  C   UNL A   1      36.528  29.408  30.070  1.00  0.00     0.040 A 
ATOM     53  C   UNL A   1      36.821  29.960  27.744  1.00  0.00     0.040 A 
ATOM     54  F   UNL A   1      38.912  29.656  26.723  1.00  0.00    -0.206 F 
ATOM     55  C   UNL A   1      36.002  29.877  28.868  1.00  0.00     0.006 A 
ENDBRANCH  27  48
BRANCH  39  56
ATOM     56  C   UNL A   1      44.473  32.434  31.041  1.00  0.00     0.057 A 
ATOM     57  C   UNL A   1      44.736  33.495  30.167  1.00  0.00     0.134 A 
ATOM     58  C   UNL A   1      44.417  32.717  32.411  1.00  0.00     0.134 A 
ATOM     59  F   UNL A   1      44.818  33.283  28.845  1.00  0.00    -0.206 F 
ATOM     60  C   UNL A   1      44.956  34.789  30.641  1.00  0.00     0.040 A 
ATOM     61  C   UNL A   1      44.614  34.011  32.894  1.00  0.00     0.040 A 
ATOM     62  F   UNL A   1      44.164  31.743  33.299  1.00  0.00    -0.206 F 
ATOM     63  C   UNL A   1      44.890  35.050  32.008  1.00  0.00     0.006 A 
ENDBRANCH  39  56
ENDBRANCH  13  14
ENDBRANCH   6   8
ENDBRANCH   3   4
ENDBRANCH   2   3
ENDBRANCH   1   2
BRANCH   1  64
ATOM     64  C   UNL A   1      36.713  21.807  25.607  1.00  0.00     0.116 C 
BRANCH  64  65
ATOM     65  N   UNL A   1      35.642  22.110  26.548  1.00  0.00    -0.352 N 
ATOM     66  C   UNL A   1      34.383  22.599  26.285  1.00  0.00     0.251 C 
ATOM     67  H   UNL A   1      35.846  21.943  27.496  1.00  0.00     0.163 HD
ATOM     68  O   UNL A   1      33.633  22.934  27.194  1.00  0.00    -0.269 OA
BRANCH  66  69
ATOM     69  C   UNL A   1      33.950  22.729  24.881  1.00  0.00     0.043 A 
ATOM     70  C   UNL A   1      33.149  21.742  24.309  1.00  0.00     0.014 A 
ATOM     71  C   UNL A   1      34.314  23.865  24.153  1.00  0.00     0.062 A 
ATOM     72  C   UNL A   1      32.656  21.931  23.018  1.00  0.00     0.005 A 
ATOM     73  C   UNL A   1      33.773  24.084  22.888  1.00  0.00     0.143 A 
ATOM     74  C   UNL A   1      32.955  23.106  22.315  1.00  0.00     0.048 A 
BRANCH  73  75
ATOM     75  O   UNL A   1      33.981  25.230  22.156  1.00  0.00    -0.379 OA
BRANCH  75  76
ATOM     76  S   UNL A   1      32.839  26.401  22.114  1.00  0.00     0.339 S 
ATOM     77  O   UNL A   1      33.497  27.695  22.136  1.00  0.00    -0.181 OA
ATOM     78  O   UNL A   1      31.873  26.069  21.085  1.00  0.00    -0.181 OA
BRANCH  76  79
ATOM     79  C   UNL A   1      31.947  26.281  23.645  1.00  0.00     0.112 A 
ATOM     80  C   UNL A   1      30.770  25.536  23.748  1.00  0.00     0.024 A 
ATOM     81  C   UNL A   1      32.449  27.002  24.735  1.00  0.00     0.109 A 
ATOM     82  C   UNL A   1      30.080  25.519  24.963  1.00  0.00     0.009 A 
ATOM     83  C   UNL A   1      31.745  26.980  25.943  1.00  0.00     0.270 A 
ATOM     84  C   UNL A   1      30.560  26.241  26.060  1.00  0.00     0.086 A 
BRANCH  83  85
ATOM     85  N   UNL A   1      32.245  27.749  27.090  1.00  0.00     0.062 N 
ATOM     86  O   UNL A   1      33.430  28.110  27.068  1.00  0.00    -0.258 OA
ATOM     87  O   UNL A   1      31.451  27.986  28.011  1.00  0.00    -0.258 OA
ENDBRANCH  83  85
ENDBRANCH  76  79
ENDBRANCH  75  76
ENDBRANCH  73  75
ENDBRANCH  66  69
ENDBRANCH  64  65
ENDBRANCH   1  64
TORSDOF 15
ENDMDL
MODEL 2
REMARK VINA RESULT:     -11.8      1.719      6.344
REMARK SMILES O=C(NCCCCNC(=O)c1cccc(OS(=O)(=O)c2cccc([N+](=O)[O-])c2)c1)c1ccc(-c2c3nc(c(-c4c(F)cccc4F)c4ccc([nH]4)c(-c4c(F)cccc4F)c4nc(c(-c5c(F)cccc5F)c5ccc2[nH]5)C=C4)C=C3)cc1
REMARK SMILES IDX 6 1 5 2 4 3 3 4 1 5 2 6 30 8 31 9 83 10 32 11 82 12 33 13
REMARK SMILES IDX 34 14 35 15 76 16 36 17 81 18 75 19 77 20 37 21 80 22 74 23
REMARK SMILES IDX 73 24 38 26 64 27 47 28 63 29 48 30 51 31 62 32 78 33 49 34
REMARK SMILES IDX 50 35 61 37 79 38 52 39 39 40 40 41 45 42 41 43 42 44 44 45
REMARK SMILES IDX 46 46 43 47 65 48 66 49 71 50 67 51 68 52 70 53 72 54 69 55
REMARK SMILES IDX 53 56 54 57 59 58 55 59 56 60 58 61 60 62 57 63 7 64 8 65
REMARK SMILES IDX 9 66 10 68 11 69 12 70 29 71 13 72 15 73 14 74 16 75 17 76
REMARK SMILES IDX 18 77 19 78 20 79 21 80 28 81 22 82 24 83 23 84 25 85 26 86
REMARK SMILES IDX 27 87
REMARK H PARENT 3 7 77 25 51 36 8 67
REMARK Flexibility Score: inf
ROOT
ATOM      1  C   UNL A   1      36.922  20.315  24.785  1.00  0.00     0.023 C 
ENDROOT
BRANCH   1   2
ATOM      2  C   UNL A   1      38.096  19.350  24.935  1.00  0.00     0.023 C 
BRANCH   2   3
ATOM      3  C   UNL A   1      39.239  19.851  25.808  1.00  0.00     0.116 C 
BRANCH   3   4
ATOM      4  N   UNL A   1      40.317  18.882  25.937  1.00  0.00    -0.352 N 
ATOM      5  O   UNL A   1      42.449  18.153  26.065  1.00  0.00    -0.269 OA
ATOM      6  C   UNL A   1      41.660  19.091  26.141  1.00  0.00     0.251 C 
ATOM      7  H   UNL A   1      40.044  17.939  25.867  1.00  0.00     0.163 HD
BRANCH   6   8
ATOM      8  C   UNL A   1      42.164  20.452  26.427  1.00  0.00     0.039 A 
ATOM      9  C   UNL A   1      42.289  20.908  27.742  1.00  0.00     0.014 A 
ATOM     10  C   UNL A   1      42.528  21.281  25.361  1.00  0.00     0.014 A 
ATOM     11  C   UNL A   1      42.636  22.232  27.984  1.00  0.00     0.010 A 
ATOM     12  C   UNL A   1      42.956  22.589  25.611  1.00  0.00     0.010 A 
ATOM     13  C   UNL A   1      42.982  23.085  26.923  1.00  0.00    -0.014 A 
BRANCH  13  14
ATOM     14  C   UNL A   1      43.420  24.472  27.218  1.00  0.00     0.031 A 
ATOM     15  C   UNL A   1      42.448  25.510  27.706  1.00  0.00     0.074 A 
ATOM     16  C   UNL A   1      44.722  24.784  27.069  1.00  0.00     0.049 A 
ATOM     17  N   UNL A   1      42.672  26.760  28.027  1.00  0.00    -0.248 NA
ATOM     18  C   UNL A   1      41.044  25.097  27.847  1.00  0.00     0.031 C 
ATOM     19  C   UNL A   1      45.758  23.865  26.589  1.00  0.00     0.029 A 
ATOM     20  N   UNL A   1      45.401  25.948  27.320  1.00  0.00    -0.354 N 
ATOM     21  C   UNL A   1      41.439  27.288  28.388  1.00  0.00     0.074 A 
ATOM     22  C   UNL A   1      40.465  26.229  28.230  1.00  0.00     0.031 C 
ATOM     23  C   UNL A   1      46.946  24.487  26.621  1.00  0.00     0.029 A 
ATOM     24  C   UNL A   1      46.749  25.859  27.072  1.00  0.00     0.049 A 
ATOM     25  H   UNL A   1      44.965  26.768  27.646  1.00  0.00     0.167 HD
ATOM     26  C   UNL A   1      41.151  28.539  28.819  1.00  0.00     0.037 A 
ATOM     27  C   UNL A   1      47.720  26.784  27.183  1.00  0.00     0.037 A 
ATOM     28  C   UNL A   1      42.125  29.584  28.999  1.00  0.00     0.049 A 
ATOM     29  C   UNL A   1      47.369  28.162  27.657  1.00  0.00     0.074 A 
ATOM     30  C   UNL A   1      41.931  30.873  29.468  1.00  0.00     0.029 A 
ATOM     31  N   UNL A   1      43.476  29.462  28.717  1.00  0.00    -0.354 N 
ATOM     32  N   UNL A   1      46.202  28.637  28.022  1.00  0.00    -0.248 NA
ATOM     33  C   UNL A   1      48.466  29.137  27.729  1.00  0.00     0.031 C 
ATOM     34  C   UNL A   1      43.160  31.541  29.438  1.00  0.00     0.029 A 
ATOM     35  C   UNL A   1      44.125  30.657  28.985  1.00  0.00     0.049 A 
ATOM     36  H   UNL A   1      43.911  28.647  28.377  1.00  0.00     0.167 HD
ATOM     37  C   UNL A   1      46.426  29.959  28.378  1.00  0.00     0.074 A 
ATOM     38  C   UNL A   1      47.843  30.205  28.205  1.00  0.00     0.031 C 
ATOM     39  C   UNL A   1      45.536  30.885  28.807  1.00  0.00     0.037 A 
BRANCH  26  40
ATOM     40  C   UNL A   1      39.715  28.858  29.122  1.00  0.00     0.057 A 
ATOM     41  C   UNL A   1      38.822  29.259  28.122  1.00  0.00     0.134 A 
ATOM     42  C   UNL A   1      39.208  28.699  30.419  1.00  0.00     0.134 A 
ATOM     43  F   UNL A   1      39.246  29.438  26.862  1.00  0.00    -0.206 F 
ATOM     44  C   UNL A   1      37.476  29.505  28.402  1.00  0.00     0.040 A 
ATOM     45  C   UNL A   1      37.861  28.924  30.707  1.00  0.00     0.040 A 
ATOM     46  F   UNL A   1      40.010  28.310  31.420  1.00  0.00    -0.206 F 
ATOM     47  C   UNL A   1      36.991  29.329  29.698  1.00  0.00     0.006 A 
ENDBRANCH  26  40
BRANCH  27  48
ATOM     48  C   UNL A   1      49.116  26.428  26.833  1.00  0.00     0.057 A 
ATOM     49  C   UNL A   1      49.620  26.655  25.549  1.00  0.00     0.134 A 
ATOM     50  C   UNL A   1      49.981  25.868  27.780  1.00  0.00     0.134 A 
ATOM     51  F   UNL A   1      48.832  27.175  24.596  1.00  0.00    -0.206 F 
ATOM     52  C   UNL A   1      50.935  26.328  25.215  1.00  0.00     0.040 A 
ATOM     53  C   UNL A   1      51.305  25.558  27.467  1.00  0.00     0.040 A 
ATOM     54  F   UNL A   1      49.556  25.633  29.031  1.00  0.00    -0.206 F 
ATOM     55  C   UNL A   1      51.783  25.784  26.178  1.00  0.00     0.006 A 
ENDBRANCH  27  48
BRANCH  39  56
ATOM     56  C   UNL A   1      46.077  32.244  29.132  1.00  0.00     0.057 A 
ATOM     57  C   UNL A   1      46.545  32.560  30.413  1.00  0.00     0.134 A 
ATOM     58  C   UNL A   1      46.147  33.239  28.149  1.00  0.00     0.134 A 
ATOM     59  F   UNL A   1      46.489  31.654  31.401  1.00  0.00    -0.206 F 
ATOM     60  C   UNL A   1      47.048  33.828  30.711  1.00  0.00     0.040 A 
ATOM     61  C   UNL A   1      46.667  34.503  28.430  1.00  0.00     0.040 A 
ATOM     62  F   UNL A   1      45.719  32.996  26.901  1.00  0.00    -0.206 F 
ATOM     63  C   UNL A   1      47.114  34.801  29.716  1.00  0.00     0.006 A 
ENDBRANCH  39  56
ENDBRANCH  13  14
ENDBRANCH   6   8
ENDBRANCH   3   4
ENDBRANCH   2   3
ENDBRANCH   1   2
BRANCH   1  64
ATOM     64  C   UNL A   1      37.166  21.724  25.316  1.00  0.00     0.116 C 
BRANCH  64  65
ATOM     65  N   UNL A   1      36.235  22.096  26.373  1.00  0.00    -0.352 N 
ATOM     66  C   UNL A   1      34.941  22.545  26.257  1.00  0.00     0.251 C 
ATOM     67  H   UNL A   1      36.580  22.016  27.293  1.00  0.00     0.163 HD
ATOM     68  O   UNL A   1      34.322  22.950  27.234  1.00  0.00    -0.269 OA
BRANCH  66  69
ATOM     69  C   UNL A   1      34.305  22.545  24.926  1.00  0.00     0.043 A 
ATOM     70  C   UNL A   1      33.405  21.537  24.588  1.00  0.00     0.014 A 
ATOM     71  C   UNL A   1      34.584  23.583  24.032  1.00  0.00     0.062 A 
ATOM     72  C   UNL A   1      32.729  21.610  23.370  1.00  0.00     0.005 A 
ATOM     73  C   UNL A   1      33.866  23.691  22.843  1.00  0.00     0.143 A 
ATOM     74  C   UNL A   1      32.948  22.692  22.507  1.00  0.00     0.048 A 
BRANCH  73  75
ATOM     75  O   UNL A   1      33.990  24.744  21.968  1.00  0.00    -0.379 OA
BRANCH  75  76
ATOM     76  S   UNL A   1      33.032  26.062  22.122  1.00  0.00     0.339 S 
ATOM     77  O   UNL A   1      33.750  27.222  21.622  1.00  0.00    -0.181 OA
ATOM     78  O   UNL A   1      31.708  25.733  21.634  1.00  0.00    -0.181 OA
BRANCH  76  79
ATOM     79  C   UNL A   1      32.831  26.330  23.866  1.00  0.00     0.112 A 
ATOM     80  C   UNL A   1      33.657  27.209  24.570  1.00  0.00     0.024 A 
ATOM     81  C   UNL A   1      31.838  25.588  24.517  1.00  0.00     0.109 A 
ATOM     82  C   UNL A   1      33.490  27.343  25.951  1.00  0.00     0.009 A 
ATOM     83  C   UNL A   1      31.685  25.727  25.900  1.00  0.00     0.270 A 
ATOM     84  C   UNL A   1      32.510  26.602  26.621  1.00  0.00     0.086 A 
BRANCH  83  85
ATOM     85  N   UNL A   1      30.663  24.939  26.601  1.00  0.00     0.062 N 
ATOM     86  O   UNL A   1      31.043  23.959  27.257  1.00  0.00    -0.258 OA
ATOM     87  O   UNL A   1      29.484  25.301  26.490  1.00  0.00    -0.258 OA
ENDBRANCH  83  85
ENDBRANCH  76  79
ENDBRANCH  75  76
ENDBRANCH  73  75
ENDBRANCH  66  69
ENDBRANCH  64  65
ENDBRANCH   1  64
TORSDOF 15
ENDMDL
MODEL 3
REMARK VINA RESULT:     -11.7      0.296      6.093
REMARK SMILES O=C(NCCCCNC(=O)c1cccc(OS(=O)(=O)c2cccc([N+](=O)[O-])c2)c1)c1ccc(-c2c3nc(c(-c4c(F)cccc4F)c4ccc([nH]4)c(-c4c(F)cccc4F)c4nc(c(-c5c(F)cccc5F)c5ccc2[nH]5)C=C4)C=C3)cc1
REMARK SMILES IDX 6 1 5 2 4 3 3 4 1 5 2 6 30 8 31 9 83 10 32 11 82 12 33 13
REMARK SMILES IDX 34 14 35 15 76 16 36 17 81 18 75 19 77 20 37 21 80 22 74 23
REMARK SMILES IDX 73 24 38 26 64 27 47 28 63 29 48 30 51 31 62 32 78 33 49 34
REMARK SMILES IDX 50 35 61 37 79 38 52 39 39 40 40 41 45 42 41 43 42 44 44 45
REMARK SMILES IDX 46 46 43 47 65 48 66 49 71 50 67 51 68 52 70 53 72 54 69 55
REMARK SMILES IDX 53 56 54 57 59 58 55 59 56 60 58 61 60 62 57 63 7 64 8 65
REMARK SMILES IDX 9 66 10 68 11 69 12 70 29 71 13 72 15 73 14 74 16 75 17 76
REMARK SMILES IDX 18 77 19 78 20 79 21 80 28 81 22 82 24 83 23 84 25 85 26 86
REMARK SMILES IDX 27 87
REMARK H PARENT 3 7 77 25 51 36 8 67
REMARK Flexibility Score: inf
ROOT
ATOM      1  C   UNL A   1      36.586  20.392  25.008  1.00  0.00     0.023 C 
ENDROOT
BRANCH   1   2
ATOM      2  C   UNL A   1      37.888  19.603  24.895  1.00  0.00     0.023 C 
BRANCH   2   3
ATOM      3  C   UNL A   1      39.039  20.126  25.745  1.00  0.00     0.116 C 
BRANCH   3   4
ATOM      4  N   UNL A   1      40.170  19.212  25.787  1.00  0.00    -0.352 N 
ATOM      5  O   UNL A   1      42.338  18.596  25.915  1.00  0.00    -0.269 OA
ATOM      6  C   UNL A   1      41.488  19.466  26.086  1.00  0.00     0.251 C 
ATOM      7  H   UNL A   1      39.961  18.275  25.569  1.00  0.00     0.163 HD
BRANCH   6   8
ATOM      8  C   UNL A   1      41.891  20.797  26.589  1.00  0.00     0.039 A 
ATOM      9  C   UNL A   1      41.876  21.080  27.958  1.00  0.00     0.014 A 
ATOM     10  C   UNL A   1      42.303  21.774  25.677  1.00  0.00     0.014 A 
ATOM     11  C   UNL A   1      42.129  22.374  28.399  1.00  0.00     0.010 A 
ATOM     12  C   UNL A   1      42.637  23.054  26.131  1.00  0.00     0.010 A 
ATOM     13  C   UNL A   1      42.521  23.373  27.492  1.00  0.00    -0.014 A 
BRANCH  13  14
ATOM     14  C   UNL A   1      42.857  24.726  28.002  1.00  0.00     0.031 A 
ATOM     15  C   UNL A   1      41.787  25.752  28.254  1.00  0.00     0.074 A 
ATOM     16  C   UNL A   1      44.145  25.015  28.268  1.00  0.00     0.049 A 
ATOM     17  N   UNL A   1      41.910  26.972  28.714  1.00  0.00    -0.248 NA
ATOM     18  C   UNL A   1      40.403  25.366  27.942  1.00  0.00     0.031 C 
ATOM     19  C   UNL A   1      45.273  24.105  28.052  1.00  0.00     0.029 A 
ATOM     20  N   UNL A   1      44.723  26.142  28.791  1.00  0.00    -0.354 N 
ATOM     21  C   UNL A   1      40.628  27.505  28.731  1.00  0.00     0.074 A 
ATOM     22  C   UNL A   1      39.741  26.484  28.217  1.00  0.00     0.031 C 
ATOM     23  C   UNL A   1      46.400  24.693  28.479  1.00  0.00     0.029 A 
ATOM     24  C   UNL A   1      46.084  26.037  28.947  1.00  0.00     0.049 A 
ATOM     25  H   UNL A   1      44.213  26.949  29.031  1.00  0.00     0.167 HD
ATOM     26  C   UNL A   1      40.229  28.731  29.146  1.00  0.00     0.037 A 
ATOM     27  C   UNL A   1      46.982  26.928  29.406  1.00  0.00     0.037 A 
ATOM     28  C   UNL A   1      41.110  29.738  29.680  1.00  0.00     0.049 A 
ATOM     29  C   UNL A   1      46.510  28.279  29.852  1.00  0.00     0.074 A 
ATOM     30  C   UNL A   1      40.790  30.996  30.161  1.00  0.00     0.029 A 
ATOM     31  N   UNL A   1      42.484  29.602  29.802  1.00  0.00    -0.354 N 
ATOM     32  N   UNL A   1      45.290  28.758  29.888  1.00  0.00    -0.248 NA
ATOM     33  C   UNL A   1      47.540  29.219  30.316  1.00  0.00     0.031 C 
ATOM     34  C   UNL A   1      41.976  31.634  30.545  1.00  0.00     0.029 A 
ATOM     35  C   UNL A   1      43.028  30.759  30.336  1.00  0.00     0.049 A 
ATOM     36  H   UNL A   1      42.997  28.800  29.550  1.00  0.00     0.167 HD
ATOM     37  C   UNL A   1      45.402  30.047  30.389  1.00  0.00     0.074 A 
ATOM     38  C   UNL A   1      46.808  30.269  30.661  1.00  0.00     0.031 C 
ATOM     39  C   UNL A   1      44.429  30.964  30.599  1.00  0.00     0.037 A 
BRANCH  26  40
ATOM     40  C   UNL A   1      38.770  29.064  29.032  1.00  0.00     0.057 A 
ATOM     41  C   UNL A   1      37.906  28.981  30.132  1.00  0.00     0.134 A 
ATOM     42  C   UNL A   1      38.238  29.534  27.824  1.00  0.00     0.134 A 
ATOM     43  F   UNL A   1      38.351  28.531  31.314  1.00  0.00    -0.206 F 
ATOM     44  C   UNL A   1      36.561  29.342  30.030  1.00  0.00     0.040 A 
ATOM     45  C   UNL A   1      36.900  29.915  27.716  1.00  0.00     0.040 A 
ATOM     46  F   UNL A   1      39.014  29.644  26.736  1.00  0.00    -0.206 F 
ATOM     47  C   UNL A   1      36.056  29.818  28.821  1.00  0.00     0.006 A 
ENDBRANCH  26  40
BRANCH  27  48
ATOM     48  C   UNL A   1      48.417  26.562  29.461  1.00  0.00     0.057 A 
ATOM     49  C   UNL A   1      48.947  25.880  30.561  1.00  0.00     0.134 A 
ATOM     50  C   UNL A   1      49.287  26.871  28.409  1.00  0.00     0.134 A 
ATOM     51  F   UNL A   1      48.165  25.571  31.606  1.00  0.00    -0.206 F 
ATOM     52  C   UNL A   1      50.296  25.526  30.617  1.00  0.00     0.040 A 
ATOM     53  C   UNL A   1      50.632  26.502  28.441  1.00  0.00     0.040 A 
ATOM     54  F   UNL A   1      48.834  27.518  27.325  1.00  0.00    -0.206 F 
ATOM     55  C   UNL A   1      51.140  25.832  29.552  1.00  0.00     0.006 A 
ENDBRANCH  27  48
BRANCH  39  56
ATOM     56  C   UNL A   1      44.854  32.284  31.167  1.00  0.00     0.057 A 
ATOM     57  C   UNL A   1      45.196  33.362  30.342  1.00  0.00     0.134 A 
ATOM     58  C   UNL A   1      44.902  32.483  32.552  1.00  0.00     0.134 A 
ATOM     59  F   UNL A   1      45.185  33.228  29.007  1.00  0.00    -0.206 F 
ATOM     60  C   UNL A   1      45.591  34.589  30.876  1.00  0.00     0.040 A 
ATOM     61  C   UNL A   1      45.274  33.712  33.097  1.00  0.00     0.040 A 
ATOM     62  F   UNL A   1      44.581  31.490  33.395  1.00  0.00    -0.206 F 
ATOM     63  C   UNL A   1      45.626  34.767  32.258  1.00  0.00     0.006 A 
ENDBRANCH  39  56
ENDBRANCH  13  14
ENDBRANCH   6   8
ENDBRANCH   3   4
ENDBRANCH   2   3
ENDBRANCH   1   2
BRANCH   1  64
ATOM     64  C   UNL A   1      36.723  21.794  25.594  1.00  0.00     0.116 C 
BRANCH  64  65
ATOM     65  N   UNL A   1      35.657  22.118  26.533  1.00  0.00    -0.352 N 
ATOM     66  C   UNL A   1      34.395  22.593  26.265  1.00  0.00     0.251 C 
ATOM     67  H   UNL A   1      35.869  21.979  27.485  1.00  0.00     0.163 HD
ATOM     68  O   UNL A   1      33.648  22.950  27.169  1.00  0.00    -0.269 OA
BRANCH  66  69
ATOM     69  C   UNL A   1      33.951  22.681  24.861  1.00  0.00     0.043 A 
ATOM     70  C   UNL A   1      33.107  21.702  24.339  1.00  0.00     0.014 A 
ATOM     71  C   UNL A   1      34.350  23.770  24.082  1.00  0.00     0.062 A 
ATOM     72  C   UNL A   1      32.607  21.855  23.046  1.00  0.00     0.005 A 
ATOM     73  C   UNL A   1      33.804  23.956  22.814  1.00  0.00     0.143 A 
ATOM     74  C   UNL A   1      32.943  22.987  22.291  1.00  0.00     0.048 A 
BRANCH  73  75
ATOM     75  O   UNL A   1      34.048  25.062  22.032  1.00  0.00    -0.379 OA
BRANCH  75  76
ATOM     76  S   UNL A   1      32.935  26.257  21.923  1.00  0.00     0.339 S 
ATOM     77  O   UNL A   1      33.626  27.531  21.831  1.00  0.00    -0.181 OA
ATOM     78  O   UNL A   1      31.937  25.873  20.944  1.00  0.00    -0.181 OA
BRANCH  76  79
ATOM     79  C   UNL A   1      32.077  26.280  23.478  1.00  0.00     0.112 A 
ATOM     80  C   UNL A   1      30.902  25.551  23.674  1.00  0.00     0.024 A 
ATOM     81  C   UNL A   1      32.603  27.097  24.487  1.00  0.00     0.109 A 
ATOM     82  C   UNL A   1      30.238  25.647  24.900  1.00  0.00     0.009 A 
ATOM     83  C   UNL A   1      31.926  27.187  25.707  1.00  0.00     0.270 A 
ATOM     84  C   UNL A   1      30.743  26.465  25.917  1.00  0.00     0.086 A 
BRANCH  83  85
ATOM     85  N   UNL A   1      32.452  28.057  26.767  1.00  0.00     0.062 N 
ATOM     86  O   UNL A   1      33.663  27.992  27.017  1.00  0.00    -0.258 OA
ATOM     87  O   UNL A   1      31.649  28.800  27.350  1.00  0.00    -0.258 OA
ENDBRANCH  83  85
ENDBRANCH  76  79
ENDBRANCH  75  76
ENDBRANCH  73  75
ENDBRANCH  66  69
ENDBRANCH  64  65
ENDBRANCH   1  64
TORSDOF 15
ENDMDL
