MODEL 1
REMARK VINA RESULT:     -12.1      0.000      0.000
REMARK SMILES C[C@H]1CCCCN1C(=O)N1Cc2nc[nH]c2C[C@H]1C(=O)NCCCCNC(=O)c1ccc(-c2c3nc(c(-c4c(F)cccc4F)c4ccc([nH]4)c(-c4c(F)cccc4F)c4nc(c(-c5c(F)cccc5F)c5ccc2[nH]5)C=C4)C=C3)cc1
REMARK SMILES IDX 23 1 22 2 21 3 19 4 20 5 18 7 10 8 11 9 12 10 17 11 13 12
REMARK SMILES IDX 16 13 14 14 15 15 8 17 9 18 7 19 1 20 2 21 3 22 4 23 6 24
REMARK SMILES IDX 5 25 24 26 25 27 26 28 27 29 28 31 29 32 30 33 82 34 31 35
REMARK SMILES IDX 81 36 32 37 33 38 34 39 75 40 35 41 80 42 74 43 76 44 36 45
REMARK SMILES IDX 79 46 73 47 72 48 37 50 63 51 46 52 62 53 47 54 50 55 61 56
REMARK SMILES IDX 77 57 48 58 49 59 60 61 78 62 51 63 38 64 39 65 44 66 40 67
REMARK SMILES IDX 41 68 43 69 45 70 42 71 64 72 65 73 70 74 66 75 67 76 69 77
REMARK SMILES IDX 71 78 68 79 52 80 53 81 58 82 54 83 55 84 57 85 59 86 56 87
REMARK H PARENT 21 6 15 16 26 30 76 49 50 60
REMARK Flexibility Score: inf
ROOT
ATOM      1  C   UNL A   1      39.827  22.030  26.141  1.00  0.00     0.023 C 
ENDROOT
BRANCH   1   2
ATOM      2  C   UNL A   1      38.316  22.259  26.119  1.00  0.00     0.116 C 
BRANCH   2   3
ATOM      3  N   UNL A   1      37.654  21.817  24.902  1.00  0.00    -0.354 N 
ATOM      4  C   UNL A   1      36.600  22.379  24.243  1.00  0.00     0.243 C 
ATOM      5  O   UNL A   1      36.786  22.572  23.030  1.00  0.00    -0.273 OA
ATOM      6  H   UNL A   1      38.017  20.995  24.498  1.00  0.00     0.163 HD
BRANCH   4   7
ATOM      7  C   UNL A   1      35.243  22.832  24.876  1.00  0.00     0.182 C 
ATOM      8  N   UNL A   1      34.106  23.290  24.005  1.00  0.00    -0.306 N 
ATOM      9  C   UNL A   1      33.199  22.242  23.450  1.00  0.00     0.180 C 
ATOM     10  C   UNL A   1      33.253  20.964  24.220  1.00  0.00     0.081 A 
ATOM     11  C   UNL A   1      34.834  21.808  25.982  1.00  0.00     0.091 C 
ATOM     12  N   UNL A   1      32.744  19.766  23.785  1.00  0.00    -0.240 NA
ATOM     13  C   UNL A   1      33.994  20.772  25.358  1.00  0.00     0.042 A 
ATOM     14  C   UNL A   1      33.141  18.876  24.672  1.00  0.00     0.197 A 
ATOM     15  N   UNL A   1      33.897  19.447  25.664  1.00  0.00    -0.348 N 
ATOM     16  H   UNL A   1      34.291  18.990  26.442  1.00  0.00     0.167 HD
BRANCH   8  17
ATOM     17  C   UNL A   1      33.459  24.489  24.251  1.00  0.00     0.321 C 
ATOM     18  O   UNL A   1      34.156  25.472  24.535  1.00  0.00    -0.248 OA
BRANCH  17  19
ATOM     19  N   UNL A   1      32.075  24.614  24.245  1.00  0.00    -0.322 N 
ATOM     20  C   UNL A   1      31.206  23.655  26.515  1.00  0.00     0.031 C 
ATOM     21  C   UNL A   1      30.998  24.469  25.264  1.00  0.00     0.083 C 
ATOM     22  C   UNL A   1      30.442  25.848  25.670  1.00  0.00     0.025 C 
ATOM     23  C   UNL A   1      29.934  26.618  24.455  1.00  0.00     0.004 C 
ATOM     24  C   UNL A   1      31.537  25.290  23.040  1.00  0.00     0.121 C 
ATOM     25  C   UNL A   1      31.017  26.691  23.386  1.00  0.00     0.022 C 
ENDBRANCH  17  19
ENDBRANCH   8  17
ENDBRANCH   4   7
ENDBRANCH   2   3
ENDBRANCH   1   2
BRANCH   1  26
ATOM     26  C   UNL A   1      40.289  20.569  26.152  1.00  0.00     0.023 C 
BRANCH  26  27
ATOM     27  C   UNL A   1      41.592  20.296  26.898  1.00  0.00     0.116 C 
BRANCH  27  28
ATOM     28  N   UNL A   1      42.672  19.789  26.056  1.00  0.00    -0.352 N 
ATOM     29  C   UNL A   1      43.537  20.539  25.271  1.00  0.00     0.251 C 
ATOM     30  H   UNL A   1      42.800  18.813  26.044  1.00  0.00     0.163 HD
ATOM     31  O   UNL A   1      44.134  20.070  24.327  1.00  0.00    -0.269 OA
BRANCH  29  32
ATOM     32  C   UNL A   1      43.713  21.955  25.641  1.00  0.00     0.039 A 
ATOM     33  C   UNL A   1      43.066  22.971  24.935  1.00  0.00     0.014 A 
ATOM     34  C   UNL A   1      44.441  22.219  26.798  1.00  0.00     0.014 A 
ATOM     35  C   UNL A   1      43.069  24.261  25.465  1.00  0.00     0.010 A 
ATOM     36  C   UNL A   1      44.344  23.465  27.373  1.00  0.00     0.010 A 
ATOM     37  C   UNL A   1      43.682  24.500  26.705  1.00  0.00    -0.014 A 
BRANCH  37  38
ATOM     38  C   UNL A   1      43.517  25.792  27.377  1.00  0.00     0.031 A 
ATOM     39  C   UNL A   1      44.500  26.862  27.016  1.00  0.00     0.074 A 
ATOM     40  C   UNL A   1      42.401  26.111  28.068  1.00  0.00     0.049 A 
ATOM     41  N   UNL A   1      45.275  27.541  27.801  1.00  0.00    -0.248 NA
ATOM     42  C   UNL A   1      44.683  27.177  25.589  1.00  0.00     0.031 C 
ATOM     43  C   UNL A   1      41.192  25.298  28.258  1.00  0.00     0.029 A 
ATOM     44  N   UNL A   1      42.060  27.297  28.646  1.00  0.00    -0.354 N 
ATOM     45  C   UNL A   1      45.910  28.494  27.000  1.00  0.00     0.074 A 
ATOM     46  C   UNL A   1      45.617  28.130  25.638  1.00  0.00     0.031 C 
ATOM     47  C   UNL A   1      40.181  26.086  28.682  1.00  0.00     0.029 A 
ATOM     48  C   UNL A   1      40.715  27.402  28.971  1.00  0.00     0.049 A 
ATOM     49  H   UNL A   1      42.710  28.016  28.817  1.00  0.00     0.167 HD
ATOM     50  C   UNL A   1      46.446  29.630  27.528  1.00  0.00     0.037 A 
ATOM     51  C   UNL A   1      40.065  28.493  29.436  1.00  0.00     0.037 A 
ATOM     52  C   UNL A   1      46.674  29.489  28.944  1.00  0.00     0.049 A 
ATOM     53  C   UNL A   1      41.078  29.409  30.003  1.00  0.00     0.074 A 
ATOM     54  C   UNL A   1      47.417  28.641  29.742  1.00  0.00     0.029 A 
ATOM     55  N   UNL A   1      45.810  30.126  29.799  1.00  0.00    -0.354 N 
ATOM     56  N   UNL A   1      41.777  29.150  31.072  1.00  0.00    -0.248 NA
ATOM     57  C   UNL A   1      41.610  30.456  29.148  1.00  0.00     0.031 C 
ATOM     58  C   UNL A   1      46.627  28.453  30.916  1.00  0.00     0.029 A 
ATOM     59  C   UNL A   1      45.477  29.230  30.779  1.00  0.00     0.049 A 
ATOM     60  H   UNL A   1      45.489  31.053  29.722  1.00  0.00     0.167 HD
ATOM     61  C   UNL A   1      43.032  29.677  30.809  1.00  0.00     0.074 A 
ATOM     62  C   UNL A   1      42.832  30.574  29.674  1.00  0.00     0.031 C 
ATOM     63  C   UNL A   1      44.156  29.125  31.353  1.00  0.00     0.037 A 
BRANCH  50  64
ATOM     64  C   UNL A   1      46.402  30.998  26.865  1.00  0.00     0.057 A 
ATOM     65  C   UNL A   1      47.577  31.778  26.826  1.00  0.00     0.134 A 
ATOM     66  C   UNL A   1      45.220  31.701  26.559  1.00  0.00     0.134 A 
ATOM     67  F   UNL A   1      48.776  31.234  27.081  1.00  0.00    -0.206 F 
ATOM     68  C   UNL A   1      47.559  33.166  26.626  1.00  0.00     0.040 A 
ATOM     69  C   UNL A   1      45.198  33.078  26.307  1.00  0.00     0.040 A 
ATOM     70  F   UNL A   1      44.012  31.128  26.579  1.00  0.00    -0.206 F 
ATOM     71  C   UNL A   1      46.362  33.823  26.382  1.00  0.00     0.006 A 
ENDBRANCH  50  64
BRANCH  51  72
ATOM     72  C   UNL A   1      38.656  28.880  29.219  1.00  0.00     0.057 A 
ATOM     73  C   UNL A   1      37.741  28.936  30.276  1.00  0.00     0.134 A 
ATOM     74  C   UNL A   1      38.237  29.446  28.001  1.00  0.00     0.134 A 
ATOM     75  F   UNL A   1      38.067  28.457  31.484  1.00  0.00    -0.206 F 
ATOM     76  C   UNL A   1      36.483  29.537  30.137  1.00  0.00     0.040 A 
ATOM     77  C   UNL A   1      36.983  30.044  27.847  1.00  0.00     0.040 A 
ATOM     78  F   UNL A   1      39.063  29.509  26.947  1.00  0.00    -0.206 F 
ATOM     79  C   UNL A   1      36.105  30.103  28.922  1.00  0.00     0.006 A 
ENDBRANCH  51  72
BRANCH  63  80
ATOM     80  C   UNL A   1      43.980  28.121  32.459  1.00  0.00     0.057 A 
ATOM     81  C   UNL A   1      43.918  26.734  32.254  1.00  0.00     0.134 A 
ATOM     82  C   UNL A   1      44.028  28.560  33.785  1.00  0.00     0.134 A 
ATOM     83  F   UNL A   1      43.970  26.212  31.025  1.00  0.00    -0.206 F 
ATOM     84  C   UNL A   1      43.862  25.831  33.319  1.00  0.00     0.040 A 
ATOM     85  C   UNL A   1      44.005  27.666  34.860  1.00  0.00     0.040 A 
ATOM     86  F   UNL A   1      44.148  29.868  34.060  1.00  0.00    -0.206 F 
ATOM     87  C   UNL A   1      43.912  26.296  34.628  1.00  0.00     0.006 A 
ENDBRANCH  63  80
ENDBRANCH  37  38
ENDBRANCH  29  32
ENDBRANCH  27  28
ENDBRANCH  26  27
ENDBRANCH   1  26
TORSDOF 13
ENDMDL
MODEL 2
REMARK VINA RESULT:     -12.0      2.476      7.284
REMARK SMILES C[C@H]1CCCCN1C(=O)N1Cc2nc[nH]c2C[C@H]1C(=O)NCCCCNC(=O)c1ccc(-c2c3nc(c(-c4c(F)cccc4F)c4ccc([nH]4)c(-c4c(F)cccc4F)c4nc(c(-c5c(F)cccc5F)c5ccc2[nH]5)C=C4)C=C3)cc1
REMARK SMILES IDX 23 1 22 2 21 3 19 4 20 5 18 7 10 8 11 9 12 10 17 11 13 12
REMARK SMILES IDX 16 13 14 14 15 15 8 17 9 18 7 19 1 20 2 21 3 22 4 23 6 24
REMARK SMILES IDX 5 25 24 26 25 27 26 28 27 29 28 31 29 32 30 33 82 34 31 35
REMARK SMILES IDX 81 36 32 37 33 38 34 39 75 40 35 41 80 42 74 43 76 44 36 45
REMARK SMILES IDX 79 46 73 47 72 48 37 50 63 51 46 52 62 53 47 54 50 55 61 56
REMARK SMILES IDX 77 57 48 58 49 59 60 61 78 62 51 63 38 64 39 65 44 66 40 67
REMARK SMILES IDX 41 68 43 69 45 70 42 71 64 72 65 73 70 74 66 75 67 76 69 77
REMARK SMILES IDX 71 78 68 79 52 80 53 81 58 82 54 83 55 84 57 85 59 86 56 87
REMARK H PARENT 21 6 15 16 26 30 76 49 50 60
REMARK Flexibility Score: inf
ROOT
ATOM      1  C   UNL A   1      32.913  28.605  25.821  1.00  0.00     0.023 C 
ENDROOT
BRANCH   1   2
ATOM      2  C   UNL A   1      32.537  27.200  25.349  1.00  0.00     0.116 C 
BRANCH   2   3
ATOM      3  N   UNL A   1      32.681  26.984  23.919  1.00  0.00    -0.354 N 
ATOM      4  C   UNL A   1      32.506  25.838  23.200  1.00  0.00     0.243 C 
ATOM      5  O   UNL A   1      31.749  25.946  22.222  1.00  0.00    -0.273 OA
ATOM      6  H   UNL A   1      32.943  27.777  23.396  1.00  0.00     0.163 HD
BRANCH   4   7
ATOM      7  C   UNL A   1      33.119  24.435  23.524  1.00  0.00     0.182 C 
ATOM      8  N   UNL A   1      34.174  24.287  24.585  1.00  0.00    -0.306 N 
ATOM      9  C   UNL A   1      33.714  24.124  25.996  1.00  0.00     0.180 C 
ATOM     10  C   UNL A   1      32.303  23.647  26.092  1.00  0.00     0.081 A 
ATOM     11  C   UNL A   1      31.964  23.388  23.615  1.00  0.00     0.091 C 
ATOM     12  N   UNL A   1      31.544  23.672  27.236  1.00  0.00    -0.240 NA
ATOM     13  C   UNL A   1      31.516  23.320  25.017  1.00  0.00     0.042 A 
ATOM     14  C   UNL A   1      30.331  23.325  26.857  1.00  0.00     0.197 A 
ATOM     15  N   UNL A   1      30.267  23.084  25.508  1.00  0.00    -0.348 N 
ATOM     16  H   UNL A   1      29.476  22.798  24.997  1.00  0.00     0.167 HD
BRANCH   8  17
ATOM     17  C   UNL A   1      35.358  23.618  24.323  1.00  0.00     0.321 C 
ATOM     18  O   UNL A   1      35.786  23.640  23.161  1.00  0.00    -0.248 OA
BRANCH  17  19
ATOM     19  N   UNL A   1      36.043  22.889  25.287  1.00  0.00    -0.322 N 
ATOM     20  C   UNL A   1      35.344  20.387  25.001  1.00  0.00     0.031 C 
ATOM     21  C   UNL A   1      36.271  21.441  25.551  1.00  0.00     0.083 C 
ATOM     22  C   UNL A   1      37.718  21.044  25.198  1.00  0.00     0.025 C 
ATOM     23  C   UNL A   1      38.725  21.896  25.963  1.00  0.00     0.004 C 
ATOM     24  C   UNL A   1      36.976  23.700  26.105  1.00  0.00     0.121 C 
ATOM     25  C   UNL A   1      38.434  23.376  25.752  1.00  0.00     0.022 C 
ENDBRANCH  17  19
ENDBRANCH   8  17
ENDBRANCH   4   7
ENDBRANCH   2   3
ENDBRANCH   1   2
BRANCH   1  26
ATOM     26  C   UNL A   1      33.391  28.725  27.272  1.00  0.00     0.023 C 
BRANCH  26  27
ATOM     27  C   UNL A   1      34.875  29.032  27.453  1.00  0.00     0.116 C 
BRANCH  27  28
ATOM     28  N   UNL A   1      35.152  30.164  28.333  1.00  0.00    -0.352 N 
ATOM     29  C   UNL A   1      36.246  30.316  29.174  1.00  0.00     0.251 C 
ATOM     30  H   UNL A   1      34.493  30.896  28.329  1.00  0.00     0.163 HD
ATOM     31  O   UNL A   1      36.233  31.055  30.134  1.00  0.00    -0.269 OA
BRANCH  29  32
ATOM     32  C   UNL A   1      37.452  29.536  28.843  1.00  0.00     0.039 A 
ATOM     33  C   UNL A   1      38.198  29.812  27.696  1.00  0.00     0.014 A 
ATOM     34  C   UNL A   1      37.881  28.607  29.787  1.00  0.00     0.014 A 
ATOM     35  C   UNL A   1      39.451  29.216  27.552  1.00  0.00     0.010 A 
ATOM     36  C   UNL A   1      39.161  28.113  29.697  1.00  0.00     0.010 A 
ATOM     37  C   UNL A   1      39.946  28.390  28.574  1.00  0.00    -0.014 A 
BRANCH  37  38
ATOM     38  C   UNL A   1      41.337  27.924  28.542  1.00  0.00     0.031 A 
ATOM     39  C   UNL A   1      41.593  26.637  27.821  1.00  0.00     0.074 A 
ATOM     40  C   UNL A   1      42.373  28.718  28.889  1.00  0.00     0.049 A 
ATOM     41  N   UNL A   1      42.162  25.565  28.269  1.00  0.00    -0.248 NA
ATOM     42  C   UNL A   1      41.100  26.512  26.439  1.00  0.00     0.031 C 
ATOM     43  C   UNL A   1      42.333  30.123  29.316  1.00  0.00     0.029 A 
ATOM     44  N   UNL A   1      43.710  28.467  28.807  1.00  0.00    -0.354 N 
ATOM     45  C   UNL A   1      42.268  24.692  27.182  1.00  0.00     0.074 A 
ATOM     46  C   UNL A   1      41.476  25.269  26.128  1.00  0.00     0.031 C 
ATOM     47  C   UNL A   1      43.567  30.659  29.219  1.00  0.00     0.029 A 
ATOM     48  C   UNL A   1      44.505  29.599  28.909  1.00  0.00     0.049 A 
ATOM     49  H   UNL A   1      44.079  27.563  28.684  1.00  0.00     0.167 HD
ATOM     50  C   UNL A   1      43.177  23.676  27.167  1.00  0.00     0.037 A 
ATOM     51  C   UNL A   1      45.845  29.679  28.742  1.00  0.00     0.037 A 
ATOM     52  C   UNL A   1      43.628  23.360  28.498  1.00  0.00     0.049 A 
ATOM     53  C   UNL A   1      46.399  28.319  28.911  1.00  0.00     0.074 A 
ATOM     54  C   UNL A   1      43.025  22.945  29.670  1.00  0.00     0.029 A 
ATOM     55  N   UNL A   1      44.883  23.775  28.865  1.00  0.00    -0.354 N 
ATOM     56  N   UNL A   1      46.400  27.668  30.041  1.00  0.00    -0.248 NA
ATOM     57  C   UNL A   1      46.597  27.507  27.722  1.00  0.00     0.031 C 
ATOM     58  C   UNL A   1      43.753  23.596  30.711  1.00  0.00     0.029 A 
ATOM     59  C   UNL A   1      44.778  24.330  30.112  1.00  0.00     0.049 A 
ATOM     60  H   UNL A   1      45.706  23.691  28.331  1.00  0.00     0.167 HD
ATOM     61  C   UNL A   1      46.164  26.349  29.686  1.00  0.00     0.074 A 
ATOM     62  C   UNL A   1      46.421  26.293  28.250  1.00  0.00     0.031 C 
ATOM     63  C   UNL A   1      45.515  25.498  30.535  1.00  0.00     0.037 A 
BRANCH  50  64
ATOM     64  C   UNL A   1      43.955  23.228  25.940  1.00  0.00     0.057 A 
ATOM     65  C   UNL A   1      43.985  21.857  25.610  1.00  0.00     0.134 A 
ATOM     66  C   UNL A   1      44.915  24.014  25.271  1.00  0.00     0.134 A 
ATOM     67  F   UNL A   1      43.115  20.995  26.159  1.00  0.00    -0.206 F 
ATOM     68  C   UNL A   1      44.969  21.298  24.782  1.00  0.00     0.040 A 
ATOM     69  C   UNL A   1      45.871  23.472  24.404  1.00  0.00     0.040 A 
ATOM     70  F   UNL A   1      45.052  25.326  25.485  1.00  0.00    -0.206 F 
ATOM     71  C   UNL A   1      45.928  22.105  24.190  1.00  0.00     0.006 A 
ENDBRANCH  50  64
BRANCH  51  72
ATOM     72  C   UNL A   1      46.637  30.817  28.231  1.00  0.00     0.057 A 
ATOM     73  C   UNL A   1      46.482  31.287  26.923  1.00  0.00     0.134 A 
ATOM     74  C   UNL A   1      47.389  31.629  29.100  1.00  0.00     0.134 A 
ATOM     75  F   UNL A   1      45.750  30.601  26.034  1.00  0.00    -0.206 F 
ATOM     76  C   UNL A   1      47.030  32.507  26.503  1.00  0.00     0.040 A 
ATOM     77  C   UNL A   1      47.946  32.844  28.694  1.00  0.00     0.040 A 
ATOM     78  F   UNL A   1      47.537  31.305  30.393  1.00  0.00    -0.206 F 
ATOM     79  C   UNL A   1      47.755  33.294  27.394  1.00  0.00     0.006 A 
ENDBRANCH  51  72
BRANCH  63  80
ATOM     80  C   UNL A   1      45.318  25.940  31.958  1.00  0.00     0.057 A 
ATOM     81  C   UNL A   1      44.170  26.600  32.420  1.00  0.00     0.134 A 
ATOM     82  C   UNL A   1      46.251  25.551  32.923  1.00  0.00     0.134 A 
ATOM     83  F   UNL A   1      43.173  26.922  31.590  1.00  0.00    -0.206 F 
ATOM     84  C   UNL A   1      43.981  26.899  33.773  1.00  0.00     0.040 A 
ATOM     85  C   UNL A   1      46.061  25.814  34.283  1.00  0.00     0.040 A 
ATOM     86  F   UNL A   1      47.347  24.862  32.565  1.00  0.00    -0.206 F 
ATOM     87  C   UNL A   1      44.926  26.499  34.710  1.00  0.00     0.006 A 
ENDBRANCH  63  80
ENDBRANCH  37  38
ENDBRANCH  29  32
ENDBRANCH  27  28
ENDBRANCH  26  27
ENDBRANCH   1  26
TORSDOF 13
ENDMDL
MODEL 3
REMARK VINA RESULT:     -12.0      3.607      8.731
REMARK SMILES C[C@H]1CCCCN1C(=O)N1Cc2nc[nH]c2C[C@H]1C(=O)NCCCCNC(=O)c1ccc(-c2c3nc(c(-c4c(F)cccc4F)c4ccc([nH]4)c(-c4c(F)cccc4F)c4nc(c(-c5c(F)cccc5F)c5ccc2[nH]5)C=C4)C=C3)cc1
REMARK SMILES IDX 23 1 22 2 21 3 19 4 20 5 18 7 10 8 11 9 12 10 17 11 13 12
REMARK SMILES IDX 16 13 14 14 15 15 8 17 9 18 7 19 1 20 2 21 3 22 4 23 6 24
REMARK SMILES IDX 5 25 24 26 25 27 26 28 27 29 28 31 29 32 30 33 82 34 31 35
REMARK SMILES IDX 81 36 32 37 33 38 34 39 75 40 35 41 80 42 74 43 76 44 36 45
REMARK SMILES IDX 79 46 73 47 72 48 37 50 63 51 46 52 62 53 47 54 50 55 61 56
REMARK SMILES IDX 77 57 48 58 49 59 60 61 78 62 51 63 38 64 39 65 44 66 40 67
REMARK SMILES IDX 41 68 43 69 45 70 42 71 64 72 65 73 70 74 66 75 67 76 69 77
REMARK SMILES IDX 71 78 68 79 52 80 53 81 58 82 54 83 55 84 57 85 59 86 56 87
REMARK H PARENT 21 6 15 16 26 30 76 49 50 60
REMARK Flexibility Score: inf
ROOT
ATOM      1  C   UNL A   1      34.048  31.155  27.602  1.00  0.00     0.023 C 
ENDROOT
BRANCH   1   2
ATOM      2  C   UNL A   1      33.724  29.762  27.064  1.00  0.00     0.116 C 
BRANCH   2   3
ATOM      3  N   UNL A   1      32.320  29.393  27.144  1.00  0.00    -0.354 N 
ATOM      4  C   UNL A   1      31.760  28.152  27.230  1.00  0.00     0.243 C 
ATOM      5  O   UNL A   1      30.949  28.008  28.159  1.00  0.00    -0.273 OA
ATOM      6  H   UNL A   1      31.684  30.145  27.135  1.00  0.00     0.163 HD
BRANCH   4   7
ATOM      7  C   UNL A   1      32.082  26.922  26.317  1.00  0.00     0.182 C 
ATOM      8  N   UNL A   1      31.139  25.754  26.245  1.00  0.00    -0.306 N 
ATOM      9  C   UNL A   1      30.004  25.844  25.279  1.00  0.00     0.180 C 
ATOM     10  C   UNL A   1      30.244  26.844  24.197  1.00  0.00     0.081 A 
ATOM     11  C   UNL A   1      32.574  27.438  24.928  1.00  0.00     0.091 C 
ATOM     12  N   UNL A   1      29.280  27.326  23.348  1.00  0.00    -0.240 NA
ATOM     13  C   UNL A   1      31.403  27.563  24.044  1.00  0.00     0.042 A 
ATOM     14  C   UNL A   1      29.864  28.292  22.668  1.00  0.00     0.197 A 
ATOM     15  N   UNL A   1      31.171  28.465  23.049  1.00  0.00    -0.348 N 
ATOM     16  H   UNL A   1      31.813  29.112  22.677  1.00  0.00     0.167 HD
BRANCH   8  17
ATOM     17  C   UNL A   1      31.594  24.459  26.423  1.00  0.00     0.321 C 
ATOM     18  O   UNL A   1      31.235  23.857  27.443  1.00  0.00    -0.248 OA
BRANCH  17  19
ATOM     19  N   UNL A   1      32.471  23.839  25.540  1.00  0.00    -0.322 N 
ATOM     20  C   UNL A   1      31.144  23.368  23.339  1.00  0.00     0.031 C 
ATOM     21  C   UNL A   1      32.445  23.498  24.091  1.00  0.00     0.083 C 
ATOM     22  C   UNL A   1      33.374  24.433  23.293  1.00  0.00     0.025 C 
ATOM     23  C   UNL A   1      34.800  24.383  23.832  1.00  0.00     0.004 C 
ATOM     24  C   UNL A   1      33.852  23.702  26.061  1.00  0.00     0.121 C 
ATOM     25  C   UNL A   1      34.808  24.654  25.330  1.00  0.00     0.022 C 
ENDBRANCH  17  19
ENDBRANCH   8  17
ENDBRANCH   4   7
ENDBRANCH   2   3
ENDBRANCH   1   2
BRANCH   1  26
ATOM     26  C   UNL A   1      32.865  32.120  27.739  1.00  0.00     0.023 C 
BRANCH  26  27
ATOM     27  C   UNL A   1      33.137  33.560  27.315  1.00  0.00     0.116 C 
BRANCH  27  28
ATOM     28  N   UNL A   1      32.637  34.566  28.248  1.00  0.00    -0.352 N 
ATOM     29  C   UNL A   1      33.102  34.812  29.533  1.00  0.00     0.251 C 
ATOM     30  H   UNL A   1      31.893  35.129  27.933  1.00  0.00     0.163 HD
ATOM     31  O   UNL A   1      32.427  35.363  30.375  1.00  0.00    -0.269 OA
BRANCH  29  32
ATOM     32  C   UNL A   1      34.476  34.376  29.838  1.00  0.00     0.039 A 
ATOM     33  C   UNL A   1      34.743  33.538  30.922  1.00  0.00     0.014 A 
ATOM     34  C   UNL A   1      35.467  34.730  28.927  1.00  0.00     0.014 A 
ATOM     35  C   UNL A   1      36.010  32.963  31.028  1.00  0.00     0.010 A 
ATOM     36  C   UNL A   1      36.674  34.072  28.971  1.00  0.00     0.010 A 
ATOM     37  C   UNL A   1      36.966  33.206  30.029  1.00  0.00    -0.014 A 
BRANCH  37  38
ATOM     38  C   UNL A   1      38.223  32.451  30.008  1.00  0.00     0.031 A 
ATOM     39  C   UNL A   1      38.166  31.077  29.417  1.00  0.00     0.074 A 
ATOM     40  C   UNL A   1      39.419  33.032  30.244  1.00  0.00     0.049 A 
ATOM     41  N   UNL A   1      38.517  29.954  29.957  1.00  0.00    -0.248 NA
ATOM     42  C   UNL A   1      37.593  30.930  28.069  1.00  0.00     0.031 C 
ATOM     43  C   UNL A   1      39.698  34.447  30.526  1.00  0.00     0.029 A 
ATOM     44  N   UNL A   1      40.667  32.493  30.153  1.00  0.00    -0.354 N 
ATOM     45  C   UNL A   1      38.384  28.980  28.963  1.00  0.00     0.074 A 
ATOM     46  C   UNL A   1      37.682  29.612  27.877  1.00  0.00     0.031 C 
ATOM     47  C   UNL A   1      41.012  34.693  30.343  1.00  0.00     0.029 A 
ATOM     48  C   UNL A   1      41.688  33.431  30.118  1.00  0.00     0.049 A 
ATOM     49  H   UNL A   1      40.830  31.523  30.114  1.00  0.00     0.167 HD
ATOM     50  C   UNL A   1      39.055  27.795  29.027  1.00  0.00     0.037 A 
ATOM     51  C   UNL A   1      43.006  33.205  29.908  1.00  0.00     0.037 A 
ATOM     52  C   UNL A   1      39.492  27.517  30.372  1.00  0.00     0.049 A 
ATOM     53  C   UNL A   1      43.267  31.780  30.201  1.00  0.00     0.074 A 
ATOM     54  C   UNL A   1      38.872  27.354  31.595  1.00  0.00     0.029 A 
ATOM     55  N   UNL A   1      40.823  27.685  30.661  1.00  0.00    -0.354 N 
ATOM     56  N   UNL A   1      43.184  31.253  31.391  1.00  0.00    -0.248 NA
ATOM     57  C   UNL A   1      43.231  30.835  29.097  1.00  0.00     0.031 C 
ATOM     58  C   UNL A   1      39.770  27.929  32.544  1.00  0.00     0.029 A 
ATOM     59  C   UNL A   1      40.898  28.364  31.847  1.00  0.00     0.049 A 
ATOM     60  H   UNL A   1      41.583  27.375  30.117  1.00  0.00     0.167 HD
ATOM     61  C   UNL A   1      42.657  29.988  31.180  1.00  0.00     0.074 A 
ATOM     62  C   UNL A   1      42.828  29.743  29.750  1.00  0.00     0.031 C 
ATOM     63  C   UNL A   1      41.884  29.381  32.128  1.00  0.00     0.037 A 
BRANCH  50  64
ATOM     64  C   UNL A   1      39.661  27.077  27.832  1.00  0.00     0.057 A 
ATOM     65  C   UNL A   1      39.616  25.668  27.785  1.00  0.00     0.134 A 
ATOM     66  C   UNL A   1      40.548  27.667  26.910  1.00  0.00     0.134 A 
ATOM     67  F   UNL A   1      38.803  24.975  28.596  1.00  0.00    -0.206 F 
ATOM     68  C   UNL A   1      40.475  24.909  26.977  1.00  0.00     0.040 A 
ATOM     69  C   UNL A   1      41.373  26.919  26.063  1.00  0.00     0.040 A 
ATOM     70  F   UNL A   1      40.742  28.988  26.837  1.00  0.00    -0.206 F 
ATOM     71  C   UNL A   1      41.371  25.536  26.123  1.00  0.00     0.006 A 
ENDBRANCH  50  64
BRANCH  51  72
ATOM     72  C   UNL A   1      43.994  34.092  29.262  1.00  0.00     0.057 A 
ATOM     73  C   UNL A   1      44.911  34.835  30.013  1.00  0.00     0.134 A 
ATOM     74  C   UNL A   1      44.224  34.037  27.875  1.00  0.00     0.134 A 
ATOM     75  F   UNL A   1      44.796  34.913  31.345  1.00  0.00    -0.206 F 
ATOM     76  C   UNL A   1      46.007  35.477  29.420  1.00  0.00     0.040 A 
ATOM     77  C   UNL A   1      45.309  34.677  27.270  1.00  0.00     0.040 A 
ATOM     78  F   UNL A   1      43.446  33.293  27.075  1.00  0.00    -0.206 F 
ATOM     79  C   UNL A   1      46.214  35.390  28.046  1.00  0.00     0.006 A 
ENDBRANCH  51  72
BRANCH  63  80
ATOM     80  C   UNL A   1      41.853  29.988  33.503  1.00  0.00     0.057 A 
ATOM     81  C   UNL A   1      40.923  30.955  33.911  1.00  0.00     0.134 A 
ATOM     82  C   UNL A   1      42.693  29.467  34.492  1.00  0.00     0.134 A 
ATOM     83  F   UNL A   1      40.009  31.440  33.063  1.00  0.00    -0.206 F 
ATOM     84  C   UNL A   1      40.862  31.414  35.230  1.00  0.00     0.040 A 
ATOM     85  C   UNL A   1      42.622  29.894  35.821  1.00  0.00     0.040 A 
ATOM     86  F   UNL A   1      43.569  28.494  34.191  1.00  0.00    -0.206 F 
ATOM     87  C   UNL A   1      41.710  30.878  36.191  1.00  0.00     0.006 A 
ENDBRANCH  63  80
ENDBRANCH  37  38
ENDBRANCH  29  32
ENDBRANCH  27  28
ENDBRANCH  26  27
ENDBRANCH   1  26
TORSDOF 13
ENDMDL
