MODEL 1
REMARK VINA RESULT:     -12.0      0.000      0.000
REMARK SMILES Cc1cc(C)cc(C(=O)N2CC[C@H](C(=O)NCCCCNC(=O)c3ccc(-c4c5nc(c(-c6c(F)cccc6F)c6ccc([nH]6)c(-c6c(F)cccc6F)c6nc(c(-c7c(F)cccc7F)c7ccc4[nH]7)C=C6)C=C5)cc3)[C@@H]2C)c1
REMARK SMILES IDX 18 1 17 2 16 3 14 4 15 5 13 7 10 8 11 9 78 10 12 11 79 12
REMARK SMILES IDX 8 13 9 14 7 15 1 16 2 17 3 18 80 19 4 20 5 21 6 22 19 23
REMARK SMILES IDX 20 24 21 25 22 26 23 28 24 29 25 30 77 31 26 32 76 33 27 34
REMARK SMILES IDX 28 35 29 36 70 37 30 38 75 39 69 40 71 41 31 42 74 43 68 44
REMARK SMILES IDX 67 45 32 47 58 48 41 49 57 50 42 51 45 52 56 53 72 54 43 55
REMARK SMILES IDX 44 56 55 58 73 59 46 60 33 61 34 62 39 63 35 64 36 65 38 66
REMARK SMILES IDX 40 67 37 68 59 69 60 70 65 71 61 72 62 73 64 74 66 75 63 76
REMARK SMILES IDX 47 77 48 78 53 79 49 80 50 81 52 82 54 83 51 84
REMARK H PARENT 16 6 21 27 71 46 45 57
REMARK Flexibility Score: inf
ROOT
ATOM      1  C   UNL A   1      36.541  20.689  24.959  1.00  0.00     0.023 C 
ENDROOT
BRANCH   1   2
ATOM      2  C   UNL A   1      35.192  19.979  24.913  1.00  0.00     0.116 C 
BRANCH   2   3
ATOM      3  N   UNL A   1      34.181  20.669  25.693  1.00  0.00    -0.356 N 
ATOM      4  C   UNL A   1      33.303  21.646  25.337  1.00  0.00     0.225 C 
ATOM      5  O   UNL A   1      32.494  22.025  26.183  1.00  0.00    -0.275 OA
ATOM      6  H   UNL A   1      34.121  20.382  26.633  1.00  0.00     0.163 HD
BRANCH   4   7
ATOM      7  C   UNL A   1      33.351  22.240  23.940  1.00  0.00     0.102 C 
ATOM      8  N   UNL A   1      33.124  24.537  23.356  1.00  0.00    -0.335 N 
ATOM      9  C   UNL A   1      31.799  24.063  23.688  1.00  0.00     0.121 C 
ATOM     10  C   UNL A   1      34.134  23.572  23.817  1.00  0.00     0.094 C 
ATOM     11  C   UNL A   1      31.927  22.573  23.457  1.00  0.00     0.037 C 
ATOM     12  C   UNL A   1      34.801  24.073  25.100  1.00  0.00     0.032 C 
BRANCH   8  13
ATOM     13  C   UNL A   1      33.270  25.806  22.830  1.00  0.00     0.254 C 
ATOM     14  O   UNL A   1      33.920  25.998  21.800  1.00  0.00    -0.269 OA
BRANCH  13  15
ATOM     15  C   UNL A   1      32.785  27.000  23.581  1.00  0.00     0.040 A 
ATOM     16  C   UNL A   1      29.972  29.575  23.501  1.00  0.00     0.044 C 
ATOM     17  C   UNL A   1      31.147  28.766  23.965  1.00  0.00    -0.050 A 
ATOM     18  C   UNL A   1      31.685  28.978  25.239  1.00  0.00     0.006 A 
ATOM     19  C   UNL A   1      31.679  27.748  23.160  1.00  0.00     0.017 A 
ATOM     20  C   UNL A   1      32.754  28.203  25.706  1.00  0.00    -0.050 A 
ATOM     21  C   UNL A   1      33.234  28.364  27.118  1.00  0.00     0.044 C 
ATOM     22  C   UNL A   1      33.312  27.233  24.861  1.00  0.00     0.017 A 
ENDBRANCH  13  15
ENDBRANCH   8  13
ENDBRANCH   4   7
ENDBRANCH   2   3
ENDBRANCH   1   2
BRANCH   1  23
ATOM     23  C   UNL A   1      37.762  19.768  24.942  1.00  0.00     0.023 C 
BRANCH  23  24
ATOM     24  C   UNL A   1      38.971  20.265  25.726  1.00  0.00     0.116 C 
BRANCH  24  25
ATOM     25  N   UNL A   1      40.064  19.307  25.753  1.00  0.00    -0.352 N 
ATOM     26  C   UNL A   1      41.385  19.498  26.078  1.00  0.00     0.251 C 
ATOM     27  H   UNL A   1      39.822  18.387  25.502  1.00  0.00     0.163 HD
ATOM     28  O   UNL A   1      42.195  18.590  25.905  1.00  0.00    -0.269 OA
BRANCH  26  29
ATOM     29  C   UNL A   1      41.843  20.803  26.603  1.00  0.00     0.039 A 
ATOM     30  C   UNL A   1      42.316  21.762  25.702  1.00  0.00     0.014 A 
ATOM     31  C   UNL A   1      41.804  21.087  27.970  1.00  0.00     0.014 A 
ATOM     32  C   UNL A   1      42.677  23.029  26.165  1.00  0.00     0.010 A 
ATOM     33  C   UNL A   1      42.091  22.374  28.419  1.00  0.00     0.010 A 
ATOM     34  C   UNL A   1      42.528  23.361  27.522  1.00  0.00    -0.014 A 
BRANCH  34  35
ATOM     35  C   UNL A   1      42.812  24.735  28.016  1.00  0.00     0.031 A 
ATOM     36  C   UNL A   1      44.213  25.132  28.394  1.00  0.00     0.074 A 
ATOM     37  C   UNL A   1      41.798  25.609  28.180  1.00  0.00     0.049 A 
ATOM     38  N   UNL A   1      44.642  26.256  28.910  1.00  0.00    -0.248 NA
ATOM     39  C   UNL A   1      45.267  24.125  28.187  1.00  0.00     0.031 C 
ATOM     40  C   UNL A   1      40.389  25.335  27.891  1.00  0.00     0.029 A 
ATOM     41  N   UNL A   1      41.795  26.902  28.640  1.00  0.00    -0.354 N 
ATOM     42  C   UNL A   1      46.010  26.090  29.094  1.00  0.00     0.074 A 
ATOM     43  C   UNL A   1      46.329  24.738  28.689  1.00  0.00     0.031 C 
ATOM     44  C   UNL A   1      39.662  26.433  28.161  1.00  0.00     0.029 A 
ATOM     45  C   UNL A   1      40.544  27.470  28.683  1.00  0.00     0.049 A 
ATOM     46  H   UNL A   1      42.612  27.377  28.916  1.00  0.00     0.167 HD
ATOM     47  C   UNL A   1      46.921  26.989  29.537  1.00  0.00     0.037 A 
ATOM     48  C   UNL A   1      40.151  28.687  29.106  1.00  0.00     0.037 A 
ATOM     49  C   UNL A   1      46.606  28.339  29.924  1.00  0.00     0.049 A 
ATOM     50  C   UNL A   1      41.181  29.656  29.621  1.00  0.00     0.074 A 
ATOM     51  C   UNL A   1      47.468  29.339  30.343  1.00  0.00     0.029 A 
ATOM     52  N   UNL A   1      45.330  28.880  29.941  1.00  0.00    -0.354 N 
ATOM     53  N   UNL A   1      42.479  29.505  29.727  1.00  0.00    -0.248 NA
ATOM     54  C   UNL A   1      40.692  30.968  30.068  1.00  0.00     0.031 C 
ATOM     55  C   UNL A   1      46.708  30.468  30.660  1.00  0.00     0.029 A 
ATOM     56  C   UNL A   1      45.380  30.192  30.384  1.00  0.00     0.049 A 
ATOM     57  H   UNL A   1      44.510  28.403  29.677  1.00  0.00     0.167 HD
ATOM     58  C   UNL A   1      42.963  30.711  30.219  1.00  0.00     0.074 A 
ATOM     59  C   UNL A   1      41.822  31.588  30.375  1.00  0.00     0.031 C 
ATOM     60  C   UNL A   1      44.238  31.060  30.518  1.00  0.00     0.037 A 
BRANCH  47  61
ATOM     61  C   UNL A   1      48.354  26.548  29.616  1.00  0.00     0.057 A 
ATOM     62  C   UNL A   1      49.259  26.793  28.575  1.00  0.00     0.134 A 
ATOM     63  C   UNL A   1      48.852  25.927  30.769  1.00  0.00     0.134 A 
ATOM     64  F   UNL A   1      48.846  27.374  27.437  1.00  0.00    -0.206 F 
ATOM     65  C   UNL A   1      50.600  26.420  28.668  1.00  0.00     0.040 A 
ATOM     66  C   UNL A   1      50.196  25.575  30.887  1.00  0.00     0.040 A 
ATOM     67  F   UNL A   1      48.042  25.671  31.808  1.00  0.00    -0.206 F 
ATOM     68  C   UNL A   1      51.075  25.817  29.832  1.00  0.00     0.006 A 
ENDBRANCH  47  61
BRANCH  48  69
ATOM     69  C   UNL A   1      38.715  29.071  29.064  1.00  0.00     0.057 A 
ATOM     70  C   UNL A   1      38.132  29.569  27.892  1.00  0.00     0.134 A 
ATOM     71  C   UNL A   1      37.903  28.991  30.202  1.00  0.00     0.134 A 
ATOM     72  F   UNL A   1      38.862  29.688  26.774  1.00  0.00    -0.206 F 
ATOM     73  C   UNL A   1      36.806  30.004  27.861  1.00  0.00     0.040 A 
ATOM     74  C   UNL A   1      36.566  29.394  30.177  1.00  0.00     0.040 A 
ATOM     75  F   UNL A   1      38.395  28.516  31.356  1.00  0.00    -0.206 F 
ATOM     76  C   UNL A   1      36.018  29.915  29.007  1.00  0.00     0.006 A 
ENDBRANCH  48  69
BRANCH  60  77
ATOM     77  C   UNL A   1      44.475  32.464  30.995  1.00  0.00     0.057 A 
ATOM     78  C   UNL A   1      44.711  33.521  30.107  1.00  0.00     0.134 A 
ATOM     79  C   UNL A   1      44.430  32.768  32.363  1.00  0.00     0.134 A 
ATOM     80  F   UNL A   1      44.780  33.296  28.787  1.00  0.00    -0.206 F 
ATOM     81  C   UNL A   1      44.920  34.823  30.564  1.00  0.00     0.040 A 
ATOM     82  C   UNL A   1      44.607  34.071  32.829  1.00  0.00     0.040 A 
ATOM     83  F   UNL A   1      44.198  31.804  33.267  1.00  0.00    -0.206 F 
ATOM     84  C   UNL A   1      44.861  35.102  31.928  1.00  0.00     0.006 A 
ENDBRANCH  60  77
ENDBRANCH  34  35
ENDBRANCH  26  29
ENDBRANCH  24  25
ENDBRANCH  23  24
ENDBRANCH   1  23
TORSDOF 13
ENDMDL
MODEL 2
REMARK VINA RESULT:     -11.9      1.621      6.324
REMARK SMILES Cc1cc(C)cc(C(=O)N2CC[C@H](C(=O)NCCCCNC(=O)c3ccc(-c4c5nc(c(-c6c(F)cccc6F)c6ccc([nH]6)c(-c6c(F)cccc6F)c6nc(c(-c7c(F)cccc7F)c7ccc4[nH]7)C=C6)C=C5)cc3)[C@@H]2C)c1
REMARK SMILES IDX 18 1 17 2 16 3 14 4 15 5 13 7 10 8 11 9 78 10 12 11 79 12
REMARK SMILES IDX 8 13 9 14 7 15 1 16 2 17 3 18 80 19 4 20 5 21 6 22 19 23
REMARK SMILES IDX 20 24 21 25 22 26 23 28 24 29 25 30 77 31 26 32 76 33 27 34
REMARK SMILES IDX 28 35 29 36 70 37 30 38 75 39 69 40 71 41 31 42 74 43 68 44
REMARK SMILES IDX 67 45 32 47 58 48 41 49 57 50 42 51 45 52 56 53 72 54 43 55
REMARK SMILES IDX 44 56 55 58 73 59 46 60 33 61 34 62 39 63 35 64 36 65 38 66
REMARK SMILES IDX 40 67 37 68 59 69 60 70 65 71 61 72 62 73 64 74 66 75 63 76
REMARK SMILES IDX 47 77 48 78 53 79 49 80 50 81 52 82 54 83 51 84
REMARK H PARENT 16 6 21 27 71 46 45 57
REMARK Flexibility Score: inf
ROOT
ATOM      1  C   UNL A   1      36.852  21.098  24.686  1.00  0.00     0.023 C 
ENDROOT
BRANCH   1   2
ATOM      2  C   UNL A   1      35.884  21.412  25.823  1.00  0.00     0.116 C 
BRANCH   2   3
ATOM      3  N   UNL A   1      34.594  20.772  25.639  1.00  0.00    -0.356 N 
ATOM      4  C   UNL A   1      33.415  21.275  25.182  1.00  0.00     0.225 C 
ATOM      5  O   UNL A   1      32.469  20.497  25.060  1.00  0.00    -0.275 OA
ATOM      6  H   UNL A   1      34.569  19.820  25.884  1.00  0.00     0.163 HD
BRANCH   4   7
ATOM      7  C   UNL A   1      33.294  22.753  24.853  1.00  0.00     0.102 C 
ATOM      8  N   UNL A   1      31.518  24.213  25.472  1.00  0.00    -0.335 N 
ATOM      9  C   UNL A   1      31.016  23.386  24.398  1.00  0.00     0.121 C 
ATOM     10  C   UNL A   1      32.765  23.644  26.006  1.00  0.00     0.094 C 
ATOM     11  C   UNL A   1      32.291  22.960  23.702  1.00  0.00     0.037 C 
ATOM     12  C   UNL A   1      32.495  22.927  27.331  1.00  0.00     0.032 C 
BRANCH   8  13
ATOM     13  C   UNL A   1      30.745  25.264  25.927  1.00  0.00     0.254 C 
ATOM     14  O   UNL A   1      29.739  25.066  26.611  1.00  0.00    -0.269 OA
BRANCH  13  15
ATOM     15  C   UNL A   1      31.012  26.658  25.468  1.00  0.00     0.040 A 
ATOM     16  C   UNL A   1      30.081  29.048  22.645  1.00  0.00     0.044 C 
ATOM     17  C   UNL A   1      30.625  28.518  23.939  1.00  0.00    -0.050 A 
ATOM     18  C   UNL A   1      31.217  29.389  24.860  1.00  0.00     0.006 A 
ATOM     19  C   UNL A   1      30.492  27.161  24.269  1.00  0.00     0.017 A 
ATOM     20  C   UNL A   1      31.691  28.919  26.091  1.00  0.00    -0.050 A 
ATOM     21  C   UNL A   1      32.209  29.888  27.112  1.00  0.00     0.044 C 
ATOM     22  C   UNL A   1      31.606  27.549  26.375  1.00  0.00     0.017 A 
ENDBRANCH  13  15
ENDBRANCH   8  13
ENDBRANCH   4   7
ENDBRANCH   2   3
ENDBRANCH   1   2
BRANCH   1  23
ATOM     23  C   UNL A   1      37.834  19.958  24.965  1.00  0.00     0.023 C 
BRANCH  23  24
ATOM     24  C   UNL A   1      39.065  20.338  25.780  1.00  0.00     0.116 C 
BRANCH  24  25
ATOM     25  N   UNL A   1      40.053  19.272  25.846  1.00  0.00    -0.352 N 
ATOM     26  C   UNL A   1      41.399  19.345  26.107  1.00  0.00     0.251 C 
ATOM     27  H   UNL A   1      39.705  18.367  25.679  1.00  0.00     0.163 HD
ATOM     28  O   UNL A   1      42.102  18.344  25.981  1.00  0.00    -0.269 OA
BRANCH  26  29
ATOM     29  C   UNL A   1      42.013  20.630  26.508  1.00  0.00     0.039 A 
ATOM     30  C   UNL A   1      42.463  21.501  25.511  1.00  0.00     0.014 A 
ATOM     31  C   UNL A   1      42.142  20.981  27.854  1.00  0.00     0.014 A 
ATOM     32  C   UNL A   1      42.971  22.753  25.863  1.00  0.00     0.010 A 
ATOM     33  C   UNL A   1      42.578  22.259  28.198  1.00  0.00     0.010 A 
ATOM     34  C   UNL A   1      42.994  23.161  27.207  1.00  0.00    -0.014 A 
BRANCH  34  35
ATOM     35  C   UNL A   1      43.438  24.528  27.591  1.00  0.00     0.031 A 
ATOM     36  C   UNL A   1      42.428  25.578  27.965  1.00  0.00     0.074 A 
ATOM     37  C   UNL A   1      44.749  24.841  27.545  1.00  0.00     0.049 A 
ATOM     38  N   UNL A   1      42.618  26.840  28.257  1.00  0.00    -0.248 NA
ATOM     39  C   UNL A   1      41.016  25.162  27.993  1.00  0.00     0.031 C 
ATOM     40  C   UNL A   1      45.826  23.928  27.158  1.00  0.00     0.029 A 
ATOM     41  N   UNL A   1      45.399  26.019  27.817  1.00  0.00    -0.354 N 
ATOM     42  C   UNL A   1      41.355  27.367  28.496  1.00  0.00     0.074 A 
ATOM     43  C   UNL A   1      40.401  26.305  28.260  1.00  0.00     0.031 C 
ATOM     44  C   UNL A   1      47.001  24.573  27.237  1.00  0.00     0.029 A 
ATOM     45  C   UNL A   1      46.759  25.954  27.637  1.00  0.00     0.049 A 
ATOM     46  H   UNL A   1      44.933  26.835  28.112  1.00  0.00     0.167 HD
ATOM     47  C   UNL A   1      41.020  28.616  28.901  1.00  0.00     0.037 A 
ATOM     48  C   UNL A   1      47.705  26.905  27.767  1.00  0.00     0.037 A 
ATOM     49  C   UNL A   1      41.969  29.668  29.153  1.00  0.00     0.049 A 
ATOM     50  C   UNL A   1      47.301  28.292  28.189  1.00  0.00     0.074 A 
ATOM     51  C   UNL A   1      41.729  30.954  29.609  1.00  0.00     0.029 A 
ATOM     52  N   UNL A   1      43.339  29.559  28.970  1.00  0.00    -0.354 N 
ATOM     53  N   UNL A   1      46.109  28.756  28.474  1.00  0.00    -0.248 NA
ATOM     54  C   UNL A   1      48.377  29.286  28.314  1.00  0.00     0.031 C 
ATOM     55  C   UNL A   1      42.948  31.637  29.655  1.00  0.00     0.029 A 
ATOM     56  C   UNL A   1      43.953  30.761  29.283  1.00  0.00     0.049 A 
ATOM     57  H   UNL A   1      43.805  28.748  28.663  1.00  0.00     0.167 HD
ATOM     58  C   UNL A   1      46.295  30.082  28.844  1.00  0.00     0.074 A 
ATOM     59  C   UNL A   1      47.717  30.344  28.763  1.00  0.00     0.031 C 
ATOM     60  C   UNL A   1      45.372  31.002  29.215  1.00  0.00     0.037 A 
BRANCH  47  61
ATOM     61  C   UNL A   1      39.563  28.914  29.110  1.00  0.00     0.057 A 
ATOM     62  C   UNL A   1      38.735  29.317  28.054  1.00  0.00     0.134 A 
ATOM     63  C   UNL A   1      38.967  28.739  30.365  1.00  0.00     0.134 A 
ATOM     64  F   UNL A   1      39.244  29.515  26.828  1.00  0.00    -0.206 F 
ATOM     65  C   UNL A   1      37.373  29.553  28.242  1.00  0.00     0.040 A 
ATOM     66  C   UNL A   1      37.601  28.943  30.560  1.00  0.00     0.040 A 
ATOM     67  F   UNL A   1      39.700  28.347  31.419  1.00  0.00    -0.206 F 
ATOM     68  C   UNL A   1      36.800  29.356  29.497  1.00  0.00     0.006 A 
ENDBRANCH  47  61
BRANCH  48  69
ATOM     69  C   UNL A   1      49.133  26.588  27.498  1.00  0.00     0.057 A 
ATOM     70  C   UNL A   1      49.662  26.666  26.205  1.00  0.00     0.134 A 
ATOM     71  C   UNL A   1      49.991  26.159  28.519  1.00  0.00     0.134 A 
ATOM     72  F   UNL A   1      48.886  27.053  25.181  1.00  0.00    -0.206 F 
ATOM     73  C   UNL A   1      50.980  26.298  25.928  1.00  0.00     0.040 A 
ATOM     74  C   UNL A   1      51.320  25.817  28.262  1.00  0.00     0.040 A 
ATOM     75  F   UNL A   1      49.551  26.069  29.783  1.00  0.00    -0.206 F 
ATOM     76  C   UNL A   1      51.814  25.873  26.960  1.00  0.00     0.006 A 
ENDBRANCH  48  69
BRANCH  60  77
ATOM     77  C   UNL A   1      45.873  32.362  29.611  1.00  0.00     0.057 A 
ATOM     78  C   UNL A   1      45.949  33.421  28.697  1.00  0.00     0.134 A 
ATOM     79  C   UNL A   1      46.250  32.623  30.935  1.00  0.00     0.134 A 
ATOM     80  F   UNL A   1      45.616  33.235  27.411  1.00  0.00    -0.206 F 
ATOM     81  C   UNL A   1      46.407  34.682  29.081  1.00  0.00     0.040 A 
ATOM     82  C   UNL A   1      46.679  33.888  31.337  1.00  0.00     0.040 A 
ATOM     83  F   UNL A   1      46.192  31.656  31.863  1.00  0.00    -0.206 F 
ATOM     84  C   UNL A   1      46.767  34.920  30.406  1.00  0.00     0.006 A 
ENDBRANCH  60  77
ENDBRANCH  34  35
ENDBRANCH  26  29
ENDBRANCH  24  25
ENDBRANCH  23  24
ENDBRANCH   1  23
TORSDOF 13
ENDMDL
MODEL 3
REMARK VINA RESULT:     -11.9      1.414      6.422
REMARK SMILES Cc1cc(C)cc(C(=O)N2CC[C@H](C(=O)NCCCCNC(=O)c3ccc(-c4c5nc(c(-c6c(F)cccc6F)c6ccc([nH]6)c(-c6c(F)cccc6F)c6nc(c(-c7c(F)cccc7F)c7ccc4[nH]7)C=C6)C=C5)cc3)[C@@H]2C)c1
REMARK SMILES IDX 18 1 17 2 16 3 14 4 15 5 13 7 10 8 11 9 78 10 12 11 79 12
REMARK SMILES IDX 8 13 9 14 7 15 1 16 2 17 3 18 80 19 4 20 5 21 6 22 19 23
REMARK SMILES IDX 20 24 21 25 22 26 23 28 24 29 25 30 77 31 26 32 76 33 27 34
REMARK SMILES IDX 28 35 29 36 70 37 30 38 75 39 69 40 71 41 31 42 74 43 68 44
REMARK SMILES IDX 67 45 32 47 58 48 41 49 57 50 42 51 45 52 56 53 72 54 43 55
REMARK SMILES IDX 44 56 55 58 73 59 46 60 33 61 34 62 39 63 35 64 36 65 38 66
REMARK SMILES IDX 40 67 37 68 59 69 60 70 65 71 61 72 62 73 64 74 66 75 63 76
REMARK SMILES IDX 47 77 48 78 53 79 49 80 50 81 52 82 54 83 51 84
REMARK H PARENT 16 6 21 27 71 46 45 57
REMARK Flexibility Score: inf
ROOT
ATOM      1  C   UNL A   1      36.833  21.026  24.674  1.00  0.00     0.023 C 
ENDROOT
BRANCH   1   2
ATOM      2  C   UNL A   1      35.867  21.363  25.806  1.00  0.00     0.116 C 
BRANCH   2   3
ATOM      3  N   UNL A   1      34.589  20.691  25.656  1.00  0.00    -0.356 N 
ATOM      4  C   UNL A   1      33.393  21.155  25.202  1.00  0.00     0.225 C 
ATOM      5  O   UNL A   1      32.464  20.353  25.114  1.00  0.00    -0.275 OA
ATOM      6  H   UNL A   1      34.589  19.745  25.927  1.00  0.00     0.163 HD
BRANCH   4   7
ATOM      7  C   UNL A   1      33.235  22.620  24.835  1.00  0.00     0.102 C 
ATOM      8  N   UNL A   1      31.489  24.085  25.524  1.00  0.00    -0.335 N 
ATOM      9  C   UNL A   1      30.926  23.219  24.512  1.00  0.00     0.121 C 
ATOM     10  C   UNL A   1      32.774  23.544  25.992  1.00  0.00     0.094 C 
ATOM     11  C   UNL A   1      32.156  22.782  23.748  1.00  0.00     0.037 C 
ATOM     12  C   UNL A   1      32.600  22.867  27.354  1.00  0.00     0.032 C 
BRANCH   8  13
ATOM     13  C   UNL A   1      30.736  25.143  25.996  1.00  0.00     0.254 C 
ATOM     14  O   UNL A   1      29.760  24.956  26.724  1.00  0.00    -0.269 OA
BRANCH  13  15
ATOM     15  C   UNL A   1      30.985  26.530  25.505  1.00  0.00     0.040 A 
ATOM     16  C   UNL A   1      29.959  28.871  22.675  1.00  0.00     0.044 C 
ATOM     17  C   UNL A   1      30.545  28.363  23.959  1.00  0.00    -0.050 A 
ATOM     18  C   UNL A   1      31.163  29.251  24.846  1.00  0.00     0.006 A 
ATOM     19  C   UNL A   1      30.426  27.012  24.316  1.00  0.00     0.017 A 
ATOM     20  C   UNL A   1      31.677  28.802  26.069  1.00  0.00    -0.050 A 
ATOM     21  C   UNL A   1      32.224  29.789  27.058  1.00  0.00     0.044 C 
ATOM     22  C   UNL A   1      31.604  27.437  26.379  1.00  0.00     0.017 A 
ENDBRANCH  13  15
ENDBRANCH   8  13
ENDBRANCH   4   7
ENDBRANCH   2   3
ENDBRANCH   1   2
BRANCH   1  23
ATOM     23  C   UNL A   1      37.825  19.902  24.979  1.00  0.00     0.023 C 
BRANCH  23  24
ATOM     24  C   UNL A   1      39.058  20.313  25.776  1.00  0.00     0.116 C 
BRANCH  24  25
ATOM     25  N   UNL A   1      40.078  19.277  25.819  1.00  0.00    -0.352 N 
ATOM     26  C   UNL A   1      41.418  19.383  26.101  1.00  0.00     0.251 C 
ATOM     27  H   UNL A   1      39.762  18.368  25.615  1.00  0.00     0.163 HD
ATOM     28  O   UNL A   1      42.154  18.410  25.949  1.00  0.00    -0.269 OA
BRANCH  26  29
ATOM     29  C   UNL A   1      41.985  20.671  26.556  1.00  0.00     0.039 A 
ATOM     30  C   UNL A   1      42.443  21.580  25.598  1.00  0.00     0.014 A 
ATOM     31  C   UNL A   1      42.063  20.988  27.915  1.00  0.00     0.014 A 
ATOM     32  C   UNL A   1      42.907  22.835  25.999  1.00  0.00     0.010 A 
ATOM     33  C   UNL A   1      42.454  22.266  28.307  1.00  0.00     0.010 A 
ATOM     34  C   UNL A   1      42.877  23.206  27.354  1.00  0.00    -0.014 A 
BRANCH  34  35
ATOM     35  C   UNL A   1      43.273  24.572  27.788  1.00  0.00     0.031 A 
ATOM     36  C   UNL A   1      42.225  25.605  28.100  1.00  0.00     0.074 A 
ATOM     37  C   UNL A   1      44.580  24.901  27.846  1.00  0.00     0.049 A 
ATOM     38  N   UNL A   1      42.376  26.864  28.422  1.00  0.00    -0.248 NA
ATOM     39  C   UNL A   1      40.821  25.171  28.015  1.00  0.00     0.031 C 
ATOM     40  C   UNL A   1      45.695  24.006  27.529  1.00  0.00     0.029 A 
ATOM     41  N   UNL A   1      45.192  26.083  28.182  1.00  0.00    -0.354 N 
ATOM     42  C   UNL A   1      41.091  27.373  28.572  1.00  0.00     0.074 A 
ATOM     43  C   UNL A   1      40.173  26.302  28.251  1.00  0.00     0.031 C 
ATOM     44  C   UNL A   1      46.852  24.664  27.705  1.00  0.00     0.029 A 
ATOM     45  C   UNL A   1      46.564  26.037  28.104  1.00  0.00     0.049 A 
ATOM     46  H   UNL A   1      44.695  26.889  28.452  1.00  0.00     0.167 HD
ATOM     47  C   UNL A   1      40.711  28.612  28.968  1.00  0.00     0.037 A 
ATOM     48  C   UNL A   1      47.484  26.997  28.317  1.00  0.00     0.037 A 
ATOM     49  C   UNL A   1      41.625  29.671  29.304  1.00  0.00     0.049 A 
ATOM     50  C   UNL A   1      47.032  28.373  28.726  1.00  0.00     0.074 A 
ATOM     51  C   UNL A   1      41.335  30.947  29.758  1.00  0.00     0.029 A 
ATOM     52  N   UNL A   1      43.006  29.582  29.224  1.00  0.00    -0.354 N 
ATOM     53  N   UNL A   1      45.816  28.818  28.927  1.00  0.00    -0.248 NA
ATOM     54  C   UNL A   1      48.082  29.378  28.945  1.00  0.00     0.031 C 
ATOM     55  C   UNL A   1      42.537  31.644  29.905  1.00  0.00     0.029 A 
ATOM     56  C   UNL A   1      43.580  30.785  29.599  1.00  0.00     0.049 A 
ATOM     57  H   UNL A   1      43.504  28.780  28.942  1.00  0.00     0.167 HD
ATOM     58  C   UNL A   1      45.956  30.141  29.328  1.00  0.00     0.074 A 
ATOM     59  C   UNL A   1      47.377  30.421  29.358  1.00  0.00     0.031 C 
ATOM     60  C   UNL A   1      44.996  31.045  29.641  1.00  0.00     0.037 A 
BRANCH  47  61
ATOM     61  C   UNL A   1      39.239  28.890  29.070  1.00  0.00     0.057 A 
ATOM     62  C   UNL A   1      38.538  28.712  30.270  1.00  0.00     0.134 A 
ATOM     63  C   UNL A   1      38.526  29.398  27.977  1.00  0.00     0.134 A 
ATOM     64  F   UNL A   1      39.158  28.218  31.354  1.00  0.00    -0.206 F 
ATOM     65  C   UNL A   1      37.179  29.011  30.374  1.00  0.00     0.040 A 
ATOM     66  C   UNL A   1      37.174  29.727  28.076  1.00  0.00     0.040 A 
ATOM     67  F   UNL A   1      39.138  29.600  26.800  1.00  0.00    -0.206 F 
ATOM     68  C   UNL A   1      36.495  29.530  29.277  1.00  0.00     0.006 A 
ENDBRANCH  47  61
BRANCH  48  69
ATOM     69  C   UNL A   1      48.932  26.701  28.153  1.00  0.00     0.057 A 
ATOM     70  C   UNL A   1      49.554  26.794  26.902  1.00  0.00     0.134 A 
ATOM     71  C   UNL A   1      49.718  26.277  29.232  1.00  0.00     0.134 A 
ATOM     72  F   UNL A   1      48.850  27.176  25.826  1.00  0.00    -0.206 F 
ATOM     73  C   UNL A   1      50.893  26.446  26.722  1.00  0.00     0.040 A 
ATOM     74  C   UNL A   1      51.068  25.955  29.071  1.00  0.00     0.040 A 
ATOM     75  F   UNL A   1      49.188  26.174  30.459  1.00  0.00    -0.206 F 
ATOM     76  C   UNL A   1      51.655  26.026  27.810  1.00  0.00     0.006 A 
ENDBRANCH  48  69
BRANCH  60  77
ATOM     77  C   UNL A   1      45.448  32.404  30.091  1.00  0.00     0.057 A 
ATOM     78  C   UNL A   1      45.727  32.687  31.435  1.00  0.00     0.134 A 
ATOM     79  C   UNL A   1      45.641  33.434  29.161  1.00  0.00     0.134 A 
ATOM     80  F   UNL A   1      45.550  31.750  32.378  1.00  0.00    -0.206 F 
ATOM     81  C   UNL A   1      46.156  33.953  31.839  1.00  0.00     0.040 A 
ATOM     82  C   UNL A   1      46.100  34.694  29.549  1.00  0.00     0.040 A 
ATOM     83  F   UNL A   1      45.403  33.228  27.857  1.00  0.00    -0.206 F 
ATOM     84  C   UNL A   1      46.350  34.958  30.893  1.00  0.00     0.006 A 
ENDBRANCH  60  77
ENDBRANCH  34  35
ENDBRANCH  26  29
ENDBRANCH  24  25
ENDBRANCH  23  24
ENDBRANCH   1  23
TORSDOF 13
ENDMDL
