MODEL 1
REMARK VINA RESULT:     -12.3      0.000      0.000
REMARK SMILES O=C(NCCCCNC(=O)c1ccc([C@H]2CCC[N@@H+](CCN3CCCC3=O)C2)cc1)c1ccc(-c2c3nc(c(-c4c(F)cccc4F)c4ccc([nH]4)c(-c4c(F)cccc4F)c4nc(c(-c5c(F)cccc5F)c5ccc2[nH]5)C=C4)C=C3)cc1
REMARK SMILES IDX 6 1 5 2 4 3 3 4 1 5 2 6 31 8 32 9 84 10 33 11 83 12 34 13
REMARK SMILES IDX 35 14 36 15 77 16 37 17 82 18 76 19 78 20 38 21 81 22 75 23
REMARK SMILES IDX 74 24 39 26 65 27 48 28 64 29 49 30 52 31 63 32 79 33 50 34
REMARK SMILES IDX 51 35 62 37 80 38 53 39 40 40 41 41 46 42 42 43 43 44 45 45
REMARK SMILES IDX 47 46 44 47 66 48 67 49 72 50 68 51 69 52 71 53 73 54 70 55
REMARK SMILES IDX 54 56 55 57 60 58 56 59 57 60 59 61 61 62 58 63 7 64 8 65
REMARK SMILES IDX 9 66 10 68 11 69 12 70 30 71 13 72 29 73 14 74 15 75 16 76
REMARK SMILES IDX 28 77 17 78 19 79 18 80 20 82 21 83 22 84 23 85 26 86 24 87
REMARK SMILES IDX 25 88 27 89
REMARK H PARENT 3 7 78 25 52 36 8 67 19 81
REMARK Flexibility Score: inf
ROOT
ATOM      1  C   UNL A   1      36.592  21.010  24.641  1.00  0.00     0.023 C 
ENDROOT
BRANCH   1   2
ATOM      2  C   UNL A   1      37.612  19.918  24.951  1.00  0.00     0.023 C 
BRANCH   2   3
ATOM      3  C   UNL A   1      38.828  20.375  25.745  1.00  0.00     0.116 C 
BRANCH   3   4
ATOM      4  N   UNL A   1      39.918  19.409  25.732  1.00  0.00    -0.352 N 
ATOM      5  O   UNL A   1      42.052  18.681  25.859  1.00  0.00    -0.269 OA
ATOM      6  C   UNL A   1      41.244  19.585  26.055  1.00  0.00     0.251 C 
ATOM      7  H   UNL A   1      39.671  18.498  25.451  1.00  0.00     0.163 HD
BRANCH   6   8
ATOM      8  C   UNL A   1      41.701  20.878  26.610  1.00  0.00     0.039 A 
ATOM      9  C   UNL A   1      41.645  21.118  27.983  1.00  0.00     0.014 A 
ATOM     10  C   UNL A   1      42.168  21.871  25.745  1.00  0.00     0.014 A 
ATOM     11  C   UNL A   1      41.872  22.400  28.467  1.00  0.00     0.010 A 
ATOM     12  C   UNL A   1      42.506  23.131  26.251  1.00  0.00     0.010 A 
ATOM     13  C   UNL A   1      42.322  23.418  27.612  1.00  0.00    -0.014 A 
BRANCH  13  14
ATOM     14  C   UNL A   1      42.649  24.750  28.185  1.00  0.00     0.031 A 
ATOM     15  C   UNL A   1      44.059  25.127  28.550  1.00  0.00     0.074 A 
ATOM     16  C   UNL A   1      41.652  25.644  28.339  1.00  0.00     0.049 A 
ATOM     17  N   UNL A   1      44.511  26.259  29.030  1.00  0.00    -0.248 NA
ATOM     18  C   UNL A   1      45.096  24.101  28.363  1.00  0.00     0.031 C 
ATOM     19  C   UNL A   1      40.243  25.393  28.028  1.00  0.00     0.029 A 
ATOM     20  N   UNL A   1      41.668  26.945  28.772  1.00  0.00    -0.354 N 
ATOM     21  C   UNL A   1      45.876  26.080  29.215  1.00  0.00     0.074 A 
ATOM     22  C   UNL A   1      46.175  24.717  28.828  1.00  0.00     0.031 C 
ATOM     23  C   UNL A   1      39.541  26.518  28.224  1.00  0.00     0.029 A 
ATOM     24  C   UNL A   1      40.433  27.545  28.748  1.00  0.00     0.049 A 
ATOM     25  H   UNL A   1      42.486  27.404  29.072  1.00  0.00     0.167 HD
ATOM     26  C   UNL A   1      46.795  26.973  29.659  1.00  0.00     0.037 A 
ATOM     27  C   UNL A   1      40.052  28.778  29.123  1.00  0.00     0.037 A 
ATOM     28  C   UNL A   1      46.490  28.330  30.040  1.00  0.00     0.049 A 
ATOM     29  C   UNL A   1      41.083  29.728  29.656  1.00  0.00     0.074 A 
ATOM     30  C   UNL A   1      47.357  29.320  30.473  1.00  0.00     0.029 A 
ATOM     31  N   UNL A   1      45.219  28.886  30.044  1.00  0.00    -0.354 N 
ATOM     32  N   UNL A   1      42.376  29.556  29.789  1.00  0.00    -0.248 NA
ATOM     33  C   UNL A   1      40.600  31.043  30.096  1.00  0.00     0.031 C 
ATOM     34  C   UNL A   1      46.603  30.454  30.796  1.00  0.00     0.029 A 
ATOM     35  C   UNL A   1      45.274  30.195  30.502  1.00  0.00     0.049 A 
ATOM     36  H   UNL A   1      44.398  28.421  29.765  1.00  0.00     0.167 HD
ATOM     37  C   UNL A   1      42.866  30.750  30.301  1.00  0.00     0.074 A 
ATOM     38  C   UNL A   1      41.733  31.642  30.435  1.00  0.00     0.031 C 
ATOM     39  C   UNL A   1      44.139  31.075  30.630  1.00  0.00     0.037 A 
BRANCH  26  40
ATOM     40  C   UNL A   1      48.220  26.504  29.784  1.00  0.00     0.057 A 
ATOM     41  C   UNL A   1      48.697  25.870  30.939  1.00  0.00     0.134 A 
ATOM     42  C   UNL A   1      49.116  26.650  28.716  1.00  0.00     0.134 A 
ATOM     43  F   UNL A   1      47.897  25.703  32.004  1.00  0.00    -0.206 F 
ATOM     44  C   UNL A   1      50.018  25.426  31.039  1.00  0.00     0.040 A 
ATOM     45  C   UNL A   1      50.430  26.183  28.792  1.00  0.00     0.040 A 
ATOM     46  F   UNL A   1      48.726  27.237  27.574  1.00  0.00    -0.206 F 
ATOM     47  C   UNL A   1      50.886  25.576  29.960  1.00  0.00     0.006 A 
ENDBRANCH  26  40
BRANCH  27  48
ATOM     48  C   UNL A   1      38.626  29.177  29.014  1.00  0.00     0.057 A 
ATOM     49  C   UNL A   1      38.087  29.614  27.798  1.00  0.00     0.134 A 
ATOM     50  C   UNL A   1      37.768  29.133  30.120  1.00  0.00     0.134 A 
ATOM     51  F   UNL A   1      38.861  29.694  26.706  1.00  0.00    -0.206 F 
ATOM     52  C   UNL A   1      36.754  30.012  27.692  1.00  0.00     0.040 A 
ATOM     53  C   UNL A   1      36.425  29.496  30.021  1.00  0.00     0.040 A 
ATOM     54  F   UNL A   1      38.220  28.713  31.312  1.00  0.00    -0.206 F 
ATOM     55  C   UNL A   1      35.917  29.948  28.805  1.00  0.00     0.006 A 
ENDBRANCH  27  48
BRANCH  39  56
ATOM     56  C   UNL A   1      44.379  32.472  31.127  1.00  0.00     0.057 A 
ATOM     57  C   UNL A   1      44.278  32.809  32.483  1.00  0.00     0.134 A 
ATOM     58  C   UNL A   1      44.729  33.494  30.233  1.00  0.00     0.134 A 
ATOM     59  F   UNL A   1      43.930  31.883  33.389  1.00  0.00    -0.206 F 
ATOM     60  C   UNL A   1      44.483  34.116  32.927  1.00  0.00     0.040 A 
ATOM     61  C   UNL A   1      44.969  34.796  30.670  1.00  0.00     0.040 A 
ATOM     62  F   UNL A   1      44.851  33.240  28.921  1.00  0.00    -0.206 F 
ATOM     63  C   UNL A   1      44.837  35.113  32.020  1.00  0.00     0.006 A 
ENDBRANCH  39  56
ENDBRANCH  13  14
ENDBRANCH   6   8
ENDBRANCH   3   4
ENDBRANCH   2   3
ENDBRANCH   1   2
BRANCH   1  64
ATOM     64  C   UNL A   1      35.467  21.161  25.665  1.00  0.00     0.116 C 
BRANCH  64  65
ATOM     65  N   UNL A   1      34.328  20.301  25.382  1.00  0.00    -0.352 N 
ATOM     66  C   UNL A   1      32.993  20.625  25.315  1.00  0.00     0.251 C 
ATOM     67  H   UNL A   1      34.543  19.355  25.215  1.00  0.00     0.163 HD
ATOM     68  O   UNL A   1      32.143  19.748  25.212  1.00  0.00    -0.269 OA
BRANCH  66  69
ATOM     69  C   UNL A   1      32.592  22.041  25.396  1.00  0.00     0.039 A 
ATOM     70  C   UNL A   1      32.215  22.575  26.625  1.00  0.00     0.014 A 
ATOM     71  C   UNL A   1      32.613  22.845  24.259  1.00  0.00     0.014 A 
ATOM     72  C   UNL A   1      32.010  23.953  26.742  1.00  0.00     0.005 A 
ATOM     73  C   UNL A   1      32.397  24.218  24.383  1.00  0.00     0.005 A 
ATOM     74  C   UNL A   1      32.187  24.811  25.640  1.00  0.00    -0.039 A 
BRANCH  74  75
ATOM     75  C   UNL A   1      32.238  26.336  25.866  1.00  0.00     0.074 C 
ATOM     76  C   UNL A   1      33.648  26.845  25.494  1.00  0.00     0.020 C 
ATOM     77  C   UNL A   1      31.150  27.128  25.083  1.00  0.00     0.270 C 
ATOM     78  C   UNL A   1      33.720  28.362  25.501  1.00  0.00     0.062 C 
ATOM     79  N   UNL A   1      31.363  28.556  24.817  1.00  0.00    -0.333 N 
ATOM     80  C   UNL A   1      32.736  28.927  24.490  1.00  0.00     0.262 C 
ATOM     81  H   UNL A   1      31.183  29.018  25.708  1.00  0.00     0.348 HD
BRANCH  79  82
ATOM     82  C   UNL A   1      30.398  29.070  23.810  1.00  0.00     0.284 C 
BRANCH  82  83
ATOM     83  C   UNL A   1      29.911  30.551  23.880  1.00  0.00     0.180 C 
BRANCH  83  84
ATOM     84  N   UNL A   1      29.138  31.029  22.740  1.00  0.00    -0.337 N 
ATOM     85  C   UNL A   1      28.558  30.155  21.749  1.00  0.00     0.120 C 
ATOM     86  C   UNL A   1      28.838  32.364  22.535  1.00  0.00     0.222 C 
ATOM     87  C   UNL A   1      28.017  31.091  20.681  1.00  0.00     0.031 C 
ATOM     88  C   UNL A   1      27.926  32.462  21.339  1.00  0.00     0.102 C 
ATOM     89  O   UNL A   1      29.191  33.301  23.227  1.00  0.00    -0.275 OA
ENDBRANCH  83  84
ENDBRANCH  82  83
ENDBRANCH  79  82
ENDBRANCH  74  75
ENDBRANCH  66  69
ENDBRANCH  64  65
ENDBRANCH   1  64
TORSDOF 15
ENDMDL
MODEL 2
REMARK VINA RESULT:     -12.2      3.849     10.148
REMARK SMILES O=C(NCCCCNC(=O)c1ccc([C@H]2CCC[N@@H+](CCN3CCCC3=O)C2)cc1)c1ccc(-c2c3nc(c(-c4c(F)cccc4F)c4ccc([nH]4)c(-c4c(F)cccc4F)c4nc(c(-c5c(F)cccc5F)c5ccc2[nH]5)C=C4)C=C3)cc1
REMARK SMILES IDX 6 1 5 2 4 3 3 4 1 5 2 6 31 8 32 9 84 10 33 11 83 12 34 13
REMARK SMILES IDX 35 14 36 15 77 16 37 17 82 18 76 19 78 20 38 21 81 22 75 23
REMARK SMILES IDX 74 24 39 26 65 27 48 28 64 29 49 30 52 31 63 32 79 33 50 34
REMARK SMILES IDX 51 35 62 37 80 38 53 39 40 40 41 41 46 42 42 43 43 44 45 45
REMARK SMILES IDX 47 46 44 47 66 48 67 49 72 50 68 51 69 52 71 53 73 54 70 55
REMARK SMILES IDX 54 56 55 57 60 58 56 59 57 60 59 61 61 62 58 63 7 64 8 65
REMARK SMILES IDX 9 66 10 68 11 69 12 70 30 71 13 72 29 73 14 74 15 75 16 76
REMARK SMILES IDX 28 77 17 78 19 79 18 80 20 82 21 83 22 84 23 85 26 86 24 87
REMARK SMILES IDX 25 88 27 89
REMARK H PARENT 3 7 78 25 52 36 8 67 19 81
REMARK Flexibility Score: inf
ROOT
ATOM      1  C   UNL A   1      31.779  30.491  26.772  1.00  0.00     0.023 C 
ENDROOT
BRANCH   1   2
ATOM      2  C   UNL A   1      31.434  31.976  26.842  1.00  0.00     0.023 C 
BRANCH   2   3
ATOM      3  C   UNL A   1      32.626  32.921  26.791  1.00  0.00     0.116 C 
BRANCH   3   4
ATOM      4  N   UNL A   1      32.433  34.132  27.576  1.00  0.00    -0.352 N 
ATOM      5  O   UNL A   1      32.735  35.567  29.294  1.00  0.00    -0.269 OA
ATOM      6  C   UNL A   1      33.125  34.578  28.679  1.00  0.00     0.251 C 
ATOM      7  H   UNL A   1      31.701  34.717  27.275  1.00  0.00     0.163 HD
BRANCH   6   8
ATOM      8  C   UNL A   1      34.323  33.844  29.142  1.00  0.00     0.039 A 
ATOM      9  C   UNL A   1      34.191  32.678  29.897  1.00  0.00     0.014 A 
ATOM     10  C   UNL A   1      35.594  34.339  28.837  1.00  0.00     0.014 A 
ATOM     11  C   UNL A   1      35.309  32.119  30.502  1.00  0.00     0.010 A 
ATOM     12  C   UNL A   1      36.730  33.706  29.356  1.00  0.00     0.010 A 
ATOM     13  C   UNL A   1      36.594  32.614  30.227  1.00  0.00    -0.014 A 
BRANCH  13  14
ATOM     14  C   UNL A   1      37.772  31.927  30.816  1.00  0.00     0.031 A 
ATOM     15  C   UNL A   1      38.214  32.192  32.230  1.00  0.00     0.074 A 
ATOM     16  C   UNL A   1      38.427  31.019  30.065  1.00  0.00     0.049 A 
ATOM     17  N   UNL A   1      39.201  31.650  32.900  1.00  0.00    -0.248 NA
ATOM     18  C   UNL A   1      37.459  33.200  32.989  1.00  0.00     0.031 C 
ATOM     19  C   UNL A   1      38.098  30.680  28.679  1.00  0.00     0.029 A 
ATOM     20  N   UNL A   1      39.485  30.199  30.363  1.00  0.00    -0.354 N 
ATOM     21  C   UNL A   1      39.196  32.257  34.149  1.00  0.00     0.074 A 
ATOM     22  C   UNL A   1      38.129  33.235  34.134  1.00  0.00     0.031 C 
ATOM     23  C   UNL A   1      38.897  29.687  28.266  1.00  0.00     0.029 A 
ATOM     24  C   UNL A   1      39.844  29.371  29.327  1.00  0.00     0.049 A 
ATOM     25  H   UNL A   1      39.944  30.204  31.235  1.00  0.00     0.167 HD
ATOM     26  C   UNL A   1      40.003  32.015  35.212  1.00  0.00     0.037 A 
ATOM     27  C   UNL A   1      40.837  28.470  29.232  1.00  0.00     0.037 A 
ATOM     28  C   UNL A   1      41.062  31.037  35.220  1.00  0.00     0.049 A 
ATOM     29  C   UNL A   1      41.743  28.259  30.407  1.00  0.00     0.074 A 
ATOM     30  C   UNL A   1      41.914  30.696  36.257  1.00  0.00     0.029 A 
ATOM     31  N   UNL A   1      41.424  30.250  34.135  1.00  0.00    -0.354 N 
ATOM     32  N   UNL A   1      41.702  28.813  31.594  1.00  0.00    -0.248 NA
ATOM     33  C   UNL A   1      42.839  27.297  30.228  1.00  0.00     0.031 C 
ATOM     34  C   UNL A   1      42.828  29.748  35.783  1.00  0.00     0.029 A 
ATOM     35  C   UNL A   1      42.505  29.447  34.470  1.00  0.00     0.049 A 
ATOM     36  H   UNL A   1      40.979  30.259  33.258  1.00  0.00     0.167 HD
ATOM     37  C   UNL A   1      42.747  28.249  32.313  1.00  0.00     0.074 A 
ATOM     38  C   UNL A   1      43.391  27.295  31.433  1.00  0.00     0.031 C 
ATOM     39  C   UNL A   1      43.137  28.500  33.586  1.00  0.00     0.037 A 
BRANCH  26  40
ATOM     40  C   UNL A   1      39.790  32.841  36.451  1.00  0.00     0.057 A 
ATOM     41  C   UNL A   1      40.513  34.016  36.698  1.00  0.00     0.134 A 
ATOM     42  C   UNL A   1      38.816  32.478  37.392  1.00  0.00     0.134 A 
ATOM     43  F   UNL A   1      41.467  34.420  35.843  1.00  0.00    -0.206 F 
ATOM     44  C   UNL A   1      40.297  34.782  37.845  1.00  0.00     0.040 A 
ATOM     45  C   UNL A   1      38.570  33.253  38.528  1.00  0.00     0.040 A 
ATOM     46  F   UNL A   1      38.078  31.372  37.217  1.00  0.00    -0.206 F 
ATOM     47  C   UNL A   1      39.318  34.405  38.761  1.00  0.00     0.006 A 
ENDBRANCH  26  40
BRANCH  27  48
ATOM     48  C   UNL A   1      41.026  27.708  27.971  1.00  0.00     0.057 A 
ATOM     49  C   UNL A   1      40.382  26.483  27.761  1.00  0.00     0.134 A 
ATOM     50  C   UNL A   1      41.854  28.185  26.947  1.00  0.00     0.134 A 
ATOM     51  F   UNL A   1      39.588  25.966  28.711  1.00  0.00    -0.206 F 
ATOM     52  C   UNL A   1      40.572  25.751  26.589  1.00  0.00     0.040 A 
ATOM     53  C   UNL A   1      42.026  27.479  25.756  1.00  0.00     0.040 A 
ATOM     54  F   UNL A   1      42.490  29.358  27.081  1.00  0.00    -0.206 F 
ATOM     55  C   UNL A   1      41.392  26.252  25.579  1.00  0.00     0.006 A 
ENDBRANCH  27  48
BRANCH  39  56
ATOM     56  C   UNL A   1      44.290  27.695  34.116  1.00  0.00     0.057 A 
ATOM     57  C   UNL A   1      44.122  26.407  34.639  1.00  0.00     0.134 A 
ATOM     58  C   UNL A   1      45.591  28.216  34.089  1.00  0.00     0.134 A 
ATOM     59  F   UNL A   1      42.901  25.856  34.710  1.00  0.00    -0.206 F 
ATOM     60  C   UNL A   1      45.200  25.679  35.147  1.00  0.00     0.040 A 
ATOM     61  C   UNL A   1      46.681  27.485  34.563  1.00  0.00     0.040 A 
ATOM     62  F   UNL A   1      45.826  29.441  33.594  1.00  0.00    -0.206 F 
ATOM     63  C   UNL A   1      46.485  26.216  35.103  1.00  0.00     0.006 A 
ENDBRANCH  39  56
ENDBRANCH  13  14
ENDBRANCH   6   8
ENDBRANCH   3   4
ENDBRANCH   2   3
ENDBRANCH   1   2
BRANCH   1  64
ATOM     64  C   UNL A   1      32.302  30.005  25.421  1.00  0.00     0.116 C 
BRANCH  64  65
ATOM     65  N   UNL A   1      31.235  29.691  24.483  1.00  0.00    -0.352 N 
ATOM     66  C   UNL A   1      30.878  28.473  23.952  1.00  0.00     0.251 C 
ATOM     67  H   UNL A   1      30.692  30.457  24.187  1.00  0.00     0.163 HD
ATOM     68  O   UNL A   1      30.045  28.403  23.057  1.00  0.00    -0.269 OA
BRANCH  66  69
ATOM     69  C   UNL A   1      31.531  27.251  24.455  1.00  0.00     0.039 A 
ATOM     70  C   UNL A   1      32.726  26.829  23.879  1.00  0.00     0.014 A 
ATOM     71  C   UNL A   1      30.972  26.539  25.513  1.00  0.00     0.014 A 
ATOM     72  C   UNL A   1      33.440  25.780  24.467  1.00  0.00     0.005 A 
ATOM     73  C   UNL A   1      31.687  25.487  26.088  1.00  0.00     0.005 A 
ATOM     74  C   UNL A   1      32.976  25.151  25.638  1.00  0.00    -0.039 A 
BRANCH  74  75
ATOM     75  C   UNL A   1      33.916  24.208  26.417  1.00  0.00     0.074 C 
ATOM     76  C   UNL A   1      33.202  22.855  26.623  1.00  0.00     0.020 C 
ATOM     77  C   UNL A   1      35.301  23.995  25.738  1.00  0.00     0.270 C 
ATOM     78  C   UNL A   1      34.134  21.808  27.209  1.00  0.00     0.062 C 
ATOM     79  N   UNL A   1      36.084  22.801  26.081  1.00  0.00    -0.333 N 
ATOM     80  C   UNL A   1      35.305  21.581  26.267  1.00  0.00     0.262 C 
ATOM     81  H   UNL A   1      36.469  22.997  27.005  1.00  0.00     0.348 HD
BRANCH  79  82
ATOM     82  C   UNL A   1      37.208  22.598  25.130  1.00  0.00     0.284 C 
BRANCH  82  83
ATOM     83  C   UNL A   1      38.039  21.278  25.173  1.00  0.00     0.180 C 
BRANCH  83  84
ATOM     84  N   UNL A   1      39.235  21.296  26.007  1.00  0.00    -0.337 N 
ATOM     85  C   UNL A   1      39.631  22.432  26.804  1.00  0.00     0.120 C 
ATOM     86  C   UNL A   1      40.070  20.203  26.157  1.00  0.00     0.222 C 
ATOM     87  C   UNL A   1      41.003  22.062  27.343  1.00  0.00     0.031 C 
ATOM     88  C   UNL A   1      41.117  20.552  27.183  1.00  0.00     0.102 C 
ATOM     89  O   UNL A   1      39.954  19.122  25.612  1.00  0.00    -0.275 OA
ENDBRANCH  83  84
ENDBRANCH  82  83
ENDBRANCH  79  82
ENDBRANCH  74  75
ENDBRANCH  66  69
ENDBRANCH  64  65
ENDBRANCH   1  64
TORSDOF 15
ENDMDL
MODEL 3
REMARK VINA RESULT:     -12.2      3.796     10.314
REMARK SMILES O=C(NCCCCNC(=O)c1ccc([C@H]2CCC[N@@H+](CCN3CCCC3=O)C2)cc1)c1ccc(-c2c3nc(c(-c4c(F)cccc4F)c4ccc([nH]4)c(-c4c(F)cccc4F)c4nc(c(-c5c(F)cccc5F)c5ccc2[nH]5)C=C4)C=C3)cc1
REMARK SMILES IDX 6 1 5 2 4 3 3 4 1 5 2 6 31 8 32 9 84 10 33 11 83 12 34 13
REMARK SMILES IDX 35 14 36 15 77 16 37 17 82 18 76 19 78 20 38 21 81 22 75 23
REMARK SMILES IDX 74 24 39 26 65 27 48 28 64 29 49 30 52 31 63 32 79 33 50 34
REMARK SMILES IDX 51 35 62 37 80 38 53 39 40 40 41 41 46 42 42 43 43 44 45 45
REMARK SMILES IDX 47 46 44 47 66 48 67 49 72 50 68 51 69 52 71 53 73 54 70 55
REMARK SMILES IDX 54 56 55 57 60 58 56 59 57 60 59 61 61 62 58 63 7 64 8 65
REMARK SMILES IDX 9 66 10 68 11 69 12 70 30 71 13 72 29 73 14 74 15 75 16 76
REMARK SMILES IDX 28 77 17 78 19 79 18 80 20 82 21 83 22 84 23 85 26 86 24 87
REMARK SMILES IDX 25 88 27 89
REMARK H PARENT 3 7 78 25 52 36 8 67 19 81
REMARK Flexibility Score: inf
ROOT
ATOM      1  C   UNL A   1      31.597  30.547  26.705  1.00  0.00     0.023 C 
ENDROOT
BRANCH   1   2
ATOM      2  C   UNL A   1      31.445  32.066  26.706  1.00  0.00     0.023 C 
BRANCH   2   3
ATOM      3  C   UNL A   1      32.675  32.838  27.162  1.00  0.00     0.116 C 
BRANCH   3   4
ATOM      4  N   UNL A   1      32.370  34.188  27.614  1.00  0.00    -0.352 N 
ATOM      5  O   UNL A   1      32.498  36.019  28.931  1.00  0.00    -0.269 OA
ATOM      6  C   UNL A   1      32.977  34.940  28.595  1.00  0.00     0.251 C 
ATOM      7  H   UNL A   1      31.620  34.629  27.152  1.00  0.00     0.163 HD
BRANCH   6   8
ATOM      8  C   UNL A   1      34.192  34.427  29.267  1.00  0.00     0.039 A 
ATOM      9  C   UNL A   1      35.436  34.518  28.643  1.00  0.00     0.014 A 
ATOM     10  C   UNL A   1      34.082  33.828  30.525  1.00  0.00     0.014 A 
ATOM     11  C   UNL A   1      36.527  33.847  29.183  1.00  0.00     0.010 A 
ATOM     12  C   UNL A   1      35.209  33.252  31.121  1.00  0.00     0.010 A 
ATOM     13  C   UNL A   1      36.433  33.221  30.436  1.00  0.00    -0.014 A 
BRANCH  13  14
ATOM     14  C   UNL A   1      37.648  32.600  31.025  1.00  0.00     0.031 A 
ATOM     15  C   UNL A   1      38.228  33.083  32.326  1.00  0.00     0.074 A 
ATOM     16  C   UNL A   1      38.208  31.555  30.385  1.00  0.00     0.049 A 
ATOM     17  N   UNL A   1      39.264  32.626  32.987  1.00  0.00    -0.248 NA
ATOM     18  C   UNL A   1      37.571  34.232  32.968  1.00  0.00     0.031 C 
ATOM     19  C   UNL A   1      37.741  31.000  29.112  1.00  0.00     0.029 A 
ATOM     20  N   UNL A   1      39.273  30.759  30.721  1.00  0.00    -0.354 N 
ATOM     21  C   UNL A   1      39.391  33.435  34.108  1.00  0.00     0.074 A 
ATOM     22  C   UNL A   1      38.348  34.435  34.024  1.00  0.00     0.031 C 
ATOM     23  C   UNL A   1      38.476  29.922  28.804  1.00  0.00     0.029 A 
ATOM     24  C   UNL A   1      39.513  29.755  29.814  1.00  0.00     0.049 A 
ATOM     25  H   UNL A   1      39.813  30.894  31.533  1.00  0.00     0.167 HD
ATOM     26  C   UNL A   1      40.291  33.345  35.119  1.00  0.00     0.037 A 
ATOM     27  C   UNL A   1      40.473  28.815  29.784  1.00  0.00     0.037 A 
ATOM     28  C   UNL A   1      41.326  32.345  35.198  1.00  0.00     0.049 A 
ATOM     29  C   UNL A   1      41.484  28.771  30.891  1.00  0.00     0.074 A 
ATOM     30  C   UNL A   1      42.266  32.152  36.197  1.00  0.00     0.029 A 
ATOM     31  N   UNL A   1      41.565  31.373  34.237  1.00  0.00    -0.354 N 
ATOM     32  N   UNL A   1      41.568  29.520  31.964  1.00  0.00    -0.248 NA
ATOM     33  C   UNL A   1      42.537  27.753  30.780  1.00  0.00     0.031 C 
ATOM     34  C   UNL A   1      43.110  31.105  35.811  1.00  0.00     0.029 A 
ATOM     35  C   UNL A   1      42.657  30.599  34.604  1.00  0.00     0.049 A 
ATOM     36  H   UNL A   1      41.039  31.250  33.414  1.00  0.00     0.167 HD
ATOM     37  C   UNL A   1      42.665  29.046  32.671  1.00  0.00     0.074 A 
ATOM     38  C   UNL A   1      43.201  27.934  31.913  1.00  0.00     0.031 C 
ATOM     39  C   UNL A   1      43.181  29.493  33.841  1.00  0.00     0.037 A 
BRANCH  26  40
ATOM     40  C   UNL A   1      40.216  34.376  36.213  1.00  0.00     0.057 A 
ATOM     41  C   UNL A   1      39.449  34.182  37.370  1.00  0.00     0.134 A 
ATOM     42  C   UNL A   1      40.958  35.563  36.127  1.00  0.00     0.134 A 
ATOM     43  F   UNL A   1      38.708  33.073  37.516  1.00  0.00    -0.206 F 
ATOM     44  C   UNL A   1      39.398  35.140  38.384  1.00  0.00     0.040 A 
ATOM     45  C   UNL A   1      40.939  36.514  37.149  1.00  0.00     0.040 A 
ATOM     46  F   UNL A   1      41.724  35.812  35.054  1.00  0.00    -0.206 F 
ATOM     47  C   UNL A   1      40.151  36.308  38.279  1.00  0.00     0.006 A 
ENDBRANCH  26  40
BRANCH  27  48
ATOM     48  C   UNL A   1      40.525  27.845  28.661  1.00  0.00     0.057 A 
ATOM     49  C   UNL A   1      41.313  28.088  27.530  1.00  0.00     0.134 A 
ATOM     50  C   UNL A   1      39.788  26.654  28.689  1.00  0.00     0.134 A 
ATOM     51  F   UNL A   1      42.029  29.218  27.436  1.00  0.00    -0.206 F 
ATOM     52  C   UNL A   1      41.349  27.193  26.460  1.00  0.00     0.040 A 
ATOM     53  C   UNL A   1      39.841  25.735  27.642  1.00  0.00     0.040 A 
ATOM     54  F   UNL A   1      39.022  26.356  29.750  1.00  0.00    -0.206 F 
ATOM     55  C   UNL A   1      40.616  26.008  26.518  1.00  0.00     0.006 A 
ENDBRANCH  27  48
BRANCH  39  56
ATOM     56  C   UNL A   1      44.363  28.748  34.394  1.00  0.00     0.057 A 
ATOM     57  C   UNL A   1      45.681  29.125  34.110  1.00  0.00     0.134 A 
ATOM     58  C   UNL A   1      44.175  27.643  35.236  1.00  0.00     0.134 A 
ATOM     59  F   UNL A   1      45.931  30.164  33.298  1.00  0.00    -0.206 F 
ATOM     60  C   UNL A   1      46.770  28.411  34.615  1.00  0.00     0.040 A 
ATOM     61  C   UNL A   1      45.255  26.941  35.773  1.00  0.00     0.040 A 
ATOM     62  F   UNL A   1      42.939  27.231  35.556  1.00  0.00    -0.206 F 
ATOM     63  C   UNL A   1      46.557  27.319  35.454  1.00  0.00     0.006 A 
ENDBRANCH  39  56
ENDBRANCH  13  14
ENDBRANCH   6   8
ENDBRANCH   3   4
ENDBRANCH   2   3
ENDBRANCH   1   2
BRANCH   1  64
ATOM     64  C   UNL A   1      32.400  29.973  25.538  1.00  0.00     0.116 C 
BRANCH  64  65
ATOM     65  N   UNL A   1      31.586  29.740  24.354  1.00  0.00    -0.352 N 
ATOM     66  C   UNL A   1      31.425  28.583  23.628  1.00  0.00     0.251 C 
ATOM     67  H   UNL A   1      31.081  30.518  24.028  1.00  0.00     0.163 HD
ATOM     68  O   UNL A   1      30.816  28.593  22.564  1.00  0.00    -0.269 OA
BRANCH  66  69
ATOM     69  C   UNL A   1      32.017  27.330  24.130  1.00  0.00     0.039 A 
ATOM     70  C   UNL A   1      33.330  27.012  23.793  1.00  0.00     0.014 A 
ATOM     71  C   UNL A   1      31.280  26.484  24.955  1.00  0.00     0.014 A 
ATOM     72  C   UNL A   1      33.954  25.923  24.410  1.00  0.00     0.005 A 
ATOM     73  C   UNL A   1      31.908  25.393  25.559  1.00  0.00     0.005 A 
ATOM     74  C   UNL A   1      33.280  25.149  25.374  1.00  0.00    -0.039 A 
BRANCH  74  75
ATOM     75  C   UNL A   1      34.077  24.150  26.238  1.00  0.00     0.074 C 
ATOM     76  C   UNL A   1      33.374  22.776  26.184  1.00  0.00     0.020 C 
ATOM     77  C   UNL A   1      35.573  24.013  25.827  1.00  0.00     0.270 C 
ATOM     78  C   UNL A   1      34.204  21.692  26.848  1.00  0.00     0.062 C 
ATOM     79  N   UNL A   1      36.307  22.801  26.213  1.00  0.00    -0.333 N 
ATOM     80  C   UNL A   1      35.540  21.561  26.138  1.00  0.00     0.262 C 
ATOM     81  H   UNL A   1      36.501  22.918  27.207  1.00  0.00     0.348 HD
BRANCH  79  82
ATOM     82  C   UNL A   1      37.599  22.695  25.486  1.00  0.00     0.284 C 
BRANCH  82  83
ATOM     83  C   UNL A   1      38.356  21.332  25.432  1.00  0.00     0.180 C 
BRANCH  83  84
ATOM     84  N   UNL A   1      39.570  21.237  26.234  1.00  0.00    -0.337 N 
ATOM     85  C   UNL A   1      40.016  22.277  27.128  1.00  0.00     0.120 C 
ATOM     86  C   UNL A   1      40.377  20.113  26.255  1.00  0.00     0.222 C 
ATOM     87  C   UNL A   1      41.388  21.820  27.595  1.00  0.00     0.031 C 
ATOM     88  C   UNL A   1      41.456  20.331  27.284  1.00  0.00     0.102 C 
ATOM     89  O   UNL A   1      40.219  19.094  25.609  1.00  0.00    -0.275 OA
ENDBRANCH  83  84
ENDBRANCH  82  83
ENDBRANCH  79  82
ENDBRANCH  74  75
ENDBRANCH  66  69
ENDBRANCH  64  65
ENDBRANCH   1  64
TORSDOF 15
ENDMDL
