MODEL 1
REMARK VINA RESULT:     -12.4      0.000      0.000
REMARK SMILES C[C@H]1OCC[C@@H]1C(=O)Nc1ccc(Cl)c(C(=O)NCCCCNC(=O)c2ccc(-c3c4nc(c(-c5c(F)cccc5F)c5ccc([nH]5)c(-c5c(F)cccc5F)c5nc(c(-c6c(F)cccc6F)c6ccc3[nH]6)C=C5)C=C4)cc2)c1
REMARK SMILES IDX 20 1 19 2 18 3 16 4 17 5 15 7 10 8 11 9 80 10 12 11 13 12
REMARK SMILES IDX 14 13 9 14 7 15 8 16 6 18 1 19 2 20 3 21 4 22 5 23 21 24
REMARK SMILES IDX 22 25 23 26 24 27 25 29 26 30 27 31 79 32 28 33 78 34 29 35
REMARK SMILES IDX 30 36 31 37 72 38 32 39 77 40 71 41 73 42 33 43 76 44 70 45
REMARK SMILES IDX 69 46 34 48 60 49 43 50 59 51 44 52 47 53 58 54 74 55 45 56
REMARK SMILES IDX 46 57 57 59 75 60 48 61 35 62 36 63 41 64 37 65 38 66 40 67
REMARK SMILES IDX 42 68 39 69 61 70 62 71 67 72 63 73 64 74 66 75 68 76 65 77
REMARK SMILES IDX 49 78 50 79 55 80 51 81 52 82 54 83 56 84 53 85
REMARK H PARENT 18 6 9 17 23 28 73 47 47 58
REMARK Flexibility Score: inf
ROOT
ATOM      1  C   UNL A   1      31.393  30.707  26.175  1.00  0.00     0.023 C 
ENDROOT
BRANCH   1   2
ATOM      2  C   UNL A   1      32.687  29.917  26.090  1.00  0.00     0.116 C 
BRANCH   2   3
ATOM      3  N   UNL A   1      33.258  29.764  24.764  1.00  0.00    -0.352 N 
ATOM      4  C   UNL A   1      32.861  28.933  23.734  1.00  0.00     0.252 C 
ATOM      5  O   UNL A   1      33.438  29.007  22.651  1.00  0.00    -0.269 OA
ATOM      6  H   UNL A   1      34.038  30.332  24.570  1.00  0.00     0.163 HD
BRANCH   4   7
ATOM      7  C   UNL A   1      31.849  27.867  23.944  1.00  0.00     0.060 A 
ATOM      8  C   UNL A   1      29.570  27.137  23.596  1.00  0.00     0.042 A 
ATOM      9  C   UNL A   1      29.955  25.835  23.882  1.00  0.00     0.028 A 
ATOM     10  C   UNL A   1      30.546  28.124  23.476  1.00  0.00     0.041 A 
ATOM     11  C   UNL A   1      31.211  25.593  24.419  1.00  0.00     0.023 A 
ATOM     12  C   UNL A   1      32.097  26.652  24.587  1.00  0.00     0.053 A 
ATOM     13  Cl  UNL A   1      33.357  26.418  25.748  1.00  0.00    -0.083 Cl
BRANCH   8  14
ATOM     14  N   UNL A   1      28.220  27.466  23.473  1.00  0.00    -0.326 N 
ATOM     15  C   UNL A   1      27.656  28.695  23.231  1.00  0.00     0.230 C 
ATOM     16  O   UNL A   1      26.426  28.777  23.342  1.00  0.00    -0.274 OA
ATOM     17  H   UNL A   1      27.588  26.718  23.573  1.00  0.00     0.169 HD
BRANCH  15  18
ATOM     18  C   UNL A   1      28.435  29.931  22.733  1.00  0.00     0.110 C 
ATOM     19  C   UNL A   1      29.225  32.013  23.965  1.00  0.00     0.039 C 
ATOM     20  C   UNL A   1      28.036  31.252  23.386  1.00  0.00     0.127 C 
ATOM     21  O   UNL A   1      27.464  32.064  22.349  1.00  0.00    -0.378 OA
ATOM     22  C   UNL A   1      28.022  31.654  21.101  1.00  0.00     0.161 C 
ATOM     23  C   UNL A   1      28.432  30.200  21.241  1.00  0.00     0.044 C 
ENDBRANCH  15  18
ENDBRANCH   8  14
ENDBRANCH   4   7
ENDBRANCH   2   3
ENDBRANCH   1   2
BRANCH   1  24
ATOM     24  C   UNL A   1      31.412  31.943  27.068  1.00  0.00     0.023 C 
BRANCH  24  25
ATOM     25  C   UNL A   1      32.348  33.075  26.655  1.00  0.00     0.116 C 
BRANCH  25  26
ATOM     26  N   UNL A   1      32.385  34.198  27.584  1.00  0.00    -0.352 N 
ATOM     27  C   UNL A   1      33.283  34.497  28.584  1.00  0.00     0.251 C 
ATOM     28  H   UNL A   1      31.651  34.845  27.481  1.00  0.00     0.163 HD
ATOM     29  O   UNL A   1      33.104  35.479  29.301  1.00  0.00    -0.269 OA
BRANCH  27  30
ATOM     30  C   UNL A   1      34.433  33.604  28.840  1.00  0.00     0.039 A 
ATOM     31  C   UNL A   1      35.719  34.150  28.830  1.00  0.00     0.014 A 
ATOM     32  C   UNL A   1      34.245  32.255  29.145  1.00  0.00     0.014 A 
ATOM     33  C   UNL A   1      36.801  33.376  29.256  1.00  0.00     0.010 A 
ATOM     34  C   UNL A   1      35.308  31.512  29.649  1.00  0.00     0.010 A 
ATOM     35  C   UNL A   1      36.591  32.073  29.737  1.00  0.00    -0.014 A 
BRANCH  35  36
ATOM     36  C   UNL A   1      37.678  31.304  30.395  1.00  0.00     0.031 A 
ATOM     37  C   UNL A   1      38.038  31.572  31.829  1.00  0.00     0.074 A 
ATOM     38  C   UNL A   1      38.413  30.441  29.666  1.00  0.00     0.049 A 
ATOM     39  N   UNL A   1      39.035  31.097  32.532  1.00  0.00    -0.248 NA
ATOM     40  C   UNL A   1      37.182  32.518  32.559  1.00  0.00     0.031 C 
ATOM     41  C   UNL A   1      38.201  30.131  28.250  1.00  0.00     0.029 A 
ATOM     42  N   UNL A   1      39.501  29.677  30.011  1.00  0.00    -0.354 N 
ATOM     43  C   UNL A   1      38.938  31.703  33.777  1.00  0.00     0.074 A 
ATOM     44  C   UNL A   1      37.813  32.611  33.720  1.00  0.00     0.031 C 
ATOM     45  C   UNL A   1      39.117  29.233  27.852  1.00  0.00     0.029 A 
ATOM     46  C   UNL A   1      40.006  28.935  28.970  1.00  0.00     0.049 A 
ATOM     47  H   UNL A   1      39.883  29.663  30.918  1.00  0.00     0.167 HD
ATOM     48  C   UNL A   1      39.708  31.506  34.874  1.00  0.00     0.037 A 
ATOM     49  C   UNL A   1      41.077  28.120  28.916  1.00  0.00     0.037 A 
ATOM     50  C   UNL A   1      40.807  30.580  34.939  1.00  0.00     0.049 A 
ATOM     51  C   UNL A   1      41.918  27.924  30.145  1.00  0.00     0.074 A 
ATOM     52  C   UNL A   1      41.595  30.254  36.030  1.00  0.00     0.029 A 
ATOM     53  N   UNL A   1      41.276  29.834  33.869  1.00  0.00    -0.354 N 
ATOM     54  N   UNL A   1      41.773  28.452  31.335  1.00  0.00    -0.248 NA
ATOM     55  C   UNL A   1      43.071  27.022  30.022  1.00  0.00     0.031 C 
ATOM     56  C   UNL A   1      42.566  29.338  35.610  1.00  0.00     0.029 A 
ATOM     57  C   UNL A   1      42.358  29.067  34.267  1.00  0.00     0.049 A 
ATOM     58  H   UNL A   1      40.897  29.848  32.961  1.00  0.00     0.167 HD
ATOM     59  C   UNL A   1      42.804  27.934  32.108  1.00  0.00     0.074 A 
ATOM     60  C   UNL A   1      43.558  27.038  31.256  1.00  0.00     0.031 C 
ATOM     61  C   UNL A   1      43.098  28.180  33.408  1.00  0.00     0.037 A 
BRANCH  48  62
ATOM     62  C   UNL A   1      39.379  32.306  36.099  1.00  0.00     0.057 A 
ATOM     63  C   UNL A   1      39.992  33.539  36.360  1.00  0.00     0.134 A 
ATOM     64  C   UNL A   1      38.415  31.857  37.010  1.00  0.00     0.134 A 
ATOM     65  F   UNL A   1      40.933  34.019  35.532  1.00  0.00    -0.206 F 
ATOM     66  C   UNL A   1      39.676  34.284  37.497  1.00  0.00     0.040 A 
ATOM     67  C   UNL A   1      38.073  32.605  38.137  1.00  0.00     0.040 A 
ATOM     68  F   UNL A   1      37.786  30.689  36.815  1.00  0.00    -0.206 F 
ATOM     69  C   UNL A   1      38.709  33.821  38.386  1.00  0.00     0.006 A 
ENDBRANCH  48  62
BRANCH  49  70
ATOM     70  C   UNL A   1      41.410  27.415  27.652  1.00  0.00     0.057 A 
ATOM     71  C   UNL A   1      40.944  26.119  27.409  1.00  0.00     0.134 A 
ATOM     72  C   UNL A   1      42.200  28.016  26.665  1.00  0.00     0.134 A 
ATOM     73  F   UNL A   1      40.200  25.486  28.328  1.00  0.00    -0.206 F 
ATOM     74  C   UNL A   1      41.263  25.436  26.234  1.00  0.00     0.040 A 
ATOM     75  C   UNL A   1      42.509  27.353  25.475  1.00  0.00     0.040 A 
ATOM     76  F   UNL A   1      42.670  29.259  26.836  1.00  0.00    -0.206 F 
ATOM     77  C   UNL A   1      42.044  26.057  25.261  1.00  0.00     0.006 A 
ENDBRANCH  49  70
BRANCH  61  78
ATOM     78  C   UNL A   1      44.273  27.456  33.993  1.00  0.00     0.057 A 
ATOM     79  C   UNL A   1      45.552  28.024  34.012  1.00  0.00     0.134 A 
ATOM     80  C   UNL A   1      44.113  26.196  34.585  1.00  0.00     0.134 A 
ATOM     81  F   UNL A   1      45.771  29.222  33.447  1.00  0.00    -0.206 F 
ATOM     82  C   UNL A   1      46.636  27.360  34.588  1.00  0.00     0.040 A 
ATOM     83  C   UNL A   1      45.184  25.533  35.183  1.00  0.00     0.040 A 
ATOM     84  F   UNL A   1      42.912  25.600  34.604  1.00  0.00    -0.206 F 
ATOM     85  C   UNL A   1      46.450  26.114  35.183  1.00  0.00     0.006 A 
ENDBRANCH  61  78
ENDBRANCH  35  36
ENDBRANCH  27  30
ENDBRANCH  25  26
ENDBRANCH  24  25
ENDBRANCH   1  24
TORSDOF 13
ENDMDL
MODEL 2
REMARK VINA RESULT:     -12.3      4.696      8.515
REMARK SMILES C[C@H]1OCC[C@@H]1C(=O)Nc1ccc(Cl)c(C(=O)NCCCCNC(=O)c2ccc(-c3c4nc(c(-c5c(F)cccc5F)c5ccc([nH]5)c(-c5c(F)cccc5F)c5nc(c(-c6c(F)cccc6F)c6ccc3[nH]6)C=C5)C=C4)cc2)c1
REMARK SMILES IDX 20 1 19 2 18 3 16 4 17 5 15 7 10 8 11 9 80 10 12 11 13 12
REMARK SMILES IDX 14 13 9 14 7 15 8 16 6 18 1 19 2 20 3 21 4 22 5 23 21 24
REMARK SMILES IDX 22 25 23 26 24 27 25 29 26 30 27 31 79 32 28 33 78 34 29 35
REMARK SMILES IDX 30 36 31 37 72 38 32 39 77 40 71 41 73 42 33 43 76 44 70 45
REMARK SMILES IDX 69 46 34 48 60 49 43 50 59 51 44 52 47 53 58 54 74 55 45 56
REMARK SMILES IDX 46 57 57 59 75 60 48 61 35 62 36 63 41 64 37 65 38 66 40 67
REMARK SMILES IDX 42 68 39 69 61 70 62 71 67 72 63 73 64 74 66 75 68 76 65 77
REMARK SMILES IDX 49 78 50 79 55 80 51 81 52 82 54 83 56 84 53 85
REMARK H PARENT 18 6 9 17 23 28 73 47 47 58
REMARK Flexibility Score: inf
ROOT
ATOM      1  C   UNL A   1      36.859  22.501  24.341  1.00  0.00     0.023 C 
ENDROOT
BRANCH   1   2
ATOM      2  C   UNL A   1      36.234  23.388  25.403  1.00  0.00     0.116 C 
BRANCH   2   3
ATOM      3  N   UNL A   1      35.640  22.706  26.540  1.00  0.00    -0.352 N 
ATOM      4  C   UNL A   1      34.430  22.047  26.626  1.00  0.00     0.252 C 
ATOM      5  O   UNL A   1      34.139  21.466  27.669  1.00  0.00    -0.269 OA
ATOM      6  H   UNL A   1      36.176  22.714  27.366  1.00  0.00     0.163 HD
BRANCH   4   7
ATOM      7  C   UNL A   1      33.418  22.136  25.542  1.00  0.00     0.060 A 
ATOM      8  C   UNL A   1      31.548  23.351  24.609  1.00  0.00     0.042 A 
ATOM      9  C   UNL A   1      31.736  22.693  23.402  1.00  0.00     0.028 A 
ATOM     10  C   UNL A   1      32.485  23.186  25.628  1.00  0.00     0.041 A 
ATOM     11  C   UNL A   1      32.597  21.607  23.340  1.00  0.00     0.023 A 
ATOM     12  C   UNL A   1      33.322  21.244  24.471  1.00  0.00     0.053 A 
ATOM     13  Cl  UNL A   1      33.897  19.615  24.520  1.00  0.00    -0.083 Cl
BRANCH   8  14
ATOM     14  N   UNL A   1      30.414  24.136  24.820  1.00  0.00    -0.326 N 
ATOM     15  C   UNL A   1      30.333  25.496  24.991  1.00  0.00     0.230 C 
ATOM     16  O   UNL A   1      29.236  25.951  25.342  1.00  0.00    -0.274 OA
ATOM     17  H   UNL A   1      29.559  23.650  24.850  1.00  0.00     0.169 HD
BRANCH  15  18
ATOM     18  C   UNL A   1      31.473  26.487  24.672  1.00  0.00     0.110 C 
ATOM     19  C   UNL A   1      33.749  26.817  25.759  1.00  0.00     0.039 C 
ATOM     20  C   UNL A   1      32.240  27.001  25.887  1.00  0.00     0.127 C 
ATOM     21  O   UNL A   1      31.980  28.410  25.969  1.00  0.00    -0.378 OA
ATOM     22  C   UNL A   1      31.682  28.887  24.656  1.00  0.00     0.161 C 
ATOM     23  C   UNL A   1      31.116  27.721  23.867  1.00  0.00     0.044 C 
ENDBRANCH  15  18
ENDBRANCH   8  14
ENDBRANCH   4   7
ENDBRANCH   2   3
ENDBRANCH   1   2
BRANCH   1  24
ATOM     24  C   UNL A   1      37.437  21.175  24.823  1.00  0.00     0.023 C 
BRANCH  24  25
ATOM     25  C   UNL A   1      38.664  21.248  25.729  1.00  0.00     0.116 C 
BRANCH  25  26
ATOM     26  N   UNL A   1      39.552  20.095  25.638  1.00  0.00    -0.352 N 
ATOM     27  C   UNL A   1      40.869  19.953  26.011  1.00  0.00     0.251 C 
ATOM     28  H   UNL A   1      39.145  19.290  25.246  1.00  0.00     0.163 HD
ATOM     29  O   UNL A   1      41.462  18.898  25.799  1.00  0.00    -0.269 OA
BRANCH  27  30
ATOM     30  C   UNL A   1      41.595  21.091  26.615  1.00  0.00     0.039 A 
ATOM     31  C   UNL A   1      42.186  22.033  25.769  1.00  0.00     0.014 A 
ATOM     32  C   UNL A   1      41.644  21.263  28.000  1.00  0.00     0.014 A 
ATOM     33  C   UNL A   1      42.708  23.212  26.305  1.00  0.00     0.010 A 
ATOM     34  C   UNL A   1      42.086  22.473  28.525  1.00  0.00     0.010 A 
ATOM     35  C   UNL A   1      42.596  23.472  27.681  1.00  0.00    -0.014 A 
BRANCH  35  36
ATOM     36  C   UNL A   1      42.942  24.799  28.250  1.00  0.00     0.031 A 
ATOM     37  C   UNL A   1      41.877  25.836  28.464  1.00  0.00     0.074 A 
ATOM     38  C   UNL A   1      44.236  25.106  28.474  1.00  0.00     0.049 A 
ATOM     39  N   UNL A   1      42.004  27.087  28.826  1.00  0.00    -0.248 NA
ATOM     40  C   UNL A   1      40.490  25.420  28.208  1.00  0.00     0.031 C 
ATOM     41  C   UNL A   1      45.372  24.207  28.256  1.00  0.00     0.029 A 
ATOM     42  N   UNL A   1      44.817  26.269  28.917  1.00  0.00    -0.354 N 
ATOM     43  C   UNL A   1      40.719  27.612  28.821  1.00  0.00     0.074 A 
ATOM     44  C   UNL A   1      39.833  26.558  28.378  1.00  0.00     0.031 C 
ATOM     45  C   UNL A   1      46.508  24.845  28.581  1.00  0.00     0.029 A 
ATOM     46  C   UNL A   1      46.188  26.209  28.987  1.00  0.00     0.049 A 
ATOM     47  H   UNL A   1      44.299  27.071  29.160  1.00  0.00     0.167 HD
ATOM     48  C   UNL A   1      40.313  28.856  29.171  1.00  0.00     0.037 A 
ATOM     49  C   UNL A   1      47.089  27.151  29.325  1.00  0.00     0.037 A 
ATOM     50  C   UNL A   1      41.191  29.895  29.640  1.00  0.00     0.049 A 
ATOM     51  C   UNL A   1      46.613  28.525  29.702  1.00  0.00     0.074 A 
ATOM     52  C   UNL A   1      40.862  31.161  30.093  1.00  0.00     0.029 A 
ATOM     53  N   UNL A   1      42.571  29.788  29.715  1.00  0.00    -0.354 N 
ATOM     54  N   UNL A   1      45.388  28.987  29.758  1.00  0.00    -0.248 NA
ATOM     55  C   UNL A   1      47.644  29.509  30.061  1.00  0.00     0.031 C 
ATOM     56  C   UNL A   1      42.048  31.834  30.406  1.00  0.00     0.029 A 
ATOM     57  C   UNL A   1      43.111  30.975  30.184  1.00  0.00     0.049 A 
ATOM     58  H   UNL A   1      43.091  28.989  29.471  1.00  0.00     0.167 HD
ATOM     59  C   UNL A   1      45.498  30.307  30.175  1.00  0.00     0.074 A 
ATOM     60  C   UNL A   1      46.909  30.568  30.372  1.00  0.00     0.031 C 
ATOM     61  C   UNL A   1      44.517  31.220  30.374  1.00  0.00     0.037 A 
BRANCH  48  62
ATOM     62  C   UNL A   1      38.848  29.158  29.064  1.00  0.00     0.057 A 
ATOM     63  C   UNL A   1      37.998  29.083  30.176  1.00  0.00     0.134 A 
ATOM     64  C   UNL A   1      38.287  29.562  27.847  1.00  0.00     0.134 A 
ATOM     65  F   UNL A   1      38.472  28.691  31.369  1.00  0.00    -0.206 F 
ATOM     66  C   UNL A   1      36.637  29.374  30.074  1.00  0.00     0.040 A 
ATOM     67  C   UNL A   1      36.932  29.879  27.738  1.00  0.00     0.040 A 
ATOM     68  F   UNL A   1      39.047  29.661  26.746  1.00  0.00    -0.206 F 
ATOM     69  C   UNL A   1      36.102  29.780  28.854  1.00  0.00     0.006 A 
ENDBRANCH  48  62
BRANCH  49  70
ATOM     70  C   UNL A   1      48.537  26.825  29.332  1.00  0.00     0.057 A 
ATOM     71  C   UNL A   1      49.146  26.289  30.471  1.00  0.00     0.134 A 
ATOM     72  C   UNL A   1      49.343  27.043  28.208  1.00  0.00     0.134 A 
ATOM     73  F   UNL A   1      48.428  26.078  31.584  1.00  0.00    -0.206 F 
ATOM     74  C   UNL A   1      50.510  25.993  30.500  1.00  0.00     0.040 A 
ATOM     75  C   UNL A   1      50.704  26.732  28.215  1.00  0.00     0.040 A 
ATOM     76  F   UNL A   1      48.816  27.548  27.084  1.00  0.00    -0.206 F 
ATOM     77  C   UNL A   1      51.292  26.211  29.367  1.00  0.00     0.006 A 
ENDBRANCH  49  70
BRANCH  61  78
ATOM     78  C   UNL A   1      44.933  32.580  30.849  1.00  0.00     0.057 A 
ATOM     79  C   UNL A   1      45.200  33.621  29.953  1.00  0.00     0.134 A 
ATOM     80  C   UNL A   1      45.022  32.862  32.218  1.00  0.00     0.134 A 
ATOM     81  F   UNL A   1      45.145  33.408  28.628  1.00  0.00    -0.206 F 
ATOM     82  C   UNL A   1      45.554  34.894  30.400  1.00  0.00     0.040 A 
ATOM     83  C   UNL A   1      45.354  34.136  32.678  1.00  0.00     0.040 A 
ATOM     84  F   UNL A   1      44.774  31.909  33.128  1.00  0.00    -0.206 F 
ATOM     85  C   UNL A   1      45.623  35.156  31.767  1.00  0.00     0.006 A 
ENDBRANCH  61  78
ENDBRANCH  35  36
ENDBRANCH  27  30
ENDBRANCH  25  26
ENDBRANCH  24  25
ENDBRANCH   1  24
TORSDOF 13
ENDMDL
MODEL 3
REMARK VINA RESULT:     -12.3      1.741      6.338
REMARK SMILES C[C@H]1OCC[C@@H]1C(=O)Nc1ccc(Cl)c(C(=O)NCCCCNC(=O)c2ccc(-c3c4nc(c(-c5c(F)cccc5F)c5ccc([nH]5)c(-c5c(F)cccc5F)c5nc(c(-c6c(F)cccc6F)c6ccc3[nH]6)C=C5)C=C4)cc2)c1
REMARK SMILES IDX 20 1 19 2 18 3 16 4 17 5 15 7 10 8 11 9 80 10 12 11 13 12
REMARK SMILES IDX 14 13 9 14 7 15 8 16 6 18 1 19 2 20 3 21 4 22 5 23 21 24
REMARK SMILES IDX 22 25 23 26 24 27 25 29 26 30 27 31 79 32 28 33 78 34 29 35
REMARK SMILES IDX 30 36 31 37 72 38 32 39 77 40 71 41 73 42 33 43 76 44 70 45
REMARK SMILES IDX 69 46 34 48 60 49 43 50 59 51 44 52 47 53 58 54 74 55 45 56
REMARK SMILES IDX 46 57 57 59 75 60 48 61 35 62 36 63 41 64 37 65 38 66 40 67
REMARK SMILES IDX 42 68 39 69 61 70 62 71 67 72 63 73 64 74 66 75 68 76 65 77
REMARK SMILES IDX 49 78 50 79 55 80 51 81 52 82 54 83 56 84 53 85
REMARK H PARENT 18 6 9 17 23 28 73 47 47 58
REMARK Flexibility Score: inf
ROOT
ATOM      1  C   UNL A   1      31.858  29.317  27.106  1.00  0.00     0.023 C 
ENDROOT
BRANCH   1   2
ATOM      2  C   UNL A   1      32.886  28.288  26.668  1.00  0.00     0.116 C 
BRANCH   2   3
ATOM      3  N   UNL A   1      32.550  26.898  26.921  1.00  0.00    -0.352 N 
ATOM      4  C   UNL A   1      32.038  25.953  26.053  1.00  0.00     0.252 C 
ATOM      5  O   UNL A   1      31.889  24.799  26.449  1.00  0.00    -0.269 OA
ATOM      6  H   UNL A   1      32.708  26.585  27.841  1.00  0.00     0.163 HD
BRANCH   4   7
ATOM      7  C   UNL A   1      31.541  26.326  24.704  1.00  0.00     0.060 A 
ATOM      8  C   UNL A   1      29.786  27.362  23.405  1.00  0.00     0.042 A 
ATOM      9  C   UNL A   1      30.652  27.454  22.326  1.00  0.00     0.028 A 
ATOM     10  C   UNL A   1      30.277  26.941  24.640  1.00  0.00     0.041 A 
ATOM     11  C   UNL A   1      31.865  26.779  22.361  1.00  0.00     0.023 A 
ATOM     12  C   UNL A   1      32.228  26.087  23.512  1.00  0.00     0.053 A 
ATOM     13  Cl  UNL A   1      33.404  24.836  23.311  1.00  0.00    -0.083 Cl
BRANCH   8  14
ATOM     14  N   UNL A   1      28.428  27.647  23.251  1.00  0.00    -0.326 N 
ATOM     15  C   UNL A   1      27.823  28.867  23.078  1.00  0.00     0.230 C 
ATOM     16  O   UNL A   1      26.587  28.891  23.143  1.00  0.00    -0.274 OA
ATOM     17  H   UNL A   1      27.825  26.869  23.269  1.00  0.00     0.169 HD
BRANCH  15  18
ATOM     18  C   UNL A   1      28.567  30.166  22.704  1.00  0.00     0.110 C 
ATOM     19  C   UNL A   1      29.472  32.047  24.160  1.00  0.00     0.039 C 
ATOM     20  C   UNL A   1      28.233  31.374  23.577  1.00  0.00     0.127 C 
ATOM     21  O   UNL A   1      27.582  32.328  22.723  1.00  0.00    -0.378 OA
ATOM     22  C   UNL A   1      28.032  32.110  21.385  1.00  0.00     0.161 C 
ATOM     23  C   UNL A   1      28.440  30.653  21.274  1.00  0.00     0.044 C 
ENDBRANCH  15  18
ENDBRANCH   8  14
ENDBRANCH   4   7
ENDBRANCH   2   3
ENDBRANCH   1   2
BRANCH   1  24
ATOM     24  C   UNL A   1      32.031  30.725  26.548  1.00  0.00     0.023 C 
BRANCH  24  25
ATOM     25  C   UNL A   1      33.038  31.627  27.257  1.00  0.00     0.116 C 
BRANCH  25  26
ATOM     26  N   UNL A   1      32.556  32.978  27.522  1.00  0.00    -0.352 N 
ATOM     27  C   UNL A   1      33.112  33.990  28.271  1.00  0.00     0.251 C 
ATOM     28  H   UNL A   1      31.697  33.201  27.098  1.00  0.00     0.163 HD
ATOM     29  O   UNL A   1      32.513  35.053  28.414  1.00  0.00    -0.269 OA
BRANCH  27  30
ATOM     30  C   UNL A   1      34.404  33.781  28.958  1.00  0.00     0.039 A 
ATOM     31  C   UNL A   1      34.414  33.084  30.169  1.00  0.00     0.014 A 
ATOM     32  C   UNL A   1      35.603  34.213  28.387  1.00  0.00     0.014 A 
ATOM     33  C   UNL A   1      35.631  32.706  30.739  1.00  0.00     0.010 A 
ATOM     34  C   UNL A   1      36.812  33.764  28.910  1.00  0.00     0.010 A 
ATOM     35  C   UNL A   1      36.837  32.981  30.074  1.00  0.00    -0.014 A 
BRANCH  35  36
ATOM     36  C   UNL A   1      38.127  32.409  30.538  1.00  0.00     0.031 A 
ATOM     37  C   UNL A   1      38.652  31.135  29.941  1.00  0.00     0.074 A 
ATOM     38  C   UNL A   1      38.771  32.982  31.575  1.00  0.00     0.049 A 
ATOM     39  N   UNL A   1      39.686  30.418  30.303  1.00  0.00    -0.248 NA
ATOM     40  C   UNL A   1      37.900  30.578  28.807  1.00  0.00     0.031 C 
ATOM     41  C   UNL A   1      38.338  34.192  32.279  1.00  0.00     0.029 A 
ATOM     42  N   UNL A   1      39.919  32.612  32.231  1.00  0.00    -0.354 N 
ATOM     43  C   UNL A   1      39.695  29.318  29.457  1.00  0.00     0.074 A 
ATOM     44  C   UNL A   1      38.541  29.438  28.593  1.00  0.00     0.031 C 
ATOM     45  C   UNL A   1      39.215  34.472  33.256  1.00  0.00     0.029 A 
ATOM     46  C   UNL A   1      40.249  33.442  33.276  1.00  0.00     0.049 A 
ATOM     47  H   UNL A   1      40.455  31.827  31.977  1.00  0.00     0.167 HD
ATOM     48  C   UNL A   1      40.595  28.307  29.395  1.00  0.00     0.037 A 
ATOM     49  C   UNL A   1      41.259  33.372  34.164  1.00  0.00     0.037 A 
ATOM     50  C   UNL A   1      41.760  28.204  30.233  1.00  0.00     0.049 A 
ATOM     51  C   UNL A   1      42.239  32.238  34.078  1.00  0.00     0.074 A 
ATOM     52  C   UNL A   1      42.771  27.259  30.191  1.00  0.00     0.029 A 
ATOM     53  N   UNL A   1      42.067  29.074  31.268  1.00  0.00    -0.354 N 
ATOM     54  N   UNL A   1      42.273  31.240  33.228  1.00  0.00    -0.248 NA
ATOM     55  C   UNL A   1      43.320  32.217  35.074  1.00  0.00     0.031 C 
ATOM     56  C   UNL A   1      43.671  27.537  31.225  1.00  0.00     0.029 A 
ATOM     57  C   UNL A   1      43.240  28.675  31.887  1.00  0.00     0.049 A 
ATOM     58  H   UNL A   1      41.532  29.859  31.524  1.00  0.00     0.167 HD
ATOM     59  C   UNL A   1      43.386  30.485  33.574  1.00  0.00     0.074 A 
ATOM     60  C   UNL A   1      44.008  31.147  34.702  1.00  0.00     0.031 C 
ATOM     61  C   UNL A   1      43.847  29.344  33.008  1.00  0.00     0.037 A 
BRANCH  48  62
ATOM     62  C   UNL A   1      40.356  27.233  28.376  1.00  0.00     0.057 A 
ATOM     63  C   UNL A   1      40.964  27.267  27.114  1.00  0.00     0.134 A 
ATOM     64  C   UNL A   1      39.536  26.136  28.670  1.00  0.00     0.134 A 
ATOM     65  F   UNL A   1      41.751  28.297  26.766  1.00  0.00    -0.206 F 
ATOM     66  C   UNL A   1      40.746  26.260  26.172  1.00  0.00     0.040 A 
ATOM     67  C   UNL A   1      39.330  25.112  27.746  1.00  0.00     0.040 A 
ATOM     68  F   UNL A   1      38.929  26.040  29.863  1.00  0.00    -0.206 F 
ATOM     69  C   UNL A   1      39.932  25.175  26.490  1.00  0.00     0.006 A 
ENDBRANCH  48  62
BRANCH  49  70
ATOM     70  C   UNL A   1      41.402  34.417  35.209  1.00  0.00     0.057 A 
ATOM     71  C   UNL A   1      42.174  35.560  34.980  1.00  0.00     0.134 A 
ATOM     72  C   UNL A   1      40.778  34.296  36.456  1.00  0.00     0.134 A 
ATOM     73  F   UNL A   1      42.812  35.720  33.811  1.00  0.00    -0.206 F 
ATOM     74  C   UNL A   1      42.334  36.543  35.958  1.00  0.00     0.040 A 
ATOM     75  C   UNL A   1      40.910  35.281  37.437  1.00  0.00     0.040 A 
ATOM     76  F   UNL A   1      40.019  33.226  36.734  1.00  0.00    -0.206 F 
ATOM     77  C   UNL A   1      41.696  36.406  37.190  1.00  0.00     0.006 A 
ENDBRANCH  49  70
BRANCH  61  78
ATOM     78  C   UNL A   1      45.097  28.749  33.585  1.00  0.00     0.057 A 
ATOM     79  C   UNL A   1      45.051  27.775  34.589  1.00  0.00     0.134 A 
ATOM     80  C   UNL A   1      46.356  29.123  33.099  1.00  0.00     0.134 A 
ATOM     81  F   UNL A   1      43.875  27.387  35.106  1.00  0.00    -0.206 F 
ATOM     82  C   UNL A   1      46.216  27.200  35.099  1.00  0.00     0.040 A 
ATOM     83  C   UNL A   1      47.526  28.540  33.586  1.00  0.00     0.040 A 
ATOM     84  F   UNL A   1      46.467  30.048  32.134  1.00  0.00    -0.206 F 
ATOM     85  C   UNL A   1      47.458  27.578  34.591  1.00  0.00     0.006 A 
ENDBRANCH  61  78
ENDBRANCH  35  36
ENDBRANCH  27  30
ENDBRANCH  25  26
ENDBRANCH  24  25
ENDBRANCH   1  24
TORSDOF 13
ENDMDL
