MODEL 1
REMARK VINA RESULT:     -13.2      0.000      0.000
REMARK SMILES Cc1ccc(C(=O)c2cccc(C)c2C(=O)NCCCCNC(=O)c2ccc(-c3c4nc(c(-c5c(F)cccc5F)c5ccc([nH]5)c(-c5c(F)cccc5F)c5nc(c(-c6c(F)cccc6F)c6ccc3[nH]6)C=C5)C=C4)cc2)c(C)c1
REMARK SMILES IDX 19 1 18 2 17 3 15 4 16 5 14 7 8 8 9 9 10 10 12 11 11 12
REMARK SMILES IDX 13 13 6 14 7 15 5 16 1 17 2 18 3 19 81 20 4 21 79 22 80 23
REMARK SMILES IDX 20 24 21 25 22 26 23 27 24 29 25 30 26 31 78 32 27 33 77 34
REMARK SMILES IDX 28 35 29 36 30 37 71 38 31 39 76 40 70 41 72 42 32 43 75 44
REMARK SMILES IDX 69 45 68 46 33 48 59 49 42 50 58 51 43 52 46 53 57 54 73 55
REMARK SMILES IDX 44 56 45 57 56 59 74 60 47 61 34 62 35 63 40 64 36 65 37 66
REMARK SMILES IDX 39 67 41 68 38 69 60 70 61 71 66 72 62 73 63 74 65 75 67 76
REMARK SMILES IDX 64 77 48 78 49 79 54 80 50 81 51 82 53 83 55 84 52 85
REMARK H PARENT 17 6 22 28 72 47 46 58
REMARK Flexibility Score: inf
ROOT
ATOM      1  C   UNL A   1      32.089  30.768  27.118  1.00  0.00     0.023 C 
ENDROOT
BRANCH   1   2
ATOM      2  C   UNL A   1      31.569  30.531  25.700  1.00  0.00     0.116 C 
BRANCH   2   3
ATOM      3  N   UNL A   1      32.392  29.712  24.833  1.00  0.00    -0.352 N 
ATOM      4  C   UNL A   1      32.078  28.678  23.967  1.00  0.00     0.252 C 
ATOM      5  O   UNL A   1      32.982  28.312  23.214  1.00  0.00    -0.269 OA
ATOM      6  H   UNL A   1      33.351  29.930  24.866  1.00  0.00     0.163 HD
BRANCH   4   7
ATOM      7  C   UNL A   1      30.769  27.930  23.983  1.00  0.00     0.053 A 
ATOM      8  C   UNL A   1      30.538  26.789  24.775  1.00  0.00     0.036 A 
ATOM      9  C   UNL A   1      29.320  26.087  24.713  1.00  0.00     0.013 A 
ATOM     10  C   UNL A   1      28.303  26.522  23.877  1.00  0.00     0.001 A 
ATOM     11  C   UNL A   1      29.674  28.435  23.232  1.00  0.00    -0.038 A 
ATOM     12  C   UNL A   1      28.466  27.708  23.171  1.00  0.00     0.004 A 
ATOM     13  C   UNL A   1      29.690  29.790  22.567  1.00  0.00     0.045 C 
BRANCH   8  14
ATOM     14  C   UNL A   1      31.419  26.479  25.911  1.00  0.00     0.194 C 
ATOM     15  O   UNL A   1      31.159  27.092  26.942  1.00  0.00    -0.289 OA
BRANCH  14  16
ATOM     16  C   UNL A   1      32.516  25.449  25.847  1.00  0.00     0.025 A 
ATOM     17  C   UNL A   1      35.555  22.408  25.340  1.00  0.00     0.044 C 
ATOM     18  C   UNL A   1      34.532  23.484  25.552  1.00  0.00    -0.051 A 
ATOM     19  C   UNL A   1      34.832  24.830  25.358  1.00  0.00     0.004 A 
ATOM     20  C   UNL A   1      33.242  23.140  25.961  1.00  0.00     0.007 A 
ATOM     21  C   UNL A   1      33.832  25.800  25.495  1.00  0.00     0.013 A 
ATOM     22  C   UNL A   1      32.249  24.111  26.180  1.00  0.00    -0.040 A 
ATOM     23  C   UNL A   1      30.946  23.648  26.768  1.00  0.00     0.045 C 
ENDBRANCH  14  16
ENDBRANCH   8  14
ENDBRANCH   4   7
ENDBRANCH   2   3
ENDBRANCH   1   2
BRANCH   1  24
ATOM     24  C   UNL A   1      33.375  31.574  27.253  1.00  0.00     0.023 C 
BRANCH  24  25
ATOM     25  C   UNL A   1      34.610  30.798  27.709  1.00  0.00     0.116 C 
BRANCH  25  26
ATOM     26  N   UNL A   1      35.589  31.614  28.434  1.00  0.00    -0.352 N 
ATOM     27  C   UNL A   1      36.863  31.300  28.879  1.00  0.00     0.251 C 
ATOM     28  H   UNL A   1      35.295  32.531  28.637  1.00  0.00     0.163 HD
ATOM     29  O   UNL A   1      37.578  32.177  29.363  1.00  0.00    -0.269 OA
BRANCH  27  30
ATOM     30  C   UNL A   1      37.425  29.948  28.648  1.00  0.00     0.039 A 
ATOM     31  C   UNL A   1      37.420  29.033  29.709  1.00  0.00     0.014 A 
ATOM     32  C   UNL A   1      38.137  29.662  27.490  1.00  0.00     0.014 A 
ATOM     33  C   UNL A   1      38.362  28.011  29.725  1.00  0.00     0.010 A 
ATOM     34  C   UNL A   1      39.162  28.741  27.564  1.00  0.00     0.010 A 
ATOM     35  C   UNL A   1      39.327  27.978  28.723  1.00  0.00    -0.014 A 
BRANCH  35  36
ATOM     36  C   UNL A   1      40.627  27.338  28.899  1.00  0.00     0.031 A 
ATOM     37  C   UNL A   1      40.845  25.933  28.502  1.00  0.00     0.074 A 
ATOM     38  C   UNL A   1      41.663  28.115  29.289  1.00  0.00     0.049 A 
ATOM     39  N   UNL A   1      41.845  25.208  28.877  1.00  0.00    -0.248 NA
ATOM     40  C   UNL A   1      39.892  25.209  27.671  1.00  0.00     0.031 C 
ATOM     41  C   UNL A   1      43.089  27.834  29.155  1.00  0.00     0.029 A 
ATOM     42  N   UNL A   1      41.608  29.289  30.065  1.00  0.00    -0.354 N 
ATOM     43  C   UNL A   1      41.812  24.034  28.155  1.00  0.00     0.074 A 
ATOM     44  C   UNL A   1      40.546  24.063  27.460  1.00  0.00     0.031 C 
ATOM     45  C   UNL A   1      43.766  28.621  30.008  1.00  0.00     0.029 A 
ATOM     46  C   UNL A   1      42.778  29.277  30.852  1.00  0.00     0.049 A 
ATOM     47  H   UNL A   1      40.901  29.973  30.061  1.00  0.00     0.167 HD
ATOM     48  C   UNL A   1      42.915  23.229  28.128  1.00  0.00     0.037 A 
ATOM     49  C   UNL A   1      42.743  29.164  32.213  1.00  0.00     0.037 A 
ATOM     50  C   UNL A   1      43.964  23.748  29.003  1.00  0.00     0.049 A 
ATOM     51  C   UNL A   1      43.526  27.995  32.740  1.00  0.00     0.074 A 
ATOM     52  C   UNL A   1      45.067  24.549  28.752  1.00  0.00     0.029 A 
ATOM     53  N   UNL A   1      43.793  23.732  30.383  1.00  0.00    -0.354 N 
ATOM     54  N   UNL A   1      43.760  26.910  32.057  1.00  0.00    -0.248 NA
ATOM     55  C   UNL A   1      44.073  27.949  34.092  1.00  0.00     0.031 C 
ATOM     56  C   UNL A   1      45.522  25.069  29.988  1.00  0.00     0.029 A 
ATOM     57  C   UNL A   1      44.713  24.565  30.993  1.00  0.00     0.049 A 
ATOM     58  H   UNL A   1      43.112  23.203  30.859  1.00  0.00     0.167 HD
ATOM     59  C   UNL A   1      44.422  26.019  32.856  1.00  0.00     0.074 A 
ATOM     60  C   UNL A   1      44.618  26.723  34.109  1.00  0.00     0.031 C 
ATOM     61  C   UNL A   1      44.724  24.759  32.434  1.00  0.00     0.037 A 
BRANCH  48  62
ATOM     62  C   UNL A   1      43.155  22.166  27.072  1.00  0.00     0.057 A 
ATOM     63  C   UNL A   1      42.406  20.972  27.066  1.00  0.00     0.134 A 
ATOM     64  C   UNL A   1      44.150  22.220  26.081  1.00  0.00     0.134 A 
ATOM     65  F   UNL A   1      41.336  20.804  27.855  1.00  0.00    -0.206 F 
ATOM     66  C   UNL A   1      42.713  19.878  26.244  1.00  0.00     0.040 A 
ATOM     67  C   UNL A   1      44.505  21.115  25.291  1.00  0.00     0.040 A 
ATOM     68  F   UNL A   1      44.783  23.362  25.784  1.00  0.00    -0.206 F 
ATOM     69  C   UNL A   1      43.797  19.928  25.383  1.00  0.00     0.006 A 
ENDBRANCH  48  62
BRANCH  49  70
ATOM     70  C   UNL A   1      41.503  29.660  32.863  1.00  0.00     0.057 A 
ATOM     71  C   UNL A   1      41.387  31.016  33.186  1.00  0.00     0.134 A 
ATOM     72  C   UNL A   1      40.325  28.910  32.850  1.00  0.00     0.134 A 
ATOM     73  F   UNL A   1      42.487  31.771  33.319  1.00  0.00    -0.206 F 
ATOM     74  C   UNL A   1      40.140  31.641  33.301  1.00  0.00     0.040 A 
ATOM     75  C   UNL A   1      39.072  29.516  33.005  1.00  0.00     0.040 A 
ATOM     76  F   UNL A   1      40.356  27.597  32.580  1.00  0.00    -0.206 F 
ATOM     77  C   UNL A   1      38.975  30.895  33.168  1.00  0.00     0.006 A 
ENDBRANCH  49  70
BRANCH  61  78
ATOM     78  C   UNL A   1      45.138  23.638  33.345  1.00  0.00     0.057 A 
ATOM     79  C   UNL A   1      46.416  23.540  33.921  1.00  0.00     0.134 A 
ATOM     80  C   UNL A   1      44.198  22.691  33.797  1.00  0.00     0.134 A 
ATOM     81  F   UNL A   1      47.370  24.449  33.674  1.00  0.00    -0.206 F 
ATOM     82  C   UNL A   1      46.756  22.530  34.828  1.00  0.00     0.040 A 
ATOM     83  C   UNL A   1      44.512  21.709  34.742  1.00  0.00     0.040 A 
ATOM     84  F   UNL A   1      42.930  22.696  33.361  1.00  0.00    -0.206 F 
ATOM     85  C   UNL A   1      45.800  21.615  35.249  1.00  0.00     0.006 A 
ENDBRANCH  61  78
ENDBRANCH  35  36
ENDBRANCH  27  30
ENDBRANCH  25  26
ENDBRANCH  24  25
ENDBRANCH   1  24
TORSDOF 13
ENDMDL
MODEL 2
REMARK VINA RESULT:     -12.8      4.165      9.625
REMARK SMILES Cc1ccc(C(=O)c2cccc(C)c2C(=O)NCCCCNC(=O)c2ccc(-c3c4nc(c(-c5c(F)cccc5F)c5ccc([nH]5)c(-c5c(F)cccc5F)c5nc(c(-c6c(F)cccc6F)c6ccc3[nH]6)C=C5)C=C4)cc2)c(C)c1
REMARK SMILES IDX 19 1 18 2 17 3 15 4 16 5 14 7 8 8 9 9 10 10 12 11 11 12
REMARK SMILES IDX 13 13 6 14 7 15 5 16 1 17 2 18 3 19 81 20 4 21 79 22 80 23
REMARK SMILES IDX 20 24 21 25 22 26 23 27 24 29 25 30 26 31 78 32 27 33 77 34
REMARK SMILES IDX 28 35 29 36 30 37 71 38 31 39 76 40 70 41 72 42 32 43 75 44
REMARK SMILES IDX 69 45 68 46 33 48 59 49 42 50 58 51 43 52 46 53 57 54 73 55
REMARK SMILES IDX 44 56 45 57 56 59 74 60 47 61 34 62 35 63 40 64 36 65 37 66
REMARK SMILES IDX 39 67 41 68 38 69 60 70 61 71 66 72 62 73 63 74 65 75 67 76
REMARK SMILES IDX 64 77 48 78 49 79 54 80 50 81 51 82 53 83 55 84 52 85
REMARK H PARENT 17 6 22 28 72 47 46 58
REMARK Flexibility Score: inf
ROOT
ATOM      1  C   UNL A   1      37.682  20.819  25.226  1.00  0.00     0.023 C 
ENDROOT
BRANCH   1   2
ATOM      2  C   UNL A   1      36.784  22.001  24.862  1.00  0.00     0.116 C 
BRANCH   2   3
ATOM      3  N   UNL A   1      35.733  22.335  25.802  1.00  0.00    -0.352 N 
ATOM      4  C   UNL A   1      34.363  22.141  25.765  1.00  0.00     0.252 C 
ATOM      5  O   UNL A   1      33.758  22.360  26.815  1.00  0.00    -0.269 OA
ATOM      6  H   UNL A   1      36.052  22.785  26.617  1.00  0.00     0.163 HD
BRANCH   4   7
ATOM      7  C   UNL A   1      33.592  21.800  24.515  1.00  0.00     0.053 A 
ATOM      8  C   UNL A   1      33.257  22.748  23.528  1.00  0.00     0.036 A 
ATOM      9  C   UNL A   1      32.483  22.397  22.406  1.00  0.00     0.013 A 
ATOM     10  C   UNL A   1      32.048  21.092  22.236  1.00  0.00     0.001 A 
ATOM     11  C   UNL A   1      33.249  20.445  24.260  1.00  0.00    -0.038 A 
ATOM     12  C   UNL A   1      32.459  20.117  23.137  1.00  0.00     0.004 A 
ATOM     13  C   UNL A   1      33.783  19.296  25.080  1.00  0.00     0.045 C 
BRANCH   8  14
ATOM     14  C   UNL A   1      33.958  24.039  23.466  1.00  0.00     0.194 C 
ATOM     15  O   UNL A   1      34.953  24.047  22.750  1.00  0.00    -0.289 OA
BRANCH  14  16
ATOM     16  C   UNL A   1      33.468  25.277  24.171  1.00  0.00     0.025 A 
ATOM     17  C   UNL A   1      31.779  28.651  26.292  1.00  0.00     0.044 C 
ATOM     18  C   UNL A   1      32.411  27.504  25.563  1.00  0.00    -0.051 A 
ATOM     19  C   UNL A   1      33.405  26.722  26.145  1.00  0.00     0.004 A 
ATOM     20  C   UNL A   1      32.006  27.207  24.260  1.00  0.00     0.007 A 
ATOM     21  C   UNL A   1      33.920  25.615  25.460  1.00  0.00     0.013 A 
ATOM     22  C   UNL A   1      32.571  26.148  23.529  1.00  0.00    -0.040 A 
ATOM     23  C   UNL A   1      32.176  26.013  22.085  1.00  0.00     0.045 C 
ENDBRANCH  14  16
ENDBRANCH   8  14
ENDBRANCH   4   7
ENDBRANCH   2   3
ENDBRANCH   1   2
BRANCH   1  24
ATOM     24  C   UNL A   1      39.056  21.147  25.794  1.00  0.00     0.023 C 
BRANCH  24  25
ATOM     25  C   UNL A   1      39.288  22.603  26.196  1.00  0.00     0.116 C 
BRANCH  25  26
ATOM     26  N   UNL A   1      40.628  22.865  26.730  1.00  0.00    -0.352 N 
ATOM     27  C   UNL A   1      41.166  24.020  27.276  1.00  0.00     0.251 C 
ATOM     28  H   UNL A   1      41.245  22.098  26.696  1.00  0.00     0.163 HD
ATOM     29  O   UNL A   1      42.285  23.995  27.785  1.00  0.00    -0.269 OA
BRANCH  27  30
ATOM     30  C   UNL A   1      40.346  25.251  27.377  1.00  0.00     0.039 A 
ATOM     31  C   UNL A   1      40.620  26.309  26.500  1.00  0.00     0.014 A 
ATOM     32  C   UNL A   1      39.484  25.445  28.448  1.00  0.00     0.014 A 
ATOM     33  C   UNL A   1      40.286  27.605  26.878  1.00  0.00     0.010 A 
ATOM     34  C   UNL A   1      39.274  26.734  28.893  1.00  0.00     0.010 A 
ATOM     35  C   UNL A   1      39.758  27.813  28.148  1.00  0.00    -0.014 A 
BRANCH  35  36
ATOM     36  C   UNL A   1      39.865  29.089  28.848  1.00  0.00     0.031 A 
ATOM     37  C   UNL A   1      38.801  30.107  28.744  1.00  0.00     0.074 A 
ATOM     38  C   UNL A   1      40.890  29.247  29.716  1.00  0.00     0.049 A 
ATOM     39  N   UNL A   1      38.933  31.347  29.077  1.00  0.00    -0.248 NA
ATOM     40  C   UNL A   1      37.488  29.799  28.190  1.00  0.00     0.031 C 
ATOM     41  C   UNL A   1      41.000  30.218  30.801  1.00  0.00     0.029 A 
ATOM     42  N   UNL A   1      42.154  28.629  29.668  1.00  0.00    -0.354 N 
ATOM     43  C   UNL A   1      37.686  31.935  29.028  1.00  0.00     0.074 A 
ATOM     44  C   UNL A   1      36.833  30.941  28.418  1.00  0.00     0.031 C 
ATOM     45  C   UNL A   1      42.292  30.331  31.149  1.00  0.00     0.029 A 
ATOM     46  C   UNL A   1      43.063  29.589  30.162  1.00  0.00     0.049 A 
ATOM     47  H   UNL A   1      42.362  27.720  29.355  1.00  0.00     0.167 HD
ATOM     48  C   UNL A   1      37.489  33.147  29.624  1.00  0.00     0.037 A 
ATOM     49  C   UNL A   1      44.036  30.144  29.381  1.00  0.00     0.037 A 
ATOM     50  C   UNL A   1      38.741  33.677  30.160  1.00  0.00     0.049 A 
ATOM     51  C   UNL A   1      43.969  31.644  29.312  1.00  0.00     0.074 A 
ATOM     52  C   UNL A   1      39.304  33.624  31.425  1.00  0.00     0.029 A 
ATOM     53  N   UNL A   1      39.750  34.091  29.296  1.00  0.00    -0.354 N 
ATOM     54  N   UNL A   1      42.875  32.331  29.480  1.00  0.00    -0.248 NA
ATOM     55  C   UNL A   1      45.128  32.478  29.012  1.00  0.00     0.031 C 
ATOM     56  C   UNL A   1      40.677  33.945  31.308  1.00  0.00     0.029 A 
ATOM     57  C   UNL A   1      40.946  34.220  29.978  1.00  0.00     0.049 A 
ATOM     58  H   UNL A   1      39.629  34.266  28.334  1.00  0.00     0.167 HD
ATOM     59  C   UNL A   1      43.148  33.655  29.271  1.00  0.00     0.074 A 
ATOM     60  C   UNL A   1      44.573  33.700  29.006  1.00  0.00     0.031 C 
ATOM     61  C   UNL A   1      42.171  34.605  29.295  1.00  0.00     0.037 A 
BRANCH  48  62
ATOM     62  C   UNL A   1      36.122  33.687  30.002  1.00  0.00     0.057 A 
ATOM     63  C   UNL A   1      35.231  34.152  29.014  1.00  0.00     0.134 A 
ATOM     64  C   UNL A   1      35.648  33.843  31.316  1.00  0.00     0.134 A 
ATOM     65  F   UNL A   1      35.463  33.964  27.708  1.00  0.00    -0.206 F 
ATOM     66  C   UNL A   1      34.044  34.838  29.311  1.00  0.00     0.040 A 
ATOM     67  C   UNL A   1      34.492  34.576  31.631  1.00  0.00     0.040 A 
ATOM     68  F   UNL A   1      36.243  33.241  32.353  1.00  0.00    -0.206 F 
ATOM     69  C   UNL A   1      33.693  35.094  30.626  1.00  0.00     0.006 A 
ENDBRANCH  48  62
BRANCH  49  70
ATOM     70  C   UNL A   1      44.498  29.307  28.244  1.00  0.00     0.057 A 
ATOM     71  C   UNL A   1      45.478  28.333  28.456  1.00  0.00     0.134 A 
ATOM     72  C   UNL A   1      43.757  29.213  27.063  1.00  0.00     0.134 A 
ATOM     73  F   UNL A   1      46.295  28.422  29.516  1.00  0.00    -0.206 F 
ATOM     74  C   UNL A   1      45.589  27.208  27.631  1.00  0.00     0.040 A 
ATOM     75  C   UNL A   1      43.887  28.113  26.206  1.00  0.00     0.040 A 
ATOM     76  F   UNL A   1      42.820  30.125  26.771  1.00  0.00    -0.206 F 
ATOM     77  C   UNL A   1      44.761  27.076  26.523  1.00  0.00     0.006 A 
ENDBRANCH  49  70
BRANCH  61  78
ATOM     78  C   UNL A   1      42.331  35.997  28.754  1.00  0.00     0.057 A 
ATOM     79  C   UNL A   1      43.032  37.013  29.425  1.00  0.00     0.134 A 
ATOM     80  C   UNL A   1      41.906  36.318  27.450  1.00  0.00     0.134 A 
ATOM     81  F   UNL A   1      43.598  36.804  30.622  1.00  0.00    -0.206 F 
ATOM     82  C   UNL A   1      43.235  38.280  28.868  1.00  0.00     0.040 A 
ATOM     83  C   UNL A   1      42.149  37.564  26.863  1.00  0.00     0.040 A 
ATOM     84  F   UNL A   1      41.262  35.427  26.682  1.00  0.00    -0.206 F 
ATOM     85  C   UNL A   1      42.801  38.557  27.579  1.00  0.00     0.006 A 
ENDBRANCH  61  78
ENDBRANCH  35  36
ENDBRANCH  27  30
ENDBRANCH  25  26
ENDBRANCH  24  25
ENDBRANCH   1  24
TORSDOF 13
ENDMDL
MODEL 3
REMARK VINA RESULT:     -12.6      1.332      2.040
REMARK SMILES Cc1ccc(C(=O)c2cccc(C)c2C(=O)NCCCCNC(=O)c2ccc(-c3c4nc(c(-c5c(F)cccc5F)c5ccc([nH]5)c(-c5c(F)cccc5F)c5nc(c(-c6c(F)cccc6F)c6ccc3[nH]6)C=C5)C=C4)cc2)c(C)c1
REMARK SMILES IDX 19 1 18 2 17 3 15 4 16 5 14 7 8 8 9 9 10 10 12 11 11 12
REMARK SMILES IDX 13 13 6 14 7 15 5 16 1 17 2 18 3 19 81 20 4 21 79 22 80 23
REMARK SMILES IDX 20 24 21 25 22 26 23 27 24 29 25 30 26 31 78 32 27 33 77 34
REMARK SMILES IDX 28 35 29 36 30 37 71 38 31 39 76 40 70 41 72 42 32 43 75 44
REMARK SMILES IDX 69 45 68 46 33 48 59 49 42 50 58 51 43 52 46 53 57 54 73 55
REMARK SMILES IDX 44 56 45 57 56 59 74 60 47 61 34 62 35 63 40 64 36 65 37 66
REMARK SMILES IDX 39 67 41 68 38 69 60 70 61 71 66 72 62 73 63 74 65 75 67 76
REMARK SMILES IDX 64 77 48 78 49 79 54 80 50 81 51 82 53 83 55 84 52 85
REMARK H PARENT 17 6 22 28 72 47 46 58
REMARK Flexibility Score: inf
ROOT
ATOM      1  C   UNL A   1      33.253  29.439  26.453  1.00  0.00     0.023 C 
ENDROOT
BRANCH   1   2
ATOM      2  C   UNL A   1      33.497  27.932  26.535  1.00  0.00     0.116 C 
BRANCH   2   3
ATOM      3  N   UNL A   1      32.328  27.090  26.685  1.00  0.00    -0.352 N 
ATOM      4  C   UNL A   1      31.782  26.111  25.872  1.00  0.00     0.252 C 
ATOM      5  O   UNL A   1      30.888  25.429  26.375  1.00  0.00    -0.269 OA
ATOM      6  H   UNL A   1      31.829  27.241  27.520  1.00  0.00     0.163 HD
BRANCH   4   7
ATOM      7  C   UNL A   1      32.137  25.926  24.419  1.00  0.00     0.053 A 
ATOM      8  C   UNL A   1      33.242  25.170  23.981  1.00  0.00     0.036 A 
ATOM      9  C   UNL A   1      33.571  25.074  22.616  1.00  0.00     0.013 A 
ATOM     10  C   UNL A   1      32.792  25.712  21.661  1.00  0.00     0.001 A 
ATOM     11  C   UNL A   1      31.278  26.463  23.422  1.00  0.00    -0.038 A 
ATOM     12  C   UNL A   1      31.634  26.369  22.060  1.00  0.00     0.004 A 
ATOM     13  C   UNL A   1      29.922  27.047  23.736  1.00  0.00     0.045 C 
BRANCH   8  14
ATOM     14  C   UNL A   1      33.893  24.209  24.883  1.00  0.00     0.194 C 
ATOM     15  O   UNL A   1      34.615  24.716  25.735  1.00  0.00    -0.289 OA
BRANCH  14  16
ATOM     16  C   UNL A   1      33.651  22.724  24.818  1.00  0.00     0.025 A 
ATOM     17  C   UNL A   1      33.056  18.439  24.967  1.00  0.00     0.044 C 
ATOM     18  C   UNL A   1      33.228  19.925  24.876  1.00  0.00    -0.051 A 
ATOM     19  C   UNL A   1      32.152  20.799  25.009  1.00  0.00     0.004 A 
ATOM     20  C   UNL A   1      34.497  20.460  24.644  1.00  0.00     0.007 A 
ATOM     21  C   UNL A   1      32.363  22.183  24.990  1.00  0.00     0.013 A 
ATOM     22  C   UNL A   1      34.712  21.846  24.543  1.00  0.00    -0.040 A 
ATOM     23  C   UNL A   1      36.084  22.307  24.138  1.00  0.00     0.045 C 
ENDBRANCH  14  16
ENDBRANCH   8  14
ENDBRANCH   4   7
ENDBRANCH   2   3
ENDBRANCH   1   2
BRANCH   1  24
ATOM     24  C   UNL A   1      34.401  30.346  26.876  1.00  0.00     0.023 C 
BRANCH  24  25
ATOM     25  C   UNL A   1      34.322  30.916  28.291  1.00  0.00     0.116 C 
BRANCH  25  26
ATOM     26  N   UNL A   1      35.431  31.812  28.634  1.00  0.00    -0.352 N 
ATOM     27  C   UNL A   1      36.780  31.543  28.807  1.00  0.00     0.251 C 
ATOM     28  H   UNL A   1      35.178  32.755  28.761  1.00  0.00     0.163 HD
ATOM     29  O   UNL A   1      37.574  32.468  28.972  1.00  0.00    -0.269 OA
BRANCH  27  30
ATOM     30  C   UNL A   1      37.292  30.161  28.654  1.00  0.00     0.039 A 
ATOM     31  C   UNL A   1      37.330  29.334  29.784  1.00  0.00     0.014 A 
ATOM     32  C   UNL A   1      37.926  29.762  27.484  1.00  0.00     0.014 A 
ATOM     33  C   UNL A   1      38.247  28.289  29.829  1.00  0.00     0.010 A 
ATOM     34  C   UNL A   1      38.930  28.820  27.571  1.00  0.00     0.010 A 
ATOM     35  C   UNL A   1      39.147  28.148  28.777  1.00  0.00    -0.014 A 
BRANCH  35  36
ATOM     36  C   UNL A   1      40.439  27.486  28.927  1.00  0.00     0.031 A 
ATOM     37  C   UNL A   1      40.616  26.066  28.565  1.00  0.00     0.074 A 
ATOM     38  C   UNL A   1      41.503  28.252  29.260  1.00  0.00     0.049 A 
ATOM     39  N   UNL A   1      41.613  25.332  28.927  1.00  0.00    -0.248 NA
ATOM     40  C   UNL A   1      39.620  25.339  27.788  1.00  0.00     0.031 C 
ATOM     41  C   UNL A   1      42.918  27.938  29.086  1.00  0.00     0.029 A 
ATOM     42  N   UNL A   1      41.498  29.448  30.003  1.00  0.00    -0.354 N 
ATOM     43  C   UNL A   1      41.532  24.138  28.241  1.00  0.00     0.074 A 
ATOM     44  C   UNL A   1      40.244  24.175  27.588  1.00  0.00     0.031 C 
ATOM     45  C   UNL A   1      43.639  28.734  29.892  1.00  0.00     0.029 A 
ATOM     46  C   UNL A   1      42.695  29.435  30.750  1.00  0.00     0.049 A 
ATOM     47  H   UNL A   1      40.806  30.147  30.002  1.00  0.00     0.167 HD
ATOM     48  C   UNL A   1      42.617  23.310  28.200  1.00  0.00     0.037 A 
ATOM     49  C   UNL A   1      42.704  29.361  32.114  1.00  0.00     0.037 A 
ATOM     50  C   UNL A   1      43.706  23.832  29.023  1.00  0.00     0.049 A 
ATOM     51  C   UNL A   1      43.482  28.191  32.647  1.00  0.00     0.074 A 
ATOM     52  C   UNL A   1      44.815  24.602  28.712  1.00  0.00     0.029 A 
ATOM     53  N   UNL A   1      43.583  23.859  30.409  1.00  0.00    -0.354 N 
ATOM     54  N   UNL A   1      43.670  27.083  31.990  1.00  0.00    -0.248 NA
ATOM     55  C   UNL A   1      44.074  28.173  33.981  1.00  0.00     0.031 C 
ATOM     56  C   UNL A   1      45.323  25.147  29.916  1.00  0.00     0.029 A 
ATOM     57  C   UNL A   1      44.539  24.689  30.962  1.00  0.00     0.049 A 
ATOM     58  H   UNL A   1      42.908  23.358  30.922  1.00  0.00     0.167 HD
ATOM     59  C   UNL A   1      44.341  26.202  32.791  1.00  0.00     0.074 A 
ATOM     60  C   UNL A   1      44.594  26.936  34.016  1.00  0.00     0.031 C 
ATOM     61  C   UNL A   1      44.604  24.923  32.396  1.00  0.00     0.037 A 
BRANCH  48  62
ATOM     62  C   UNL A   1      42.800  22.213  27.168  1.00  0.00     0.057 A 
ATOM     63  C   UNL A   1      42.028  21.035  27.221  1.00  0.00     0.134 A 
ATOM     64  C   UNL A   1      43.761  22.218  26.143  1.00  0.00     0.134 A 
ATOM     65  F   UNL A   1      40.982  20.912  28.050  1.00  0.00    -0.206 F 
ATOM     66  C   UNL A   1      42.284  19.912  26.422  1.00  0.00     0.040 A 
ATOM     67  C   UNL A   1      44.067  21.084  25.373  1.00  0.00     0.040 A 
ATOM     68  F   UNL A   1      44.406  23.338  25.791  1.00  0.00    -0.206 F 
ATOM     69  C   UNL A   1      43.339  19.916  25.524  1.00  0.00     0.006 A 
ENDBRANCH  48  62
BRANCH  49  70
ATOM     70  C   UNL A   1      41.497  29.902  32.791  1.00  0.00     0.057 A 
ATOM     71  C   UNL A   1      41.373  31.280  32.986  1.00  0.00     0.134 A 
ATOM     72  C   UNL A   1      40.337  29.136  32.927  1.00  0.00     0.134 A 
ATOM     73  F   UNL A   1      42.464  32.061  32.974  1.00  0.00    -0.206 F 
ATOM     74  C   UNL A   1      40.124  31.896  33.119  1.00  0.00     0.040 A 
ATOM     75  C   UNL A   1      39.084  29.736  33.102  1.00  0.00     0.040 A 
ATOM     76  F   UNL A   1      40.377  27.804  32.785  1.00  0.00    -0.206 F 
ATOM     77  C   UNL A   1      38.969  31.123  33.136  1.00  0.00     0.006 A 
ENDBRANCH  49  70
BRANCH  61  78
ATOM     78  C   UNL A   1      45.026  23.821  33.325  1.00  0.00     0.057 A 
ATOM     79  C   UNL A   1      46.327  23.700  33.843  1.00  0.00     0.134 A 
ATOM     80  C   UNL A   1      44.081  22.920  33.853  1.00  0.00     0.134 A 
ATOM     81  F   UNL A   1      47.295  24.569  33.520  1.00  0.00    -0.206 F 
ATOM     82  C   UNL A   1      46.678  22.711  34.767  1.00  0.00     0.040 A 
ATOM     83  C   UNL A   1      44.409  21.960  34.816  1.00  0.00     0.040 A 
ATOM     84  F   UNL A   1      42.794  22.951  33.477  1.00  0.00    -0.206 F 
ATOM     85  C   UNL A   1      45.717  21.841  35.264  1.00  0.00     0.006 A 
ENDBRANCH  61  78
ENDBRANCH  35  36
ENDBRANCH  27  30
ENDBRANCH  25  26
ENDBRANCH  24  25
ENDBRANCH   1  24
TORSDOF 13
ENDMDL
