MODEL 1
REMARK VINA RESULT:     -12.4      0.000      0.000
REMARK SMILES COc1cc2c(cc1OC)[C@H](C(=O)NCCCCNC(=O)c1ccc(-c3c4nc(c(-c5c(F)cccc5F)c5ccc([nH]5)c(-c5c(F)cccc5F)c5nc(c(-c6c(F)cccc6F)c6ccc3[nH]6)C=C5)C=C4)cc1)[C@@H](c1ccc(SC)cc1)N(C)C2=O
REMARK SMILES IDX 16 1 15 2 14 3 12 4 13 5 11 7 3 8 4 9 8 10 5 11 7 12 6 13
REMARK SMILES IDX 87 14 85 15 88 16 76 17 86 18 2 19 1 20 9 21 10 22 77 23
REMARK SMILES IDX 78 24 84 25 79 26 83 27 80 28 81 29 82 30 17 31 18 32 19 33
REMARK SMILES IDX 20 34 21 36 22 37 23 38 75 39 24 40 74 41 25 42 26 43 27 44
REMARK SMILES IDX 68 45 28 46 73 47 67 48 69 49 29 50 72 51 66 52 65 53 30 55
REMARK SMILES IDX 56 56 39 57 55 58 40 59 43 60 54 61 70 62 41 63 42 64 53 66
REMARK SMILES IDX 71 67 44 68 31 69 32 70 37 71 33 72 34 73 36 74 38 75 35 76
REMARK SMILES IDX 57 77 58 78 63 79 59 80 60 81 62 82 64 83 61 84 45 85 46 86
REMARK SMILES IDX 51 87 47 88 48 89 50 90 52 91 49 92
REMARK H PARENT 14 6 19 35 69 54 43 65
REMARK Flexibility Score: inf
ROOT
ATOM      1  C   UNL A   1      36.063  21.456  25.393  1.00  0.00     0.023 C 
ENDROOT
BRANCH   1   2
ATOM      2  C   UNL A   1      36.067  22.909  24.938  1.00  0.00     0.116 C 
BRANCH   2   3
ATOM      3  N   UNL A   1      35.438  23.103  23.638  1.00  0.00    -0.355 N 
ATOM      4  C   UNL A   1      34.213  23.659  23.353  1.00  0.00     0.230 C 
ATOM      5  O   UNL A   1      33.965  23.969  22.190  1.00  0.00    -0.274 OA
ATOM      6  H   UNL A   1      35.960  22.796  22.861  1.00  0.00     0.163 HD
BRANCH   4   7
ATOM      7  C   UNL A   1      33.237  23.898  24.503  1.00  0.00     0.136 C 
ATOM      8  C   UNL A   1      32.028  28.046  25.026  1.00  0.00     0.161 A 
ATOM      9  C   UNL A   1      31.270  26.990  25.554  1.00  0.00     0.064 A 
ATOM     10  C   UNL A   1      33.146  27.760  24.239  1.00  0.00     0.161 A 
ATOM     11  C   UNL A   1      31.651  25.654  25.352  1.00  0.00     0.048 A 
ATOM     12  C   UNL A   1      33.498  26.419  24.022  1.00  0.00     0.056 A 
ATOM     13  C   UNL A   1      32.785  25.351  24.595  1.00  0.00    -0.016 A 
ATOM     14  C   UNL A   1      30.846  24.571  25.982  1.00  0.00     0.254 C 
ATOM     15  N   UNL A   1      31.122  23.253  25.608  1.00  0.00    -0.334 N 
ATOM     16  O   UNL A   1      29.994  24.879  26.811  1.00  0.00    -0.269 OA
ATOM     17  C   UNL A   1      31.994  22.965  24.427  1.00  0.00     0.132 C 
ATOM     18  C   UNL A   1      30.313  22.209  26.223  1.00  0.00     0.147 C 
BRANCH   8  19
ATOM     19  O   UNL A   1      31.628  29.344  25.204  1.00  0.00    -0.493 OA
ATOM     20  C   UNL A   1      32.013  29.894  26.463  1.00  0.00     0.278 C 
ENDBRANCH   8  19
BRANCH  10  21
ATOM     21  O   UNL A   1      34.010  28.626  23.623  1.00  0.00    -0.493 OA
ATOM     22  C   UNL A   1      34.183  28.529  22.218  1.00  0.00     0.278 C 
ENDBRANCH  10  21
BRANCH  17  23
ATOM     23  C   UNL A   1      32.308  21.470  24.253  1.00  0.00    -0.024 A 
ATOM     24  C   UNL A   1      32.121  20.775  23.049  1.00  0.00     0.007 A 
ATOM     25  C   UNL A   1      32.792  20.737  25.353  1.00  0.00     0.007 A 
ATOM     26  C   UNL A   1      32.361  19.396  22.968  1.00  0.00     0.015 A 
ATOM     27  C   UNL A   1      33.072  19.365  25.256  1.00  0.00     0.015 A 
ATOM     28  C   UNL A   1      32.848  18.679  24.063  1.00  0.00     0.007 A 
BRANCH  28  29
ATOM     29  S   UNL A   1      33.083  16.919  23.848  1.00  0.00    -0.130 SA
ATOM     30  C   UNL A   1      34.626  16.605  24.744  1.00  0.00     0.091 C 
ENDBRANCH  28  29
ENDBRANCH  17  23
ENDBRANCH   4   7
ENDBRANCH   2   3
ENDBRANCH   1   2
BRANCH   1  31
ATOM     31  C   UNL A   1      37.278  20.639  24.955  1.00  0.00     0.023 C 
BRANCH  31  32
ATOM     32  C   UNL A   1      38.581  20.954  25.683  1.00  0.00     0.116 C 
BRANCH  32  33
ATOM     33  N   UNL A   1      39.543  19.863  25.634  1.00  0.00    -0.352 N 
ATOM     34  C   UNL A   1      40.876  19.859  25.975  1.00  0.00     0.251 C 
ATOM     35  H   UNL A   1      39.189  19.004  25.310  1.00  0.00     0.163 HD
ATOM     36  O   UNL A   1      41.568  18.871  25.748  1.00  0.00    -0.269 OA
BRANCH  34  37
ATOM     37  C   UNL A   1      41.485  21.063  26.579  1.00  0.00     0.039 A 
ATOM     38  C   UNL A   1      42.067  22.017  25.741  1.00  0.00     0.014 A 
ATOM     39  C   UNL A   1      41.457  21.266  27.961  1.00  0.00     0.014 A 
ATOM     40  C   UNL A   1      42.538  23.215  26.280  1.00  0.00     0.010 A 
ATOM     41  C   UNL A   1      41.857  22.492  28.488  1.00  0.00     0.010 A 
ATOM     42  C   UNL A   1      42.392  23.484  27.651  1.00  0.00    -0.014 A 
BRANCH  42  43
ATOM     43  C   UNL A   1      42.764  24.805  28.220  1.00  0.00     0.031 A 
ATOM     44  C   UNL A   1      41.722  25.868  28.424  1.00  0.00     0.074 A 
ATOM     45  C   UNL A   1      44.058  25.073  28.486  1.00  0.00     0.049 A 
ATOM     46  N   UNL A   1      41.868  27.098  28.850  1.00  0.00    -0.248 NA
ATOM     47  C   UNL A   1      40.337  25.513  28.082  1.00  0.00     0.031 C 
ATOM     48  C   UNL A   1      45.175  24.148  28.281  1.00  0.00     0.029 A 
ATOM     49  N   UNL A   1      44.655  26.207  28.978  1.00  0.00    -0.354 N 
ATOM     50  C   UNL A   1      40.601  27.664  28.814  1.00  0.00     0.074 A 
ATOM     51  C   UNL A   1      39.706  26.662  28.277  1.00  0.00     0.031 C 
ATOM     52  C   UNL A   1      46.316  24.742  28.664  1.00  0.00     0.029 A 
ATOM     53  C   UNL A   1      46.019  26.100  29.108  1.00  0.00     0.049 A 
ATOM     54  H   UNL A   1      44.153  27.020  29.215  1.00  0.00     0.167 HD
ATOM     55  C   UNL A   1      40.213  28.899  29.215  1.00  0.00     0.037 A 
ATOM     56  C   UNL A   1      46.930  26.997  29.531  1.00  0.00     0.037 A 
ATOM     57  C   UNL A   1      41.098  29.887  29.771  1.00  0.00     0.049 A 
ATOM     58  C   UNL A   1      46.474  28.363  29.965  1.00  0.00     0.074 A 
ATOM     59  C   UNL A   1      40.787  31.141  30.268  1.00  0.00     0.029 A 
ATOM     60  N   UNL A   1      42.470  29.735  29.902  1.00  0.00    -0.354 N 
ATOM     61  N   UNL A   1      45.260  28.857  29.999  1.00  0.00    -0.248 NA
ATOM     62  C   UNL A   1      47.514  29.295  30.424  1.00  0.00     0.031 C 
ATOM     63  C   UNL A   1      41.976  31.765  30.659  1.00  0.00     0.029 A 
ATOM     64  C   UNL A   1      43.022  30.883  30.448  1.00  0.00     0.049 A 
ATOM     65  H   UNL A   1      42.977  28.933  29.643  1.00  0.00     0.167 HD
ATOM     66  C   UNL A   1      45.387  30.144  30.504  1.00  0.00     0.074 A 
ATOM     67  C   UNL A   1      46.794  30.350  30.777  1.00  0.00     0.031 C 
ATOM     68  C   UNL A   1      44.424  31.073  30.721  1.00  0.00     0.037 A 
BRANCH  55  69
ATOM     69  C   UNL A   1      38.760  29.246  29.071  1.00  0.00     0.057 A 
ATOM     70  C   UNL A   1      38.211  29.627  27.839  1.00  0.00     0.134 A 
ATOM     71  C   UNL A   1      37.891  29.160  30.166  1.00  0.00     0.134 A 
ATOM     72  F   UNL A   1      38.991  29.738  26.753  1.00  0.00    -0.206 F 
ATOM     73  C   UNL A   1      36.856  29.936  27.707  1.00  0.00     0.040 A 
ATOM     74  C   UNL A   1      36.529  29.442  30.041  1.00  0.00     0.040 A 
ATOM     75  F   UNL A   1      38.349  28.794  31.373  1.00  0.00    -0.206 F 
ATOM     76  C   UNL A   1      36.010  29.837  28.810  1.00  0.00     0.006 A 
ENDBRANCH  55  69
BRANCH  56  77
ATOM     77  C   UNL A   1      48.367  26.629  29.588  1.00  0.00     0.057 A 
ATOM     78  C   UNL A   1      49.232  26.939  28.531  1.00  0.00     0.134 A 
ATOM     79  C   UNL A   1      48.907  25.950  30.687  1.00  0.00     0.134 A 
ATOM     80  F   UNL A   1      48.769  27.570  27.443  1.00  0.00    -0.206 F 
ATOM     81  C   UNL A   1      50.578  26.570  28.557  1.00  0.00     0.040 A 
ATOM     82  C   UNL A   1      50.257  25.598  30.736  1.00  0.00     0.040 A 
ATOM     83  F   UNL A   1      48.131  25.631  31.734  1.00  0.00    -0.206 F 
ATOM     84  C   UNL A   1      51.095  25.901  29.665  1.00  0.00     0.006 A 
ENDBRANCH  56  77
BRANCH  68  85
ATOM     85  C   UNL A   1      44.853  32.383  31.311  1.00  0.00     0.057 A 
ATOM     86  C   UNL A   1      44.929  32.580  32.695  1.00  0.00     0.134 A 
ATOM     87  C   UNL A   1      45.234  33.448  30.484  1.00  0.00     0.134 A 
ATOM     88  F   UNL A   1      44.564  31.606  33.543  1.00  0.00    -0.206 F 
ATOM     89  C   UNL A   1      45.350  33.796  33.237  1.00  0.00     0.040 A 
ATOM     90  C   UNL A   1      45.681  34.659  31.012  1.00  0.00     0.040 A 
ATOM     91  F   UNL A   1      45.192  33.322  29.149  1.00  0.00    -0.206 F 
ATOM     92  C   UNL A   1      45.734  34.838  32.393  1.00  0.00     0.006 A 
ENDBRANCH  68  85
ENDBRANCH  42  43
ENDBRANCH  34  37
ENDBRANCH  32  33
ENDBRANCH  31  32
ENDBRANCH   1  31
TORSDOF 15
ENDMDL
MODEL 2
REMARK VINA RESULT:     -12.3      3.151      8.054
REMARK SMILES COc1cc2c(cc1OC)[C@H](C(=O)NCCCCNC(=O)c1ccc(-c3c4nc(c(-c5c(F)cccc5F)c5ccc([nH]5)c(-c5c(F)cccc5F)c5nc(c(-c6c(F)cccc6F)c6ccc3[nH]6)C=C5)C=C4)cc1)[C@@H](c1ccc(SC)cc1)N(C)C2=O
REMARK SMILES IDX 16 1 15 2 14 3 12 4 13 5 11 7 3 8 4 9 8 10 5 11 7 12 6 13
REMARK SMILES IDX 87 14 85 15 88 16 76 17 86 18 2 19 1 20 9 21 10 22 77 23
REMARK SMILES IDX 78 24 84 25 79 26 83 27 80 28 81 29 82 30 17 31 18 32 19 33
REMARK SMILES IDX 20 34 21 36 22 37 23 38 75 39 24 40 74 41 25 42 26 43 27 44
REMARK SMILES IDX 68 45 28 46 73 47 67 48 69 49 29 50 72 51 66 52 65 53 30 55
REMARK SMILES IDX 56 56 39 57 55 58 40 59 43 60 54 61 70 62 41 63 42 64 53 66
REMARK SMILES IDX 71 67 44 68 31 69 32 70 37 71 33 72 34 73 36 74 38 75 35 76
REMARK SMILES IDX 57 77 58 78 63 79 59 80 60 81 62 82 64 83 61 84 45 85 46 86
REMARK SMILES IDX 51 87 47 88 48 89 50 90 52 91 49 92
REMARK H PARENT 14 6 19 35 69 54 43 65
REMARK Flexibility Score: inf
ROOT
ATOM      1  C   UNL A   1      32.331  29.016  27.203  1.00  0.00     0.023 C 
ENDROOT
BRANCH   1   2
ATOM      2  C   UNL A   1      32.569  27.542  26.903  1.00  0.00     0.116 C 
BRANCH   2   3
ATOM      3  N   UNL A   1      31.347  26.749  26.925  1.00  0.00    -0.355 N 
ATOM      4  C   UNL A   1      30.987  25.708  26.103  1.00  0.00     0.230 C 
ATOM      5  O   UNL A   1      30.038  25.000  26.434  1.00  0.00    -0.274 OA
ATOM      6  H   UNL A   1      30.693  26.991  27.620  1.00  0.00     0.163 HD
BRANCH   4   7
ATOM      7  C   UNL A   1      31.808  25.460  24.840  1.00  0.00     0.136 C 
ATOM      8  C   UNL A   1      33.783  21.583  24.692  1.00  0.00     0.161 A 
ATOM      9  C   UNL A   1      33.554  22.334  23.529  1.00  0.00     0.064 A 
ATOM     10  C   UNL A   1      33.288  22.046  25.914  1.00  0.00     0.161 A 
ATOM     11  C   UNL A   1      32.887  23.568  23.583  1.00  0.00     0.048 A 
ATOM     12  C   UNL A   1      32.598  23.267  25.948  1.00  0.00     0.056 A 
ATOM     13  C   UNL A   1      32.414  24.060  24.802  1.00  0.00    -0.016 A 
ATOM     14  C   UNL A   1      32.721  24.354  22.329  1.00  0.00     0.254 C 
ATOM     15  N   UNL A   1      31.886  25.474  22.369  1.00  0.00    -0.334 N 
ATOM     16  O   UNL A   1      33.333  23.997  21.326  1.00  0.00    -0.269 OA
ATOM     17  C   UNL A   1      30.989  25.712  23.542  1.00  0.00     0.132 C 
ATOM     18  C   UNL A   1      31.723  26.221  21.129  1.00  0.00     0.147 C 
BRANCH   8  19
ATOM     19  O   UNL A   1      34.407  20.366  24.620  1.00  0.00    -0.493 OA
ATOM     20  C   UNL A   1      33.505  19.267  24.503  1.00  0.00     0.278 C 
ENDBRANCH   8  19
BRANCH  10  21
ATOM     21  O   UNL A   1      33.385  21.474  27.154  1.00  0.00    -0.493 OA
ATOM     22  C   UNL A   1      33.629  22.312  28.273  1.00  0.00     0.278 C 
ENDBRANCH  10  21
BRANCH  17  23
ATOM     23  C   UNL A   1      30.256  27.062  23.484  1.00  0.00    -0.024 A 
ATOM     24  C   UNL A   1      28.869  27.184  23.315  1.00  0.00     0.007 A 
ATOM     25  C   UNL A   1      31.001  28.253  23.584  1.00  0.00     0.007 A 
ATOM     26  C   UNL A   1      28.264  28.443  23.202  1.00  0.00     0.015 A 
ATOM     27  C   UNL A   1      30.386  29.513  23.514  1.00  0.00     0.015 A 
ATOM     28  C   UNL A   1      29.011  29.619  23.310  1.00  0.00     0.007 A 
BRANCH  28  29
ATOM     29  S   UNL A   1      28.133  31.165  23.115  1.00  0.00    -0.130 SA
ATOM     30  C   UNL A   1      28.397  31.563  21.368  1.00  0.00     0.091 C 
ENDBRANCH  28  29
ENDBRANCH  17  23
ENDBRANCH   4   7
ENDBRANCH   2   3
ENDBRANCH   1   2
BRANCH   1  31
ATOM     31  C   UNL A   1      33.482  29.947  26.823  1.00  0.00     0.023 C 
BRANCH  31  32
ATOM     32  C   UNL A   1      34.799  29.696  27.550  1.00  0.00     0.116 C 
BRANCH  32  33
ATOM     33  N   UNL A   1      34.929  30.462  28.781  1.00  0.00    -0.352 N 
ATOM     34  C   UNL A   1      36.001  30.564  29.636  1.00  0.00     0.251 C 
ATOM     35  H   UNL A   1      34.134  30.981  29.039  1.00  0.00     0.163 HD
ATOM     36  O   UNL A   1      35.886  31.163  30.702  1.00  0.00    -0.269 OA
BRANCH  34  37
ATOM     37  C   UNL A   1      37.284  29.917  29.289  1.00  0.00     0.039 A 
ATOM     38  C   UNL A   1      37.736  29.980  27.969  1.00  0.00     0.014 A 
ATOM     39  C   UNL A   1      38.054  29.277  30.265  1.00  0.00     0.014 A 
ATOM     40  C   UNL A   1      39.000  29.482  27.645  1.00  0.00     0.010 A 
ATOM     41  C   UNL A   1      39.343  28.850  29.957  1.00  0.00     0.010 A 
ATOM     42  C   UNL A   1      39.834  28.958  28.647  1.00  0.00    -0.014 A 
BRANCH  42  43
ATOM     43  C   UNL A   1      41.230  28.547  28.347  1.00  0.00     0.031 A 
ATOM     44  C   UNL A   1      41.548  27.119  28.005  1.00  0.00     0.074 A 
ATOM     45  C   UNL A   1      42.226  29.450  28.452  1.00  0.00     0.049 A 
ATOM     46  N   UNL A   1      42.710  26.563  27.773  1.00  0.00    -0.248 NA
ATOM     47  C   UNL A   1      40.413  26.185  27.939  1.00  0.00     0.031 C 
ATOM     48  C   UNL A   1      42.059  30.855  28.830  1.00  0.00     0.029 A 
ATOM     49  N   UNL A   1      43.579  29.317  28.261  1.00  0.00    -0.354 N 
ATOM     50  C   UNL A   1      42.449  25.218  27.548  1.00  0.00     0.074 A 
ATOM     51  C   UNL A   1      41.025  25.030  27.721  1.00  0.00     0.031 C 
ATOM     52  C   UNL A   1      43.258  31.458  28.820  1.00  0.00     0.029 A 
ATOM     53  C   UNL A   1      44.282  30.479  28.472  1.00  0.00     0.049 A 
ATOM     54  H   UNL A   1      44.004  28.470  27.997  1.00  0.00     0.167 HD
ATOM     55  C   UNL A   1      43.313  24.233  27.204  1.00  0.00     0.037 A 
ATOM     56  C   UNL A   1      45.604  30.726  28.400  1.00  0.00     0.037 A 
ATOM     57  C   UNL A   1      44.726  24.424  27.008  1.00  0.00     0.049 A 
ATOM     58  C   UNL A   1      46.543  29.614  28.023  1.00  0.00     0.074 A 
ATOM     59  C   UNL A   1      45.671  23.502  26.593  1.00  0.00     0.029 A 
ATOM     60  N   UNL A   1      45.398  25.619  27.216  1.00  0.00    -0.354 N 
ATOM     61  N   UNL A   1      46.270  28.364  27.736  1.00  0.00    -0.248 NA
ATOM     62  C   UNL A   1      47.973  29.947  27.954  1.00  0.00     0.031 C 
ATOM     63  C   UNL A   1      46.922  24.127  26.593  1.00  0.00     0.029 A 
ATOM     64  C   UNL A   1      46.749  25.451  26.963  1.00  0.00     0.049 A 
ATOM     65  H   UNL A   1      44.978  26.461  27.502  1.00  0.00     0.167 HD
ATOM     66  C   UNL A   1      47.488  27.770  27.430  1.00  0.00     0.074 A 
ATOM     67  C   UNL A   1      48.498  28.800  27.550  1.00  0.00     0.031 C 
ATOM     68  C   UNL A   1      47.744  26.485  27.080  1.00  0.00     0.037 A 
BRANCH  55  69
ATOM     69  C   UNL A   1      42.748  22.856  27.010  1.00  0.00     0.057 A 
ATOM     70  C   UNL A   1      42.572  22.304  25.734  1.00  0.00     0.134 A 
ATOM     71  C   UNL A   1      42.415  22.057  28.111  1.00  0.00     0.134 A 
ATOM     72  F   UNL A   1      42.862  23.021  24.637  1.00  0.00    -0.206 F 
ATOM     73  C   UNL A   1      42.058  21.018  25.559  1.00  0.00     0.040 A 
ATOM     74  C   UNL A   1      41.925  20.760  27.950  1.00  0.00     0.040 A 
ATOM     75  F   UNL A   1      42.567  22.521  29.361  1.00  0.00    -0.206 F 
ATOM     76  C   UNL A   1      41.740  20.240  26.671  1.00  0.00     0.006 A 
ENDBRANCH  55  69
BRANCH  56  77
ATOM     77  C   UNL A   1      46.121  32.090  28.672  1.00  0.00     0.057 A 
ATOM     78  C   UNL A   1      46.262  33.026  27.640  1.00  0.00     0.134 A 
ATOM     79  C   UNL A   1      46.499  32.488  29.960  1.00  0.00     0.134 A 
ATOM     80  F   UNL A   1      45.936  32.697  26.382  1.00  0.00    -0.206 F 
ATOM     81  C   UNL A   1      46.778  34.301  27.875  1.00  0.00     0.040 A 
ATOM     82  C   UNL A   1      46.992  33.769  30.214  1.00  0.00     0.040 A 
ATOM     83  F   UNL A   1      46.381  31.640  30.993  1.00  0.00    -0.206 F 
ATOM     84  C   UNL A   1      47.140  34.677  29.168  1.00  0.00     0.006 A 
ENDBRANCH  56  77
BRANCH  68  85
ATOM     85  C   UNL A   1      49.169  26.129  26.772  1.00  0.00     0.057 A 
ATOM     86  C   UNL A   1      49.734  26.369  25.514  1.00  0.00     0.134 A 
ATOM     87  C   UNL A   1      49.996  25.576  27.759  1.00  0.00     0.134 A 
ATOM     88  F   UNL A   1      48.992  26.883  24.521  1.00  0.00    -0.206 F 
ATOM     89  C   UNL A   1      51.066  26.054  25.241  1.00  0.00     0.040 A 
ATOM     90  C   UNL A   1      51.335  25.281  27.507  1.00  0.00     0.040 A 
ATOM     91  F   UNL A   1      49.518  25.329  28.987  1.00  0.00    -0.206 F 
ATOM     92  C   UNL A   1      51.873  25.514  26.242  1.00  0.00     0.006 A 
ENDBRANCH  68  85
ENDBRANCH  42  43
ENDBRANCH  34  37
ENDBRANCH  32  33
ENDBRANCH  31  32
ENDBRANCH   1  31
TORSDOF 15
ENDMDL
MODEL 3
REMARK VINA RESULT:     -12.2      3.828      8.952
REMARK SMILES COc1cc2c(cc1OC)[C@H](C(=O)NCCCCNC(=O)c1ccc(-c3c4nc(c(-c5c(F)cccc5F)c5ccc([nH]5)c(-c5c(F)cccc5F)c5nc(c(-c6c(F)cccc6F)c6ccc3[nH]6)C=C5)C=C4)cc1)[C@@H](c1ccc(SC)cc1)N(C)C2=O
REMARK SMILES IDX 16 1 15 2 14 3 12 4 13 5 11 7 3 8 4 9 8 10 5 11 7 12 6 13
REMARK SMILES IDX 87 14 85 15 88 16 76 17 86 18 2 19 1 20 9 21 10 22 77 23
REMARK SMILES IDX 78 24 84 25 79 26 83 27 80 28 81 29 82 30 17 31 18 32 19 33
REMARK SMILES IDX 20 34 21 36 22 37 23 38 75 39 24 40 74 41 25 42 26 43 27 44
REMARK SMILES IDX 68 45 28 46 73 47 67 48 69 49 29 50 72 51 66 52 65 53 30 55
REMARK SMILES IDX 56 56 39 57 55 58 40 59 43 60 54 61 70 62 41 63 42 64 53 66
REMARK SMILES IDX 71 67 44 68 31 69 32 70 37 71 33 72 34 73 36 74 38 75 35 76
REMARK SMILES IDX 57 77 58 78 63 79 59 80 60 81 62 82 64 83 61 84 45 85 46 86
REMARK SMILES IDX 51 87 47 88 48 89 50 90 52 91 49 92
REMARK H PARENT 14 6 19 35 69 54 43 65
REMARK Flexibility Score: inf
ROOT
ATOM      1  C   UNL A   1      32.074  30.110  25.669  1.00  0.00     0.023 C 
ENDROOT
BRANCH   1   2
ATOM      2  C   UNL A   1      32.601  28.784  26.201  1.00  0.00     0.116 C 
BRANCH   2   3
ATOM      3  N   UNL A   1      31.543  27.832  26.513  1.00  0.00    -0.355 N 
ATOM      4  C   UNL A   1      31.318  26.591  25.966  1.00  0.00     0.230 C 
ATOM      5  O   UNL A   1      30.534  25.832  26.533  1.00  0.00    -0.274 OA
ATOM      6  H   UNL A   1      30.906  28.115  27.208  1.00  0.00     0.163 HD
BRANCH   4   7
ATOM      7  C   UNL A   1      32.082  26.203  24.702  1.00  0.00     0.136 C 
ATOM      8  C   UNL A   1      34.470  22.582  25.064  1.00  0.00     0.161 A 
ATOM      9  C   UNL A   1      34.086  23.084  23.811  1.00  0.00     0.064 A 
ATOM     10  C   UNL A   1      34.002  23.204  26.223  1.00  0.00     0.161 A 
ATOM     11  C   UNL A   1      33.288  24.235  23.706  1.00  0.00     0.048 A 
ATOM     12  C   UNL A   1      33.183  24.337  26.103  1.00  0.00     0.056 A 
ATOM     13  C   UNL A   1      32.839  24.888  24.856  1.00  0.00    -0.016 A 
ATOM     14  C   UNL A   1      32.956  24.762  22.353  1.00  0.00     0.254 C 
ATOM     15  N   UNL A   1      32.005  25.781  22.267  1.00  0.00    -0.334 N 
ATOM     16  O   UNL A   1      33.542  24.294  21.380  1.00  0.00    -0.269 OA
ATOM     17  C   UNL A   1      31.161  26.135  23.451  1.00  0.00     0.132 C 
ATOM     18  C   UNL A   1      31.681  26.273  20.934  1.00  0.00     0.147 C 
BRANCH   8  19
ATOM     19  O   UNL A   1      35.222  21.441  25.152  1.00  0.00    -0.493 OA
ATOM     20  C   UNL A   1      34.461  20.242  25.009  1.00  0.00     0.278 C 
ENDBRANCH   8  19
BRANCH  10  21
ATOM     21  O   UNL A   1      34.241  22.877  27.532  1.00  0.00    -0.493 OA
ATOM     22  C   UNL A   1      33.225  22.206  28.261  1.00  0.00     0.278 C 
ENDBRANCH  10  21
BRANCH  17  23
ATOM     23  C   UNL A   1      30.277  27.372  23.221  1.00  0.00    -0.024 A 
ATOM     24  C   UNL A   1      28.895  27.391  23.456  1.00  0.00     0.007 A 
ATOM     25  C   UNL A   1      30.865  28.553  22.730  1.00  0.00     0.007 A 
ATOM     26  C   UNL A   1      28.129  28.528  23.164  1.00  0.00     0.015 A 
ATOM     27  C   UNL A   1      30.102  29.705  22.479  1.00  0.00     0.015 A 
ATOM     28  C   UNL A   1      28.722  29.699  22.684  1.00  0.00     0.007 A 
BRANCH  28  29
ATOM     29  S   UNL A   1      27.639  31.073  22.317  1.00  0.00    -0.130 SA
ATOM     30  C   UNL A   1      28.667  32.514  22.702  1.00  0.00     0.091 C 
ENDBRANCH  28  29
ENDBRANCH  17  23
ENDBRANCH   4   7
ENDBRANCH   2   3
ENDBRANCH   1   2
BRANCH   1  31
ATOM     31  C   UNL A   1      31.767  31.158  26.738  1.00  0.00     0.023 C 
BRANCH  31  32
ATOM     32  C   UNL A   1      32.950  32.011  27.183  1.00  0.00     0.116 C 
BRANCH  32  33
ATOM     33  N   UNL A   1      32.574  33.369  27.548  1.00  0.00    -0.352 N 
ATOM     34  C   UNL A   1      33.192  34.245  28.408  1.00  0.00     0.251 C 
ATOM     35  H   UNL A   1      31.758  33.709  27.116  1.00  0.00     0.163 HD
ATOM     36  O   UNL A   1      32.658  35.313  28.691  1.00  0.00    -0.269 OA
BRANCH  34  37
ATOM     37  C   UNL A   1      34.486  33.881  29.026  1.00  0.00     0.039 A 
ATOM     38  C   UNL A   1      34.482  33.125  30.201  1.00  0.00     0.014 A 
ATOM     39  C   UNL A   1      35.695  34.256  28.435  1.00  0.00     0.014 A 
ATOM     40  C   UNL A   1      35.690  32.668  30.732  1.00  0.00     0.010 A 
ATOM     41  C   UNL A   1      36.892  33.737  28.922  1.00  0.00     0.010 A 
ATOM     42  C   UNL A   1      36.902  32.928  30.069  1.00  0.00    -0.014 A 
BRANCH  42  43
ATOM     43  C   UNL A   1      38.180  32.339  30.545  1.00  0.00     0.031 A 
ATOM     44  C   UNL A   1      38.693  31.055  29.957  1.00  0.00     0.074 A 
ATOM     45  C   UNL A   1      38.845  32.926  31.561  1.00  0.00     0.049 A 
ATOM     46  N   UNL A   1      39.753  30.361  30.285  1.00  0.00    -0.248 NA
ATOM     47  C   UNL A   1      37.897  30.458  28.873  1.00  0.00     0.031 C 
ATOM     48  C   UNL A   1      38.425  34.144  32.257  1.00  0.00     0.029 A 
ATOM     49  N   UNL A   1      40.010  32.568  32.192  1.00  0.00    -0.354 N 
ATOM     50  C   UNL A   1      39.745  29.244  29.461  1.00  0.00     0.074 A 
ATOM     51  C   UNL A   1      38.548  29.325  28.653  1.00  0.00     0.031 C 
ATOM     52  C   UNL A   1      39.330  34.445  33.201  1.00  0.00     0.029 A 
ATOM     53  C   UNL A   1      40.373  33.425  33.204  1.00  0.00     0.049 A 
ATOM     54  H   UNL A   1      40.535  31.774  31.944  1.00  0.00     0.167 HD
ATOM     55  C   UNL A   1      40.663  28.251  29.369  1.00  0.00     0.037 A 
ATOM     56  C   UNL A   1      41.425  33.389  34.045  1.00  0.00     0.037 A 
ATOM     57  C   UNL A   1      41.866  28.183  30.156  1.00  0.00     0.049 A 
ATOM     58  C   UNL A   1      42.426  32.274  33.926  1.00  0.00     0.074 A 
ATOM     59  C   UNL A   1      42.889  27.254  30.087  1.00  0.00     0.029 A 
ATOM     60  N   UNL A   1      42.206  29.078  31.159  1.00  0.00    -0.354 N 
ATOM     61  N   UNL A   1      42.445  31.266  33.088  1.00  0.00    -0.248 NA
ATOM     62  C   UNL A   1      43.556  32.294  34.866  1.00  0.00     0.031 C 
ATOM     63  C   UNL A   1      43.827  27.561  31.078  1.00  0.00     0.029 A 
ATOM     64  C   UNL A   1      43.411  28.707  31.733  1.00  0.00     0.049 A 
ATOM     65  H   UNL A   1      41.670  29.859  31.425  1.00  0.00     0.167 HD
ATOM     66  C   UNL A   1      43.596  30.547  33.383  1.00  0.00     0.074 A 
ATOM     67  C   UNL A   1      44.259  31.243  34.466  1.00  0.00     0.031 C 
ATOM     68  C   UNL A   1      44.063  29.412  32.807  1.00  0.00     0.037 A 
BRANCH  55  69
ATOM     69  C   UNL A   1      40.402  27.160  28.372  1.00  0.00     0.057 A 
ATOM     70  C   UNL A   1      41.012  27.154  27.110  1.00  0.00     0.134 A 
ATOM     71  C   UNL A   1      39.565  26.084  28.691  1.00  0.00     0.134 A 
ATOM     72  F   UNL A   1      41.818  28.160  26.739  1.00  0.00    -0.206 F 
ATOM     73  C   UNL A   1      40.777  26.129  26.191  1.00  0.00     0.040 A 
ATOM     74  C   UNL A   1      39.342  25.041  27.790  1.00  0.00     0.040 A 
ATOM     75  F   UNL A   1      38.956  26.024  29.884  1.00  0.00    -0.206 F 
ATOM     76  C   UNL A   1      39.945  25.065  26.534  1.00  0.00     0.006 A 
ENDBRANCH  55  69
BRANCH  56  77
ATOM     77  C   UNL A   1      41.600  34.454  35.063  1.00  0.00     0.057 A 
ATOM     78  C   UNL A   1      42.273  35.643  34.755  1.00  0.00     0.134 A 
ATOM     79  C   UNL A   1      41.113  34.308  36.368  1.00  0.00     0.134 A 
ATOM     80  F   UNL A   1      42.780  35.831  33.528  1.00  0.00    -0.206 F 
ATOM     81  C   UNL A   1      42.474  36.638  35.711  1.00  0.00     0.040 A 
ATOM     82  C   UNL A   1      41.283  35.308  37.327  1.00  0.00     0.040 A 
ATOM     83  F   UNL A   1      40.452  33.196  36.724  1.00  0.00    -0.206 F 
ATOM     84  C   UNL A   1      41.973  36.474  37.002  1.00  0.00     0.006 A 
ENDBRANCH  56  77
BRANCH  68  85
ATOM     85  C   UNL A   1      45.365  28.869  33.315  1.00  0.00     0.057 A 
ATOM     86  C   UNL A   1      46.594  29.283  32.787  1.00  0.00     0.134 A 
ATOM     87  C   UNL A   1      45.392  27.952  34.374  1.00  0.00     0.134 A 
ATOM     88  F   UNL A   1      46.638  30.149  31.762  1.00  0.00    -0.206 F 
ATOM     89  C   UNL A   1      47.804  28.789  33.279  1.00  0.00     0.040 A 
ATOM     90  C   UNL A   1      46.594  27.470  34.892  1.00  0.00     0.040 A 
ATOM     91  F   UNL A   1      44.250  27.520  34.930  1.00  0.00    -0.206 F 
ATOM     92  C   UNL A   1      47.805  27.884  34.340  1.00  0.00     0.006 A 
ENDBRANCH  68  85
ENDBRANCH  42  43
ENDBRANCH  34  37
ENDBRANCH  32  33
ENDBRANCH  31  32
ENDBRANCH   1  31
TORSDOF 15
ENDMDL
