MODEL 1
REMARK VINA RESULT:     -10.7      0.000      0.000
REMARK SMILES COCc1cc(SCC(=O)NCCCCNC(=O)c2ccc(-c3c4nc(c(-c5c(F)cccc5F)c5ccc([nH]5)c(-c5c(F)cccc5F)c5nc(c(-c6c(F)cccc6F)c6ccc3[nH]6)C=C5)C=C4)cc2)nc(-c2cccnc2)n1
REMARK SMILES IDX 12 1 11 2 9 3 10 4 8 6 7 7 6 8 4 9 5 10 81 11 74 12 73 13
REMARK SMILES IDX 3 14 2 15 1 16 75 17 76 18 80 19 77 20 79 21 78 22 13 23
REMARK SMILES IDX 14 24 15 25 16 26 17 27 18 29 19 30 20 31 72 32 21 33 71 34
REMARK SMILES IDX 22 35 23 36 24 37 65 38 25 39 70 40 64 41 66 42 26 43 69 44
REMARK SMILES IDX 63 45 62 46 27 48 53 49 36 50 52 51 37 52 40 53 51 54 67 55
REMARK SMILES IDX 38 56 39 57 50 59 68 60 41 61 28 62 29 63 34 64 30 65 31 66
REMARK SMILES IDX 33 67 35 68 32 69 54 70 55 71 60 72 56 73 57 74 59 75 61 76
REMARK SMILES IDX 58 77 42 78 43 79 48 80 44 81 45 82 47 83 49 84 46 85
REMARK H PARENT 11 5 16 28 66 47 40 58
REMARK Flexibility Score: inf
ROOT
ATOM      1  C   UNL A   1      32.224  26.645  25.345  1.00  0.00     0.116 C 
ENDROOT
BRANCH   1   2
ATOM      2  N   UNL A   1      32.164  25.555  26.299  1.00  0.00    -0.355 N 
ATOM      3  C   UNL A   1      31.427  24.413  26.263  1.00  0.00     0.230 C 
ATOM      4  O   UNL A   1      31.482  23.668  27.248  1.00  0.00    -0.274 OA
ATOM      5  H   UNL A   1      32.742  25.657  27.090  1.00  0.00     0.163 HD
BRANCH   3   6
ATOM      6  C   UNL A   1      30.626  24.020  25.037  1.00  0.00     0.176 C 
BRANCH   6   7
ATOM      7  S   UNL A   1      31.598  23.377  23.641  1.00  0.00    -0.096 SA
BRANCH   7   8
ATOM      8  C   UNL A   1      32.634  22.097  24.315  1.00  0.00     0.101 A 
ATOM      9  C   UNL A   1      33.202  19.912  24.979  1.00  0.00     0.071 A 
ATOM     10  C   UNL A   1      32.231  20.805  24.570  1.00  0.00     0.062 A 
ATOM     11  N   UNL A   1      34.476  20.296  25.180  1.00  0.00    -0.230 NA
ATOM     12  C   UNL A   1      34.767  21.591  24.995  1.00  0.00     0.162 A 
ATOM     13  N   UNL A   1      33.895  22.511  24.555  1.00  0.00    -0.222 NA
BRANCH   9  14
ATOM     14  C   UNL A   1      32.829  18.451  25.167  1.00  0.00     0.215 C 
BRANCH  14  15
ATOM     15  O   UNL A   1      33.662  17.515  24.479  1.00  0.00    -0.378 OA
ATOM     16  C   UNL A   1      33.228  16.168  24.619  1.00  0.00     0.195 C 
ENDBRANCH  14  15
ENDBRANCH   9  14
BRANCH  12  17
ATOM     17  C   UNL A   1      36.125  22.011  25.315  1.00  0.00     0.038 A 
ATOM     18  C   UNL A   1      36.428  23.304  25.759  1.00  0.00     0.015 A 
ATOM     19  C   UNL A   1      37.191  21.117  25.240  1.00  0.00     0.123 A 
ATOM     20  C   UNL A   1      37.736  23.635  26.117  1.00  0.00     0.021 A 
ATOM     21  N   UNL A   1      38.478  21.412  25.557  1.00  0.00    -0.264 NA
ATOM     22  C   UNL A   1      38.716  22.665  25.998  1.00  0.00     0.111 A 
ENDBRANCH  12  17
ENDBRANCH   7   8
ENDBRANCH   6   7
ENDBRANCH   3   6
ENDBRANCH   1   2
BRANCH   1  23
ATOM     23  C   UNL A   1      33.659  27.146  25.173  1.00  0.00     0.023 C 
BRANCH  23  24
ATOM     24  C   UNL A   1      33.931  28.529  25.775  1.00  0.00     0.023 C 
BRANCH  24  25
ATOM     25  C   UNL A   1      33.791  28.622  27.291  1.00  0.00     0.116 C 
BRANCH  25  26
ATOM     26  N   UNL A   1      33.761  29.992  27.776  1.00  0.00    -0.352 N 
ATOM     27  C   UNL A   1      34.748  30.713  28.403  1.00  0.00     0.251 C 
ATOM     28  H   UNL A   1      32.913  30.471  27.635  1.00  0.00     0.163 HD
ATOM     29  O   UNL A   1      34.501  31.823  28.865  1.00  0.00    -0.269 OA
BRANCH  27  30
ATOM     30  C   UNL A   1      36.102  30.138  28.550  1.00  0.00     0.039 A 
ATOM     31  C   UNL A   1      36.978  30.188  27.463  1.00  0.00     0.014 A 
ATOM     32  C   UNL A   1      36.511  29.564  29.757  1.00  0.00     0.014 A 
ATOM     33  C   UNL A   1      38.287  29.723  27.607  1.00  0.00     0.010 A 
ATOM     34  C   UNL A   1      37.837  29.173  29.922  1.00  0.00     0.010 A 
ATOM     35  C   UNL A   1      38.739  29.248  28.849  1.00  0.00    -0.014 A 
BRANCH  35  36
ATOM     36  C   UNL A   1      40.150  28.827  29.047  1.00  0.00     0.031 A 
ATOM     37  C   UNL A   1      41.144  29.774  29.657  1.00  0.00     0.074 A 
ATOM     38  C   UNL A   1      40.550  27.612  28.623  1.00  0.00     0.049 A 
ATOM     39  N   UNL A   1      42.429  29.614  29.852  1.00  0.00    -0.248 NA
ATOM     40  C   UNL A   1      40.632  31.086  30.079  1.00  0.00     0.031 C 
ATOM     41  C   UNL A   1      39.692  26.614  27.982  1.00  0.00     0.029 A 
ATOM     42  N   UNL A   1      41.785  27.015  28.659  1.00  0.00    -0.354 N 
ATOM     43  C   UNL A   1      42.877  30.804  30.411  1.00  0.00     0.074 A 
ATOM     44  C   UNL A   1      41.742  31.700  30.461  1.00  0.00     0.031 C 
ATOM     45  C   UNL A   1      40.418  25.515  27.718  1.00  0.00     0.029 A 
ATOM     46  C   UNL A   1      41.800  25.747  28.127  1.00  0.00     0.049 A 
ATOM     47  H   UNL A   1      42.584  27.452  29.033  1.00  0.00     0.167 HD
ATOM     48  C   UNL A   1      44.115  31.115  30.865  1.00  0.00     0.037 A 
ATOM     49  C   UNL A   1      42.813  24.875  27.982  1.00  0.00     0.037 A 
ATOM     50  C   UNL A   1      45.242  30.220  30.820  1.00  0.00     0.049 A 
ATOM     51  C   UNL A   1      44.189  25.258  28.455  1.00  0.00     0.074 A 
ATOM     52  C   UNL A   1      46.527  30.425  31.290  1.00  0.00     0.029 A 
ATOM     53  N   UNL A   1      45.219  28.950  30.264  1.00  0.00    -0.354 N 
ATOM     54  N   UNL A   1      44.587  26.365  29.034  1.00  0.00    -0.248 NA
ATOM     55  C   UNL A   1      45.256  24.268  28.254  1.00  0.00     0.031 C 
ATOM     56  C   UNL A   1      47.295  29.300  30.973  1.00  0.00     0.029 A 
ATOM     57  C   UNL A   1      46.474  28.368  30.357  1.00  0.00     0.049 A 
ATOM     58  H   UNL A   1      44.428  28.522  29.863  1.00  0.00     0.167 HD
ATOM     59  C   UNL A   1      45.939  26.191  29.300  1.00  0.00     0.074 A 
ATOM     60  C   UNL A   1      46.291  24.868  28.825  1.00  0.00     0.031 C 
ATOM     61  C   UNL A   1      46.810  27.048  29.887  1.00  0.00     0.037 A 
BRANCH  48  62
ATOM     62  C   UNL A   1      44.307  32.488  31.448  1.00  0.00     0.057 A 
ATOM     63  C   UNL A   1      44.704  33.577  30.659  1.00  0.00     0.134 A 
ATOM     64  C   UNL A   1      44.088  32.726  32.811  1.00  0.00     0.134 A 
ATOM     65  F   UNL A   1      44.943  33.416  29.348  1.00  0.00    -0.206 F 
ATOM     66  C   UNL A   1      44.914  34.842  31.211  1.00  0.00     0.040 A 
ATOM     67  C   UNL A   1      44.262  33.995  33.367  1.00  0.00     0.040 A 
ATOM     68  F   UNL A   1      43.699  31.733  33.624  1.00  0.00    -0.206 F 
ATOM     69  C   UNL A   1      44.688  35.055  32.568  1.00  0.00     0.006 A 
ENDBRANCH  48  62
BRANCH  49  70
ATOM     70  C   UNL A   1      42.562  23.534  27.392  1.00  0.00     0.057 A 
ATOM     71  C   UNL A   1      42.701  23.318  26.016  1.00  0.00     0.134 A 
ATOM     72  C   UNL A   1      42.178  22.444  28.182  1.00  0.00     0.134 A 
ATOM     73  F   UNL A   1      43.047  24.329  25.207  1.00  0.00    -0.206 F 
ATOM     74  C   UNL A   1      42.449  22.071  25.442  1.00  0.00     0.040 A 
ATOM     75  C   UNL A   1      41.949  21.184  27.625  1.00  0.00     0.040 A 
ATOM     76  F   UNL A   1      42.035  22.583  29.508  1.00  0.00    -0.206 F 
ATOM     77  C   UNL A   1      42.078  20.997  26.250  1.00  0.00     0.006 A 
ENDBRANCH  49  70
BRANCH  61  78
ATOM     78  C   UNL A   1      48.219  26.568  30.088  1.00  0.00     0.057 A 
ATOM     79  C   UNL A   1      49.230  26.812  29.150  1.00  0.00     0.134 A 
ATOM     80  C   UNL A   1      48.576  25.883  31.257  1.00  0.00     0.134 A 
ATOM     81  F   UNL A   1      48.954  27.450  28.002  1.00  0.00    -0.206 F 
ATOM     82  C   UNL A   1      50.539  26.370  29.355  1.00  0.00     0.040 A 
ATOM     83  C   UNL A   1      49.886  25.463  31.489  1.00  0.00     0.040 A 
ATOM     84  F   UNL A   1      47.658  25.624  32.202  1.00  0.00    -0.206 F 
ATOM     85  C   UNL A   1      50.870  25.701  30.532  1.00  0.00     0.006 A 
ENDBRANCH  61  78
ENDBRANCH  35  36
ENDBRANCH  27  30
ENDBRANCH  25  26
ENDBRANCH  24  25
ENDBRANCH  23  24
ENDBRANCH   1  23
TORSDOF 16
ENDMDL
MODEL 2
REMARK VINA RESULT:     -10.5      1.929      2.793
REMARK SMILES COCc1cc(SCC(=O)NCCCCNC(=O)c2ccc(-c3c4nc(c(-c5c(F)cccc5F)c5ccc([nH]5)c(-c5c(F)cccc5F)c5nc(c(-c6c(F)cccc6F)c6ccc3[nH]6)C=C5)C=C4)cc2)nc(-c2cccnc2)n1
REMARK SMILES IDX 12 1 11 2 9 3 10 4 8 6 7 7 6 8 4 9 5 10 81 11 74 12 73 13
REMARK SMILES IDX 3 14 2 15 1 16 75 17 76 18 80 19 77 20 79 21 78 22 13 23
REMARK SMILES IDX 14 24 15 25 16 26 17 27 18 29 19 30 20 31 72 32 21 33 71 34
REMARK SMILES IDX 22 35 23 36 24 37 65 38 25 39 70 40 64 41 66 42 26 43 69 44
REMARK SMILES IDX 63 45 62 46 27 48 53 49 36 50 52 51 37 52 40 53 51 54 67 55
REMARK SMILES IDX 38 56 39 57 50 59 68 60 41 61 28 62 29 63 34 64 30 65 31 66
REMARK SMILES IDX 33 67 35 68 32 69 54 70 55 71 60 72 56 73 57 74 59 75 61 76
REMARK SMILES IDX 58 77 42 78 43 79 48 80 44 81 45 82 47 83 49 84 46 85
REMARK H PARENT 11 5 16 28 66 47 40 58
REMARK Flexibility Score: inf
ROOT
ATOM      1  C   UNL A   1      31.021  26.594  25.837  1.00  0.00     0.116 C 
ENDROOT
BRANCH   1   2
ATOM      2  N   UNL A   1      31.486  25.529  26.703  1.00  0.00    -0.355 N 
ATOM      3  C   UNL A   1      31.273  24.189  26.618  1.00  0.00     0.230 C 
ATOM      4  O   UNL A   1      31.706  23.483  27.535  1.00  0.00    -0.274 OA
ATOM      5  H   UNL A   1      32.037  25.819  27.466  1.00  0.00     0.163 HD
BRANCH   3   6
ATOM      6  C   UNL A   1      30.600  23.564  25.411  1.00  0.00     0.176 C 
BRANCH   6   7
ATOM      7  S   UNL A   1      31.664  23.333  23.954  1.00  0.00    -0.096 SA
BRANCH   7   8
ATOM      8  C   UNL A   1      32.845  22.082  24.405  1.00  0.00     0.101 A 
ATOM      9  C   UNL A   1      33.657  19.892  24.704  1.00  0.00     0.071 A 
ATOM     10  C   UNL A   1      32.586  20.730  24.451  1.00  0.00     0.062 A 
ATOM     11  N   UNL A   1      34.887  20.375  24.955  1.00  0.00    -0.230 NA
ATOM     12  C   UNL A   1      35.035  21.707  24.979  1.00  0.00     0.162 A 
ATOM     13  N   UNL A   1      34.061  22.586  24.700  1.00  0.00    -0.222 NA
BRANCH   9  14
ATOM     14  C   UNL A   1      33.444  18.389  24.655  1.00  0.00     0.215 C 
BRANCH  14  15
ATOM     15  O   UNL A   1      34.635  17.608  24.532  1.00  0.00    -0.378 OA
ATOM     16  C   UNL A   1      34.401  16.209  24.628  1.00  0.00     0.195 C 
ENDBRANCH  14  15
ENDBRANCH   9  14
BRANCH  12  17
ATOM     17  C   UNL A   1      36.349  22.215  25.354  1.00  0.00     0.038 A 
ATOM     18  C   UNL A   1      36.558  23.541  25.751  1.00  0.00     0.015 A 
ATOM     19  C   UNL A   1      37.463  21.378  25.381  1.00  0.00     0.123 A 
ATOM     20  C   UNL A   1      37.824  23.959  26.165  1.00  0.00     0.021 A 
ATOM     21  N   UNL A   1      38.712  21.757  25.754  1.00  0.00    -0.264 NA
ATOM     22  C   UNL A   1      38.858  23.039  26.146  1.00  0.00     0.111 A 
ENDBRANCH  12  17
ENDBRANCH   7   8
ENDBRANCH   6   7
ENDBRANCH   3   6
ENDBRANCH   1   2
BRANCH   1  23
ATOM     23  C   UNL A   1      31.774  27.896  26.113  1.00  0.00     0.023 C 
BRANCH  23  24
ATOM     24  C   UNL A   1      33.185  27.958  25.519  1.00  0.00     0.023 C 
BRANCH  24  25
ATOM     25  C   UNL A   1      34.246  28.589  26.414  1.00  0.00     0.116 C 
BRANCH  25  26
ATOM     26  N   UNL A   1      33.939  29.963  26.778  1.00  0.00    -0.352 N 
ATOM     27  C   UNL A   1      34.602  30.801  27.640  1.00  0.00     0.251 C 
ATOM     28  H   UNL A   1      33.143  30.347  26.344  1.00  0.00     0.163 HD
ATOM     29  O   UNL A   1      34.121  31.894  27.929  1.00  0.00    -0.269 OA
BRANCH  27  30
ATOM     30  C   UNL A   1      35.880  30.375  28.248  1.00  0.00     0.039 A 
ATOM     31  C   UNL A   1      35.854  29.706  29.475  1.00  0.00     0.014 A 
ATOM     32  C   UNL A   1      37.098  30.623  27.608  1.00  0.00     0.014 A 
ATOM     33  C   UNL A   1      37.044  29.225  30.026  1.00  0.00     0.010 A 
ATOM     34  C   UNL A   1      38.271  30.076  28.120  1.00  0.00     0.010 A 
ATOM     35  C   UNL A   1      38.257  29.372  29.334  1.00  0.00    -0.014 A 
BRANCH  35  36
ATOM     36  C   UNL A   1      39.521  28.796  29.861  1.00  0.00     0.031 A 
ATOM     37  C   UNL A   1      40.182  29.398  31.069  1.00  0.00     0.074 A 
ATOM     38  C   UNL A   1      40.106  27.767  29.217  1.00  0.00     0.049 A 
ATOM     39  N   UNL A   1      41.316  29.078  31.638  1.00  0.00    -0.248 NA
ATOM     40  C   UNL A   1      39.489  30.529  31.705  1.00  0.00     0.031 C 
ATOM     41  C   UNL A   1      39.585  27.115  28.013  1.00  0.00     0.029 A 
ATOM     42  N   UNL A   1      41.272  27.094  29.481  1.00  0.00    -0.354 N 
ATOM     43  C   UNL A   1      41.475  29.970  32.691  1.00  0.00     0.074 A 
ATOM     44  C   UNL A   1      40.356  30.885  32.641  1.00  0.00     0.031 C 
ATOM     45  C   UNL A   1      40.410  26.115  27.663  1.00  0.00     0.029 A 
ATOM     46  C   UNL A   1      41.539  26.083  28.588  1.00  0.00     0.049 A 
ATOM     47  H   UNL A   1      41.861  27.313  30.238  1.00  0.00     0.167 HD
ATOM     48  C   UNL A   1      42.450  30.008  33.632  1.00  0.00     0.037 A 
ATOM     49  C   UNL A   1      42.578  25.231  28.521  1.00  0.00     0.037 A 
ATOM     50  C   UNL A   1      43.559  29.093  33.684  1.00  0.00     0.049 A 
ATOM     51  C   UNL A   1      43.672  25.320  29.551  1.00  0.00     0.074 A 
ATOM     52  C   UNL A   1      44.578  29.022  34.618  1.00  0.00     0.029 A 
ATOM     53  N   UNL A   1      43.800  28.090  32.756  1.00  0.00    -0.354 N 
ATOM     54  N   UNL A   1      43.780  26.131  30.576  1.00  0.00    -0.248 NA
ATOM     55  C   UNL A   1      44.786  24.373  29.414  1.00  0.00     0.031 C 
ATOM     56  C   UNL A   1      45.463  28.011  34.228  1.00  0.00     0.029 A 
ATOM     57  C   UNL A   1      44.965  27.412  33.082  1.00  0.00     0.049 A 
ATOM     58  H   UNL A   1      43.229  27.888  31.980  1.00  0.00     0.167 HD
ATOM     59  C   UNL A   1      44.953  25.769  31.226  1.00  0.00     0.074 A 
ATOM     60  C   UNL A   1      45.516  24.659  30.483  1.00  0.00     0.031 C 
ATOM     61  C   UNL A   1      45.511  26.305  32.339  1.00  0.00     0.037 A 
BRANCH  48  62
ATOM     62  C   UNL A   1      42.353  31.084  34.678  1.00  0.00     0.057 A 
ATOM     63  C   UNL A   1      41.635  30.896  35.867  1.00  0.00     0.134 A 
ATOM     64  C   UNL A   1      42.988  32.319  34.498  1.00  0.00     0.134 A 
ATOM     65  F   UNL A   1      40.992  29.741  36.099  1.00  0.00    -0.206 F 
ATOM     66  C   UNL A   1      41.519  31.910  36.820  1.00  0.00     0.040 A 
ATOM     67  C   UNL A   1      42.907  33.328  35.459  1.00  0.00     0.040 A 
ATOM     68  F   UNL A   1      43.698  32.566  33.387  1.00  0.00    -0.206 F 
ATOM     69  C   UNL A   1      42.160  33.129  36.619  1.00  0.00     0.006 A 
ENDBRANCH  48  62
BRANCH  49  70
ATOM     70  C   UNL A   1      42.621  24.193  27.459  1.00  0.00     0.057 A 
ATOM     71  C   UNL A   1      42.220  22.878  27.724  1.00  0.00     0.134 A 
ATOM     72  C   UNL A   1      43.063  24.484  26.163  1.00  0.00     0.134 A 
ATOM     73  F   UNL A   1      41.806  22.535  28.953  1.00  0.00    -0.206 F 
ATOM     74  C   UNL A   1      42.272  21.885  26.745  1.00  0.00     0.040 A 
ATOM     75  C   UNL A   1      43.095  23.507  25.166  1.00  0.00     0.040 A 
ATOM     76  F   UNL A   1      43.453  25.726  25.843  1.00  0.00    -0.206 F 
ATOM     77  C   UNL A   1      42.705  22.202  25.459  1.00  0.00     0.006 A 
ENDBRANCH  49  70
BRANCH  61  78
ATOM     78  C   UNL A   1      46.775  25.672  32.848  1.00  0.00     0.057 A 
ATOM     79  C   UNL A   1      46.763  24.659  33.815  1.00  0.00     0.134 A 
ATOM     80  C   UNL A   1      48.020  26.060  32.335  1.00  0.00     0.134 A 
ATOM     81  F   UNL A   1      45.606  24.250  34.359  1.00  0.00    -0.206 F 
ATOM     82  C   UNL A   1      47.945  24.071  34.271  1.00  0.00     0.040 A 
ATOM     83  C   UNL A   1      49.205  25.459  32.760  1.00  0.00     0.040 A 
ATOM     84  F   UNL A   1      48.103  27.019  31.400  1.00  0.00    -0.206 F 
ATOM     85  C   UNL A   1      49.170  24.466  33.736  1.00  0.00     0.006 A 
ENDBRANCH  61  78
ENDBRANCH  35  36
ENDBRANCH  27  30
ENDBRANCH  25  26
ENDBRANCH  24  25
ENDBRANCH  23  24
ENDBRANCH   1  23
TORSDOF 16
ENDMDL
MODEL 3
REMARK VINA RESULT:     -10.4      3.607      5.441
REMARK SMILES COCc1cc(SCC(=O)NCCCCNC(=O)c2ccc(-c3c4nc(c(-c5c(F)cccc5F)c5ccc([nH]5)c(-c5c(F)cccc5F)c5nc(c(-c6c(F)cccc6F)c6ccc3[nH]6)C=C5)C=C4)cc2)nc(-c2cccnc2)n1
REMARK SMILES IDX 12 1 11 2 9 3 10 4 8 6 7 7 6 8 4 9 5 10 81 11 74 12 73 13
REMARK SMILES IDX 3 14 2 15 1 16 75 17 76 18 80 19 77 20 79 21 78 22 13 23
REMARK SMILES IDX 14 24 15 25 16 26 17 27 18 29 19 30 20 31 72 32 21 33 71 34
REMARK SMILES IDX 22 35 23 36 24 37 65 38 25 39 70 40 64 41 66 42 26 43 69 44
REMARK SMILES IDX 63 45 62 46 27 48 53 49 36 50 52 51 37 52 40 53 51 54 67 55
REMARK SMILES IDX 38 56 39 57 50 59 68 60 41 61 28 62 29 63 34 64 30 65 31 66
REMARK SMILES IDX 33 67 35 68 32 69 54 70 55 71 60 72 56 73 57 74 59 75 61 76
REMARK SMILES IDX 58 77 42 78 43 79 48 80 44 81 45 82 47 83 49 84 46 85
REMARK H PARENT 11 5 16 28 66 47 40 58
REMARK Flexibility Score: inf
ROOT
ATOM      1  C   UNL A   1      32.995  30.143  26.074  1.00  0.00     0.116 C 
ENDROOT
BRANCH   1   2
ATOM      2  N   UNL A   1      33.277  29.299  24.930  1.00  0.00    -0.355 N 
ATOM      3  C   UNL A   1      33.405  27.947  24.863  1.00  0.00     0.230 C 
ATOM      4  O   UNL A   1      33.736  27.459  23.776  1.00  0.00    -0.274 OA
ATOM      5  H   UNL A   1      33.393  29.775  24.076  1.00  0.00     0.163 HD
BRANCH   3   6
ATOM      6  C   UNL A   1      33.080  27.056  26.046  1.00  0.00     0.176 C 
BRANCH   6   7
ATOM      7  S   UNL A   1      32.136  25.551  25.656  1.00  0.00    -0.096 SA
BRANCH   7   8
ATOM      8  C   UNL A   1      33.345  24.289  25.323  1.00  0.00     0.101 A 
ATOM      9  C   UNL A   1      35.504  23.375  25.115  1.00  0.00     0.071 A 
ATOM     10  C   UNL A   1      34.705  24.493  25.263  1.00  0.00     0.062 A 
ATOM     11  N   UNL A   1      34.977  22.145  24.973  1.00  0.00    -0.230 NA
ATOM     12  C   UNL A   1      33.641  22.043  24.953  1.00  0.00     0.162 A 
ATOM     13  N   UNL A   1      32.798  23.071  25.136  1.00  0.00    -0.222 NA
BRANCH   9  14
ATOM     14  C   UNL A   1      37.014  23.536  25.154  1.00  0.00     0.215 C 
BRANCH  14  15
ATOM     15  O   UNL A   1      37.675  22.839  26.212  1.00  0.00    -0.378 OA
ATOM     16  C   UNL A   1      38.566  21.832  25.750  1.00  0.00     0.195 C 
ENDBRANCH  14  15
ENDBRANCH   9  14
BRANCH  12  17
ATOM     17  C   UNL A   1      33.087  20.720  24.696  1.00  0.00     0.038 A 
ATOM     18  C   UNL A   1      32.667  20.314  23.424  1.00  0.00     0.015 A 
ATOM     19  C   UNL A   1      32.994  19.770  25.711  1.00  0.00     0.123 A 
ATOM     20  C   UNL A   1      32.206  19.013  23.219  1.00  0.00     0.021 A 
ATOM     21  N   UNL A   1      32.529  18.504  25.552  1.00  0.00    -0.264 NA
ATOM     22  C   UNL A   1      32.154  18.155  24.304  1.00  0.00     0.111 A 
ENDBRANCH  12  17
ENDBRANCH   7   8
ENDBRANCH   6   7
ENDBRANCH   3   6
ENDBRANCH   1   2
BRANCH   1  23
ATOM     23  C   UNL A   1      31.550  30.641  26.048  1.00  0.00     0.023 C 
BRANCH  23  24
ATOM     24  C   UNL A   1      31.357  32.077  26.550  1.00  0.00     0.023 C 
BRANCH  24  25
ATOM     25  C   UNL A   1      32.579  32.712  27.202  1.00  0.00     0.116 C 
BRANCH  25  26
ATOM     26  N   UNL A   1      32.350  34.084  27.626  1.00  0.00    -0.352 N 
ATOM     27  C   UNL A   1      33.006  34.819  28.582  1.00  0.00     0.251 C 
ATOM     28  H   UNL A   1      31.620  34.553  27.160  1.00  0.00     0.163 HD
ATOM     29  O   UNL A   1      32.588  35.928  28.902  1.00  0.00    -0.269 OA
BRANCH  27  30
ATOM     30  C   UNL A   1      34.200  34.260  29.253  1.00  0.00     0.039 A 
ATOM     31  C   UNL A   1      34.026  33.479  30.398  1.00  0.00     0.014 A 
ATOM     32  C   UNL A   1      35.482  34.495  28.749  1.00  0.00     0.014 A 
ATOM     33  C   UNL A   1      35.134  32.877  30.999  1.00  0.00     0.010 A 
ATOM     34  C   UNL A   1      36.574  33.833  29.303  1.00  0.00     0.010 A 
ATOM     35  C   UNL A   1      36.411  33.017  30.433  1.00  0.00    -0.014 A 
BRANCH  35  36
ATOM     36  C   UNL A   1      37.590  32.318  31.007  1.00  0.00     0.031 A 
ATOM     37  C   UNL A   1      38.236  32.829  32.264  1.00  0.00     0.074 A 
ATOM     38  C   UNL A   1      38.117  31.257  30.363  1.00  0.00     0.049 A 
ATOM     39  N   UNL A   1      39.306  32.395  32.881  1.00  0.00    -0.248 NA
ATOM     40  C   UNL A   1      37.611  34.000  32.897  1.00  0.00     0.031 C 
ATOM     41  C   UNL A   1      37.607  30.685  29.116  1.00  0.00     0.029 A 
ATOM     42  N   UNL A   1      39.205  30.477  30.667  1.00  0.00    -0.354 N 
ATOM     43  C   UNL A   1      39.485  33.243  33.967  1.00  0.00     0.074 A 
ATOM     44  C   UNL A   1      38.454  34.255  33.886  1.00  0.00     0.031 C 
ATOM     45  C   UNL A   1      38.359  29.625  28.779  1.00  0.00     0.029 A 
ATOM     46  C   UNL A   1      39.430  29.470  29.759  1.00  0.00     0.049 A 
ATOM     47  H   UNL A   1      39.769  30.625  31.459  1.00  0.00     0.167 HD
ATOM     48  C   UNL A   1      40.408  33.171  34.957  1.00  0.00     0.037 A 
ATOM     49  C   UNL A   1      40.393  28.531  29.720  1.00  0.00     0.037 A 
ATOM     50  C   UNL A   1      41.429  32.160  35.038  1.00  0.00     0.049 A 
ATOM     51  C   UNL A   1      41.433  28.497  30.807  1.00  0.00     0.074 A 
ATOM     52  C   UNL A   1      42.386  31.976  36.021  1.00  0.00     0.029 A 
ATOM     53  N   UNL A   1      41.631  31.163  34.095  1.00  0.00    -0.354 N 
ATOM     54  N   UNL A   1      41.556  29.269  31.859  1.00  0.00    -0.248 NA
ATOM     55  C   UNL A   1      42.466  27.458  30.698  1.00  0.00     0.031 C 
ATOM     56  C   UNL A   1      43.199  30.901  35.646  1.00  0.00     0.029 A 
ATOM     57  C   UNL A   1      42.713  30.377  34.459  1.00  0.00     0.049 A 
ATOM     58  H   UNL A   1      41.086  31.032  33.285  1.00  0.00     0.167 HD
ATOM     59  C   UNL A   1      42.657  28.788  32.557  1.00  0.00     0.074 A 
ATOM     60  C   UNL A   1      43.160  27.652  31.812  1.00  0.00     0.031 C 
ATOM     61  C   UNL A   1      43.200  29.244  33.713  1.00  0.00     0.037 A 
BRANCH  48  62
ATOM     62  C   UNL A   1      40.349  34.225  36.028  1.00  0.00     0.057 A 
ATOM     63  C   UNL A   1      41.067  35.425  35.924  1.00  0.00     0.134 A 
ATOM     64  C   UNL A   1      39.561  34.042  37.171  1.00  0.00     0.134 A 
ATOM     65  F   UNL A   1      41.852  35.659  34.861  1.00  0.00    -0.206 F 
ATOM     66  C   UNL A   1      41.036  36.385  36.938  1.00  0.00     0.040 A 
ATOM     67  C   UNL A   1      39.496  35.011  38.174  1.00  0.00     0.040 A 
ATOM     68  F   UNL A   1      38.841  32.923  37.332  1.00  0.00    -0.206 F 
ATOM     69  C   UNL A   1      40.244  36.182  38.065  1.00  0.00     0.006 A 
ENDBRANCH  48  62
BRANCH  49  70
ATOM     70  C   UNL A   1      40.402  27.520  28.632  1.00  0.00     0.057 A 
ATOM     71  C   UNL A   1      39.641  26.349  28.733  1.00  0.00     0.134 A 
ATOM     72  C   UNL A   1      41.166  27.694  27.472  1.00  0.00     0.134 A 
ATOM     73  F   UNL A   1      38.904  26.117  29.829  1.00  0.00    -0.206 F 
ATOM     74  C   UNL A   1      39.652  25.379  27.729  1.00  0.00     0.040 A 
ATOM     75  C   UNL A   1      41.166  26.745  26.448  1.00  0.00     0.040 A 
ATOM     76  F   UNL A   1      41.911  28.798  27.310  1.00  0.00    -0.206 F 
ATOM     77  C   UNL A   1      40.413  25.580  26.579  1.00  0.00     0.006 A 
ENDBRANCH  49  70
BRANCH  61  78
ATOM     78  C   UNL A   1      44.374  28.490  34.267  1.00  0.00     0.057 A 
ATOM     79  C   UNL A   1      45.696  28.848  33.972  1.00  0.00     0.134 A 
ATOM     80  C   UNL A   1      44.178  27.410  35.138  1.00  0.00     0.134 A 
ATOM     81  F   UNL A   1      45.954  29.863  33.133  1.00  0.00    -0.206 F 
ATOM     82  C   UNL A   1      46.779  28.145  34.504  1.00  0.00     0.040 A 
ATOM     83  C   UNL A   1      45.252  26.719  35.700  1.00  0.00     0.040 A 
ATOM     84  F   UNL A   1      42.938  27.019  35.470  1.00  0.00    -0.206 F 
ATOM     85  C   UNL A   1      46.557  27.082  35.377  1.00  0.00     0.006 A 
ENDBRANCH  61  78
ENDBRANCH  35  36
ENDBRANCH  27  30
ENDBRANCH  25  26
ENDBRANCH  24  25
ENDBRANCH  23  24
ENDBRANCH   1  23
TORSDOF 16
ENDMDL
