MODEL 1
REMARK VINA RESULT:     -11.4      0.000      0.000
REMARK SMILES CC(C)(C)OC(=O)N[C@H](Cc1ccc(N=[N+]=[N-])cc1)C(=O)NCCCCNC(=O)c1ccc(-c2c3nc(c(-c4c(F)cccc4F)c4ccc([nH]4)c(-c4c(F)cccc4F)c4nc(c(-c5c(F)cccc5F)c5ccc2[nH]5)C=C4)C=C3)cc1
REMARK SMILES IDX 24 1 23 2 22 3 20 4 21 5 9 7 8 8 6 9 7 10 5 12 2 13 1 14
REMARK SMILES IDX 3 15 4 16 10 17 11 18 12 19 19 20 13 21 18 22 14 23 15 24
REMARK SMILES IDX 16 25 17 26 25 27 26 28 27 29 28 30 29 32 30 33 31 34 83 35
REMARK SMILES IDX 32 36 82 37 33 38 34 39 35 40 76 41 36 42 81 43 75 44 77 45
REMARK SMILES IDX 37 46 80 47 74 48 73 49 38 51 64 52 47 53 63 54 48 55 51 56
REMARK SMILES IDX 62 57 78 58 49 59 50 60 61 62 79 63 52 64 39 65 40 66 45 67
REMARK SMILES IDX 41 68 42 69 44 70 46 71 43 72 65 73 66 74 71 75 67 76 68 77
REMARK SMILES IDX 70 78 72 79 69 80 53 81 54 82 59 83 55 84 56 85 58 86 60 87
REMARK SMILES IDX 57 88
REMARK H PARENT 22 6 8 11 27 31 77 50 51 61
REMARK Flexibility Score: inf
ROOT
ATOM      1  C   UNL A   1      37.093  21.815  24.372  1.00  0.00     0.023 C 
ENDROOT
BRANCH   1   2
ATOM      2  C   UNL A   1      36.509  22.761  25.420  1.00  0.00     0.116 C 
BRANCH   2   3
ATOM      3  N   UNL A   1      35.812  22.011  26.440  1.00  0.00    -0.354 N 
ATOM      4  C   UNL A   1      34.479  21.804  26.631  1.00  0.00     0.243 C 
ATOM      5  O   UNL A   1      34.141  21.363  27.735  1.00  0.00    -0.273 OA
ATOM      6  H   UNL A   1      36.395  21.581  27.107  1.00  0.00     0.163 HD
BRANCH   4   7
ATOM      7  C   UNL A   1      33.411  22.175  25.575  1.00  0.00     0.179 C 
BRANCH   7   8
ATOM      8  N   UNL A   1      32.118  22.432  26.202  1.00  0.00    -0.309 N 
ATOM      9  C   UNL A   1      31.666  23.600  26.728  1.00  0.00     0.408 C 
ATOM     10  O   UNL A   1      30.551  23.648  27.230  1.00  0.00    -0.225 OA
ATOM     11  H   UNL A   1      31.500  21.667  26.249  1.00  0.00     0.167 HD
BRANCH   9  12
ATOM     12  O   UNL A   1      32.544  24.621  26.624  1.00  0.00    -0.444 OA
BRANCH  12  13
ATOM     13  C   UNL A   1      32.265  25.726  25.724  1.00  0.00     0.106 C 
ATOM     14  C   UNL A   1      33.627  26.122  25.133  1.00  0.00     0.056 C 
ATOM     15  C   UNL A   1      31.696  26.940  26.470  1.00  0.00     0.056 C 
ATOM     16  C   UNL A   1      31.350  25.279  24.578  1.00  0.00     0.056 C 
ENDBRANCH  12  13
ENDBRANCH   9  12
ENDBRANCH   7   8
BRANCH   7  17
ATOM     17  C   UNL A   1      33.377  21.218  24.346  1.00  0.00     0.070 C 
BRANCH  17  18
ATOM     18  C   UNL A   1      33.486  19.723  24.582  1.00  0.00    -0.045 A 
ATOM     19  C   UNL A   1      32.377  18.979  24.993  1.00  0.00     0.004 A 
ATOM     20  C   UNL A   1      34.691  19.040  24.378  1.00  0.00     0.004 A 
ATOM     21  C   UNL A   1      32.430  17.579  25.021  1.00  0.00     0.010 A 
ATOM     22  C   UNL A   1      34.739  17.639  24.398  1.00  0.00     0.010 A 
ATOM     23  C   UNL A   1      33.595  16.885  24.682  1.00  0.00     0.038 A 
BRANCH  23  24
ATOM     24  N   UNL A   1      33.504  15.482  24.634  1.00  0.00    -0.061 NA
ATOM     25  N   UNL A   1      32.950  14.925  25.595  1.00  0.00     0.005 N 
ATOM     26  N   UNL A   1      32.438  14.403  26.474  1.00  0.00    -0.003 NA
ENDBRANCH  23  24
ENDBRANCH  17  18
ENDBRANCH   7  17
ENDBRANCH   4   7
ENDBRANCH   2   3
ENDBRANCH   1   2
BRANCH   1  27
ATOM     27  C   UNL A   1      37.696  20.536  24.926  1.00  0.00     0.023 C 
BRANCH  27  28
ATOM     28  C   UNL A   1      38.937  20.758  25.773  1.00  0.00     0.116 C 
BRANCH  28  29
ATOM     29  N   UNL A   1      39.907  19.670  25.694  1.00  0.00    -0.352 N 
ATOM     30  C   UNL A   1      41.248  19.687  26.006  1.00  0.00     0.251 C 
ATOM     31  H   UNL A   1      39.556  18.808  25.374  1.00  0.00     0.163 HD
ATOM     32  O   UNL A   1      41.961  18.717  25.781  1.00  0.00    -0.269 OA
BRANCH  30  33
ATOM     33  C   UNL A   1      41.820  20.920  26.579  1.00  0.00     0.039 A 
ATOM     34  C   UNL A   1      42.418  21.853  25.731  1.00  0.00     0.014 A 
ATOM     35  C   UNL A   1      41.659  21.193  27.938  1.00  0.00     0.014 A 
ATOM     36  C   UNL A   1      42.770  23.103  26.236  1.00  0.00     0.010 A 
ATOM     37  C   UNL A   1      41.890  22.477  28.405  1.00  0.00     0.010 A 
ATOM     38  C   UNL A   1      42.457  23.445  27.563  1.00  0.00    -0.014 A 
BRANCH  38  39
ATOM     39  C   UNL A   1      42.727  24.800  28.102  1.00  0.00     0.031 A 
ATOM     40  C   UNL A   1      44.119  25.162  28.543  1.00  0.00     0.074 A 
ATOM     41  C   UNL A   1      41.714  25.674  28.265  1.00  0.00     0.049 A 
ATOM     42  N   UNL A   1      44.548  26.259  29.112  1.00  0.00    -0.248 NA
ATOM     43  C   UNL A   1      45.162  24.139  28.354  1.00  0.00     0.031 C 
ATOM     44  C   UNL A   1      40.309  25.420  27.932  1.00  0.00     0.029 A 
ATOM     45  N   UNL A   1      41.709  26.954  28.759  1.00  0.00    -0.354 N 
ATOM     46  C   UNL A   1      45.898  26.049  29.361  1.00  0.00     0.074 A 
ATOM     47  C   UNL A   1      46.201  24.696  28.956  1.00  0.00     0.031 C 
ATOM     48  C   UNL A   1      39.589  26.522  28.194  1.00  0.00     0.029 A 
ATOM     49  C   UNL A   1      40.467  27.542  28.757  1.00  0.00     0.049 A 
ATOM     50  H   UNL A   1      42.519  27.409  29.083  1.00  0.00     0.167 HD
ATOM     51  C   UNL A   1      46.814  26.916  29.850  1.00  0.00     0.037 A 
ATOM     52  C   UNL A   1      40.081  28.765  29.168  1.00  0.00     0.037 A 
ATOM     53  C   UNL A   1      46.513  28.271  30.227  1.00  0.00     0.049 A 
ATOM     54  C   UNL A   1      41.115  29.706  29.724  1.00  0.00     0.074 A 
ATOM     55  C   UNL A   1      47.377  29.252  30.679  1.00  0.00     0.029 A 
ATOM     56  N   UNL A   1      45.245  28.833  30.199  1.00  0.00    -0.354 N 
ATOM     57  N   UNL A   1      42.403  29.522  29.883  1.00  0.00    -0.248 NA
ATOM     58  C   UNL A   1      40.641  31.030  30.153  1.00  0.00     0.031 C 
ATOM     59  C   UNL A   1      46.624  30.390  30.980  1.00  0.00     0.029 A 
ATOM     60  C   UNL A   1      45.299  30.140  30.653  1.00  0.00     0.049 A 
ATOM     61  H   UNL A   1      44.428  28.372  29.901  1.00  0.00     0.167 HD
ATOM     62  C   UNL A   1      42.899  30.713  30.399  1.00  0.00     0.074 A 
ATOM     63  C   UNL A   1      41.774  31.618  30.510  1.00  0.00     0.031 C 
ATOM     64  C   UNL A   1      44.169  31.030  30.748  1.00  0.00     0.037 A 
BRANCH  51  65
ATOM     65  C   UNL A   1      48.226  26.423  29.995  1.00  0.00     0.057 A 
ATOM     66  C   UNL A   1      48.683  25.816  31.174  1.00  0.00     0.134 A 
ATOM     67  C   UNL A   1      49.136  26.541  28.938  1.00  0.00     0.134 A 
ATOM     68  F   UNL A   1      47.867  25.685  32.231  1.00  0.00    -0.206 F 
ATOM     69  C   UNL A   1      50.000  25.376  31.308  1.00  0.00     0.040 A 
ATOM     70  C   UNL A   1      50.447  26.073  29.048  1.00  0.00     0.040 A 
ATOM     71  F   UNL A   1      48.768  27.107  27.779  1.00  0.00    -0.206 F 
ATOM     72  C   UNL A   1      50.885  25.497  30.239  1.00  0.00     0.006 A 
ENDBRANCH  51  65
BRANCH  52  73
ATOM     73  C   UNL A   1      38.659  29.181  29.050  1.00  0.00     0.057 A 
ATOM     74  C   UNL A   1      37.792  29.110  30.147  1.00  0.00     0.134 A 
ATOM     75  C   UNL A   1      38.127  29.643  27.840  1.00  0.00     0.134 A 
ATOM     76  F   UNL A   1      38.237  28.661  31.331  1.00  0.00    -0.206 F 
ATOM     77  C   UNL A   1      36.443  29.457  30.041  1.00  0.00     0.040 A 
ATOM     78  C   UNL A   1      36.787  30.021  27.726  1.00  0.00     0.040 A 
ATOM     79  F   UNL A   1      38.904  29.744  26.753  1.00  0.00    -0.206 F 
ATOM     80  C   UNL A   1      35.939  29.919  28.827  1.00  0.00     0.006 A 
ENDBRANCH  52  73
BRANCH  64  81
ATOM     81  C   UNL A   1      44.420  32.425  31.244  1.00  0.00     0.057 A 
ATOM     82  C   UNL A   1      44.699  33.485  30.372  1.00  0.00     0.134 A 
ATOM     83  C   UNL A   1      44.336  32.718  32.612  1.00  0.00     0.134 A 
ATOM     84  F   UNL A   1      44.804  33.271  29.052  1.00  0.00    -0.206 F 
ATOM     85  C   UNL A   1      44.913  34.780  30.845  1.00  0.00     0.040 A 
ATOM     86  C   UNL A   1      44.515  34.015  33.094  1.00  0.00     0.040 A 
ATOM     87  F   UNL A   1      44.060  31.751  33.501  1.00  0.00    -0.206 F 
ATOM     88  C   UNL A   1      44.813  35.049  32.210  1.00  0.00     0.006 A 
ENDBRANCH  64  81
ENDBRANCH  38  39
ENDBRANCH  30  33
ENDBRANCH  28  29
ENDBRANCH  27  28
ENDBRANCH   1  27
TORSDOF 17
ENDMDL
MODEL 2
REMARK VINA RESULT:     -11.3      0.523      6.263
REMARK SMILES CC(C)(C)OC(=O)N[C@H](Cc1ccc(N=[N+]=[N-])cc1)C(=O)NCCCCNC(=O)c1ccc(-c2c3nc(c(-c4c(F)cccc4F)c4ccc([nH]4)c(-c4c(F)cccc4F)c4nc(c(-c5c(F)cccc5F)c5ccc2[nH]5)C=C4)C=C3)cc1
REMARK SMILES IDX 24 1 23 2 22 3 20 4 21 5 9 7 8 8 6 9 7 10 5 12 2 13 1 14
REMARK SMILES IDX 3 15 4 16 10 17 11 18 12 19 19 20 13 21 18 22 14 23 15 24
REMARK SMILES IDX 16 25 17 26 25 27 26 28 27 29 28 30 29 32 30 33 31 34 83 35
REMARK SMILES IDX 32 36 82 37 33 38 34 39 35 40 76 41 36 42 81 43 75 44 77 45
REMARK SMILES IDX 37 46 80 47 74 48 73 49 38 51 64 52 47 53 63 54 48 55 51 56
REMARK SMILES IDX 62 57 78 58 49 59 50 60 61 62 79 63 52 64 39 65 40 66 45 67
REMARK SMILES IDX 41 68 42 69 44 70 46 71 43 72 65 73 66 74 71 75 67 76 68 77
REMARK SMILES IDX 70 78 72 79 69 80 53 81 54 82 59 83 55 84 56 85 58 86 60 87
REMARK SMILES IDX 57 88
REMARK H PARENT 22 6 8 11 27 31 77 50 51 61
REMARK Flexibility Score: inf
ROOT
ATOM      1  C   UNL A   1      37.227  22.305  24.543  1.00  0.00     0.023 C 
ENDROOT
BRANCH   1   2
ATOM      2  C   UNL A   1      36.580  23.134  25.651  1.00  0.00     0.116 C 
BRANCH   2   3
ATOM      3  N   UNL A   1      35.842  22.278  26.553  1.00  0.00    -0.354 N 
ATOM      4  C   UNL A   1      34.504  22.043  26.654  1.00  0.00     0.243 C 
ATOM      5  O   UNL A   1      34.117  21.488  27.689  1.00  0.00    -0.273 OA
ATOM      6  H   UNL A   1      36.397  21.786  27.200  1.00  0.00     0.163 HD
BRANCH   4   7
ATOM      7  C   UNL A   1      33.485  22.512  25.589  1.00  0.00     0.179 C 
BRANCH   7   8
ATOM      8  N   UNL A   1      32.191  22.813  26.195  1.00  0.00    -0.309 N 
ATOM      9  C   UNL A   1      31.753  24.008  26.671  1.00  0.00     0.408 C 
ATOM     10  O   UNL A   1      30.635  24.093  27.161  1.00  0.00    -0.225 OA
ATOM     11  H   UNL A   1      31.562  22.060  26.268  1.00  0.00     0.167 HD
BRANCH   9  12
ATOM     12  O   UNL A   1      32.647  25.012  26.532  1.00  0.00    -0.444 OA
BRANCH  12  13
ATOM     13  C   UNL A   1      32.321  26.162  25.708  1.00  0.00     0.106 C 
ATOM     14  C   UNL A   1      31.629  25.587  24.463  1.00  0.00     0.056 C 
ATOM     15  C   UNL A   1      33.579  26.913  25.253  1.00  0.00     0.056 C 
ATOM     16  C   UNL A   1      31.333  27.087  26.429  1.00  0.00     0.056 C 
ENDBRANCH  12  13
ENDBRANCH   9  12
ENDBRANCH   7   8
BRANCH   7  17
ATOM     17  C   UNL A   1      33.432  21.609  24.321  1.00  0.00     0.070 C 
BRANCH  17  18
ATOM     18  C   UNL A   1      33.525  20.104  24.494  1.00  0.00    -0.045 A 
ATOM     19  C   UNL A   1      32.372  19.323  24.610  1.00  0.00     0.004 A 
ATOM     20  C   UNL A   1      34.762  19.450  24.521  1.00  0.00     0.004 A 
ATOM     21  C   UNL A   1      32.452  17.924  24.572  1.00  0.00     0.010 A 
ATOM     22  C   UNL A   1      34.840  18.050  24.475  1.00  0.00     0.010 A 
ATOM     23  C   UNL A   1      33.680  17.267  24.459  1.00  0.00     0.038 A 
BRANCH  23  24
ATOM     24  N   UNL A   1      33.638  15.868  24.316  1.00  0.00    -0.061 NA
ATOM     25  N   UNL A   1      32.939  15.244  25.130  1.00  0.00     0.005 N 
ATOM     26  N   UNL A   1      32.294  14.661  25.872  1.00  0.00    -0.003 NA
ENDBRANCH  23  24
ENDBRANCH  17  18
ENDBRANCH   7  17
ENDBRANCH   4   7
ENDBRANCH   2   3
ENDBRANCH   1   2
BRANCH   1  27
ATOM     27  C   UNL A   1      37.787  20.965  24.987  1.00  0.00     0.023 C 
BRANCH  27  28
ATOM     28  C   UNL A   1      39.025  21.075  25.861  1.00  0.00     0.116 C 
BRANCH  28  29
ATOM     29  N   UNL A   1      39.927  19.933  25.752  1.00  0.00    -0.352 N 
ATOM     30  C   UNL A   1      41.276  19.872  26.018  1.00  0.00     0.251 C 
ATOM     31  H   UNL A   1      39.515  19.092  25.447  1.00  0.00     0.163 HD
ATOM     32  O   UNL A   1      41.924  18.862  25.771  1.00  0.00    -0.269 OA
BRANCH  30  33
ATOM     33  C   UNL A   1      41.939  21.070  26.566  1.00  0.00     0.039 A 
ATOM     34  C   UNL A   1      42.432  22.038  25.690  1.00  0.00     0.014 A 
ATOM     35  C   UNL A   1      41.965  21.277  27.946  1.00  0.00     0.014 A 
ATOM     36  C   UNL A   1      42.867  23.259  26.203  1.00  0.00     0.010 A 
ATOM     37  C   UNL A   1      42.276  22.535  28.438  1.00  0.00     0.010 A 
ATOM     38  C   UNL A   1      42.740  23.538  27.574  1.00  0.00    -0.014 A 
BRANCH  38  39
ATOM     39  C   UNL A   1      43.101  24.863  28.136  1.00  0.00     0.031 A 
ATOM     40  C   UNL A   1      42.027  25.891  28.364  1.00  0.00     0.074 A 
ATOM     41  C   UNL A   1      44.393  25.166  28.369  1.00  0.00     0.049 A 
ATOM     42  N   UNL A   1      42.141  27.130  28.770  1.00  0.00    -0.248 NA
ATOM     43  C   UNL A   1      40.644  25.486  28.059  1.00  0.00     0.031 C 
ATOM     44  C   UNL A   1      45.532  24.275  28.131  1.00  0.00     0.029 A 
ATOM     45  N   UNL A   1      44.968  26.314  28.852  1.00  0.00    -0.354 N 
ATOM     46  C   UNL A   1      40.853  27.649  28.751  1.00  0.00     0.074 A 
ATOM     47  C   UNL A   1      39.986  26.623  28.221  1.00  0.00     0.031 C 
ATOM     48  C   UNL A   1      46.662  24.896  28.506  1.00  0.00     0.029 A 
ATOM     49  C   UNL A   1      46.336  26.242  28.965  1.00  0.00     0.049 A 
ATOM     50  H   UNL A   1      44.450  27.114  29.097  1.00  0.00     0.167 HD
ATOM     51  C   UNL A   1      40.423  28.862  29.172  1.00  0.00     0.037 A 
ATOM     52  C   UNL A   1      47.226  27.161  29.387  1.00  0.00     0.037 A 
ATOM     53  C   UNL A   1      41.286  29.871  29.723  1.00  0.00     0.049 A 
ATOM     54  C   UNL A   1      46.725  28.508  29.833  1.00  0.00     0.074 A 
ATOM     55  C   UNL A   1      40.946  31.110  30.233  1.00  0.00     0.029 A 
ATOM     56  N   UNL A   1      42.664  29.755  29.832  1.00  0.00    -0.354 N 
ATOM     57  N   UNL A   1      45.495  28.960  29.882  1.00  0.00    -0.248 NA
ATOM     58  C   UNL A   1      47.737  29.471  30.289  1.00  0.00     0.031 C 
ATOM     59  C   UNL A   1      42.124  31.769  30.597  1.00  0.00     0.029 A 
ATOM     60  C   UNL A   1      43.192  30.914  30.375  1.00  0.00     0.049 A 
ATOM     61  H   UNL A   1      43.189  28.967  29.563  1.00  0.00     0.167 HD
ATOM     62  C   UNL A   1      45.582  30.245  30.403  1.00  0.00     0.074 A 
ATOM     63  C   UNL A   1      46.983  30.493  30.668  1.00  0.00     0.031 C 
ATOM     64  C   UNL A   1      44.591  31.139  30.641  1.00  0.00     0.037 A 
BRANCH  51  65
ATOM     65  C   UNL A   1      38.953  29.153  29.055  1.00  0.00     0.057 A 
ATOM     66  C   UNL A   1      38.362  29.515  27.836  1.00  0.00     0.134 A 
ATOM     67  C   UNL A   1      38.114  29.054  30.172  1.00  0.00     0.134 A 
ATOM     68  F   UNL A   1      39.111  29.643  26.730  1.00  0.00    -0.206 F 
ATOM     69  C   UNL A   1      37.001  29.801  27.740  1.00  0.00     0.040 A 
ATOM     70  C   UNL A   1      36.744  29.304  30.080  1.00  0.00     0.040 A 
ATOM     71  F   UNL A   1      38.610  28.709  31.370  1.00  0.00    -0.206 F 
ATOM     72  C   UNL A   1      36.185  29.688  28.863  1.00  0.00     0.006 A 
ENDBRANCH  51  65
BRANCH  52  73
ATOM     73  C   UNL A   1      48.675  26.836  29.430  1.00  0.00     0.057 A 
ATOM     74  C   UNL A   1      49.507  27.094  28.334  1.00  0.00     0.134 A 
ATOM     75  C   UNL A   1      49.262  26.245  30.556  1.00  0.00     0.134 A 
ATOM     76  F   UNL A   1      49.002  27.644  27.219  1.00  0.00    -0.206 F 
ATOM     77  C   UNL A   1      50.862  26.756  28.344  1.00  0.00     0.040 A 
ATOM     78  C   UNL A   1      50.622  25.928  30.592  1.00  0.00     0.040 A 
ATOM     79  F   UNL A   1      48.525  25.978  31.643  1.00  0.00    -0.206 F 
ATOM     80  C   UNL A   1      51.423  26.174  29.479  1.00  0.00     0.006 A 
ENDBRANCH  52  73
BRANCH  64  81
ATOM     81  C   UNL A   1      44.982  32.452  31.256  1.00  0.00     0.057 A 
ATOM     82  C   UNL A   1      45.055  32.631  32.643  1.00  0.00     0.134 A 
ATOM     83  C   UNL A   1      45.332  33.540  30.444  1.00  0.00     0.134 A 
ATOM     84  F   UNL A   1      44.723  31.634  33.477  1.00  0.00    -0.206 F 
ATOM     85  C   UNL A   1      45.436  33.853  33.200  1.00  0.00     0.040 A 
ATOM     86  C   UNL A   1      45.746  34.755  30.989  1.00  0.00     0.040 A 
ATOM     87  F   UNL A   1      45.295  33.432  29.107  1.00  0.00    -0.206 F 
ATOM     88  C   UNL A   1      45.791  34.916  32.372  1.00  0.00     0.006 A 
ENDBRANCH  64  81
ENDBRANCH  38  39
ENDBRANCH  30  33
ENDBRANCH  28  29
ENDBRANCH  27  28
ENDBRANCH   1  27
TORSDOF 17
ENDMDL
MODEL 3
REMARK VINA RESULT:     -11.2      2.894      7.492
REMARK SMILES CC(C)(C)OC(=O)N[C@H](Cc1ccc(N=[N+]=[N-])cc1)C(=O)NCCCCNC(=O)c1ccc(-c2c3nc(c(-c4c(F)cccc4F)c4ccc([nH]4)c(-c4c(F)cccc4F)c4nc(c(-c5c(F)cccc5F)c5ccc2[nH]5)C=C4)C=C3)cc1
REMARK SMILES IDX 24 1 23 2 22 3 20 4 21 5 9 7 8 8 6 9 7 10 5 12 2 13 1 14
REMARK SMILES IDX 3 15 4 16 10 17 11 18 12 19 19 20 13 21 18 22 14 23 15 24
REMARK SMILES IDX 16 25 17 26 25 27 26 28 27 29 28 30 29 32 30 33 31 34 83 35
REMARK SMILES IDX 32 36 82 37 33 38 34 39 35 40 76 41 36 42 81 43 75 44 77 45
REMARK SMILES IDX 37 46 80 47 74 48 73 49 38 51 64 52 47 53 63 54 48 55 51 56
REMARK SMILES IDX 62 57 78 58 49 59 50 60 61 62 79 63 52 64 39 65 40 66 45 67
REMARK SMILES IDX 41 68 42 69 44 70 46 71 43 72 65 73 66 74 71 75 67 76 68 77
REMARK SMILES IDX 70 78 72 79 69 80 53 81 54 82 59 83 55 84 56 85 58 86 60 87
REMARK SMILES IDX 57 88
REMARK H PARENT 22 6 8 11 27 31 77 50 51 61
REMARK Flexibility Score: inf
ROOT
ATOM      1  C   UNL A   1      33.787  26.582  25.477  1.00  0.00     0.023 C 
ENDROOT
BRANCH   1   2
ATOM      2  C   UNL A   1      32.708  25.509  25.344  1.00  0.00     0.116 C 
BRANCH   2   3
ATOM      3  N   UNL A   1      32.230  25.443  23.981  1.00  0.00    -0.354 N 
ATOM      4  C   UNL A   1      32.410  24.488  23.025  1.00  0.00     0.243 C 
ATOM      5  O   UNL A   1      32.132  24.810  21.864  1.00  0.00    -0.273 OA
ATOM      6  H   UNL A   1      31.687  26.213  23.696  1.00  0.00     0.163 HD
BRANCH   4   7
ATOM      7  C   UNL A   1      33.011  23.097  23.330  1.00  0.00     0.179 C 
BRANCH   7   8
ATOM      8  N   UNL A   1      34.335  22.953  22.733  1.00  0.00    -0.309 N 
ATOM      9  C   UNL A   1      35.539  23.223  23.303  1.00  0.00     0.408 C 
ATOM     10  O   UNL A   1      36.566  23.056  22.659  1.00  0.00    -0.225 OA
ATOM     11  H   UNL A   1      34.359  22.621  21.807  1.00  0.00     0.167 HD
BRANCH   9  12
ATOM     12  O   UNL A   1      35.453  23.659  24.579  1.00  0.00    -0.444 OA
BRANCH  12  13
ATOM     13  C   UNL A   1      36.099  22.912  25.644  1.00  0.00     0.106 C 
ATOM     14  C   UNL A   1      35.121  22.965  26.827  1.00  0.00     0.056 C 
ATOM     15  C   UNL A   1      37.417  23.567  26.081  1.00  0.00     0.056 C 
ATOM     16  C   UNL A   1      36.296  21.446  25.240  1.00  0.00     0.056 C 
ENDBRANCH  12  13
ENDBRANCH   9  12
ENDBRANCH   7   8
BRANCH   7  17
ATOM     17  C   UNL A   1      32.032  21.913  23.072  1.00  0.00     0.070 C 
BRANCH  17  18
ATOM     18  C   UNL A   1      32.389  20.540  23.612  1.00  0.00    -0.045 A 
ATOM     19  C   UNL A   1      32.798  20.375  24.938  1.00  0.00     0.004 A 
ATOM     20  C   UNL A   1      32.301  19.396  22.810  1.00  0.00     0.004 A 
ATOM     21  C   UNL A   1      32.938  19.093  25.487  1.00  0.00     0.010 A 
ATOM     22  C   UNL A   1      32.432  18.114  23.363  1.00  0.00     0.010 A 
ATOM     23  C   UNL A   1      32.714  17.944  24.723  1.00  0.00     0.038 A 
BRANCH  23  24
ATOM     24  N   UNL A   1      32.770  16.713  25.401  1.00  0.00    -0.061 NA
ATOM     25  N   UNL A   1      33.839  16.086  25.331  1.00  0.00     0.005 N 
ATOM     26  N   UNL A   1      34.821  15.502  25.276  1.00  0.00    -0.003 NA
ENDBRANCH  23  24
ENDBRANCH  17  18
ENDBRANCH   7  17
ENDBRANCH   4   7
ENDBRANCH   2   3
ENDBRANCH   1   2
BRANCH   1  27
ATOM     27  C   UNL A   1      33.361  27.832  26.226  1.00  0.00     0.023 C 
BRANCH  27  28
ATOM     28  C   UNL A   1      34.483  28.835  26.435  1.00  0.00     0.116 C 
BRANCH  28  29
ATOM     29  N   UNL A   1      34.017  30.181  26.756  1.00  0.00    -0.352 N 
ATOM     30  C   UNL A   1      34.527  31.073  27.672  1.00  0.00     0.251 C 
ATOM     31  H   UNL A   1      33.233  30.493  26.249  1.00  0.00     0.163 HD
ATOM     32  O   UNL A   1      33.957  32.131  27.909  1.00  0.00    -0.269 OA
BRANCH  30  33
ATOM     33  C   UNL A   1      35.757  30.708  28.399  1.00  0.00     0.039 A 
ATOM     34  C   UNL A   1      35.680  29.798  29.454  1.00  0.00     0.014 A 
ATOM     35  C   UNL A   1      36.992  31.184  27.957  1.00  0.00     0.014 A 
ATOM     36  C   UNL A   1      36.858  29.294  30.004  1.00  0.00     0.010 A 
ATOM     37  C   UNL A   1      38.155  30.585  28.416  1.00  0.00     0.010 A 
ATOM     38  C   UNL A   1      38.103  29.641  29.452  1.00  0.00    -0.014 A 
BRANCH  38  39
ATOM     39  C   UNL A   1      39.368  29.045  29.948  1.00  0.00     0.031 A 
ATOM     40  C   UNL A   1      40.035  29.623  31.166  1.00  0.00     0.074 A 
ATOM     41  C   UNL A   1      39.952  28.040  29.265  1.00  0.00     0.049 A 
ATOM     42  N   UNL A   1      41.179  29.302  31.714  1.00  0.00    -0.248 NA
ATOM     43  C   UNL A   1      39.342  30.736  31.837  1.00  0.00     0.031 C 
ATOM     44  C   UNL A   1      39.435  27.433  28.035  1.00  0.00     0.029 A 
ATOM     45  N   UNL A   1      41.116  27.355  29.506  1.00  0.00    -0.354 N 
ATOM     46  C   UNL A   1      41.346  30.181  32.775  1.00  0.00     0.074 A 
ATOM     47  C   UNL A   1      40.230  31.098  32.749  1.00  0.00     0.031 C 
ATOM     48  C   UNL A   1      40.256  26.442  27.654  1.00  0.00     0.029 A 
ATOM     49  C   UNL A   1      41.381  26.374  28.581  1.00  0.00     0.049 A 
ATOM     50  H   UNL A   1      41.705  27.547  30.270  1.00  0.00     0.167 HD
ATOM     51  C   UNL A   1      42.322  30.203  33.711  1.00  0.00     0.037 A 
ATOM     52  C   UNL A   1      42.417  25.519  28.489  1.00  0.00     0.037 A 
ATOM     53  C   UNL A   1      43.418  29.271  33.748  1.00  0.00     0.049 A 
ATOM     54  C   UNL A   1      43.500  25.573  29.533  1.00  0.00     0.074 A 
ATOM     55  C   UNL A   1      44.429  29.168  34.685  1.00  0.00     0.029 A 
ATOM     56  N   UNL A   1      43.644  28.284  32.800  1.00  0.00    -0.354 N 
ATOM     57  N   UNL A   1      43.607  26.360  30.576  1.00  0.00    -0.248 NA
ATOM     58  C   UNL A   1      44.605  24.615  29.389  1.00  0.00     0.031 C 
ATOM     59  C   UNL A   1      45.301  28.156  34.274  1.00  0.00     0.029 A 
ATOM     60  C   UNL A   1      44.797  27.585  33.115  1.00  0.00     0.049 A 
ATOM     61  H   UNL A   1      43.072  28.107  32.020  1.00  0.00     0.167 HD
ATOM     62  C   UNL A   1      44.770  25.973  31.229  1.00  0.00     0.074 A 
ATOM     63  C   UNL A   1      45.324  24.869  30.473  1.00  0.00     0.031 C 
ATOM     64  C   UNL A   1      45.328  26.482  32.354  1.00  0.00     0.037 A 
BRANCH  51  65
ATOM     65  C   UNL A   1      42.241  31.264  34.772  1.00  0.00     0.057 A 
ATOM     66  C   UNL A   1      42.876  32.506  34.630  1.00  0.00     0.134 A 
ATOM     67  C   UNL A   1      41.504  31.048  35.943  1.00  0.00     0.134 A 
ATOM     68  F   UNL A   1      43.611  32.773  33.540  1.00  0.00    -0.206 F 
ATOM     69  C   UNL A   1      42.810  33.479  35.627  1.00  0.00     0.040 A 
ATOM     70  C   UNL A   1      41.402  32.028  36.932  1.00  0.00     0.040 A 
ATOM     71  F   UNL A   1      40.867  29.885  36.145  1.00  0.00    -0.206 F 
ATOM     72  C   UNL A   1      42.064  33.245  36.780  1.00  0.00     0.006 A 
ENDBRANCH  51  65
BRANCH  52  73
ATOM     73  C   UNL A   1      42.474  24.524  27.386  1.00  0.00     0.057 A 
ATOM     74  C   UNL A   1      41.957  23.233  27.550  1.00  0.00     0.134 A 
ATOM     75  C   UNL A   1      43.057  24.830  26.151  1.00  0.00     0.134 A 
ATOM     76  F   UNL A   1      41.400  22.873  28.716  1.00  0.00    -0.206 F 
ATOM     77  C   UNL A   1      42.041  22.275  26.538  1.00  0.00     0.040 A 
ATOM     78  C   UNL A   1      43.121  23.892  25.119  1.00  0.00     0.040 A 
ATOM     79  F   UNL A   1      43.563  26.051  25.924  1.00  0.00    -0.206 F 
ATOM     80  C   UNL A   1      42.621  22.606  25.315  1.00  0.00     0.006 A 
ENDBRANCH  52  73
BRANCH  64  81
ATOM     81  C   UNL A   1      46.581  25.826  32.859  1.00  0.00     0.057 A 
ATOM     82  C   UNL A   1      47.856  26.253  32.464  1.00  0.00     0.134 A 
ATOM     83  C   UNL A   1      46.509  24.781  33.790  1.00  0.00     0.134 A 
ATOM     84  F   UNL A   1      47.995  27.241  31.568  1.00  0.00    -0.206 F 
ATOM     85  C   UNL A   1      49.012  25.644  32.955  1.00  0.00     0.040 A 
ATOM     86  C   UNL A   1      47.658  24.187  34.313  1.00  0.00     0.040 A 
ATOM     87  F   UNL A   1      45.320  24.332  34.220  1.00  0.00    -0.206 F 
ATOM     88  C   UNL A   1      48.914  24.614  33.889  1.00  0.00     0.006 A 
ENDBRANCH  64  81
ENDBRANCH  38  39
ENDBRANCH  30  33
ENDBRANCH  28  29
ENDBRANCH  27  28
ENDBRANCH   1  27
TORSDOF 17
ENDMDL
