MODEL 1
REMARK VINA RESULT:     -11.3      0.000      0.000
REMARK SMILES CC[C@](C)(NC(=O)CCOc1ccc(Cl)c(Cl)c1)C(=O)NCCCCNC(=O)c1ccc(-c2c3nc(c(-c4c(F)cccc4F)c4ccc([nH]4)c(-c4c(F)cccc4F)c4nc(c(-c5c(F)cccc5F)c5ccc2[nH]5)C=C4)C=C3)cc1
REMARK SMILES IDX 22 1 21 2 19 3 20 4 3 6 4 7 2 8 1 9 5 10 6 11 7 13 8 14 9 15
REMARK SMILES IDX 10 16 11 17 12 18 18 19 13 20 16 21 14 22 17 23 15 24 23 25
REMARK SMILES IDX 24 26 25 27 26 28 27 29 28 31 29 32 30 33 82 34 31 35 81 36
REMARK SMILES IDX 32 37 33 38 34 39 75 40 35 41 80 42 74 43 76 44 36 45 79 46
REMARK SMILES IDX 73 47 72 48 37 50 63 51 46 52 62 53 47 54 50 55 61 56 77 57
REMARK SMILES IDX 48 58 49 59 60 61 78 62 51 63 38 64 39 65 44 66 40 67 41 68
REMARK SMILES IDX 43 69 45 70 42 71 64 72 65 73 70 74 66 75 67 76 69 77 71 78
REMARK SMILES IDX 68 79 52 80 53 81 58 82 54 83 55 84 57 85 59 86 56 87
REMARK H PARENT 21 5 5 12 26 30 76 49 50 60
REMARK Flexibility Score: inf
ROOT
ATOM      1  C   UNL A   1      35.655  20.486  25.195  1.00  0.00     0.116 C 
ENDROOT
BRANCH   1   2
ATOM      2  N   UNL A   1      34.985  21.212  26.258  1.00  0.00    -0.354 N 
ATOM      3  C   UNL A   1      33.720  21.717  26.330  1.00  0.00     0.245 C 
ATOM      4  O   UNL A   1      33.350  22.120  27.437  1.00  0.00    -0.272 OA
ATOM      5  H   UNL A   1      35.535  21.365  27.061  1.00  0.00     0.163 HD
BRANCH   3   6
ATOM      6  C   UNL A   1      32.757  21.666  25.108  1.00  0.00     0.116 C 
ATOM      7  C   UNL A   1      31.560  22.590  25.364  1.00  0.00     0.045 C 
BRANCH   6   8
ATOM      8  C   UNL A   1      32.313  20.167  24.948  1.00  0.00     0.035 C 
ATOM      9  C   UNL A   1      32.526  19.510  23.590  1.00  0.00     0.007 C 
ENDBRANCH   6   8
BRANCH   6  10
ATOM     10  N   UNL A   1      33.478  22.084  23.877  1.00  0.00    -0.342 N 
ATOM     11  C   UNL A   1      33.895  23.301  23.434  1.00  0.00     0.224 C 
ATOM     12  H   UNL A   1      33.697  21.341  23.270  1.00  0.00     0.164 HD
ATOM     13  O   UNL A   1      34.511  23.329  22.363  1.00  0.00    -0.275 OA
BRANCH  11  14
ATOM     14  C   UNL A   1      33.713  24.563  24.245  1.00  0.00     0.141 C 
BRANCH  14  15
ATOM     15  C   UNL A   1      33.252  25.748  23.392  1.00  0.00     0.239 C 
BRANCH  15  16
ATOM     16  O   UNL A   1      32.527  26.745  24.127  1.00  0.00    -0.493 OA
BRANCH  16  17
ATOM     17  C   UNL A   1      31.237  27.013  23.763  1.00  0.00     0.120 A 
ATOM     18  C   UNL A   1      30.125  26.242  24.090  1.00  0.00     0.048 A 
ATOM     19  C   UNL A   1      31.052  28.202  23.054  1.00  0.00     0.068 A 
ATOM     20  C   UNL A   1      28.837  26.737  23.881  1.00  0.00     0.026 A 
ATOM     21  C   UNL A   1      29.762  28.687  22.806  1.00  0.00     0.063 A 
ATOM     22  C   UNL A   1      28.651  27.972  23.262  1.00  0.00     0.059 A 
ATOM     23  Cl  UNL A   1      29.613  30.206  21.999  1.00  0.00    -0.083 Cl
ATOM     24  Cl  UNL A   1      27.036  28.566  23.124  1.00  0.00    -0.083 Cl
ENDBRANCH  16  17
ENDBRANCH  15  16
ENDBRANCH  14  15
ENDBRANCH  11  14
ENDBRANCH   6  10
ENDBRANCH   3   6
ENDBRANCH   1   2
BRANCH   1  25
ATOM     25  C   UNL A   1      37.093  20.944  24.958  1.00  0.00     0.023 C 
BRANCH  25  26
ATOM     26  C   UNL A   1      38.142  19.838  24.985  1.00  0.00     0.023 C 
BRANCH  26  27
ATOM     27  C   UNL A   1      39.261  20.062  25.986  1.00  0.00     0.116 C 
BRANCH  27  28
ATOM     28  N   UNL A   1      40.293  19.038  25.926  1.00  0.00    -0.352 N 
ATOM     29  C   UNL A   1      41.646  19.188  26.083  1.00  0.00     0.251 C 
ATOM     30  H   UNL A   1      39.978  18.121  25.752  1.00  0.00     0.163 HD
ATOM     31  O   UNL A   1      42.409  18.244  25.915  1.00  0.00    -0.269 OA
BRANCH  29  32
ATOM     32  C   UNL A   1      42.165  20.524  26.413  1.00  0.00     0.039 A 
ATOM     33  C   UNL A   1      42.392  21.429  25.377  1.00  0.00     0.014 A 
ATOM     34  C   UNL A   1      42.341  20.897  27.749  1.00  0.00     0.014 A 
ATOM     35  C   UNL A   1      42.750  22.738  25.686  1.00  0.00     0.010 A 
ATOM     36  C   UNL A   1      42.608  22.222  28.055  1.00  0.00     0.010 A 
ATOM     37  C   UNL A   1      42.829  23.150  27.026  1.00  0.00    -0.014 A 
BRANCH  37  38
ATOM     38  C   UNL A   1      43.180  24.544  27.377  1.00  0.00     0.031 A 
ATOM     39  C   UNL A   1      44.615  24.983  27.313  1.00  0.00     0.074 A 
ATOM     40  C   UNL A   1      42.221  25.386  27.808  1.00  0.00     0.049 A 
ATOM     41  N   UNL A   1      45.143  26.133  27.640  1.00  0.00    -0.248 NA
ATOM     42  C   UNL A   1      45.593  23.982  26.850  1.00  0.00     0.031 C 
ATOM     43  C   UNL A   1      40.805  25.049  27.965  1.00  0.00     0.029 A 
ATOM     44  N   UNL A   1      42.297  26.697  28.199  1.00  0.00    -0.354 N 
ATOM     45  C   UNL A   1      46.510  25.988  27.439  1.00  0.00     0.074 A 
ATOM     46  C   UNL A   1      46.738  24.622  27.026  1.00  0.00     0.031 C 
ATOM     47  C   UNL A   1      40.142  26.134  28.396  1.00  0.00     0.029 A 
ATOM     48  C   UNL A   1      41.089  27.229  28.577  1.00  0.00     0.049 A 
ATOM     49  H   UNL A   1      43.138  27.209  28.209  1.00  0.00     0.167 HD
ATOM     50  C   UNL A   1      47.484  26.920  27.558  1.00  0.00     0.037 A 
ATOM     51  C   UNL A   1      40.785  28.463  29.019  1.00  0.00     0.037 A 
ATOM     52  C   UNL A   1      47.241  28.284  27.939  1.00  0.00     0.049 A 
ATOM     53  C   UNL A   1      41.882  29.486  29.129  1.00  0.00     0.074 A 
ATOM     54  C   UNL A   1      48.145  29.326  28.035  1.00  0.00     0.029 A 
ATOM     55  N   UNL A   1      45.999  28.796  28.282  1.00  0.00    -0.354 N 
ATOM     56  N   UNL A   1      43.161  29.356  28.872  1.00  0.00    -0.248 NA
ATOM     57  C   UNL A   1      41.492  30.829  29.580  1.00  0.00     0.031 C 
ATOM     58  C   UNL A   1      47.454  30.461  28.473  1.00  0.00     0.029 A 
ATOM     59  C   UNL A   1      46.114  30.137  28.605  1.00  0.00     0.049 A 
ATOM     60  H   UNL A   1      45.159  28.282  28.293  1.00  0.00     0.167 HD
ATOM     61  C   UNL A   1      43.725  30.603  29.105  1.00  0.00     0.074 A 
ATOM     62  C   UNL A   1      42.645  31.479  29.509  1.00  0.00     0.031 C 
ATOM     63  C   UNL A   1      45.020  30.990  28.997  1.00  0.00     0.037 A 
BRANCH  50  64
ATOM     64  C   UNL A   1      48.889  26.488  27.259  1.00  0.00     0.057 A 
ATOM     65  C   UNL A   1      49.434  26.587  25.972  1.00  0.00     0.134 A 
ATOM     66  C   UNL A   1      49.713  25.980  28.271  1.00  0.00     0.134 A 
ATOM     67  F   UNL A   1      48.693  27.050  24.953  1.00  0.00    -0.206 F 
ATOM     68  C   UNL A   1      50.737  26.169  25.695  1.00  0.00     0.040 A 
ATOM     69  C   UNL A   1      51.027  25.586  28.012  1.00  0.00     0.040 A 
ATOM     70  F   UNL A   1      49.256  25.859  29.527  1.00  0.00    -0.206 F 
ATOM     71  C   UNL A   1      51.540  25.672  26.719  1.00  0.00     0.006 A 
ENDBRANCH  50  64
BRANCH  51  72
ATOM     72  C   UNL A   1      39.382  28.807  29.360  1.00  0.00     0.057 A 
ATOM     73  C   UNL A   1      38.504  29.306  28.391  1.00  0.00     0.134 A 
ATOM     74  C   UNL A   1      38.884  28.645  30.658  1.00  0.00     0.134 A 
ATOM     75  F   UNL A   1      38.926  29.496  27.132  1.00  0.00    -0.206 F 
ATOM     76  C   UNL A   1      37.188  29.653  28.704  1.00  0.00     0.040 A 
ATOM     77  C   UNL A   1      37.563  28.965  30.981  1.00  0.00     0.040 A 
ATOM     78  F   UNL A   1      39.671  28.161  31.631  1.00  0.00    -0.206 F 
ATOM     79  C   UNL A   1      36.713  29.479  30.003  1.00  0.00     0.006 A 
ENDBRANCH  51  72
BRANCH  63  80
ATOM     80  C   UNL A   1      45.330  32.427  29.289  1.00  0.00     0.057 A 
ATOM     81  C   UNL A   1      45.770  32.845  30.550  1.00  0.00     0.134 A 
ATOM     82  C   UNL A   1      45.230  33.394  28.281  1.00  0.00     0.134 A 
ATOM     83  F   UNL A   1      45.876  31.967  31.559  1.00  0.00    -0.206 F 
ATOM     84  C   UNL A   1      46.079  34.182  30.806  1.00  0.00     0.040 A 
ATOM     85  C   UNL A   1      45.561  34.729  28.517  1.00  0.00     0.040 A 
ATOM     86  F   UNL A   1      44.823  33.055  27.048  1.00  0.00    -0.206 F 
ATOM     87  C   UNL A   1      45.982  35.126  29.785  1.00  0.00     0.006 A 
ENDBRANCH  63  80
ENDBRANCH  37  38
ENDBRANCH  29  32
ENDBRANCH  27  28
ENDBRANCH  26  27
ENDBRANCH  25  26
ENDBRANCH   1  25
TORSDOF 17
ENDMDL
MODEL 2
REMARK VINA RESULT:     -11.3      5.205     10.215
REMARK SMILES CC[C@](C)(NC(=O)CCOc1ccc(Cl)c(Cl)c1)C(=O)NCCCCNC(=O)c1ccc(-c2c3nc(c(-c4c(F)cccc4F)c4ccc([nH]4)c(-c4c(F)cccc4F)c4nc(c(-c5c(F)cccc5F)c5ccc2[nH]5)C=C4)C=C3)cc1
REMARK SMILES IDX 22 1 21 2 19 3 20 4 3 6 4 7 2 8 1 9 5 10 6 11 7 13 8 14 9 15
REMARK SMILES IDX 10 16 11 17 12 18 18 19 13 20 16 21 14 22 17 23 15 24 23 25
REMARK SMILES IDX 24 26 25 27 26 28 27 29 28 31 29 32 30 33 82 34 31 35 81 36
REMARK SMILES IDX 32 37 33 38 34 39 75 40 35 41 80 42 74 43 76 44 36 45 79 46
REMARK SMILES IDX 73 47 72 48 37 50 63 51 46 52 62 53 47 54 50 55 61 56 77 57
REMARK SMILES IDX 48 58 49 59 60 61 78 62 51 63 38 64 39 65 44 66 40 67 41 68
REMARK SMILES IDX 43 69 45 70 42 71 64 72 65 73 70 74 66 75 67 76 69 77 71 78
REMARK SMILES IDX 68 79 52 80 53 81 58 82 54 83 55 84 57 85 59 86 56 87
REMARK H PARENT 21 5 5 12 26 30 76 49 50 60
REMARK Flexibility Score: inf
ROOT
ATOM      1  C   UNL A   1      31.892  29.773  25.649  1.00  0.00     0.116 C 
ENDROOT
BRANCH   1   2
ATOM      2  N   UNL A   1      32.958  29.631  24.675  1.00  0.00    -0.354 N 
ATOM      3  C   UNL A   1      32.991  28.968  23.483  1.00  0.00     0.245 C 
ATOM      4  O   UNL A   1      33.972  29.179  22.763  1.00  0.00    -0.272 OA
ATOM      5  H   UNL A   1      33.796  30.090  24.914  1.00  0.00     0.163 HD
BRANCH   3   6
ATOM      6  C   UNL A   1      31.793  28.095  23.008  1.00  0.00     0.116 C 
ATOM      7  C   UNL A   1      30.663  29.006  22.514  1.00  0.00     0.045 C 
BRANCH   6   8
ATOM      8  C   UNL A   1      31.348  27.232  24.245  1.00  0.00     0.035 C 
ATOM      9  C   UNL A   1      29.919  26.703  24.256  1.00  0.00     0.007 C 
ENDBRANCH   6   8
BRANCH   6  10
ATOM     10  N   UNL A   1      32.233  27.181  21.921  1.00  0.00    -0.342 N 
ATOM     11  C   UNL A   1      33.079  26.116  21.912  1.00  0.00     0.224 C 
ATOM     12  H   UNL A   1      31.835  27.384  21.043  1.00  0.00     0.164 HD
ATOM     13  O   UNL A   1      33.225  25.523  20.838  1.00  0.00    -0.275 OA
BRANCH  11  14
ATOM     14  C   UNL A   1      33.746  25.603  23.167  1.00  0.00     0.141 C 
BRANCH  14  15
ATOM     15  C   UNL A   1      33.929  24.083  23.155  1.00  0.00     0.239 C 
BRANCH  15  16
ATOM     16  O   UNL A   1      32.964  23.375  23.948  1.00  0.00    -0.493 OA
BRANCH  16  17
ATOM     17  C   UNL A   1      33.217  22.071  24.271  1.00  0.00     0.120 A 
ATOM     18  C   UNL A   1      32.290  21.033  24.242  1.00  0.00     0.048 A 
ATOM     19  C   UNL A   1      34.546  21.785  24.596  1.00  0.00     0.068 A 
ATOM     20  C   UNL A   1      32.712  19.707  24.350  1.00  0.00     0.026 A 
ATOM     21  C   UNL A   1      34.969  20.459  24.744  1.00  0.00     0.063 A 
ATOM     22  C   UNL A   1      34.056  19.414  24.575  1.00  0.00     0.059 A 
ATOM     23  Cl  UNL A   1      36.644  20.178  25.061  1.00  0.00    -0.083 Cl
ATOM     24  Cl  UNL A   1      34.522  17.752  24.599  1.00  0.00    -0.083 Cl
ENDBRANCH  16  17
ENDBRANCH  15  16
ENDBRANCH  14  15
ENDBRANCH  11  14
ENDBRANCH   6  10
ENDBRANCH   3   6
ENDBRANCH   1   2
BRANCH   1  25
ATOM     25  C   UNL A   1      31.311  31.184  25.715  1.00  0.00     0.023 C 
BRANCH  25  26
ATOM     26  C   UNL A   1      31.459  31.888  27.060  1.00  0.00     0.023 C 
BRANCH  26  27
ATOM     27  C   UNL A   1      32.675  32.791  27.162  1.00  0.00     0.116 C 
BRANCH  27  28
ATOM     28  N   UNL A   1      32.347  34.143  27.585  1.00  0.00    -0.352 N 
ATOM     29  C   UNL A   1      32.978  34.914  28.526  1.00  0.00     0.251 C 
ATOM     30  H   UNL A   1      31.573  34.558  27.138  1.00  0.00     0.163 HD
ATOM     31  O   UNL A   1      32.532  36.010  28.847  1.00  0.00    -0.269 OA
BRANCH  29  32
ATOM     32  C   UNL A   1      34.182  34.372  29.176  1.00  0.00     0.039 A 
ATOM     33  C   UNL A   1      34.030  33.598  30.326  1.00  0.00     0.014 A 
ATOM     34  C   UNL A   1      35.438  34.564  28.595  1.00  0.00     0.014 A 
ATOM     35  C   UNL A   1      35.145  32.967  30.870  1.00  0.00     0.010 A 
ATOM     36  C   UNL A   1      36.528  33.863  29.085  1.00  0.00     0.010 A 
ATOM     37  C   UNL A   1      36.394  33.070  30.236  1.00  0.00    -0.014 A 
BRANCH  37  38
ATOM     38  C   UNL A   1      37.586  32.384  30.780  1.00  0.00     0.031 A 
ATOM     39  C   UNL A   1      38.228  32.903  32.035  1.00  0.00     0.074 A 
ATOM     40  C   UNL A   1      38.119  31.341  30.115  1.00  0.00     0.049 A 
ATOM     41  N   UNL A   1      39.311  32.493  32.640  1.00  0.00    -0.248 NA
ATOM     42  C   UNL A   1      37.583  34.062  32.677  1.00  0.00     0.031 C 
ATOM     43  C   UNL A   1      37.613  30.790  28.857  1.00  0.00     0.029 A 
ATOM     44  N   UNL A   1      39.210  30.564  30.404  1.00  0.00    -0.354 N 
ATOM     45  C   UNL A   1      39.485  33.351  33.719  1.00  0.00     0.074 A 
ATOM     46  C   UNL A   1      38.436  34.343  33.649  1.00  0.00     0.031 C 
ATOM     47  C   UNL A   1      38.378  29.748  28.495  1.00  0.00     0.029 A 
ATOM     48  C   UNL A   1      39.445  29.579  29.477  1.00  0.00     0.049 A 
ATOM     49  H   UNL A   1      39.773  30.699  31.200  1.00  0.00     0.167 HD
ATOM     50  C   UNL A   1      40.417  33.297  34.699  1.00  0.00     0.037 A 
ATOM     51  C   UNL A   1      40.414  28.648  29.428  1.00  0.00     0.037 A 
ATOM     52  C   UNL A   1      41.437  32.286  34.776  1.00  0.00     0.049 A 
ATOM     53  C   UNL A   1      41.431  28.598  30.535  1.00  0.00     0.074 A 
ATOM     54  C   UNL A   1      42.396  32.103  35.754  1.00  0.00     0.029 A 
ATOM     55  N   UNL A   1      41.624  31.284  33.836  1.00  0.00    -0.354 N 
ATOM     56  N   UNL A   1      41.545  29.374  31.587  1.00  0.00    -0.248 NA
ATOM     57  C   UNL A   1      42.446  27.539  30.455  1.00  0.00     0.031 C 
ATOM     58  C   UNL A   1      43.188  31.010  35.386  1.00  0.00     0.029 A 
ATOM     59  C   UNL A   1      42.693  30.486  34.203  1.00  0.00     0.049 A 
ATOM     60  H   UNL A   1      41.076  31.158  33.027  1.00  0.00     0.167 HD
ATOM     61  C   UNL A   1      42.626  28.883  32.306  1.00  0.00     0.074 A 
ATOM     62  C   UNL A   1      43.123  27.733  31.578  1.00  0.00     0.031 C 
ATOM     63  C   UNL A   1      43.163  29.342  33.463  1.00  0.00     0.037 A 
BRANCH  50  64
ATOM     64  C   UNL A   1      40.360  34.353  35.762  1.00  0.00     0.057 A 
ATOM     65  C   UNL A   1      39.602  34.186  36.929  1.00  0.00     0.134 A 
ATOM     66  C   UNL A   1      41.081  35.546  35.627  1.00  0.00     0.134 A 
ATOM     67  F   UNL A   1      38.874  33.073  37.113  1.00  0.00    -0.206 F 
ATOM     68  C   UNL A   1      39.538  35.178  37.908  1.00  0.00     0.040 A 
ATOM     69  C   UNL A   1      41.048  36.534  36.613  1.00  0.00     0.040 A 
ATOM     70  F   UNL A   1      41.829  35.771  34.536  1.00  0.00    -0.206 F 
ATOM     71  C   UNL A   1      40.268  36.354  37.754  1.00  0.00     0.006 A 
ENDBRANCH  50  64
BRANCH  51  72
ATOM     72  C   UNL A   1      40.453  27.671  28.310  1.00  0.00     0.057 A 
ATOM     73  C   UNL A   1      41.164  27.945  27.136  1.00  0.00     0.134 A 
ATOM     74  C   UNL A   1      39.784  26.444  28.387  1.00  0.00     0.134 A 
ATOM     75  F   UNL A   1      41.814  29.110  26.997  1.00  0.00    -0.206 F 
ATOM     76  C   UNL A   1      41.191  27.045  26.069  1.00  0.00     0.040 A 
ATOM     77  C   UNL A   1      39.822  25.524  27.337  1.00  0.00     0.040 A 
ATOM     78  F   UNL A   1      39.093  26.117  29.489  1.00  0.00    -0.206 F 
ATOM     79  C   UNL A   1      40.521  25.827  26.171  1.00  0.00     0.006 A 
ENDBRANCH  51  72
BRANCH  63  80
ATOM     80  C   UNL A   1      44.324  28.580  34.028  1.00  0.00     0.057 A 
ATOM     81  C   UNL A   1      44.143  27.487  34.884  1.00  0.00     0.134 A 
ATOM     82  C   UNL A   1      45.636  28.919  33.674  1.00  0.00     0.134 A 
ATOM     83  F   UNL A   1      42.911  27.121  35.268  1.00  0.00    -0.206 F 
ATOM     84  C   UNL A   1      45.230  26.770  35.386  1.00  0.00     0.040 A 
ATOM     85  C   UNL A   1      46.729  28.194  34.149  1.00  0.00     0.040 A 
ATOM     86  F   UNL A   1      45.876  29.951  32.850  1.00  0.00    -0.206 F 
ATOM     87  C   UNL A   1      46.526  27.118  35.012  1.00  0.00     0.006 A 
ENDBRANCH  63  80
ENDBRANCH  37  38
ENDBRANCH  29  32
ENDBRANCH  27  28
ENDBRANCH  26  27
ENDBRANCH  25  26
ENDBRANCH   1  25
TORSDOF 17
ENDMDL
MODEL 3
REMARK VINA RESULT:     -11.3      4.993     10.048
REMARK SMILES CC[C@](C)(NC(=O)CCOc1ccc(Cl)c(Cl)c1)C(=O)NCCCCNC(=O)c1ccc(-c2c3nc(c(-c4c(F)cccc4F)c4ccc([nH]4)c(-c4c(F)cccc4F)c4nc(c(-c5c(F)cccc5F)c5ccc2[nH]5)C=C4)C=C3)cc1
REMARK SMILES IDX 22 1 21 2 19 3 20 4 3 6 4 7 2 8 1 9 5 10 6 11 7 13 8 14 9 15
REMARK SMILES IDX 10 16 11 17 12 18 18 19 13 20 16 21 14 22 17 23 15 24 23 25
REMARK SMILES IDX 24 26 25 27 26 28 27 29 28 31 29 32 30 33 82 34 31 35 81 36
REMARK SMILES IDX 32 37 33 38 34 39 75 40 35 41 80 42 74 43 76 44 36 45 79 46
REMARK SMILES IDX 73 47 72 48 37 50 63 51 46 52 62 53 47 54 50 55 61 56 77 57
REMARK SMILES IDX 48 58 49 59 60 61 78 62 51 63 38 64 39 65 44 66 40 67 41 68
REMARK SMILES IDX 43 69 45 70 42 71 64 72 65 73 70 74 66 75 67 76 69 77 71 78
REMARK SMILES IDX 68 79 52 80 53 81 58 82 54 83 55 84 57 85 59 86 56 87
REMARK H PARENT 21 5 5 12 26 30 76 49 50 60
REMARK Flexibility Score: inf
ROOT
ATOM      1  C   UNL A   1      32.363  29.807  25.709  1.00  0.00     0.116 C 
ENDROOT
BRANCH   1   2
ATOM      2  N   UNL A   1      33.223  29.695  24.545  1.00  0.00    -0.354 N 
ATOM      3  C   UNL A   1      33.512  28.624  23.752  1.00  0.00     0.245 C 
ATOM      4  O   UNL A   1      34.126  28.861  22.708  1.00  0.00    -0.272 OA
ATOM      5  H   UNL A   1      33.671  30.532  24.284  1.00  0.00     0.163 HD
BRANCH   3   6
ATOM      6  C   UNL A   1      32.980  27.200  24.089  1.00  0.00     0.116 C 
ATOM      7  C   UNL A   1      33.349  26.848  25.535  1.00  0.00     0.045 C 
BRANCH   6   8
ATOM      8  C   UNL A   1      33.649  26.216  23.062  1.00  0.00     0.035 C 
ATOM      9  C   UNL A   1      32.774  25.665  21.943  1.00  0.00     0.007 C 
ENDBRANCH   6   8
BRANCH   6  10
ATOM     10  N   UNL A   1      31.506  27.153  23.905  1.00  0.00    -0.342 N 
ATOM     11  C   UNL A   1      30.500  26.721  24.713  1.00  0.00     0.224 C 
ATOM     12  H   UNL A   1      31.200  27.501  23.036  1.00  0.00     0.164 HD
ATOM     13  O   UNL A   1      29.346  26.841  24.287  1.00  0.00    -0.275 OA
BRANCH  11  14
ATOM     14  C   UNL A   1      30.750  26.207  26.112  1.00  0.00     0.141 C 
BRANCH  14  15
ATOM     15  C   UNL A   1      30.544  24.694  26.227  1.00  0.00     0.239 C 
BRANCH  15  16
ATOM     16  O   UNL A   1      31.369  24.069  27.221  1.00  0.00    -0.493 OA
BRANCH  16  17
ATOM     17  C   UNL A   1      32.412  23.290  26.804  1.00  0.00     0.120 A 
ATOM     18  C   UNL A   1      33.154  22.430  27.608  1.00  0.00     0.048 A 
ATOM     19  C   UNL A   1      32.688  23.346  25.435  1.00  0.00     0.068 A 
ATOM     20  C   UNL A   1      34.026  21.503  27.034  1.00  0.00     0.026 A 
ATOM     21  C   UNL A   1      33.591  22.445  24.857  1.00  0.00     0.063 A 
ATOM     22  C   UNL A   1      34.229  21.491  25.655  1.00  0.00     0.059 A 
ATOM     23  Cl  UNL A   1      33.818  22.517  23.147  1.00  0.00    -0.083 Cl
ATOM     24  Cl  UNL A   1      35.244  20.256  25.004  1.00  0.00    -0.083 Cl
ENDBRANCH  16  17
ENDBRANCH  15  16
ENDBRANCH  14  15
ENDBRANCH  11  14
ENDBRANCH   6  10
ENDBRANCH   3   6
ENDBRANCH   1   2
BRANCH   1  25
ATOM     25  C   UNL A   1      31.108  30.641  25.460  1.00  0.00     0.023 C 
BRANCH  25  26
ATOM     26  C   UNL A   1      31.056  31.975  26.198  1.00  0.00     0.023 C 
BRANCH  26  27
ATOM     27  C   UNL A   1      32.356  32.364  26.879  1.00  0.00     0.116 C 
BRANCH  27  28
ATOM     28  N   UNL A   1      32.336  33.715  27.417  1.00  0.00    -0.352 N 
ATOM     29  C   UNL A   1      33.207  34.286  28.307  1.00  0.00     0.251 C 
ATOM     30  H   UNL A   1      31.602  34.293  27.102  1.00  0.00     0.163 HD
ATOM     31  O   UNL A   1      33.012  35.414  28.746  1.00  0.00    -0.269 OA
BRANCH  29  32
ATOM     32  C   UNL A   1      34.360  33.492  28.760  1.00  0.00     0.039 A 
ATOM     33  C   UNL A   1      35.644  33.986  28.531  1.00  0.00     0.014 A 
ATOM     34  C   UNL A   1      34.158  32.312  29.481  1.00  0.00     0.014 A 
ATOM     35  C   UNL A   1      36.735  33.314  29.076  1.00  0.00     0.010 A 
ATOM     36  C   UNL A   1      35.238  31.698  30.096  1.00  0.00     0.010 A 
ATOM     37  C   UNL A   1      36.537  32.186  29.887  1.00  0.00    -0.014 A 
BRANCH  37  38
ATOM     38  C   UNL A   1      37.680  31.474  30.498  1.00  0.00     0.031 A 
ATOM     39  C   UNL A   1      38.062  31.774  31.920  1.00  0.00     0.074 A 
ATOM     40  C   UNL A   1      38.404  30.612  29.759  1.00  0.00     0.049 A 
ATOM     41  N   UNL A   1      39.065  31.314  32.621  1.00  0.00    -0.248 NA
ATOM     42  C   UNL A   1      37.222  32.748  32.639  1.00  0.00     0.031 C 
ATOM     43  C   UNL A   1      38.158  30.288  28.352  1.00  0.00     0.029 A 
ATOM     44  N   UNL A   1      39.497  29.855  30.088  1.00  0.00    -0.354 N 
ATOM     45  C   UNL A   1      38.985  31.953  33.851  1.00  0.00     0.074 A 
ATOM     46  C   UNL A   1      37.879  32.880  33.780  1.00  0.00     0.031 C 
ATOM     47  C   UNL A   1      39.061  29.381  27.946  1.00  0.00     0.029 A 
ATOM     48  C   UNL A   1      39.965  29.084  29.052  1.00  0.00     0.049 A 
ATOM     49  H   UNL A   1      39.909  29.863  30.982  1.00  0.00     0.167 HD
ATOM     50  C   UNL A   1      39.747  31.761  34.953  1.00  0.00     0.037 A 
ATOM     51  C   UNL A   1      41.007  28.235  29.006  1.00  0.00     0.037 A 
ATOM     52  C   UNL A   1      40.825  30.813  35.023  1.00  0.00     0.049 A 
ATOM     53  C   UNL A   1      41.831  28.027  30.247  1.00  0.00     0.074 A 
ATOM     54  C   UNL A   1      41.626  30.496  36.105  1.00  0.00     0.029 A 
ATOM     55  N   UNL A   1      41.250  30.025  33.963  1.00  0.00    -0.354 N 
ATOM     56  N   UNL A   1      41.705  28.588  31.425  1.00  0.00    -0.248 NA
ATOM     57  C   UNL A   1      42.935  27.062  30.155  1.00  0.00     0.031 C 
ATOM     58  C   UNL A   1      42.560  29.541  35.688  1.00  0.00     0.029 A 
ATOM     59  C   UNL A   1      42.311  29.231  34.361  1.00  0.00     0.049 A 
ATOM     60  H   UNL A   1      40.854  30.029  33.061  1.00  0.00     0.167 HD
ATOM     61  C   UNL A   1      42.694  28.027  32.222  1.00  0.00     0.074 A 
ATOM     62  C   UNL A   1      43.401  27.070  31.395  1.00  0.00     0.031 C 
ATOM     63  C   UNL A   1      42.993  28.280  33.519  1.00  0.00     0.037 A 
BRANCH  50  64
ATOM     64  C   UNL A   1      39.426  32.585  36.165  1.00  0.00     0.057 A 
ATOM     65  C   UNL A   1      38.468  32.177  37.102  1.00  0.00     0.134 A 
ATOM     66  C   UNL A   1      40.090  33.795  36.405  1.00  0.00     0.134 A 
ATOM     67  F   UNL A   1      37.783  31.037  36.922  1.00  0.00    -0.206 F 
ATOM     68  C   UNL A   1      38.160  32.955  38.219  1.00  0.00     0.040 A 
ATOM     69  C   UNL A   1      39.811  34.567  37.535  1.00  0.00     0.040 A 
ATOM     70  F   UNL A   1      41.020  34.245  35.550  1.00  0.00    -0.206 F 
ATOM     71  C   UNL A   1      38.838  34.152  38.441  1.00  0.00     0.006 A 
ENDBRANCH  50  64
BRANCH  51  72
ATOM     72  C   UNL A   1      41.312  27.498  27.753  1.00  0.00     0.057 A 
ATOM     73  C   UNL A   1      40.812  26.209  27.534  1.00  0.00     0.134 A 
ATOM     74  C   UNL A   1      42.106  28.061  26.748  1.00  0.00     0.134 A 
ATOM     75  F   UNL A   1      40.057  25.610  28.467  1.00  0.00    -0.206 F 
ATOM     76  C   UNL A   1      41.109  25.497  26.370  1.00  0.00     0.040 A 
ATOM     77  C   UNL A   1      42.391  27.370  25.568  1.00  0.00     0.040 A 
ATOM     78  F   UNL A   1      42.607  29.297  26.891  1.00  0.00    -0.206 F 
ATOM     79  C   UNL A   1      41.898  26.080  25.381  1.00  0.00     0.006 A 
ENDBRANCH  51  72
BRANCH  63  80
ATOM     80  C   UNL A   1      44.110  27.489  34.131  1.00  0.00     0.057 A 
ATOM     81  C   UNL A   1      45.425  27.969  34.158  1.00  0.00     0.134 A 
ATOM     82  C   UNL A   1      43.856  26.253  34.737  1.00  0.00     0.134 A 
ATOM     83  F   UNL A   1      45.733  29.141  33.584  1.00  0.00    -0.206 F 
ATOM     84  C   UNL A   1      46.454  27.236  34.750  1.00  0.00     0.040 A 
ATOM     85  C   UNL A   1      44.872  25.522  35.355  1.00  0.00     0.040 A 
ATOM     86  F   UNL A   1      42.615  25.742  34.752  1.00  0.00    -0.206 F 
ATOM     87  C   UNL A   1      46.177  26.012  35.357  1.00  0.00     0.006 A 
ENDBRANCH  63  80
ENDBRANCH  37  38
ENDBRANCH  29  32
ENDBRANCH  27  28
ENDBRANCH  26  27
ENDBRANCH  25  26
ENDBRANCH   1  25
TORSDOF 17
ENDMDL
