MODEL 1
REMARK VINA RESULT:     -11.7      0.000      0.000
REMARK SMILES C[C@@H](C(=O)NCCCCNC(=O)c1ccc(-c2c3nc(c(-c4c(F)cccc4F)c4ccc([nH]4)c(-c4c(F)cccc4F)c4nc(c(-c5c(F)cccc5F)c5ccc2[nH]5)C=C4)C=C3)cc1)c1ccc(-c2ccn(C(F)F)c(=O)c2)cc1
REMARK SMILES IDX 7 1 6 2 5 3 3 4 4 5 2 7 1 8 67 9 68 10 82 11 69 12 81 13
REMARK SMILES IDX 70 14 71 15 72 16 80 17 73 18 78 19 74 20 79 21 75 22 76 23
REMARK SMILES IDX 77 24 8 25 9 26 10 27 11 28 12 30 13 31 14 32 66 33 15 34
REMARK SMILES IDX 65 35 16 36 17 37 18 38 59 39 19 40 64 41 58 42 60 43 20 44
REMARK SMILES IDX 63 45 57 46 56 47 21 49 47 50 30 51 46 52 31 53 34 54 45 55
REMARK SMILES IDX 61 56 32 57 33 58 44 60 62 61 35 62 22 63 23 64 28 65 24 66
REMARK SMILES IDX 25 67 27 68 29 69 26 70 48 71 49 72 54 73 50 74 51 75 53 76
REMARK SMILES IDX 55 77 52 78 36 79 37 80 42 81 38 82 39 83 41 84 43 85 40 86
REMARK H PARENT 5 6 10 29 60 48 34 59
REMARK Flexibility Score: inf
ROOT
ATOM      1  C   UNL A   1      36.464  19.329  24.998  1.00  0.00     0.023 C 
ENDROOT
BRANCH   1   2
ATOM      2  C   UNL A   1      35.184  20.126  24.735  1.00  0.00     0.116 C 
BRANCH   2   3
ATOM      3  N   UNL A   1      34.781  20.848  25.922  1.00  0.00    -0.356 N 
ATOM      4  C   UNL A   1      35.060  22.129  26.307  1.00  0.00     0.227 C 
ATOM      5  O   UNL A   1      34.728  22.441  27.453  1.00  0.00    -0.274 OA
ATOM      6  H   UNL A   1      34.219  20.338  26.550  1.00  0.00     0.163 HD
BRANCH   4   7
ATOM      7  C   UNL A   1      35.700  23.116  25.312  1.00  0.00     0.105 C 
ATOM      8  C   UNL A   1      37.017  23.697  25.840  1.00  0.00     0.023 C 
BRANCH   7   9
ATOM      9  C   UNL A   1      34.707  24.206  24.899  1.00  0.00    -0.036 A 
ATOM     10  C   UNL A   1      34.103  24.236  23.633  1.00  0.00     0.005 A 
ATOM     11  C   UNL A   1      34.408  25.238  25.804  1.00  0.00     0.005 A 
ATOM     12  C   UNL A   1      33.197  25.241  23.294  1.00  0.00     0.009 A 
ATOM     13  C   UNL A   1      33.508  26.252  25.461  1.00  0.00     0.009 A 
ATOM     14  C   UNL A   1      32.885  26.249  24.209  1.00  0.00    -0.018 A 
BRANCH  14  15
ATOM     15  C   UNL A   1      31.901  27.287  23.865  1.00  0.00    -0.011 A 
ATOM     16  C   UNL A   1      31.004  27.181  22.732  1.00  0.00     0.027 A 
ATOM     17  C   UNL A   1      31.859  28.385  24.637  1.00  0.00     0.080 A 
ATOM     18  C   UNL A   1      30.159  28.179  22.444  1.00  0.00     0.095 A 
ATOM     19  C   UNL A   1      30.918  29.497  24.337  1.00  0.00     0.255 A 
ATOM     20  N   UNL A   1      30.115  29.322  23.221  1.00  0.00    -0.258 N 
ATOM     21  O   UNL A   1      30.917  30.477  25.074  1.00  0.00    -0.269 OA
BRANCH  20  22
ATOM     22  C   UNL A   1      29.234  30.407  22.881  1.00  0.00     0.451 C 
ATOM     23  F   UNL A   1      28.831  30.329  21.589  1.00  0.00    -0.185 F 
ATOM     24  F   UNL A   1      28.129  30.397  23.667  1.00  0.00    -0.185 F 
ENDBRANCH  20  22
ENDBRANCH  14  15
ENDBRANCH   7   9
ENDBRANCH   4   7
ENDBRANCH   2   3
ENDBRANCH   1   2
BRANCH   1  25
ATOM     25  C   UNL A   1      37.755  20.058  24.613  1.00  0.00     0.023 C 
BRANCH  25  26
ATOM     26  C   UNL A   1      38.739  20.273  25.756  1.00  0.00     0.116 C 
BRANCH  26  27
ATOM     27  N   UNL A   1      39.845  19.330  25.731  1.00  0.00    -0.352 N 
ATOM     28  C   UNL A   1      41.165  19.536  26.043  1.00  0.00     0.251 C 
ATOM     29  H   UNL A   1      39.615  18.415  25.450  1.00  0.00     0.163 HD
ATOM     30  O   UNL A   1      41.991  18.653  25.825  1.00  0.00    -0.269 OA
BRANCH  28  31
ATOM     31  C   UNL A   1      41.598  20.830  26.609  1.00  0.00     0.039 A 
ATOM     32  C   UNL A   1      42.077  21.814  25.740  1.00  0.00     0.014 A 
ATOM     33  C   UNL A   1      41.534  21.078  27.983  1.00  0.00     0.014 A 
ATOM     34  C   UNL A   1      42.437  23.064  26.244  1.00  0.00     0.010 A 
ATOM     35  C   UNL A   1      41.818  22.351  28.473  1.00  0.00     0.010 A 
ATOM     36  C   UNL A   1      42.279  23.355  27.609  1.00  0.00    -0.014 A 
BRANCH  36  37
ATOM     37  C   UNL A   1      42.592  24.707  28.138  1.00  0.00     0.031 A 
ATOM     38  C   UNL A   1      43.999  25.063  28.534  1.00  0.00     0.074 A 
ATOM     39  C   UNL A   1      41.600  25.606  28.291  1.00  0.00     0.049 A 
ATOM     40  N   UNL A   1      44.460  26.187  29.021  1.00  0.00    -0.248 NA
ATOM     41  C   UNL A   1      45.018  24.013  28.383  1.00  0.00     0.031 C 
ATOM     42  C   UNL A   1      40.186  25.364  27.999  1.00  0.00     0.029 A 
ATOM     43  N   UNL A   1      41.629  26.904  28.735  1.00  0.00    -0.354 N 
ATOM     44  C   UNL A   1      45.818  25.979  29.231  1.00  0.00     0.074 A 
ATOM     45  C   UNL A   1      46.093  24.602  28.886  1.00  0.00     0.031 C 
ATOM     46  C   UNL A   1      39.488  26.484  28.242  1.00  0.00     0.029 A 
ATOM     47  C   UNL A   1      40.396  27.512  28.741  1.00  0.00     0.049 A 
ATOM     48  H   UNL A   1      42.454  27.357  29.021  1.00  0.00     0.167 HD
ATOM     49  C   UNL A   1      46.757  26.865  29.642  1.00  0.00     0.037 A 
ATOM     50  C   UNL A   1      40.039  28.756  29.108  1.00  0.00     0.037 A 
ATOM     51  C   UNL A   1      46.484  28.237  29.980  1.00  0.00     0.049 A 
ATOM     52  C   UNL A   1      41.099  29.715  29.575  1.00  0.00     0.074 A 
ATOM     53  C   UNL A   1      47.372  29.221  30.379  1.00  0.00     0.029 A 
ATOM     54  N   UNL A   1      45.226  28.820  29.959  1.00  0.00    -0.354 N 
ATOM     55  N   UNL A   1      42.390  29.523  29.703  1.00  0.00    -0.248 NA
ATOM     56  C   UNL A   1      40.654  31.068  29.938  1.00  0.00     0.031 C 
ATOM     57  C   UNL A   1      46.645  30.387  30.640  1.00  0.00     0.029 A 
ATOM     58  C   UNL A   1      45.312  30.145  30.352  1.00  0.00     0.049 A 
ATOM     59  H   UNL A   1      44.393  28.360  29.703  1.00  0.00     0.167 HD
ATOM     60  C   UNL A   1      42.914  30.737  30.132  1.00  0.00     0.074 A 
ATOM     61  C   UNL A   1      41.804  31.663  30.219  1.00  0.00     0.031 C 
ATOM     62  C   UNL A   1      44.198  31.057  30.428  1.00  0.00     0.037 A 
BRANCH  49  63
ATOM     63  C   UNL A   1      48.175  26.376  29.731  1.00  0.00     0.057 A 
ATOM     64  C   UNL A   1      49.059  26.487  28.648  1.00  0.00     0.134 A 
ATOM     65  C   UNL A   1      48.675  25.825  30.917  1.00  0.00     0.134 A 
ATOM     66  F   UNL A   1      48.642  26.994  27.479  1.00  0.00    -0.206 F 
ATOM     67  C   UNL A   1      50.381  26.044  28.734  1.00  0.00     0.040 A 
ATOM     68  C   UNL A   1      50.003  25.404  31.024  1.00  0.00     0.040 A 
ATOM     69  F   UNL A   1      47.886  25.693  31.993  1.00  0.00    -0.206 F 
ATOM     70  C   UNL A   1      50.857  25.509  29.928  1.00  0.00     0.006 A 
ENDBRANCH  49  63
BRANCH  50  71
ATOM     71  C   UNL A   1      38.617  29.179  29.036  1.00  0.00     0.057 A 
ATOM     72  C   UNL A   1      37.776  29.092  30.152  1.00  0.00     0.134 A 
ATOM     73  C   UNL A   1      38.055  29.652  27.844  1.00  0.00     0.134 A 
ATOM     74  F   UNL A   1      38.248  28.631  31.320  1.00  0.00    -0.206 F 
ATOM     75  C   UNL A   1      36.423  29.429  30.078  1.00  0.00     0.040 A 
ATOM     76  C   UNL A   1      36.712  30.021  27.763  1.00  0.00     0.040 A 
ATOM     77  F   UNL A   1      38.808  29.769  26.740  1.00  0.00    -0.206 F 
ATOM     78  C   UNL A   1      35.888  29.898  28.880  1.00  0.00     0.006 A 
ENDBRANCH  50  71
BRANCH  62  79
ATOM     79  C   UNL A   1      44.472  32.475  30.837  1.00  0.00     0.057 A 
ATOM     80  C   UNL A   1      44.782  33.471  29.901  1.00  0.00     0.134 A 
ATOM     81  C   UNL A   1      44.407  32.852  32.184  1.00  0.00     0.134 A 
ATOM     82  F   UNL A   1      44.873  33.174  28.595  1.00  0.00    -0.206 F 
ATOM     83  C   UNL A   1      45.050  34.784  30.294  1.00  0.00     0.040 A 
ATOM     84  C   UNL A   1      44.643  34.169  32.586  1.00  0.00     0.040 A 
ATOM     85  F   UNL A   1      44.104  31.952  33.132  1.00  0.00    -0.206 F 
ATOM     86  C   UNL A   1      44.976  35.136  31.641  1.00  0.00     0.006 A 
ENDBRANCH  62  79
ENDBRANCH  36  37
ENDBRANCH  28  31
ENDBRANCH  26  27
ENDBRANCH  25  26
ENDBRANCH   1  25
TORSDOF 14
ENDMDL
MODEL 2
REMARK VINA RESULT:     -11.7      1.592      2.352
REMARK SMILES C[C@@H](C(=O)NCCCCNC(=O)c1ccc(-c2c3nc(c(-c4c(F)cccc4F)c4ccc([nH]4)c(-c4c(F)cccc4F)c4nc(c(-c5c(F)cccc5F)c5ccc2[nH]5)C=C4)C=C3)cc1)c1ccc(-c2ccn(C(F)F)c(=O)c2)cc1
REMARK SMILES IDX 7 1 6 2 5 3 3 4 4 5 2 7 1 8 67 9 68 10 82 11 69 12 81 13
REMARK SMILES IDX 70 14 71 15 72 16 80 17 73 18 78 19 74 20 79 21 75 22 76 23
REMARK SMILES IDX 77 24 8 25 9 26 10 27 11 28 12 30 13 31 14 32 66 33 15 34
REMARK SMILES IDX 65 35 16 36 17 37 18 38 59 39 19 40 64 41 58 42 60 43 20 44
REMARK SMILES IDX 63 45 57 46 56 47 21 49 47 50 30 51 46 52 31 53 34 54 45 55
REMARK SMILES IDX 61 56 32 57 33 58 44 60 62 61 35 62 22 63 23 64 28 65 24 66
REMARK SMILES IDX 25 67 27 68 29 69 26 70 48 71 49 72 54 73 50 74 51 75 53 76
REMARK SMILES IDX 55 77 52 78 36 79 37 80 42 81 38 82 39 83 41 84 43 85 40 86
REMARK H PARENT 5 6 10 29 60 48 34 59
REMARK Flexibility Score: inf
ROOT
ATOM      1  C   UNL A   1      36.382  20.114  25.000  1.00  0.00     0.023 C 
ENDROOT
BRANCH   1   2
ATOM      2  C   UNL A   1      36.095  21.584  25.319  1.00  0.00     0.116 C 
BRANCH   2   3
ATOM      3  N   UNL A   1      35.970  22.354  24.100  1.00  0.00    -0.356 N 
ATOM      4  C   UNL A   1      34.857  22.871  23.501  1.00  0.00     0.227 C 
ATOM      5  O   UNL A   1      35.013  23.346  22.374  1.00  0.00    -0.274 OA
ATOM      6  H   UNL A   1      36.817  22.533  23.631  1.00  0.00     0.163 HD
BRANCH   4   7
ATOM      7  C   UNL A   1      33.512  22.895  24.250  1.00  0.00     0.105 C 
ATOM      8  C   UNL A   1      32.619  21.705  23.878  1.00  0.00     0.023 C 
BRANCH   7   9
ATOM      9  C   UNL A   1      32.799  24.237  24.064  1.00  0.00    -0.036 A 
ATOM     10  C   UNL A   1      31.619  24.368  23.316  1.00  0.00     0.005 A 
ATOM     11  C   UNL A   1      33.357  25.394  24.634  1.00  0.00     0.005 A 
ATOM     12  C   UNL A   1      30.992  25.606  23.175  1.00  0.00     0.009 A 
ATOM     13  C   UNL A   1      32.735  26.637  24.483  1.00  0.00     0.009 A 
ATOM     14  C   UNL A   1      31.540  26.747  23.766  1.00  0.00    -0.018 A 
BRANCH  14  15
ATOM     15  C   UNL A   1      30.858  28.045  23.649  1.00  0.00    -0.011 A 
ATOM     16  C   UNL A   1      31.069  29.136  24.578  1.00  0.00     0.027 A 
ATOM     17  C   UNL A   1      29.989  28.201  22.636  1.00  0.00     0.080 A 
ATOM     18  C   UNL A   1      30.387  30.280  24.442  1.00  0.00     0.095 A 
ATOM     19  C   UNL A   1      29.231  29.469  22.467  1.00  0.00     0.255 A 
ATOM     20  N   UNL A   1      29.478  30.449  23.415  1.00  0.00    -0.258 N 
ATOM     21  O   UNL A   1      28.451  29.563  21.526  1.00  0.00    -0.269 OA
BRANCH  20  22
ATOM     22  C   UNL A   1      28.717  31.666  23.301  1.00  0.00     0.451 C 
ATOM     23  F   UNL A   1      27.508  31.550  23.902  1.00  0.00    -0.185 F 
ATOM     24  F   UNL A   1      29.374  32.702  23.878  1.00  0.00    -0.185 F 
ENDBRANCH  20  22
ENDBRANCH  14  15
ENDBRANCH   7   9
ENDBRANCH   4   7
ENDBRANCH   2   3
ENDBRANCH   1   2
BRANCH   1  25
ATOM     25  C   UNL A   1      37.837  19.819  24.625  1.00  0.00     0.023 C 
BRANCH  25  26
ATOM     26  C   UNL A   1      38.850  20.054  25.738  1.00  0.00     0.116 C 
BRANCH  26  27
ATOM     27  N   UNL A   1      39.910  19.059  25.752  1.00  0.00    -0.352 N 
ATOM     28  C   UNL A   1      41.254  19.230  25.970  1.00  0.00     0.251 C 
ATOM     29  H   UNL A   1      39.624  18.133  25.582  1.00  0.00     0.163 HD
ATOM     30  O   UNL A   1      42.026  18.288  25.803  1.00  0.00    -0.269 OA
BRANCH  28  31
ATOM     31  C   UNL A   1      41.777  20.551  26.372  1.00  0.00     0.039 A 
ATOM     32  C   UNL A   1      42.109  21.471  25.375  1.00  0.00     0.014 A 
ATOM     33  C   UNL A   1      41.939  20.888  27.720  1.00  0.00     0.014 A 
ATOM     34  C   UNL A   1      42.549  22.747  25.731  1.00  0.00     0.010 A 
ATOM     35  C   UNL A   1      42.300  22.185  28.073  1.00  0.00     0.010 A 
ATOM     36  C   UNL A   1      42.616  23.127  27.082  1.00  0.00    -0.014 A 
BRANCH  36  37
ATOM     37  C   UNL A   1      43.015  24.505  27.464  1.00  0.00     0.031 A 
ATOM     38  C   UNL A   1      44.461  24.917  27.432  1.00  0.00     0.074 A 
ATOM     39  C   UNL A   1      42.073  25.379  27.871  1.00  0.00     0.049 A 
ATOM     40  N   UNL A   1      44.998  26.071  27.738  1.00  0.00    -0.248 NA
ATOM     41  C   UNL A   1      45.435  23.892  27.024  1.00  0.00     0.031 C 
ATOM     42  C   UNL A   1      40.645  25.084  28.002  1.00  0.00     0.029 A 
ATOM     43  N   UNL A   1      42.177  26.692  28.253  1.00  0.00    -0.354 N 
ATOM     44  C   UNL A   1      46.366  25.911  27.556  1.00  0.00     0.074 A 
ATOM     45  C   UNL A   1      46.585  24.531  27.182  1.00  0.00     0.031 C 
ATOM     46  C   UNL A   1      40.002  26.192  28.405  1.00  0.00     0.029 A 
ATOM     47  C   UNL A   1      40.974  27.263  28.595  1.00  0.00     0.049 A 
ATOM     48  H   UNL A   1      43.031  27.180  28.280  1.00  0.00     0.167 HD
ATOM     49  C   UNL A   1      47.348  26.839  27.658  1.00  0.00     0.037 A 
ATOM     50  C   UNL A   1      40.688  28.509  29.017  1.00  0.00     0.037 A 
ATOM     51  C   UNL A   1      47.130  28.213  28.024  1.00  0.00     0.049 A 
ATOM     52  C   UNL A   1      41.800  29.515  29.137  1.00  0.00     0.074 A 
ATOM     53  C   UNL A   1      48.056  29.237  28.127  1.00  0.00     0.029 A 
ATOM     54  N   UNL A   1      45.896  28.757  28.348  1.00  0.00    -0.354 N 
ATOM     55  N   UNL A   1      43.080  29.367  28.895  1.00  0.00    -0.248 NA
ATOM     56  C   UNL A   1      41.424  30.866  29.576  1.00  0.00     0.031 C 
ATOM     57  C   UNL A   1      47.388  30.390  28.554  1.00  0.00     0.029 A 
ATOM     58  C   UNL A   1      46.039  30.098  28.666  1.00  0.00     0.049 A 
ATOM     59  H   UNL A   1      45.044  28.264  28.353  1.00  0.00     0.167 HD
ATOM     60  C   UNL A   1      43.657  30.610  29.124  1.00  0.00     0.074 A 
ATOM     61  C   UNL A   1      42.583  31.505  29.501  1.00  0.00     0.031 C 
ATOM     62  C   UNL A   1      44.958  30.978  29.033  1.00  0.00     0.037 A 
BRANCH  49  63
ATOM     63  C   UNL A   1      48.751  26.396  27.351  1.00  0.00     0.057 A 
ATOM     64  C   UNL A   1      49.271  26.453  26.049  1.00  0.00     0.134 A 
ATOM     65  C   UNL A   1      49.603  25.943  28.365  1.00  0.00     0.134 A 
ATOM     66  F   UNL A   1      48.505  26.866  25.029  1.00  0.00    -0.206 F 
ATOM     67  C   UNL A   1      50.578  26.053  25.765  1.00  0.00     0.040 A 
ATOM     68  C   UNL A   1      50.921  25.567  28.098  1.00  0.00     0.040 A 
ATOM     69  F   UNL A   1      49.173  25.867  29.633  1.00  0.00    -0.206 F 
ATOM     70  C   UNL A   1      51.409  25.617  26.794  1.00  0.00     0.006 A 
ENDBRANCH  49  63
BRANCH  50  71
ATOM     71  C   UNL A   1      39.289  28.886  29.344  1.00  0.00     0.057 A 
ATOM     72  C   UNL A   1      38.450  29.468  28.386  1.00  0.00     0.134 A 
ATOM     73  C   UNL A   1      38.765  28.702  30.629  1.00  0.00     0.134 A 
ATOM     74  F   UNL A   1      38.898  29.687  27.141  1.00  0.00    -0.206 F 
ATOM     75  C   UNL A   1      37.155  29.882  28.701  1.00  0.00     0.040 A 
ATOM     76  C   UNL A   1      37.462  29.083  30.951  1.00  0.00     0.040 A 
ATOM     77  F   UNL A   1      39.512  28.140  31.591  1.00  0.00    -0.206 F 
ATOM     78  C   UNL A   1      36.656  29.686  29.987  1.00  0.00     0.006 A 
ENDBRANCH  50  71
BRANCH  62  79
ATOM     79  C   UNL A   1      45.282  32.418  29.309  1.00  0.00     0.057 A 
ATOM     80  C   UNL A   1      45.644  32.867  30.586  1.00  0.00     0.134 A 
ATOM     81  C   UNL A   1      45.249  33.365  28.277  1.00  0.00     0.134 A 
ATOM     82  F   UNL A   1      45.683  32.013  31.621  1.00  0.00    -0.206 F 
ATOM     83  C   UNL A   1      45.928  34.211  30.834  1.00  0.00     0.040 A 
ATOM     84  C   UNL A   1      45.561  34.706  28.506  1.00  0.00     0.040 A 
ATOM     85  F   UNL A   1      44.922  33.002  27.027  1.00  0.00    -0.206 F 
ATOM     86  C   UNL A   1      45.891  35.134  29.790  1.00  0.00     0.006 A 
ENDBRANCH  62  79
ENDBRANCH  36  37
ENDBRANCH  28  31
ENDBRANCH  26  27
ENDBRANCH  25  26
ENDBRANCH   1  25
TORSDOF 14
ENDMDL
MODEL 3
REMARK VINA RESULT:     -11.6      2.786      8.114
REMARK SMILES C[C@@H](C(=O)NCCCCNC(=O)c1ccc(-c2c3nc(c(-c4c(F)cccc4F)c4ccc([nH]4)c(-c4c(F)cccc4F)c4nc(c(-c5c(F)cccc5F)c5ccc2[nH]5)C=C4)C=C3)cc1)c1ccc(-c2ccn(C(F)F)c(=O)c2)cc1
REMARK SMILES IDX 7 1 6 2 5 3 3 4 4 5 2 7 1 8 67 9 68 10 82 11 69 12 81 13
REMARK SMILES IDX 70 14 71 15 72 16 80 17 73 18 78 19 74 20 79 21 75 22 76 23
REMARK SMILES IDX 77 24 8 25 9 26 10 27 11 28 12 30 13 31 14 32 66 33 15 34
REMARK SMILES IDX 65 35 16 36 17 37 18 38 59 39 19 40 64 41 58 42 60 43 20 44
REMARK SMILES IDX 63 45 57 46 56 47 21 49 47 50 30 51 46 52 31 53 34 54 45 55
REMARK SMILES IDX 61 56 32 57 33 58 44 60 62 61 35 62 22 63 23 64 28 65 24 66
REMARK SMILES IDX 25 67 27 68 29 69 26 70 48 71 49 72 54 73 50 74 51 75 53 76
REMARK SMILES IDX 55 77 52 78 36 79 37 80 42 81 38 82 39 83 41 84 43 85 40 86
REMARK H PARENT 5 6 10 29 60 48 34 59
REMARK Flexibility Score: inf
ROOT
ATOM      1  C   UNL A   1      32.560  29.589  25.181  1.00  0.00     0.023 C 
ENDROOT
BRANCH   1   2
ATOM      2  C   UNL A   1      31.045  29.521  24.967  1.00  0.00     0.116 C 
BRANCH   2   3
ATOM      3  N   UNL A   1      30.695  30.003  23.648  1.00  0.00    -0.356 N 
ATOM      4  C   UNL A   1      30.282  29.314  22.544  1.00  0.00     0.227 C 
ATOM      5  O   UNL A   1      30.210  29.956  21.494  1.00  0.00    -0.274 OA
ATOM      6  H   UNL A   1      30.765  30.978  23.529  1.00  0.00     0.163 HD
BRANCH   4   7
ATOM      7  C   UNL A   1      29.877  27.832  22.660  1.00  0.00     0.105 C 
ATOM      8  C   UNL A   1      28.691  27.629  23.611  1.00  0.00     0.023 C 
BRANCH   7   9
ATOM      9  C   UNL A   1      31.077  26.958  23.032  1.00  0.00    -0.036 A 
ATOM     10  C   UNL A   1      32.307  27.040  22.362  1.00  0.00     0.005 A 
ATOM     11  C   UNL A   1      30.942  26.012  24.062  1.00  0.00     0.005 A 
ATOM     12  C   UNL A   1      33.382  26.233  22.733  1.00  0.00     0.009 A 
ATOM     13  C   UNL A   1      32.016  25.194  24.427  1.00  0.00     0.009 A 
ATOM     14  C   UNL A   1      33.247  25.312  23.776  1.00  0.00    -0.018 A 
BRANCH  14  15
ATOM     15  C   UNL A   1      34.392  24.488  24.192  1.00  0.00    -0.011 A 
ATOM     16  C   UNL A   1      34.795  24.334  25.575  1.00  0.00     0.027 A 
ATOM     17  C   UNL A   1      35.098  23.871  23.228  1.00  0.00     0.080 A 
ATOM     18  C   UNL A   1      35.873  23.604  25.887  1.00  0.00     0.095 A 
ATOM     19  C   UNL A   1      36.290  23.049  23.561  1.00  0.00     0.255 A 
ATOM     20  N   UNL A   1      36.617  22.976  24.906  1.00  0.00    -0.258 N 
ATOM     21  O   UNL A   1      36.899  22.505  22.646  1.00  0.00    -0.269 OA
BRANCH  20  22
ATOM     22  C   UNL A   1      37.799  22.228  25.246  1.00  0.00     0.451 C 
ATOM     23  F   UNL A   1      38.379  22.709  26.373  1.00  0.00    -0.185 F 
ATOM     24  F   UNL A   1      37.500  20.922  25.452  1.00  0.00    -0.185 F 
ENDBRANCH  20  22
ENDBRANCH  14  15
ENDBRANCH   7   9
ENDBRANCH   4   7
ENDBRANCH   2   3
ENDBRANCH   1   2
BRANCH   1  25
ATOM     25  C   UNL A   1      33.163  28.344  25.837  1.00  0.00     0.023 C 
BRANCH  25  26
ATOM     26  C   UNL A   1      33.726  28.561  27.236  1.00  0.00     0.116 C 
BRANCH  26  27
ATOM     27  N   UNL A   1      33.658  29.950  27.660  1.00  0.00    -0.352 N 
ATOM     28  C   UNL A   1      34.617  30.717  28.272  1.00  0.00     0.251 C 
ATOM     29  H   UNL A   1      32.803  30.406  27.482  1.00  0.00     0.163 HD
ATOM     30  O   UNL A   1      34.332  31.837  28.689  1.00  0.00    -0.269 OA
BRANCH  28  31
ATOM     31  C   UNL A   1      35.981  30.183  28.462  1.00  0.00     0.039 A 
ATOM     32  C   UNL A   1      36.885  30.264  27.400  1.00  0.00     0.014 A 
ATOM     33  C   UNL A   1      36.373  29.607  29.674  1.00  0.00     0.014 A 
ATOM     34  C   UNL A   1      38.197  29.821  27.573  1.00  0.00     0.010 A 
ATOM     35  C   UNL A   1      37.702  29.240  29.871  1.00  0.00     0.010 A 
ATOM     36  C   UNL A   1      38.626  29.336  28.820  1.00  0.00    -0.014 A 
BRANCH  36  37
ATOM     37  C   UNL A   1      40.038  28.930  29.030  1.00  0.00     0.031 A 
ATOM     38  C   UNL A   1      41.016  29.876  29.672  1.00  0.00     0.074 A 
ATOM     39  C   UNL A   1      40.449  27.716  28.613  1.00  0.00     0.049 A 
ATOM     40  N   UNL A   1      42.288  29.701  29.929  1.00  0.00    -0.248 NA
ATOM     41  C   UNL A   1      40.505  31.202  30.056  1.00  0.00     0.031 C 
ATOM     42  C   UNL A   1      39.613  26.731  27.925  1.00  0.00     0.029 A 
ATOM     43  N   UNL A   1      41.674  27.106  28.703  1.00  0.00    -0.354 N 
ATOM     44  C   UNL A   1      42.724  30.888  30.505  1.00  0.00     0.074 A 
ATOM     45  C   UNL A   1      41.602  31.800  30.496  1.00  0.00     0.031 C 
ATOM     46  C   UNL A   1      40.341  25.629  27.682  1.00  0.00     0.029 A 
ATOM     47  C   UNL A   1      41.702  25.842  28.164  1.00  0.00     0.049 A 
ATOM     48  H   UNL A   1      42.460  27.533  29.116  1.00  0.00     0.167 HD
ATOM     49  C   UNL A   1      43.940  31.180  31.026  1.00  0.00     0.037 A 
ATOM     50  C   UNL A   1      42.710  24.956  28.067  1.00  0.00     0.037 A 
ATOM     51  C   UNL A   1      45.055  30.270  31.041  1.00  0.00     0.049 A 
ATOM     52  C   UNL A   1      44.055  25.312  28.640  1.00  0.00     0.074 A 
ATOM     53  C   UNL A   1      46.319  30.462  31.571  1.00  0.00     0.029 A 
ATOM     54  N   UNL A   1      45.039  28.993  30.499  1.00  0.00    -0.354 N 
ATOM     55  N   UNL A   1      44.433  26.413  29.244  1.00  0.00    -0.248 NA
ATOM     56  C   UNL A   1      45.111  24.296  28.529  1.00  0.00     0.031 C 
ATOM     57  C   UNL A   1      47.081  29.318  31.312  1.00  0.00     0.029 A 
ATOM     58  C   UNL A   1      46.275  28.392  30.669  1.00  0.00     0.049 A 
ATOM     59  H   UNL A   1      44.264  28.576  30.058  1.00  0.00     0.167 HD
ATOM     60  C   UNL A   1      45.758  26.211  29.609  1.00  0.00     0.074 A 
ATOM     61  C   UNL A   1      46.109  24.874  29.180  1.00  0.00     0.031 C 
ATOM     62  C   UNL A   1      46.609  27.057  30.241  1.00  0.00     0.037 A 
BRANCH  49  63
ATOM     63  C   UNL A   1      44.119  32.539  31.641  1.00  0.00     0.057 A 
ATOM     64  C   UNL A   1      44.550  33.637  30.882  1.00  0.00     0.134 A 
ATOM     65  C   UNL A   1      43.825  32.765  32.991  1.00  0.00     0.134 A 
ATOM     66  F   UNL A   1      44.860  33.488  29.586  1.00  0.00    -0.206 F 
ATOM     67  C   UNL A   1      44.706  34.903  31.449  1.00  0.00     0.040 A 
ATOM     68  C   UNL A   1      43.950  34.033  33.563  1.00  0.00     0.040 A 
ATOM     69  F   UNL A   1      43.404  31.761  33.774  1.00  0.00    -0.206 F 
ATOM     70  C   UNL A   1      44.396  35.105  32.792  1.00  0.00     0.006 A 
ENDBRANCH  49  63
BRANCH  50  71
ATOM     71  C   UNL A   1      42.490  23.639  27.417  1.00  0.00     0.057 A 
ATOM     72  C   UNL A   1      42.170  22.502  28.168  1.00  0.00     0.134 A 
ATOM     73  C   UNL A   1      42.624  23.478  26.032  1.00  0.00     0.134 A 
ATOM     74  F   UNL A   1      42.045  22.586  29.501  1.00  0.00    -0.206 F 
ATOM     75  C   UNL A   1      42.023  21.248  27.572  1.00  0.00     0.040 A 
ATOM     76  C   UNL A   1      42.449  22.237  25.419  1.00  0.00     0.040 A 
ATOM     77  F   UNL A   1      42.919  24.529  25.253  1.00  0.00    -0.206 F 
ATOM     78  C   UNL A   1      42.159  21.114  26.192  1.00  0.00     0.006 A 
ENDBRANCH  50  71
BRANCH  62  79
ATOM     79  C   UNL A   1      47.988  26.542  30.539  1.00  0.00     0.057 A 
ATOM     80  C   UNL A   1      49.059  26.733  29.657  1.00  0.00     0.134 A 
ATOM     81  C   UNL A   1      48.250  25.863  31.735  1.00  0.00     0.134 A 
ATOM     82  F   UNL A   1      48.872  27.366  28.487  1.00  0.00    -0.206 F 
ATOM     83  C   UNL A   1      50.333  26.238  29.937  1.00  0.00     0.040 A 
ATOM     84  C   UNL A   1      49.527  25.389  32.042  1.00  0.00     0.040 A 
ATOM     85  F   UNL A   1      47.273  25.655  32.632  1.00  0.00    -0.206 F 
ATOM     86  C   UNL A   1      50.570  25.567  31.135  1.00  0.00     0.006 A 
ENDBRANCH  62  79
ENDBRANCH  36  37
ENDBRANCH  28  31
ENDBRANCH  26  27
ENDBRANCH  25  26
ENDBRANCH   1  25
TORSDOF 14
ENDMDL
