MODEL 1
REMARK VINA RESULT:     -11.2      0.000      0.000
REMARK SMILES C[C@@H](C(=O)NCCCCNC(=O)c1ccc(-c2c3nc(c(-c4c(F)cccc4F)c4ccc([nH]4)c(-c4c(F)cccc4F)c4nc(c(-c5c(F)cccc5F)c5ccc2[nH]5)C=C4)C=C3)cc1)[C@H]1CCOC2(CCCCC2)C1
REMARK SMILES IDX 8 1 7 2 6 3 5 4 3 5 4 6 2 8 1 9 67 10 68 11 77 12 69 13
REMARK SMILES IDX 71 14 70 15 72 16 76 17 73 18 75 19 74 20 9 21 10 22 11 23
REMARK SMILES IDX 12 25 13 26 14 27 66 28 15 29 65 30 16 31 17 32 18 33 59 34
REMARK SMILES IDX 19 35 64 36 58 37 60 38 20 39 63 40 57 41 56 42 21 44 47 45
REMARK SMILES IDX 30 46 46 47 31 48 34 49 45 50 61 51 32 52 33 53 44 55 62 56
REMARK SMILES IDX 35 57 22 58 23 59 28 60 24 61 25 62 27 63 29 64 26 65 48 66
REMARK SMILES IDX 49 67 54 68 50 69 51 70 53 71 55 72 52 73 36 74 37 75 42 76
REMARK SMILES IDX 38 77 39 78 41 79 43 80 40 81
REMARK H PARENT 5 7 10 24 60 43 34 54
REMARK Flexibility Score: inf
ROOT
ATOM      1  C   UNL A   1      38.971  21.098  25.470  1.00  0.00     0.023 C 
ENDROOT
BRANCH   1   2
ATOM      2  C   UNL A   1      38.887  22.440  26.201  1.00  0.00     0.023 C 
BRANCH   2   3
ATOM      3  C   UNL A   1      37.694  23.322  25.816  1.00  0.00     0.116 C 
BRANCH   3   4
ATOM      4  N   UNL A   1      37.455  23.289  24.389  1.00  0.00    -0.356 N 
ATOM      5  C   UNL A   1      36.293  23.273  23.678  1.00  0.00     0.223 C 
ATOM      6  O   UNL A   1      36.415  23.017  22.481  1.00  0.00    -0.275 OA
ATOM      7  H   UNL A   1      38.271  23.274  23.839  1.00  0.00     0.163 HD
BRANCH   5   8
ATOM      8  C   UNL A   1      34.943  23.527  24.377  1.00  0.00     0.078 C 
ATOM      9  C   UNL A   1      33.900  22.544  23.828  1.00  0.00     0.018 C 
BRANCH   8  10
ATOM     10  C   UNL A   1      34.436  25.023  24.412  1.00  0.00     0.006 C 
ATOM     11  C   UNL A   1      33.665  25.515  23.178  1.00  0.00     0.033 C 
ATOM     12  C   UNL A   1      33.587  25.329  25.666  1.00  0.00     0.040 C 
ATOM     13  C   UNL A   1      33.147  26.936  23.341  1.00  0.00     0.161 C 
ATOM     14  C   UNL A   1      33.030  26.760  25.739  1.00  0.00     0.069 C 
ATOM     15  O   UNL A   1      32.358  27.080  24.514  1.00  0.00    -0.375 OA
ATOM     16  C   UNL A   1      34.129  27.788  26.079  1.00  0.00     0.035 C 
ATOM     17  C   UNL A   1      31.946  26.807  26.842  1.00  0.00     0.035 C 
ATOM     18  C   UNL A   1      33.558  29.197  26.250  1.00  0.00     0.003 C 
ATOM     19  C   UNL A   1      31.369  28.209  27.033  1.00  0.00     0.003 C 
ATOM     20  C   UNL A   1      32.463  29.231  27.313  1.00  0.00     0.000 C 
ENDBRANCH   8  10
ENDBRANCH   5   8
ENDBRANCH   3   4
ENDBRANCH   2   3
ENDBRANCH   1   2
BRANCH   1  21
ATOM     21  C   UNL A   1      39.401  19.917  26.328  1.00  0.00     0.116 C 
BRANCH  21  22
ATOM     22  N   UNL A   1      40.608  19.276  25.834  1.00  0.00    -0.352 N 
ATOM     23  C   UNL A   1      41.896  19.742  25.810  1.00  0.00     0.251 C 
ATOM     24  H   UNL A   1      40.481  18.374  25.462  1.00  0.00     0.163 HD
ATOM     25  O   UNL A   1      42.765  19.093  25.226  1.00  0.00    -0.269 OA
BRANCH  23  26
ATOM     26  C   UNL A   1      42.241  21.029  26.445  1.00  0.00     0.039 A 
ATOM     27  C   UNL A   1      42.590  22.102  25.620  1.00  0.00     0.014 A 
ATOM     28  C   UNL A   1      42.238  21.188  27.834  1.00  0.00     0.014 A 
ATOM     29  C   UNL A   1      42.885  23.342  26.185  1.00  0.00     0.010 A 
ATOM     30  C   UNL A   1      42.460  22.445  28.393  1.00  0.00     0.010 A 
ATOM     31  C   UNL A   1      42.792  23.533  27.573  1.00  0.00    -0.014 A 
BRANCH  31  32
ATOM     32  C   UNL A   1      43.031  24.873  28.162  1.00  0.00     0.031 A 
ATOM     33  C   UNL A   1      44.414  25.302  28.560  1.00  0.00     0.074 A 
ATOM     34  C   UNL A   1      41.985  25.701  28.353  1.00  0.00     0.049 A 
ATOM     35  N   UNL A   1      44.812  26.448  29.052  1.00  0.00    -0.248 NA
ATOM     36  C   UNL A   1      45.489  24.309  28.410  1.00  0.00     0.031 C 
ATOM     37  C   UNL A   1      40.585  25.373  28.071  1.00  0.00     0.029 A 
ATOM     38  N   UNL A   1      41.936  26.989  28.823  1.00  0.00    -0.354 N 
ATOM     39  C   UNL A   1      46.178  26.317  29.262  1.00  0.00     0.074 A 
ATOM     40  C   UNL A   1      46.531  24.960  28.907  1.00  0.00     0.031 C 
ATOM     41  C   UNL A   1      39.820  26.442  28.344  1.00  0.00     0.029 A 
ATOM     42  C   UNL A   1      40.670  27.521  28.839  1.00  0.00     0.049 A 
ATOM     43  H   UNL A   1      42.733  27.485  29.120  1.00  0.00     0.167 HD
ATOM     44  C   UNL A   1      47.064  27.251  29.684  1.00  0.00     0.037 A 
ATOM     45  C   UNL A   1      40.243  28.743  29.205  1.00  0.00     0.037 A 
ATOM     46  C   UNL A   1      46.714  28.604  30.029  1.00  0.00     0.049 A 
ATOM     47  C   UNL A   1      41.250  29.767  29.648  1.00  0.00     0.074 A 
ATOM     48  C   UNL A   1      47.543  29.636  30.433  1.00  0.00     0.029 A 
ATOM     49  N   UNL A   1      45.424  29.113  30.011  1.00  0.00    -0.354 N 
ATOM     50  N   UNL A   1      42.549  29.650  29.772  1.00  0.00    -0.248 NA
ATOM     51  C   UNL A   1      40.731  31.100  29.986  1.00  0.00     0.031 C 
ATOM     52  C   UNL A   1      46.751  30.761  30.691  1.00  0.00     0.029 A 
ATOM     53  C   UNL A   1      45.433  30.441  30.406  1.00  0.00     0.049 A 
ATOM     54  H   UNL A   1      44.620  28.606  29.755  1.00  0.00     0.167 HD
ATOM     55  C   UNL A   1      43.005  30.894  30.187  1.00  0.00     0.074 A 
ATOM     56  C   UNL A   1      41.847  31.759  30.263  1.00  0.00     0.031 C 
ATOM     57  C   UNL A   1      44.269  31.285  30.484  1.00  0.00     0.037 A 
BRANCH  44  58
ATOM     58  C   UNL A   1      48.505  26.843  29.777  1.00  0.00     0.057 A 
ATOM     59  C   UNL A   1      49.395  27.046  28.712  1.00  0.00     0.134 A 
ATOM     60  C   UNL A   1      49.023  26.278  30.949  1.00  0.00     0.134 A 
ATOM     61  F   UNL A   1      48.961  27.571  27.556  1.00  0.00    -0.206 F 
ATOM     62  C   UNL A   1      50.740  26.685  28.803  1.00  0.00     0.040 A 
ATOM     63  C   UNL A   1      50.372  25.936  31.061  1.00  0.00     0.040 A 
ATOM     64  F   UNL A   1      48.228  26.060  32.008  1.00  0.00    -0.206 F 
ATOM     65  C   UNL A   1      51.233  26.134  29.984  1.00  0.00     0.006 A 
ENDBRANCH  44  58
BRANCH  45  66
ATOM     66  C   UNL A   1      38.798  29.077  29.138  1.00  0.00     0.057 A 
ATOM     67  C   UNL A   1      38.204  29.486  27.939  1.00  0.00     0.134 A 
ATOM     68  C   UNL A   1      37.982  29.005  30.272  1.00  0.00     0.134 A 
ATOM     69  F   UNL A   1      38.939  29.589  26.821  1.00  0.00    -0.206 F 
ATOM     70  C   UNL A   1      36.855  29.838  27.874  1.00  0.00     0.040 A 
ATOM     71  C   UNL A   1      36.626  29.328  30.217  1.00  0.00     0.040 A 
ATOM     72  F   UNL A   1      38.490  28.611  31.448  1.00  0.00    -0.206 F 
ATOM     73  C   UNL A   1      36.061  29.755  29.017  1.00  0.00     0.006 A 
ENDBRANCH  45  66
BRANCH  57  74
ATOM     74  C   UNL A   1      44.453  32.714  30.904  1.00  0.00     0.057 A 
ATOM     75  C   UNL A   1      44.404  33.099  32.250  1.00  0.00     0.134 A 
ATOM     76  C   UNL A   1      44.687  33.715  29.952  1.00  0.00     0.134 A 
ATOM     77  F   UNL A   1      44.170  32.190  33.208  1.00  0.00    -0.206 F 
ATOM     78  C   UNL A   1      44.546  34.433  32.632  1.00  0.00     0.040 A 
ATOM     79  C   UNL A   1      44.857  35.049  30.325  1.00  0.00     0.040 A 
ATOM     80  F   UNL A   1      44.756  33.412  28.647  1.00  0.00    -0.206 F 
ATOM     81  C   UNL A   1      44.777  35.413  31.667  1.00  0.00     0.006 A 
ENDBRANCH  57  74
ENDBRANCH  31  32
ENDBRANCH  23  26
ENDBRANCH  21  22
ENDBRANCH   1  21
TORSDOF 12
ENDMDL
MODEL 2
REMARK VINA RESULT:     -11.0      1.888      3.553
REMARK SMILES C[C@@H](C(=O)NCCCCNC(=O)c1ccc(-c2c3nc(c(-c4c(F)cccc4F)c4ccc([nH]4)c(-c4c(F)cccc4F)c4nc(c(-c5c(F)cccc5F)c5ccc2[nH]5)C=C4)C=C3)cc1)[C@H]1CCOC2(CCCCC2)C1
REMARK SMILES IDX 8 1 7 2 6 3 5 4 3 5 4 6 2 8 1 9 67 10 68 11 77 12 69 13
REMARK SMILES IDX 71 14 70 15 72 16 76 17 73 18 75 19 74 20 9 21 10 22 11 23
REMARK SMILES IDX 12 25 13 26 14 27 66 28 15 29 65 30 16 31 17 32 18 33 59 34
REMARK SMILES IDX 19 35 64 36 58 37 60 38 20 39 63 40 57 41 56 42 21 44 47 45
REMARK SMILES IDX 30 46 46 47 31 48 34 49 45 50 61 51 32 52 33 53 44 55 62 56
REMARK SMILES IDX 35 57 22 58 23 59 28 60 24 61 25 62 27 63 29 64 26 65 48 66
REMARK SMILES IDX 49 67 54 68 50 69 51 70 53 71 55 72 52 73 36 74 37 75 42 76
REMARK SMILES IDX 38 77 39 78 41 79 43 80 40 81
REMARK H PARENT 5 7 10 24 60 43 34 54
REMARK Flexibility Score: inf
ROOT
ATOM      1  C   UNL A   1      38.864  21.090  25.463  1.00  0.00     0.023 C 
ENDROOT
BRANCH   1   2
ATOM      2  C   UNL A   1      38.831  22.460  26.145  1.00  0.00     0.023 C 
BRANCH   2   3
ATOM      3  C   UNL A   1      37.661  23.364  25.742  1.00  0.00     0.116 C 
BRANCH   3   4
ATOM      4  N   UNL A   1      36.522  23.168  26.613  1.00  0.00    -0.356 N 
ATOM      5  C   UNL A   1      35.210  22.937  26.329  1.00  0.00     0.223 C 
ATOM      6  O   UNL A   1      34.441  23.037  27.284  1.00  0.00    -0.275 OA
ATOM      7  H   UNL A   1      36.731  23.209  27.573  1.00  0.00     0.163 HD
BRANCH   5   8
ATOM      8  C   UNL A   1      34.764  22.614  24.889  1.00  0.00     0.078 C 
ATOM      9  C   UNL A   1      34.180  23.879  24.247  1.00  0.00     0.018 C 
BRANCH   8  10
ATOM     10  C   UNL A   1      33.850  21.338  24.702  1.00  0.00     0.006 C 
ATOM     11  C   UNL A   1      32.931  21.327  23.471  1.00  0.00     0.033 C 
ATOM     12  C   UNL A   1      34.663  20.024  24.711  1.00  0.00     0.040 C 
ATOM     13  C   UNL A   1      32.156  20.025  23.333  1.00  0.00     0.161 C 
ATOM     14  C   UNL A   1      33.834  18.747  24.494  1.00  0.00     0.069 C 
ATOM     15  O   UNL A   1      33.017  18.895  23.326  1.00  0.00    -0.375 OA
ATOM     16  C   UNL A   1      32.999  18.385  25.739  1.00  0.00     0.035 C 
ATOM     17  C   UNL A   1      34.804  17.581  24.189  1.00  0.00     0.035 C 
ATOM     18  C   UNL A   1      32.252  17.063  25.560  1.00  0.00     0.003 C 
ATOM     19  C   UNL A   1      34.076  16.249  24.014  1.00  0.00     0.003 C 
ATOM     20  C   UNL A   1      33.208  15.922  25.223  1.00  0.00     0.000 C 
ENDBRANCH   8  10
ENDBRANCH   5   8
ENDBRANCH   3   4
ENDBRANCH   2   3
ENDBRANCH   1   2
BRANCH   1  21
ATOM     21  C   UNL A   1      39.342  19.940  26.337  1.00  0.00     0.116 C 
BRANCH  21  22
ATOM     22  N   UNL A   1      40.543  19.305  25.821  1.00  0.00    -0.352 N 
ATOM     23  C   UNL A   1      41.830  19.773  25.784  1.00  0.00     0.251 C 
ATOM     24  H   UNL A   1      40.412  18.407  25.442  1.00  0.00     0.163 HD
ATOM     25  O   UNL A   1      42.691  19.130  25.183  1.00  0.00    -0.269 OA
BRANCH  23  26
ATOM     26  C   UNL A   1      42.182  21.055  26.427  1.00  0.00     0.039 A 
ATOM     27  C   UNL A   1      42.554  22.125  25.609  1.00  0.00     0.014 A 
ATOM     28  C   UNL A   1      42.165  21.210  27.816  1.00  0.00     0.014 A 
ATOM     29  C   UNL A   1      42.856  23.360  26.180  1.00  0.00     0.010 A 
ATOM     30  C   UNL A   1      42.395  22.462  28.381  1.00  0.00     0.010 A 
ATOM     31  C   UNL A   1      42.749  23.549  27.568  1.00  0.00    -0.014 A 
BRANCH  31  32
ATOM     32  C   UNL A   1      42.996  24.885  28.163  1.00  0.00     0.031 A 
ATOM     33  C   UNL A   1      44.383  25.306  28.557  1.00  0.00     0.074 A 
ATOM     34  C   UNL A   1      41.955  25.716  28.363  1.00  0.00     0.049 A 
ATOM     35  N   UNL A   1      44.788  26.448  29.053  1.00  0.00    -0.248 NA
ATOM     36  C   UNL A   1      45.453  24.309  28.396  1.00  0.00     0.031 C 
ATOM     37  C   UNL A   1      40.552  25.396  28.087  1.00  0.00     0.029 A 
ATOM     38  N   UNL A   1      41.914  27.001  28.840  1.00  0.00    -0.354 N 
ATOM     39  C   UNL A   1      46.155  26.309  29.256  1.00  0.00     0.074 A 
ATOM     40  C   UNL A   1      46.500  24.952  28.891  1.00  0.00     0.031 C 
ATOM     41  C   UNL A   1      39.793  26.466  28.369  1.00  0.00     0.029 A 
ATOM     42  C   UNL A   1      40.650  27.538  28.866  1.00  0.00     0.049 A 
ATOM     43  H   UNL A   1      42.714  27.492  29.137  1.00  0.00     0.167 HD
ATOM     44  C   UNL A   1      47.047  27.237  29.678  1.00  0.00     0.037 A 
ATOM     45  C   UNL A   1      40.230  28.761  29.241  1.00  0.00     0.037 A 
ATOM     46  C   UNL A   1      46.704  28.590  30.033  1.00  0.00     0.049 A 
ATOM     47  C   UNL A   1      41.243  29.777  29.685  1.00  0.00     0.074 A 
ATOM     48  C   UNL A   1      47.540  29.616  30.437  1.00  0.00     0.029 A 
ATOM     49  N   UNL A   1      45.416  29.104  30.023  1.00  0.00    -0.354 N 
ATOM     50  N   UNL A   1      42.543  29.654  29.801  1.00  0.00    -0.248 NA
ATOM     51  C   UNL A   1      40.731  31.111  30.033  1.00  0.00     0.031 C 
ATOM     52  C   UNL A   1      46.754  30.742  30.706  1.00  0.00     0.029 A 
ATOM     53  C   UNL A   1      45.433  30.430  30.426  1.00  0.00     0.049 A 
ATOM     54  H   UNL A   1      44.609  28.602  29.768  1.00  0.00     0.167 HD
ATOM     55  C   UNL A   1      43.006  30.894  30.221  1.00  0.00     0.074 A 
ATOM     56  C   UNL A   1      41.851  31.764  30.307  1.00  0.00     0.031 C 
ATOM     57  C   UNL A   1      44.272  31.279  30.514  1.00  0.00     0.037 A 
BRANCH  44  58
ATOM     58  C   UNL A   1      48.487  26.822  29.761  1.00  0.00     0.057 A 
ATOM     59  C   UNL A   1      49.366  27.009  28.686  1.00  0.00     0.134 A 
ATOM     60  C   UNL A   1      49.012  26.269  30.935  1.00  0.00     0.134 A 
ATOM     61  F   UNL A   1      48.925  27.523  27.528  1.00  0.00    -0.206 F 
ATOM     62  C   UNL A   1      50.711  26.642  28.768  1.00  0.00     0.040 A 
ATOM     63  C   UNL A   1      50.361  25.920  31.038  1.00  0.00     0.040 A 
ATOM     64  F   UNL A   1      48.228  26.066  32.004  1.00  0.00    -0.206 F 
ATOM     65  C   UNL A   1      51.212  26.102  29.950  1.00  0.00     0.006 A 
ENDBRANCH  44  58
BRANCH  45  66
ATOM     66  C   UNL A   1      38.786  29.101  29.182  1.00  0.00     0.057 A 
ATOM     67  C   UNL A   1      38.193  29.545  27.995  1.00  0.00     0.134 A 
ATOM     68  C   UNL A   1      37.969  29.000  30.314  1.00  0.00     0.134 A 
ATOM     69  F   UNL A   1      38.929  29.678  26.882  1.00  0.00    -0.206 F 
ATOM     70  C   UNL A   1      36.846  29.903  27.941  1.00  0.00     0.040 A 
ATOM     71  C   UNL A   1      36.614  29.328  30.268  1.00  0.00     0.040 A 
ATOM     72  F   UNL A   1      38.475  28.570  31.479  1.00  0.00    -0.206 F 
ATOM     73  C   UNL A   1      36.051  29.790  29.080  1.00  0.00     0.006 A 
ENDBRANCH  45  66
BRANCH  57  74
ATOM     74  C   UNL A   1      44.465  32.704  30.941  1.00  0.00     0.057 A 
ATOM     75  C   UNL A   1      44.425  33.081  32.290  1.00  0.00     0.134 A 
ATOM     76  C   UNL A   1      44.697  33.710  29.993  1.00  0.00     0.134 A 
ATOM     77  F   UNL A   1      44.194  32.168  33.244  1.00  0.00    -0.206 F 
ATOM     78  C   UNL A   1      44.575  34.413  32.678  1.00  0.00     0.040 A 
ATOM     79  C   UNL A   1      44.875  35.040  30.373  1.00  0.00     0.040 A 
ATOM     80  F   UNL A   1      44.757  33.414  28.686  1.00  0.00    -0.206 F 
ATOM     81  C   UNL A   1      44.804  35.397  31.718  1.00  0.00     0.006 A 
ENDBRANCH  57  74
ENDBRANCH  31  32
ENDBRANCH  23  26
ENDBRANCH  21  22
ENDBRANCH   1  21
TORSDOF 12
ENDMDL
MODEL 3
REMARK VINA RESULT:     -10.9      4.572      9.327
REMARK SMILES C[C@@H](C(=O)NCCCCNC(=O)c1ccc(-c2c3nc(c(-c4c(F)cccc4F)c4ccc([nH]4)c(-c4c(F)cccc4F)c4nc(c(-c5c(F)cccc5F)c5ccc2[nH]5)C=C4)C=C3)cc1)[C@H]1CCOC2(CCCCC2)C1
REMARK SMILES IDX 8 1 7 2 6 3 5 4 3 5 4 6 2 8 1 9 67 10 68 11 77 12 69 13
REMARK SMILES IDX 71 14 70 15 72 16 76 17 73 18 75 19 74 20 9 21 10 22 11 23
REMARK SMILES IDX 12 25 13 26 14 27 66 28 15 29 65 30 16 31 17 32 18 33 59 34
REMARK SMILES IDX 19 35 64 36 58 37 60 38 20 39 63 40 57 41 56 42 21 44 47 45
REMARK SMILES IDX 30 46 46 47 31 48 34 49 45 50 61 51 32 52 33 53 44 55 62 56
REMARK SMILES IDX 35 57 22 58 23 59 28 60 24 61 25 62 27 63 29 64 26 65 48 66
REMARK SMILES IDX 49 67 54 68 50 69 51 70 53 71 55 72 52 73 36 74 37 75 42 76
REMARK SMILES IDX 38 77 39 78 41 79 43 80 40 81
REMARK H PARENT 5 7 10 24 60 43 34 54
REMARK Flexibility Score: inf
ROOT
ATOM      1  C   UNL A   1      31.594  31.779  26.681  1.00  0.00     0.023 C 
ENDROOT
BRANCH   1   2
ATOM      2  C   UNL A   1      31.714  30.254  26.656  1.00  0.00     0.023 C 
BRANCH   2   3
ATOM      3  C   UNL A   1      33.143  29.707  26.747  1.00  0.00     0.116 C 
BRANCH   3   4
ATOM      4  N   UNL A   1      33.728  29.546  25.433  1.00  0.00    -0.356 N 
ATOM      5  C   UNL A   1      33.479  28.636  24.450  1.00  0.00     0.223 C 
ATOM      6  O   UNL A   1      34.297  28.619  23.532  1.00  0.00    -0.275 OA
ATOM      7  H   UNL A   1      34.424  30.205  25.213  1.00  0.00     0.163 HD
BRANCH   5   8
ATOM      8  C   UNL A   1      32.265  27.691  24.546  1.00  0.00     0.078 C 
ATOM      9  C   UNL A   1      32.725  26.252  24.280  1.00  0.00     0.018 C 
BRANCH   8  10
ATOM     10  C   UNL A   1      30.984  28.101  23.716  1.00  0.00     0.006 C 
ATOM     11  C   UNL A   1      29.731  27.234  23.914  1.00  0.00     0.033 C 
ATOM     12  C   UNL A   1      30.588  29.579  23.936  1.00  0.00     0.040 C 
ATOM     13  C   UNL A   1      28.530  27.757  23.140  1.00  0.00     0.161 C 
ATOM     14  C   UNL A   1      29.324  30.030  23.185  1.00  0.00     0.069 C 
ATOM     15  O   UNL A   1      28.252  29.116  23.451  1.00  0.00    -0.375 OA
ATOM     16  C   UNL A   1      29.580  30.193  21.673  1.00  0.00     0.035 C 
ATOM     17  C   UNL A   1      28.872  31.392  23.763  1.00  0.00     0.035 C 
ATOM     18  C   UNL A   1      28.352  30.737  20.942  1.00  0.00     0.003 C 
ATOM     19  C   UNL A   1      27.650  31.956  23.040  1.00  0.00     0.003 C 
ATOM     20  C   UNL A   1      27.888  32.062  21.539  1.00  0.00     0.000 C 
ENDBRANCH   8  10
ENDBRANCH   5   8
ENDBRANCH   3   4
ENDBRANCH   2   3
ENDBRANCH   1   2
BRANCH   1  21
ATOM     21  C   UNL A   1      32.863  32.524  27.071  1.00  0.00     0.116 C 
BRANCH  21  22
ATOM     22  N   UNL A   1      32.590  33.813  27.683  1.00  0.00    -0.352 N 
ATOM     23  C   UNL A   1      33.236  34.444  28.714  1.00  0.00     0.251 C 
ATOM     24  H   UNL A   1      31.829  34.306  27.301  1.00  0.00     0.163 HD
ATOM     25  O   UNL A   1      32.767  35.485  29.176  1.00  0.00    -0.269 OA
BRANCH  23  26
ATOM     26  C   UNL A   1      34.465  33.867  29.295  1.00  0.00     0.039 A 
ATOM     27  C   UNL A   1      34.333  32.860  30.254  1.00  0.00     0.014 A 
ATOM     28  C   UNL A   1      35.735  34.314  28.919  1.00  0.00     0.014 A 
ATOM     29  C   UNL A   1      35.474  32.268  30.796  1.00  0.00     0.010 A 
ATOM     30  C   UNL A   1      36.872  33.671  29.405  1.00  0.00     0.010 A 
ATOM     31  C   UNL A   1      36.752  32.645  30.353  1.00  0.00    -0.014 A 
BRANCH  31  32
ATOM     32  C   UNL A   1      37.958  31.958  30.876  1.00  0.00     0.031 A 
ATOM     33  C   UNL A   1      38.517  32.307  32.226  1.00  0.00     0.074 A 
ATOM     34  C   UNL A   1      38.561  31.024  30.115  1.00  0.00     0.049 A 
ATOM     35  N   UNL A   1      39.538  31.783  32.855  1.00  0.00    -0.248 NA
ATOM     36  C   UNL A   1      37.862  33.404  32.956  1.00  0.00     0.031 C 
ATOM     37  C   UNL A   1      38.154  30.646  28.759  1.00  0.00     0.029 A 
ATOM     38  N   UNL A   1      39.639  30.217  30.375  1.00  0.00    -0.354 N 
ATOM     39  C   UNL A   1      39.642  32.477  34.053  1.00  0.00     0.074 A 
ATOM     40  C   UNL A   1      38.623  33.504  34.036  1.00  0.00     0.031 C 
ATOM     41  C   UNL A   1      38.953  29.661  28.319  1.00  0.00     0.029 A 
ATOM     42  C   UNL A   1      39.939  29.353  29.350  1.00  0.00     0.049 A 
ATOM     43  H   UNL A   1      40.151  30.254  31.215  1.00  0.00     0.167 HD
ATOM     44  C   UNL A   1      40.489  32.260  35.088  1.00  0.00     0.037 A 
ATOM     45  C   UNL A   1      40.896  28.412  29.256  1.00  0.00     0.037 A 
ATOM     46  C   UNL A   1      41.498  31.232  35.108  1.00  0.00     0.049 A 
ATOM     47  C   UNL A   1      41.809  28.177  30.426  1.00  0.00     0.074 A 
ATOM     48  C   UNL A   1      42.382  30.909  36.123  1.00  0.00     0.029 A 
ATOM     49  N   UNL A   1      41.756  30.361  34.061  1.00  0.00    -0.354 N 
ATOM     50  N   UNL A   1      41.847  28.793  31.582  1.00  0.00    -0.248 NA
ATOM     51  C   UNL A   1      42.801  27.102  30.285  1.00  0.00     0.031 C 
ATOM     52  C   UNL A   1      43.197  29.863  35.677  1.00  0.00     0.029 A 
ATOM     53  C   UNL A   1      42.792  29.506  34.401  1.00  0.00     0.049 A 
ATOM     54  H   UNL A   1      41.274  30.350  33.202  1.00  0.00     0.167 HD
ATOM     55  C   UNL A   1      42.854  28.174  32.310  1.00  0.00     0.074 A 
ATOM     56  C   UNL A   1      43.379  27.113  31.477  1.00  0.00     0.031 C 
ATOM     57  C   UNL A   1      43.308  28.460  33.555  1.00  0.00     0.037 A 
BRANCH  44  58
ATOM     58  C   UNL A   1      40.347  33.143  36.293  1.00  0.00     0.057 A 
ATOM     59  C   UNL A   1      39.430  32.850  37.311  1.00  0.00     0.134 A 
ATOM     60  C   UNL A   1      41.158  34.272  36.461  1.00  0.00     0.134 A 
ATOM     61  F   UNL A   1      38.615  31.789  37.207  1.00  0.00    -0.206 F 
ATOM     62  C   UNL A   1      39.309  33.658  38.443  1.00  0.00     0.040 A 
ATOM     63  C   UNL A   1      41.064  35.076  37.600  1.00  0.00     0.040 A 
ATOM     64  F   UNL A   1      42.060  34.609  35.527  1.00  0.00    -0.206 F 
ATOM     65  C   UNL A   1      40.133  34.772  38.592  1.00  0.00     0.006 A 
ENDBRANCH  44  58
BRANCH  45  66
ATOM     66  C   UNL A   1      41.021  27.600  28.020  1.00  0.00     0.057 A 
ATOM     67  C   UNL A   1      41.799  28.035  26.941  1.00  0.00     0.134 A 
ATOM     68  C   UNL A   1      40.356  26.376  27.883  1.00  0.00     0.134 A 
ATOM     69  F   UNL A   1      42.448  29.207  27.007  1.00  0.00    -0.206 F 
ATOM     70  C   UNL A   1      41.892  27.297  25.761  1.00  0.00     0.040 A 
ATOM     71  C   UNL A   1      40.460  25.614  26.719  1.00  0.00     0.040 A 
ATOM     72  F   UNL A   1      39.602  25.899  28.885  1.00  0.00    -0.206 F 
ATOM     73  C   UNL A   1      41.223  26.078  25.650  1.00  0.00     0.006 A 
ENDBRANCH  45  66
BRANCH  57  74
ATOM     74  C   UNL A   1      44.417  27.600  34.085  1.00  0.00     0.057 A 
ATOM     75  C   UNL A   1      45.764  27.957  33.931  1.00  0.00     0.134 A 
ATOM     76  C   UNL A   1      44.136  26.405  34.760  1.00  0.00     0.134 A 
ATOM     77  F   UNL A   1      46.099  29.082  33.283  1.00  0.00    -0.206 F 
ATOM     78  C   UNL A   1      46.792  27.138  34.399  1.00  0.00     0.040 A 
ATOM     79  C   UNL A   1      45.156  25.592  35.255  1.00  0.00     0.040 A 
ATOM     80  F   UNL A   1      42.868  26.011  34.949  1.00  0.00    -0.206 F 
ATOM     81  C   UNL A   1      46.489  25.953  35.067  1.00  0.00     0.006 A 
ENDBRANCH  57  74
ENDBRANCH  31  32
ENDBRANCH  23  26
ENDBRANCH  21  22
ENDBRANCH   1  21
TORSDOF 12
ENDMDL
