MODEL 1
REMARK VINA RESULT:     -12.8      0.000      0.000
REMARK SMILES O=C(NCCCCNC(=O)[C@@H]1CC=CC[C@H]1C(=O)N1CC[NH+](Cc2ccc3c(c2)OCO3)CC1)c1ccc(-c2c3nc(c(-c4c(F)cccc4F)c4ccc([nH]4)c(-c4c(F)cccc4F)c4nc(c(-c5c(F)cccc5F)c5ccc2[nH]5)C=C4)C=C3)cc1
REMARK SMILES IDX 6 1 5 2 4 3 3 4 1 5 2 6 35 8 36 9 88 10 37 11 87 12 38 13
REMARK SMILES IDX 39 14 40 15 81 16 41 17 86 18 80 19 82 20 42 21 85 22 79 23
REMARK SMILES IDX 78 24 43 26 69 27 52 28 68 29 53 30 56 31 67 32 83 33 54 34
REMARK SMILES IDX 55 35 66 37 84 38 57 39 44 40 45 41 50 42 46 43 47 44 49 45
REMARK SMILES IDX 51 46 48 47 70 48 71 49 76 50 72 51 73 52 75 53 77 54 74 55
REMARK SMILES IDX 58 56 59 57 64 58 60 59 61 60 63 61 65 62 62 63 7 64 8 65
REMARK SMILES IDX 9 66 10 68 11 69 12 70 16 71 13 72 15 73 14 74 17 75 18 76
REMARK SMILES IDX 19 77 20 78 34 79 21 80 33 81 22 82 23 84 24 85 25 86 29 87
REMARK SMILES IDX 26 88 28 89 27 90 30 91 32 92 31 93
REMARK H PARENT 3 7 82 25 56 36 8 67 22 83
REMARK Flexibility Score: inf
ROOT
ATOM      1  C   UNL A   1      38.913  22.598  26.246  1.00  0.00     0.023 C 
ENDROOT
BRANCH   1   2
ATOM      2  C   UNL A   1      39.006  21.231  25.574  1.00  0.00     0.023 C 
BRANCH   2   3
ATOM      3  C   UNL A   1      39.521  20.121  26.470  1.00  0.00     0.116 C 
BRANCH   3   4
ATOM      4  N   UNL A   1      40.640  19.388  25.893  1.00  0.00    -0.352 N 
ATOM      5  O   UNL A   1      42.772  19.101  25.194  1.00  0.00    -0.269 OA
ATOM      6  C   UNL A   1      41.953  19.783  25.800  1.00  0.00     0.251 C 
ATOM      7  H   UNL A   1      40.430  18.500  25.524  1.00  0.00     0.163 HD
BRANCH   6   8
ATOM      8  C   UNL A   1      42.351  21.066  26.412  1.00  0.00     0.039 A 
ATOM      9  C   UNL A   1      42.376  21.194  27.801  1.00  0.00     0.014 A 
ATOM     10  C   UNL A   1      42.638  22.158  25.591  1.00  0.00     0.014 A 
ATOM     11  C   UNL A   1      42.532  22.448  28.367  1.00  0.00     0.010 A 
ATOM     12  C   UNL A   1      42.896  23.405  26.169  1.00  0.00     0.010 A 
ATOM     13  C   UNL A   1      42.812  23.563  27.560  1.00  0.00    -0.014 A 
BRANCH  13  14
ATOM     14  C   UNL A   1      43.085  24.860  28.224  1.00  0.00     0.031 A 
ATOM     15  C   UNL A   1      44.479  25.283  28.581  1.00  0.00     0.074 A 
ATOM     16  C   UNL A   1      42.044  25.690  28.429  1.00  0.00     0.049 A 
ATOM     17  N   UNL A   1      44.884  26.418  29.096  1.00  0.00    -0.248 NA
ATOM     18  C   UNL A   1      45.559  24.314  28.344  1.00  0.00     0.031 C 
ATOM     19  C   UNL A   1      40.644  25.369  28.136  1.00  0.00     0.029 A 
ATOM     20  N   UNL A   1      42.000  26.979  28.888  1.00  0.00    -0.354 N 
ATOM     21  C   UNL A   1      46.258  26.295  29.256  1.00  0.00     0.074 A 
ATOM     22  C   UNL A   1      46.618  24.967  28.807  1.00  0.00     0.031 C 
ATOM     23  C   UNL A   1      39.889  26.453  28.355  1.00  0.00     0.029 A 
ATOM     24  C   UNL A   1      40.738  27.523  28.863  1.00  0.00     0.049 A 
ATOM     25  H   UNL A   1      42.793  27.468  29.205  1.00  0.00     0.167 HD
ATOM     26  C   UNL A   1      47.136  27.212  29.729  1.00  0.00     0.037 A 
ATOM     27  C   UNL A   1      40.310  28.747  29.215  1.00  0.00     0.037 A 
ATOM     28  C   UNL A   1      46.769  28.537  30.163  1.00  0.00     0.049 A 
ATOM     29  C   UNL A   1      41.308  29.746  29.716  1.00  0.00     0.074 A 
ATOM     30  C   UNL A   1      47.585  29.541  30.660  1.00  0.00     0.029 A 
ATOM     31  N   UNL A   1      45.479  29.046  30.144  1.00  0.00    -0.354 N 
ATOM     32  N   UNL A   1      42.604  29.613  29.860  1.00  0.00    -0.248 NA
ATOM     33  C   UNL A   1      40.785  31.060  30.106  1.00  0.00     0.031 C 
ATOM     34  C   UNL A   1      46.782  30.646  30.968  1.00  0.00     0.029 A 
ATOM     35  C   UNL A   1      45.474  30.345  30.627  1.00  0.00     0.049 A 
ATOM     36  H   UNL A   1      44.684  28.556  29.832  1.00  0.00     0.167 HD
ATOM     37  C   UNL A   1      43.052  30.825  30.365  1.00  0.00     0.074 A 
ATOM     38  C   UNL A   1      41.895  31.691  30.462  1.00  0.00     0.031 C 
ATOM     39  C   UNL A   1      44.308  31.183  30.728  1.00  0.00     0.037 A 
BRANCH  26  40
ATOM     40  C   UNL A   1      48.581  26.816  29.814  1.00  0.00     0.057 A 
ATOM     41  C   UNL A   1      49.485  27.106  28.785  1.00  0.00     0.134 A 
ATOM     42  C   UNL A   1      49.085  26.188  30.960  1.00  0.00     0.134 A 
ATOM     43  F   UNL A   1      49.064  27.694  27.655  1.00  0.00    -0.206 F 
ATOM     44  C   UNL A   1      50.838  26.777  28.888  1.00  0.00     0.040 A 
ATOM     45  C   UNL A   1      50.440  25.872  31.083  1.00  0.00     0.040 A 
ATOM     46  F   UNL A   1      48.273  25.886  31.984  1.00  0.00    -0.206 F 
ATOM     47  C   UNL A   1      51.321  26.165  30.045  1.00  0.00     0.006 A 
ENDBRANCH  26  40
BRANCH  27  48
ATOM     48  C   UNL A   1      38.868  29.079  29.110  1.00  0.00     0.057 A 
ATOM     49  C   UNL A   1      38.028  29.025  30.226  1.00  0.00     0.134 A 
ATOM     50  C   UNL A   1      38.305  29.483  27.894  1.00  0.00     0.134 A 
ATOM     51  F   UNL A   1      38.508  28.633  31.416  1.00  0.00    -0.206 F 
ATOM     52  C   UNL A   1      36.674  29.351  30.135  1.00  0.00     0.040 A 
ATOM     53  C   UNL A   1      36.960  29.838  27.794  1.00  0.00     0.040 A 
ATOM     54  F   UNL A   1      39.064  29.566  26.791  1.00  0.00    -0.206 F 
ATOM     55  C   UNL A   1      36.139  29.766  28.917  1.00  0.00     0.006 A 
ENDBRANCH  27  48
BRANCH  39  56
ATOM     56  C   UNL A   1      44.475  32.571  31.266  1.00  0.00     0.057 A 
ATOM     57  C   UNL A   1      44.747  33.655  30.421  1.00  0.00     0.134 A 
ATOM     58  C   UNL A   1      44.367  32.826  32.638  1.00  0.00     0.134 A 
ATOM     59  F   UNL A   1      44.880  33.469  29.099  1.00  0.00    -0.206 F 
ATOM     60  C   UNL A   1      44.936  34.941  30.926  1.00  0.00     0.040 A 
ATOM     61  C   UNL A   1      44.531  34.113  33.152  1.00  0.00     0.040 A 
ATOM     62  F   UNL A   1      44.103  31.831  33.498  1.00  0.00    -0.206 F 
ATOM     63  C   UNL A   1      44.825  35.173  32.296  1.00  0.00     0.006 A 
ENDBRANCH  39  56
ENDBRANCH  13  14
ENDBRANCH   6   8
ENDBRANCH   3   4
ENDBRANCH   2   3
ENDBRANCH   1   2
BRANCH   1  64
ATOM     64  C   UNL A   1      37.681  23.426  25.868  1.00  0.00     0.116 C 
BRANCH  64  65
ATOM     65  N   UNL A   1      37.450  23.417  24.439  1.00  0.00    -0.356 N 
ATOM     66  C   UNL A   1      36.468  22.839  23.694  1.00  0.00     0.224 C 
ATOM     67  H   UNL A   1      38.119  23.913  23.916  1.00  0.00     0.163 HD
ATOM     68  O   UNL A   1      36.591  22.948  22.474  1.00  0.00    -0.275 OA
BRANCH  66  69
ATOM     69  C   UNL A   1      35.241  22.174  24.338  1.00  0.00     0.095 C 
ATOM     70  C   UNL A   1      35.497  20.690  24.662  1.00  0.00     0.041 C 
ATOM     71  C   UNL A   1      34.028  22.276  23.391  1.00  0.00     0.095 C 
ATOM     72  C   UNL A   1      34.278  19.876  24.962  1.00  0.00    -0.030 C 
ATOM     73  C   UNL A   1      32.774  21.578  23.964  1.00  0.00     0.041 C 
ATOM     74  C   UNL A   1      33.044  20.288  24.664  1.00  0.00    -0.030 C 
BRANCH  71  75
ATOM     75  C   UNL A   1      33.562  23.665  22.944  1.00  0.00     0.227 C 
ATOM     76  O   UNL A   1      33.527  23.948  21.744  1.00  0.00    -0.275 OA
ATOM     77  N   UNL A   1      32.853  24.406  23.879  1.00  0.00    -0.331 N 
ATOM     78  C   UNL A   1      31.616  25.015  23.408  1.00  0.00     0.181 C 
ATOM     79  C   UNL A   1      33.524  25.176  24.919  1.00  0.00     0.181 C 
ATOM     80  C   UNL A   1      30.667  25.364  24.568  1.00  0.00     0.284 C 
ATOM     81  C   UNL A   1      32.571  25.510  26.086  1.00  0.00     0.284 C 
ATOM     82  N   UNL A   1      31.263  26.073  25.710  1.00  0.00    -0.328 N 
ATOM     83  H   UNL A   1      30.653  25.883  26.506  1.00  0.00     0.348 HD
BRANCH  82  84
ATOM     84  C   UNL A   1      31.182  27.537  25.658  1.00  0.00     0.299 C 
BRANCH  84  85
ATOM     85  C   UNL A   1      30.760  28.149  24.344  1.00  0.00     0.010 A 
ATOM     86  C   UNL A   1      31.724  28.658  23.443  1.00  0.00     0.013 A 
ATOM     87  C   UNL A   1      29.394  28.281  24.038  1.00  0.00     0.060 A 
ATOM     88  C   UNL A   1      31.342  29.372  22.304  1.00  0.00     0.051 A 
ATOM     89  C   UNL A   1      29.047  28.997  22.913  1.00  0.00     0.166 A 
ATOM     90  C   UNL A   1      29.994  29.541  22.078  1.00  0.00     0.165 A 
ATOM     91  O   UNL A   1      27.778  29.294  22.525  1.00  0.00    -0.454 OA
ATOM     92  O   UNL A   1      29.440  30.250  21.060  1.00  0.00    -0.454 OA
ATOM     93  C   UNL A   1      28.041  30.159  21.400  1.00  0.00     0.468 C 
ENDBRANCH  84  85
ENDBRANCH  82  84
ENDBRANCH  71  75
ENDBRANCH  66  69
ENDBRANCH  64  65
ENDBRANCH   1  64
TORSDOF 14
ENDMDL
MODEL 2
REMARK VINA RESULT:     -12.7      1.787      2.377
REMARK SMILES O=C(NCCCCNC(=O)[C@@H]1CC=CC[C@H]1C(=O)N1CC[NH+](Cc2ccc3c(c2)OCO3)CC1)c1ccc(-c2c3nc(c(-c4c(F)cccc4F)c4ccc([nH]4)c(-c4c(F)cccc4F)c4nc(c(-c5c(F)cccc5F)c5ccc2[nH]5)C=C4)C=C3)cc1
REMARK SMILES IDX 6 1 5 2 4 3 3 4 1 5 2 6 35 8 36 9 88 10 37 11 87 12 38 13
REMARK SMILES IDX 39 14 40 15 81 16 41 17 86 18 80 19 82 20 42 21 85 22 79 23
REMARK SMILES IDX 78 24 43 26 69 27 52 28 68 29 53 30 56 31 67 32 83 33 54 34
REMARK SMILES IDX 55 35 66 37 84 38 57 39 44 40 45 41 50 42 46 43 47 44 49 45
REMARK SMILES IDX 51 46 48 47 70 48 71 49 76 50 72 51 73 52 75 53 77 54 74 55
REMARK SMILES IDX 58 56 59 57 64 58 60 59 61 60 63 61 65 62 62 63 7 64 8 65
REMARK SMILES IDX 9 66 10 68 11 69 12 70 16 71 13 72 15 73 14 74 17 75 18 76
REMARK SMILES IDX 19 77 20 78 34 79 21 80 33 81 22 82 23 84 24 85 25 86 29 87
REMARK SMILES IDX 26 88 28 89 27 90 30 91 32 92 31 93
REMARK H PARENT 3 7 82 25 56 36 8 67 22 83
REMARK Flexibility Score: inf
ROOT
ATOM      1  C   UNL A   1      37.077  20.813  25.016  1.00  0.00     0.023 C 
ENDROOT
BRANCH   1   2
ATOM      2  C   UNL A   1      38.146  19.724  25.018  1.00  0.00     0.023 C 
BRANCH   2   3
ATOM      3  C   UNL A   1      39.372  20.047  25.849  1.00  0.00     0.116 C 
BRANCH   3   4
ATOM      4  N   UNL A   1      40.372  18.987  25.837  1.00  0.00    -0.352 N 
ATOM      5  O   UNL A   1      42.462  18.128  25.925  1.00  0.00    -0.269 OA
ATOM      6  C   UNL A   1      41.722  19.094  26.069  1.00  0.00     0.251 C 
ATOM      7  H   UNL A   1      40.039  18.082  25.638  1.00  0.00     0.163 HD
BRANCH   6   8
ATOM      8  C   UNL A   1      42.271  20.408  26.459  1.00  0.00     0.039 A 
ATOM      9  C   UNL A   1      42.221  20.812  27.794  1.00  0.00     0.014 A 
ATOM     10  C   UNL A   1      42.778  21.259  25.476  1.00  0.00     0.014 A 
ATOM     11  C   UNL A   1      42.530  22.122  28.121  1.00  0.00     0.010 A 
ATOM     12  C   UNL A   1      43.185  22.550  25.826  1.00  0.00     0.010 A 
ATOM     13  C   UNL A   1      43.033  22.999  27.146  1.00  0.00    -0.014 A 
BRANCH  13  14
ATOM     14  C   UNL A   1      43.457  24.354  27.572  1.00  0.00     0.031 A 
ATOM     15  C   UNL A   1      44.886  24.798  27.473  1.00  0.00     0.074 A 
ATOM     16  C   UNL A   1      42.501  25.210  27.981  1.00  0.00     0.049 A 
ATOM     17  N   UNL A   1      45.398  25.975  27.735  1.00  0.00    -0.248 NA
ATOM     18  C   UNL A   1      45.873  23.800  27.036  1.00  0.00     0.031 C 
ATOM     19  C   UNL A   1      41.082  24.873  28.133  1.00  0.00     0.029 A 
ATOM     20  N   UNL A   1      42.562  26.539  28.303  1.00  0.00    -0.354 N 
ATOM     21  C   UNL A   1      46.762  25.857  27.509  1.00  0.00     0.074 A 
ATOM     22  C   UNL A   1      47.007  24.487  27.111  1.00  0.00     0.031 C 
ATOM     23  C   UNL A   1      40.398  25.981  28.449  1.00  0.00     0.029 A 
ATOM     24  C   UNL A   1      41.335  27.089  28.584  1.00  0.00     0.049 A 
ATOM     25  H   UNL A   1      43.403  27.051  28.331  1.00  0.00     0.167 HD
ATOM     26  C   UNL A   1      47.721  26.810  27.619  1.00  0.00     0.037 A 
ATOM     27  C   UNL A   1      41.000  28.346  28.920  1.00  0.00     0.037 A 
ATOM     28  C   UNL A   1      47.465  28.175  28.005  1.00  0.00     0.049 A 
ATOM     29  C   UNL A   1      42.078  29.382  29.014  1.00  0.00     0.074 A 
ATOM     30  C   UNL A   1      48.368  29.216  28.147  1.00  0.00     0.029 A 
ATOM     31  N   UNL A   1      46.213  28.691  28.303  1.00  0.00    -0.354 N 
ATOM     32  N   UNL A   1      43.364  29.252  28.795  1.00  0.00    -0.248 NA
ATOM     33  C   UNL A   1      41.662  30.733  29.404  1.00  0.00     0.031 C 
ATOM     34  C   UNL A   1      47.664  30.354  28.559  1.00  0.00     0.029 A 
ATOM     35  C   UNL A   1      46.319  30.032  28.636  1.00  0.00     0.049 A 
ATOM     36  H   UNL A   1      45.372  28.179  28.282  1.00  0.00     0.167 HD
ATOM     37  C   UNL A   1      43.913  30.504  29.028  1.00  0.00     0.074 A 
ATOM     38  C   UNL A   1      42.814  31.387  29.364  1.00  0.00     0.031 C 
ATOM     39  C   UNL A   1      45.213  30.886  28.982  1.00  0.00     0.037 A 
BRANCH  26  40
ATOM     40  C   UNL A   1      49.138  26.411  27.328  1.00  0.00     0.057 A 
ATOM     41  C   UNL A   1      49.996  25.958  28.337  1.00  0.00     0.134 A 
ATOM     42  C   UNL A   1      49.631  26.428  26.018  1.00  0.00     0.134 A 
ATOM     43  F   UNL A   1      49.590  25.929  29.614  1.00  0.00    -0.206 F 
ATOM     44  C   UNL A   1      51.300  25.544  28.054  1.00  0.00     0.040 A 
ATOM     45  C   UNL A   1      50.926  25.998  25.719  1.00  0.00     0.040 A 
ATOM     46  F   UNL A   1      48.859  26.847  25.004  1.00  0.00    -0.206 F 
ATOM     47  C   UNL A   1      51.765  25.555  26.739  1.00  0.00     0.006 A 
ENDBRANCH  26  40
BRANCH  27  48
ATOM     48  C   UNL A   1      39.582  28.678  29.197  1.00  0.00     0.057 A 
ATOM     49  C   UNL A   1      39.035  28.521  30.475  1.00  0.00     0.134 A 
ATOM     50  C   UNL A   1      38.748  29.187  28.195  1.00  0.00     0.134 A 
ATOM     51  F   UNL A   1      39.782  28.026  31.473  1.00  0.00    -0.206 F 
ATOM     52  C   UNL A   1      37.705  28.847  30.743  1.00  0.00     0.040 A 
ATOM     53  C   UNL A   1      37.424  29.542  28.455  1.00  0.00     0.040 A 
ATOM     54  F   UNL A   1      39.218  29.373  26.952  1.00  0.00    -0.206 F 
ATOM     55  C   UNL A   1      36.899  29.366  29.733  1.00  0.00     0.006 A 
ENDBRANCH  27  48
BRANCH  39  56
ATOM     56  C   UNL A   1      45.498  32.320  29.308  1.00  0.00     0.057 A 
ATOM     57  C   UNL A   1      45.594  33.294  28.305  1.00  0.00     0.134 A 
ATOM     58  C   UNL A   1      45.681  32.730  30.634  1.00  0.00     0.134 A 
ATOM     59  F   UNL A   1      45.445  32.957  27.015  1.00  0.00    -0.206 F 
ATOM     60  C   UNL A   1      45.892  34.623  28.608  1.00  0.00     0.040 A 
ATOM     61  C   UNL A   1      45.957  34.061  30.950  1.00  0.00     0.040 A 
ATOM     62  F   UNL A   1      45.596  31.846  31.639  1.00  0.00    -0.206 F 
ATOM     63  C   UNL A   1      46.072  35.009  29.934  1.00  0.00     0.006 A 
ENDBRANCH  39  56
ENDBRANCH  13  14
ENDBRANCH   6   8
ENDBRANCH   3   4
ENDBRANCH   2   3
ENDBRANCH   1   2
BRANCH   1  64
ATOM     64  C   UNL A   1      35.631  20.305  25.018  1.00  0.00     0.116 C 
BRANCH  64  65
ATOM     65  N   UNL A   1      34.874  20.856  26.122  1.00  0.00    -0.356 N 
ATOM     66  C   UNL A   1      33.700  21.544  26.148  1.00  0.00     0.224 C 
ATOM     67  H   UNL A   1      35.279  20.708  27.006  1.00  0.00     0.163 HD
ATOM     68  O   UNL A   1      33.346  21.952  27.254  1.00  0.00    -0.275 OA
BRANCH  66  69
ATOM     69  C   UNL A   1      32.830  21.718  24.893  1.00  0.00     0.095 C 
ATOM     70  C   UNL A   1      32.628  20.386  24.146  1.00  0.00     0.041 C 
ATOM     71  C   UNL A   1      33.483  22.734  23.934  1.00  0.00     0.095 C 
ATOM     72  C   UNL A   1      32.100  20.502  22.751  1.00  0.00    -0.030 C 
ATOM     73  C   UNL A   1      32.677  22.912  22.628  1.00  0.00     0.041 C 
ATOM     74  C   UNL A   1      32.105  21.651  22.071  1.00  0.00    -0.030 C 
BRANCH  71  75
ATOM     75  C   UNL A   1      33.763  24.150  24.446  1.00  0.00     0.227 C 
ATOM     76  O   UNL A   1      34.905  24.468  24.788  1.00  0.00    -0.275 OA
ATOM     77  N   UNL A   1      32.805  25.110  24.152  1.00  0.00    -0.331 N 
ATOM     78  C   UNL A   1      33.304  26.364  23.600  1.00  0.00     0.181 C 
ATOM     79  C   UNL A   1      31.599  25.264  24.955  1.00  0.00     0.181 C 
ATOM     80  C   UNL A   1      32.209  27.140  22.850  1.00  0.00     0.284 C 
ATOM     81  C   UNL A   1      30.498  26.030  24.190  1.00  0.00     0.284 C 
ATOM     82  N   UNL A   1      30.918  27.284  23.540  1.00  0.00    -0.328 N 
ATOM     83  H   UNL A   1      30.226  27.447  22.808  1.00  0.00     0.348 HD
BRANCH  82  84
ATOM     84  C   UNL A   1      30.758  28.507  24.335  1.00  0.00     0.299 C 
BRANCH  84  85
ATOM     85  C   UNL A   1      30.138  29.694  23.638  1.00  0.00     0.010 A 
ATOM     86  C   UNL A   1      29.906  30.900  24.340  1.00  0.00     0.013 A 
ATOM     87  C   UNL A   1      29.722  29.586  22.299  1.00  0.00     0.060 A 
ATOM     88  C   UNL A   1      29.186  31.947  23.757  1.00  0.00     0.051 A 
ATOM     89  C   UNL A   1      29.007  30.630  21.754  1.00  0.00     0.166 A 
ATOM     90  C   UNL A   1      28.733  31.772  22.468  1.00  0.00     0.165 A 
ATOM     91  O   UNL A   1      28.457  30.647  20.512  1.00  0.00    -0.454 OA
ATOM     92  O   UNL A   1      27.974  32.651  21.764  1.00  0.00    -0.454 OA
ATOM     93  C   UNL A   1      27.733  31.895  20.560  1.00  0.00     0.468 C 
ENDBRANCH  84  85
ENDBRANCH  82  84
ENDBRANCH  71  75
ENDBRANCH  66  69
ENDBRANCH  64  65
ENDBRANCH   1  64
TORSDOF 14
ENDMDL
MODEL 3
REMARK VINA RESULT:     -12.6      0.435      5.940
REMARK SMILES O=C(NCCCCNC(=O)[C@@H]1CC=CC[C@H]1C(=O)N1CC[NH+](Cc2ccc3c(c2)OCO3)CC1)c1ccc(-c2c3nc(c(-c4c(F)cccc4F)c4ccc([nH]4)c(-c4c(F)cccc4F)c4nc(c(-c5c(F)cccc5F)c5ccc2[nH]5)C=C4)C=C3)cc1
REMARK SMILES IDX 6 1 5 2 4 3 3 4 1 5 2 6 35 8 36 9 88 10 37 11 87 12 38 13
REMARK SMILES IDX 39 14 40 15 81 16 41 17 86 18 80 19 82 20 42 21 85 22 79 23
REMARK SMILES IDX 78 24 43 26 69 27 52 28 68 29 53 30 56 31 67 32 83 33 54 34
REMARK SMILES IDX 55 35 66 37 84 38 57 39 44 40 45 41 50 42 46 43 47 44 49 45
REMARK SMILES IDX 51 46 48 47 70 48 71 49 76 50 72 51 73 52 75 53 77 54 74 55
REMARK SMILES IDX 58 56 59 57 64 58 60 59 61 60 63 61 65 62 62 63 7 64 8 65
REMARK SMILES IDX 9 66 10 68 11 69 12 70 16 71 13 72 15 73 14 74 17 75 18 76
REMARK SMILES IDX 19 77 20 78 34 79 21 80 33 81 22 82 23 84 24 85 25 86 29 87
REMARK SMILES IDX 26 88 28 89 27 90 30 91 32 92 31 93
REMARK H PARENT 3 7 82 25 56 36 8 67 22 83
REMARK Flexibility Score: inf
ROOT
ATOM      1  C   UNL A   1      39.025  22.517  26.331  1.00  0.00     0.023 C 
ENDROOT
BRANCH   1   2
ATOM      2  C   UNL A   1      39.141  21.152  25.657  1.00  0.00     0.023 C 
BRANCH   2   3
ATOM      3  C   UNL A   1      39.700  20.057  26.544  1.00  0.00     0.116 C 
BRANCH   3   4
ATOM      4  N   UNL A   1      40.826  19.351  25.947  1.00  0.00    -0.352 N 
ATOM      5  O   UNL A   1      42.941  19.126  25.176  1.00  0.00    -0.269 OA
ATOM      6  C   UNL A   1      42.117  19.794  25.792  1.00  0.00     0.251 C 
ATOM      7  H   UNL A   1      40.638  18.444  25.612  1.00  0.00     0.163 HD
BRANCH   6   8
ATOM      8  C   UNL A   1      42.486  21.109  26.351  1.00  0.00     0.039 A 
ATOM      9  C   UNL A   1      42.474  21.304  27.733  1.00  0.00     0.014 A 
ATOM     10  C   UNL A   1      42.782  22.164  25.486  1.00  0.00     0.014 A 
ATOM     11  C   UNL A   1      42.602  22.586  28.241  1.00  0.00     0.010 A 
ATOM     12  C   UNL A   1      43.011  23.440  26.008  1.00  0.00     0.010 A 
ATOM     13  C   UNL A   1      42.890  23.664  27.388  1.00  0.00    -0.014 A 
BRANCH  13  14
ATOM     14  C   UNL A   1      43.132  24.995  27.995  1.00  0.00     0.031 A 
ATOM     15  C   UNL A   1      42.010  25.956  28.256  1.00  0.00     0.074 A 
ATOM     16  C   UNL A   1      44.388  25.288  28.381  1.00  0.00     0.049 A 
ATOM     17  N   UNL A   1      42.053  27.123  28.849  1.00  0.00    -0.248 NA
ATOM     18  C   UNL A   1      40.671  25.572  27.788  1.00  0.00     0.031 C 
ATOM     19  C   UNL A   1      45.557  24.431  28.157  1.00  0.00     0.029 A 
ATOM     20  N   UNL A   1      44.889  26.356  29.075  1.00  0.00    -0.354 N 
ATOM     21  C   UNL A   1      40.757  27.617  28.814  1.00  0.00     0.074 A 
ATOM     22  C   UNL A   1      39.950  26.636  28.120  1.00  0.00     0.031 C 
ATOM     23  C   UNL A   1      46.622  24.973  28.762  1.00  0.00     0.029 A 
ATOM     24  C   UNL A   1      46.228  26.241  29.361  1.00  0.00     0.049 A 
ATOM     25  H   UNL A   1      44.344  27.132  29.343  1.00  0.00     0.167 HD
ATOM     26  C   UNL A   1      40.285  28.782  29.321  1.00  0.00     0.037 A 
ATOM     27  C   UNL A   1      47.051  27.068  30.028  1.00  0.00     0.037 A 
ATOM     28  C   UNL A   1      41.094  29.749  30.021  1.00  0.00     0.049 A 
ATOM     29  C   UNL A   1      46.496  28.339  30.594  1.00  0.00     0.074 A 
ATOM     30  C   UNL A   1      40.711  30.960  30.571  1.00  0.00     0.029 A 
ATOM     31  N   UNL A   1      42.451  29.609  30.273  1.00  0.00    -0.354 N 
ATOM     32  N   UNL A   1      45.266  28.790  30.552  1.00  0.00    -0.248 NA
ATOM     33  C   UNL A   1      47.440  29.216  31.295  1.00  0.00     0.031 C 
ATOM     34  C   UNL A   1      41.843  31.565  31.132  1.00  0.00     0.029 A 
ATOM     35  C   UNL A   1      42.922  30.714  30.964  1.00  0.00     0.049 A 
ATOM     36  H   UNL A   1      42.999  28.837  30.001  1.00  0.00     0.167 HD
ATOM     37  C   UNL A   1      45.289  30.008  31.215  1.00  0.00     0.074 A 
ATOM     38  C   UNL A   1      46.646  30.204  31.684  1.00  0.00     0.031 C 
ATOM     39  C   UNL A   1      44.280  30.892  31.406  1.00  0.00     0.037 A 
BRANCH  26  40
ATOM     40  C   UNL A   1      38.827  29.086  29.132  1.00  0.00     0.057 A 
ATOM     41  C   UNL A   1      37.910  28.972  30.183  1.00  0.00     0.134 A 
ATOM     42  C   UNL A   1      38.347  29.551  27.901  1.00  0.00     0.134 A 
ATOM     43  F   UNL A   1      38.302  28.520  31.383  1.00  0.00    -0.206 F 
ATOM     44  C   UNL A   1      36.563  29.300  30.015  1.00  0.00     0.040 A 
ATOM     45  C   UNL A   1      37.007  29.902  27.726  1.00  0.00     0.040 A 
ATOM     46  F   UNL A   1      39.175  29.688  26.854  1.00  0.00    -0.206 F 
ATOM     47  C   UNL A   1      36.109  29.776  28.784  1.00  0.00     0.006 A 
ENDBRANCH  26  40
BRANCH  27  48
ATOM     48  C   UNL A   1      48.483  26.713  30.181  1.00  0.00     0.057 A 
ATOM     49  C   UNL A   1      48.929  25.939  31.256  1.00  0.00     0.134 A 
ATOM     50  C   UNL A   1      49.433  27.120  29.237  1.00  0.00     0.134 A 
ATOM     51  F   UNL A   1      48.066  25.530  32.199  1.00  0.00    -0.206 F 
ATOM     52  C   UNL A   1      50.273  25.590  31.394  1.00  0.00     0.040 A 
ATOM     53  C   UNL A   1      50.775  26.757  29.348  1.00  0.00     0.040 A 
ATOM     54  F   UNL A   1      49.064  27.854  28.177  1.00  0.00    -0.206 F 
ATOM     55  C   UNL A   1      51.198  25.994  30.434  1.00  0.00     0.006 A 
ENDBRANCH  27  48
BRANCH  39  56
ATOM     56  C   UNL A   1      44.625  32.146  32.151  1.00  0.00     0.057 A 
ATOM     57  C   UNL A   1      45.054  33.300  31.483  1.00  0.00     0.134 A 
ATOM     58  C   UNL A   1      44.530  32.199  33.547  1.00  0.00     0.134 A 
ATOM     59  F   UNL A   1      45.181  33.304  30.147  1.00  0.00    -0.206 F 
ATOM     60  C   UNL A   1      45.406  34.456  32.180  1.00  0.00     0.040 A 
ATOM     61  C   UNL A   1      44.858  33.357  34.253  1.00  0.00     0.040 A 
ATOM     62  F   UNL A   1      44.120  31.128  34.244  1.00  0.00    -0.206 F 
ATOM     63  C   UNL A   1      45.306  34.486  33.570  1.00  0.00     0.006 A 
ENDBRANCH  39  56
ENDBRANCH  13  14
ENDBRANCH   6   8
ENDBRANCH   3   4
ENDBRANCH   2   3
ENDBRANCH   1   2
BRANCH   1  64
ATOM     64  C   UNL A   1      37.743  23.293  26.010  1.00  0.00     0.116 C 
BRANCH  64  65
ATOM     65  N   UNL A   1      37.519  23.385  24.583  1.00  0.00    -0.356 N 
ATOM     66  C   UNL A   1      36.533  22.875  23.797  1.00  0.00     0.224 C 
ATOM     67  H   UNL A   1      38.197  23.907  24.098  1.00  0.00     0.163 HD
ATOM     68  O   UNL A   1      36.663  23.066  22.587  1.00  0.00    -0.275 OA
BRANCH  66  69
ATOM     69  C   UNL A   1      35.293  22.186  24.388  1.00  0.00     0.095 C 
ATOM     70  C   UNL A   1      35.559  20.702  24.708  1.00  0.00     0.041 C 
ATOM     71  C   UNL A   1      34.114  22.279  23.398  1.00  0.00     0.095 C 
ATOM     72  C   UNL A   1      34.342  19.868  24.956  1.00  0.00    -0.030 C 
ATOM     73  C   UNL A   1      32.851  21.557  23.918  1.00  0.00     0.041 C 
ATOM     74  C   UNL A   1      33.114  20.264  24.615  1.00  0.00    -0.030 C 
BRANCH  71  75
ATOM     75  C   UNL A   1      33.644  23.665  22.947  1.00  0.00     0.227 C 
ATOM     76  O   UNL A   1      33.592  23.938  21.745  1.00  0.00    -0.275 OA
ATOM     77  N   UNL A   1      32.950  24.415  23.886  1.00  0.00    -0.331 N 
ATOM     78  C   UNL A   1      31.707  25.022  23.428  1.00  0.00     0.181 C 
ATOM     79  C   UNL A   1      33.638  25.192  24.910  1.00  0.00     0.181 C 
ATOM     80  C   UNL A   1      30.776  25.382  24.599  1.00  0.00     0.284 C 
ATOM     81  C   UNL A   1      32.703  25.537  26.088  1.00  0.00     0.284 C 
ATOM     82  N   UNL A   1      31.390  26.100  25.727  1.00  0.00    -0.328 N 
ATOM     83  H   UNL A   1      30.792  25.916  26.533  1.00  0.00     0.348 HD
BRANCH  82  84
ATOM     84  C   UNL A   1      31.311  27.563  25.664  1.00  0.00     0.299 C 
BRANCH  84  85
ATOM     85  C   UNL A   1      30.857  28.165  24.356  1.00  0.00     0.010 A 
ATOM     86  C   UNL A   1      31.799  28.686  23.438  1.00  0.00     0.013 A 
ATOM     87  C   UNL A   1      29.484  28.274  24.072  1.00  0.00     0.060 A 
ATOM     88  C   UNL A   1      31.386  29.391  22.303  1.00  0.00     0.051 A 
ATOM     89  C   UNL A   1      29.108  28.982  22.951  1.00  0.00     0.166 A 
ATOM     90  C   UNL A   1      30.032  29.538  22.099  1.00  0.00     0.165 A 
ATOM     91  O   UNL A   1      27.828  29.258  22.583  1.00  0.00    -0.454 OA
ATOM     92  O   UNL A   1      29.450  30.235  21.089  1.00  0.00    -0.454 OA
ATOM     93  C   UNL A   1      28.059  30.124  21.451  1.00  0.00     0.468 C 
ENDBRANCH  84  85
ENDBRANCH  82  84
ENDBRANCH  71  75
ENDBRANCH  66  69
ENDBRANCH  64  65
ENDBRANCH   1  64
TORSDOF 14
ENDMDL
