MODEL 1
REMARK VINA RESULT:     -11.1      0.000      0.000
REMARK SMILES C[C@@H](C(=O)NCCCCNC(=O)c1ccc(-c2c3nc(c(-c4c(F)cccc4F)c4ccc([nH]4)c(-c4c(F)cccc4F)c4nc(c(-c5c(F)cccc5F)c5ccc2[nH]5)C=C4)C=C3)cc1)c1ccc(C[C@H]2CCC[C@@H]2O)cc1F
REMARK SMILES IDX 6 1 5 2 3 3 4 4 2 6 1 7 67 8 68 9 79 10 69 11 78 12 80 13
REMARK SMILES IDX 70 14 71 15 72 16 73 17 76 18 74 19 75 20 77 21 7 23 8 24
REMARK SMILES IDX 9 25 10 26 11 27 12 29 13 30 14 31 66 32 15 33 65 34 16 35
REMARK SMILES IDX 17 36 18 37 59 38 19 39 64 40 58 41 60 42 20 43 63 44 57 45
REMARK SMILES IDX 56 46 21 48 47 49 30 50 46 51 31 52 34 53 45 54 61 55 32 56
REMARK SMILES IDX 33 57 44 59 62 60 35 61 22 62 23 63 28 64 24 65 25 66 27 67
REMARK SMILES IDX 29 68 26 69 48 70 49 71 54 72 50 73 51 74 53 75 55 76 52 77
REMARK SMILES IDX 36 78 37 79 42 80 38 81 39 82 41 83 43 84 40 85
REMARK H PARENT 5 5 77 22 10 28 60 47 34 58
REMARK Flexibility Score: inf
ROOT
ATOM      1  C   UNL A   1      32.718  30.187  26.483  1.00  0.00     0.116 C 
ENDROOT
BRANCH   1   2
ATOM      2  N   UNL A   1      32.402  29.012  27.271  1.00  0.00    -0.356 N 
ATOM      3  C   UNL A   1      32.019  27.770  26.838  1.00  0.00     0.227 C 
ATOM      4  O   UNL A   1      31.384  27.074  27.633  1.00  0.00    -0.274 OA
ATOM      5  H   UNL A   1      32.473  29.121  28.248  1.00  0.00     0.163 HD
BRANCH   3   6
ATOM      6  C   UNL A   1      32.351  27.339  25.397  1.00  0.00     0.108 C 
ATOM      7  C   UNL A   1      33.693  28.000  25.037  1.00  0.00     0.023 C 
BRANCH   6   8
ATOM      8  C   UNL A   1      31.268  27.670  24.368  1.00  0.00    -0.000 A 
ATOM      9  C   UNL A   1      31.497  28.621  23.360  1.00  0.00     0.008 A 
ATOM     10  C   UNL A   1      30.018  27.041  24.370  1.00  0.00     0.127 A 
ATOM     11  C   UNL A   1      30.465  29.056  22.530  1.00  0.00     0.004 A 
ATOM     12  C   UNL A   1      28.967  27.508  23.578  1.00  0.00     0.043 A 
ATOM     13  F   UNL A   1      29.789  25.976  25.150  1.00  0.00    -0.207 F 
ATOM     14  C   UNL A   1      29.167  28.580  22.704  1.00  0.00    -0.045 A 
BRANCH  14  15
ATOM     15  C   UNL A   1      28.011  29.249  22.002  1.00  0.00     0.041 C 
BRANCH  15  16
ATOM     16  C   UNL A   1      27.813  30.743  22.337  1.00  0.00     0.022 C 
ATOM     17  C   UNL A   1      28.357  31.208  23.698  1.00  0.00     0.007 C 
ATOM     18  C   UNL A   1      28.406  31.748  21.343  1.00  0.00     0.117 C 
ATOM     19  C   UNL A   1      28.823  32.657  23.497  1.00  0.00     0.003 C 
ATOM     20  C   UNL A   1      28.340  33.058  22.113  1.00  0.00     0.032 C 
BRANCH  18  21
ATOM     21  O   UNL A   1      27.653  31.797  20.146  1.00  0.00    -0.393 OA
ATOM     22  H   UNL A   1      26.898  32.395  20.263  1.00  0.00     0.210 HD
ENDBRANCH  18  21
ENDBRANCH  15  16
ENDBRANCH  14  15
ENDBRANCH   6   8
ENDBRANCH   3   6
ENDBRANCH   1   2
BRANCH   1  23
ATOM     23  C   UNL A   1      31.433  30.874  26.008  1.00  0.00     0.023 C 
BRANCH  23  24
ATOM     24  C   UNL A   1      31.253  32.311  26.503  1.00  0.00     0.023 C 
BRANCH  24  25
ATOM     25  C   UNL A   1      32.461  32.901  27.216  1.00  0.00     0.116 C 
BRANCH  25  26
ATOM     26  N   UNL A   1      32.253  34.279  27.627  1.00  0.00    -0.352 N 
ATOM     27  C   UNL A   1      32.932  35.027  28.554  1.00  0.00     0.251 C 
ATOM     28  H   UNL A   1      31.515  34.746  27.171  1.00  0.00     0.163 HD
ATOM     29  O   UNL A   1      32.516  36.140  28.861  1.00  0.00    -0.269 OA
BRANCH  27  30
ATOM     30  C   UNL A   1      34.139  34.482  29.211  1.00  0.00     0.039 A 
ATOM     31  C   UNL A   1      33.997  33.880  30.464  1.00  0.00     0.014 A 
ATOM     32  C   UNL A   1      35.401  34.569  28.615  1.00  0.00     0.014 A 
ATOM     33  C   UNL A   1      35.108  33.314  31.090  1.00  0.00     0.010 A 
ATOM     34  C   UNL A   1      36.495  33.939  29.207  1.00  0.00     0.010 A 
ATOM     35  C   UNL A   1      36.359  33.309  30.451  1.00  0.00    -0.014 A 
BRANCH  35  36
ATOM     36  C   UNL A   1      37.519  32.629  31.079  1.00  0.00     0.031 A 
ATOM     37  C   UNL A   1      38.064  33.099  32.399  1.00  0.00     0.074 A 
ATOM     38  C   UNL A   1      38.096  31.593  30.440  1.00  0.00     0.049 A 
ATOM     39  N   UNL A   1      39.051  32.608  33.104  1.00  0.00    -0.248 NA
ATOM     40  C   UNL A   1      37.433  34.287  32.995  1.00  0.00     0.031 C 
ATOM     41  C   UNL A   1      37.703  31.087  29.122  1.00  0.00     0.029 A 
ATOM     42  N   UNL A   1      39.135  30.778  30.812  1.00  0.00    -0.354 N 
ATOM     43  C   UNL A   1      39.156  33.421  34.225  1.00  0.00     0.074 A 
ATOM     44  C   UNL A   1      38.176  34.475  34.077  1.00  0.00     0.031 C 
ATOM     45  C   UNL A   1      38.469  30.029  28.812  1.00  0.00     0.029 A 
ATOM     46  C   UNL A   1      39.422  29.799  29.891  1.00  0.00     0.049 A 
ATOM     47  H   UNL A   1      39.626  30.884  31.659  1.00  0.00     0.167 HD
ATOM     48  C   UNL A   1      39.975  33.284  35.296  1.00  0.00     0.037 A 
ATOM     49  C   UNL A   1      40.347  28.823  29.919  1.00  0.00     0.037 A 
ATOM     50  C   UNL A   1      40.944  32.231  35.447  1.00  0.00     0.049 A 
ATOM     51  C   UNL A   1      41.233  28.686  31.126  1.00  0.00     0.074 A 
ATOM     52  C   UNL A   1      41.794  31.986  36.512  1.00  0.00     0.029 A 
ATOM     53  N   UNL A   1      41.193  31.246  34.504  1.00  0.00    -0.354 N 
ATOM     54  N   UNL A   1      41.271  29.420  32.211  1.00  0.00    -0.248 NA
ATOM     55  C   UNL A   1      42.195  27.575  31.116  1.00  0.00     0.031 C 
ATOM     56  C   UNL A   1      42.583  30.873  36.197  1.00  0.00     0.029 A 
ATOM     57  C   UNL A   1      42.191  30.398  34.956  1.00  0.00     0.049 A 
ATOM     58  H   UNL A   1      40.728  31.161  33.640  1.00  0.00     0.167 HD
ATOM     59  C   UNL A   1      42.245  28.851  33.020  1.00  0.00     0.074 A 
ATOM     60  C   UNL A   1      42.752  27.693  32.313  1.00  0.00     0.031 C 
ATOM     61  C   UNL A   1      42.688  29.254  34.237  1.00  0.00     0.037 A 
BRANCH  48  62
ATOM     62  C   UNL A   1      39.841  34.293  36.401  1.00  0.00     0.057 A 
ATOM     63  C   UNL A   1      39.034  34.049  37.521  1.00  0.00     0.134 A 
ATOM     64  C   UNL A   1      40.560  35.494  36.372  1.00  0.00     0.134 A 
ATOM     65  F   UNL A   1      38.310  32.923  37.605  1.00  0.00    -0.206 F 
ATOM     66  C   UNL A   1      38.931  34.974  38.562  1.00  0.00     0.040 A 
ATOM     67  C   UNL A   1      40.485  36.415  37.419  1.00  0.00     0.040 A 
ATOM     68  F   UNL A   1      41.355  35.788  35.332  1.00  0.00    -0.206 F 
ATOM     69  C   UNL A   1      39.665  36.157  38.517  1.00  0.00     0.006 A 
ENDBRANCH  48  62
BRANCH  49  70
ATOM     70  C   UNL A   1      40.471  27.880  28.777  1.00  0.00     0.057 A 
ATOM     71  C   UNL A   1      39.738  26.688  28.738  1.00  0.00     0.134 A 
ATOM     72  C   UNL A   1      41.336  28.141  27.709  1.00  0.00     0.134 A 
ATOM     73  F   UNL A   1      38.904  26.375  29.741  1.00  0.00    -0.206 F 
ATOM     74  C   UNL A   1      39.882  25.775  27.692  1.00  0.00     0.040 A 
ATOM     75  C   UNL A   1      41.470  27.250  26.644  1.00  0.00     0.040 A 
ATOM     76  F   UNL A   1      42.058  29.270  27.682  1.00  0.00    -0.206 F 
ATOM     77  C   UNL A   1      40.749  26.058  26.639  1.00  0.00     0.006 A 
ENDBRANCH  49  70
BRANCH  61  78
ATOM     78  C   UNL A   1      43.759  28.421  34.878  1.00  0.00     0.057 A 
ATOM     79  C   UNL A   1      45.120  28.689  34.677  1.00  0.00     0.134 A 
ATOM     80  C   UNL A   1      43.428  27.342  35.705  1.00  0.00     0.134 A 
ATOM     81  F   UNL A   1      45.504  29.701  33.885  1.00  0.00    -0.206 F 
ATOM     82  C   UNL A   1      46.112  27.891  35.249  1.00  0.00     0.040 A 
ATOM     83  C   UNL A   1      44.411  26.554  36.305  1.00  0.00     0.040 A 
ATOM     84  F   UNL A   1      42.143  27.037  35.947  1.00  0.00    -0.206 F 
ATOM     85  C   UNL A   1      45.757  26.822  36.069  1.00  0.00     0.006 A 
ENDBRANCH  61  78
ENDBRANCH  35  36
ENDBRANCH  27  30
ENDBRANCH  25  26
ENDBRANCH  24  25
ENDBRANCH  23  24
ENDBRANCH   1  23
TORSDOF 15
ENDMDL
MODEL 2
REMARK VINA RESULT:     -11.1      6.332     12.281
REMARK SMILES C[C@@H](C(=O)NCCCCNC(=O)c1ccc(-c2c3nc(c(-c4c(F)cccc4F)c4ccc([nH]4)c(-c4c(F)cccc4F)c4nc(c(-c5c(F)cccc5F)c5ccc2[nH]5)C=C4)C=C3)cc1)c1ccc(C[C@H]2CCC[C@@H]2O)cc1F
REMARK SMILES IDX 6 1 5 2 3 3 4 4 2 6 1 7 67 8 68 9 79 10 69 11 78 12 80 13
REMARK SMILES IDX 70 14 71 15 72 16 73 17 76 18 74 19 75 20 77 21 7 23 8 24
REMARK SMILES IDX 9 25 10 26 11 27 12 29 13 30 14 31 66 32 15 33 65 34 16 35
REMARK SMILES IDX 17 36 18 37 59 38 19 39 64 40 58 41 60 42 20 43 63 44 57 45
REMARK SMILES IDX 56 46 21 48 47 49 30 50 46 51 31 52 34 53 45 54 61 55 32 56
REMARK SMILES IDX 33 57 44 59 62 60 35 61 22 62 23 63 28 64 24 65 25 66 27 67
REMARK SMILES IDX 29 68 26 69 48 70 49 71 54 72 50 73 51 74 53 75 55 76 52 77
REMARK SMILES IDX 36 78 37 79 42 80 38 81 39 82 41 83 43 84 40 85
REMARK H PARENT 5 5 77 22 10 28 60 47 34 58
REMARK Flexibility Score: inf
ROOT
ATOM      1  C   UNL A   1      42.730  18.156  26.620  1.00  0.00     0.116 C 
ENDROOT
BRANCH   1   2
ATOM      2  N   UNL A   1      44.175  18.117  26.501  1.00  0.00    -0.356 N 
ATOM      3  C   UNL A   1      44.959  18.553  25.466  1.00  0.00     0.227 C 
ATOM      4  O   UNL A   1      46.075  18.041  25.358  1.00  0.00    -0.274 OA
ATOM      5  H   UNL A   1      44.656  17.725  27.267  1.00  0.00     0.163 HD
BRANCH   3   6
ATOM      6  C   UNL A   1      44.398  19.598  24.484  1.00  0.00     0.108 C 
ATOM      7  C   UNL A   1      44.903  19.203  23.085  1.00  0.00     0.023 C 
BRANCH   6   8
ATOM      8  C   UNL A   1      44.755  21.046  24.822  1.00  0.00    -0.000 A 
ATOM      9  C   UNL A   1      43.806  21.908  25.398  1.00  0.00     0.008 A 
ATOM     10  C   UNL A   1      46.029  21.576  24.592  1.00  0.00     0.127 A 
ATOM     11  C   UNL A   1      44.064  23.270  25.548  1.00  0.00     0.004 A 
ATOM     12  C   UNL A   1      46.278  22.947  24.689  1.00  0.00     0.043 A 
ATOM     13  F   UNL A   1      47.050  20.777  24.252  1.00  0.00    -0.207 F 
ATOM     14  C   UNL A   1      45.263  23.818  25.095  1.00  0.00    -0.045 A 
BRANCH  14  15
ATOM     15  C   UNL A   1      45.427  25.315  25.001  1.00  0.00     0.041 C 
BRANCH  15  16
ATOM     16  C   UNL A   1      46.801  25.856  25.451  1.00  0.00     0.022 C 
ATOM     17  C   UNL A   1      47.310  25.359  26.815  1.00  0.00     0.007 C 
ATOM     18  C   UNL A   1      47.978  25.598  24.504  1.00  0.00     0.117 C 
ATOM     19  C   UNL A   1      48.838  25.282  26.695  1.00  0.00     0.003 C 
ATOM     20  C   UNL A   1      49.183  25.938  25.368  1.00  0.00     0.032 C 
BRANCH  18  21
ATOM     21  O   UNL A   1      47.903  26.415  23.352  1.00  0.00    -0.393 OA
ATOM     22  H   UNL A   1      48.500  27.173  23.452  1.00  0.00     0.210 HD
ENDBRANCH  18  21
ENDBRANCH  15  16
ENDBRANCH  14  15
ENDBRANCH   6   8
ENDBRANCH   3   6
ENDBRANCH   1   2
BRANCH   1  23
ATOM     23  C   UNL A   1      42.283  19.470  27.271  1.00  0.00     0.023 C 
BRANCH  23  24
ATOM     24  C   UNL A   1      40.834  19.869  26.980  1.00  0.00     0.023 C 
BRANCH  24  25
ATOM     25  C   UNL A   1      40.587  21.368  26.884  1.00  0.00     0.116 C 
BRANCH  25  26
ATOM     26  N   UNL A   1      39.353  21.689  26.188  1.00  0.00    -0.352 N 
ATOM     27  C   UNL A   1      38.675  22.879  26.115  1.00  0.00     0.251 C 
ATOM     28  H   UNL A   1      38.942  20.941  25.695  1.00  0.00     0.163 HD
ATOM     29  O   UNL A   1      37.569  22.917  25.586  1.00  0.00    -0.269 OA
BRANCH  27  30
ATOM     30  C   UNL A   1      39.256  24.105  26.704  1.00  0.00     0.039 A 
ATOM     31  C   UNL A   1      39.967  24.969  25.869  1.00  0.00     0.014 A 
ATOM     32  C   UNL A   1      39.116  24.402  28.063  1.00  0.00     0.014 A 
ATOM     33  C   UNL A   1      40.487  26.156  26.382  1.00  0.00     0.010 A 
ATOM     34  C   UNL A   1      39.572  25.623  28.559  1.00  0.00     0.010 A 
ATOM     35  C   UNL A   1      40.264  26.509  27.724  1.00  0.00    -0.014 A 
BRANCH  35  36
ATOM     36  C   UNL A   1      40.741  27.815  28.245  1.00  0.00     0.031 A 
ATOM     37  C   UNL A   1      42.209  28.139  28.277  1.00  0.00     0.074 A 
ATOM     38  C   UNL A   1      39.843  28.701  28.713  1.00  0.00     0.049 A 
ATOM     39  N   UNL A   1      42.801  29.237  28.672  1.00  0.00    -0.248 NA
ATOM     40  C   UNL A   1      43.134  27.088  27.826  1.00  0.00     0.031 C 
ATOM     41  C   UNL A   1      38.397  28.476  28.800  1.00  0.00     0.029 A 
ATOM     42  N   UNL A   1      40.009  29.972  29.203  1.00  0.00    -0.354 N 
ATOM     43  C   UNL A   1      44.162  29.012  28.514  1.00  0.00     0.074 A 
ATOM     44  C   UNL A   1      44.313  27.651  28.047  1.00  0.00     0.031 C 
ATOM     45  C   UNL A   1      37.808  29.583  29.281  1.00  0.00     0.029 A 
ATOM     46  C   UNL A   1      38.832  30.583  29.561  1.00  0.00     0.049 A 
ATOM     47  H   UNL A   1      40.890  30.406  29.287  1.00  0.00     0.167 HD
ATOM     48  C   UNL A   1      45.191  29.872  28.710  1.00  0.00     0.037 A 
ATOM     49  C   UNL A   1      38.604  31.813  30.056  1.00  0.00     0.037 A 
ATOM     50  C   UNL A   1      45.039  31.229  29.167  1.00  0.00     0.049 A 
ATOM     51  C   UNL A   1      39.763  32.750  30.251  1.00  0.00     0.074 A 
ATOM     52  C   UNL A   1      46.017  32.189  29.361  1.00  0.00     0.029 A 
ATOM     53  N   UNL A   1      43.829  31.818  29.501  1.00  0.00    -0.354 N 
ATOM     54  N   UNL A   1      41.038  32.546  30.028  1.00  0.00    -0.248 NA
ATOM     55  C   UNL A   1      39.447  34.094  30.753  1.00  0.00     0.031 C 
ATOM     56  C   UNL A   1      45.402  33.349  29.847  1.00  0.00     0.029 A 
ATOM     57  C   UNL A   1      44.036  33.126  29.911  1.00  0.00     0.049 A 
ATOM     58  H   UNL A   1      42.952  31.374  29.452  1.00  0.00     0.167 HD
ATOM     59  C   UNL A   1      41.674  33.738  30.344  1.00  0.00     0.074 A 
ATOM     60  C   UNL A   1      40.640  34.670  30.746  1.00  0.00     0.031 C 
ATOM     61  C   UNL A   1      42.997  34.036  30.314  1.00  0.00     0.037 A 
BRANCH  48  62
ATOM     62  C   UNL A   1      46.575  29.372  28.412  1.00  0.00     0.057 A 
ATOM     63  C   UNL A   1      47.155  29.535  27.146  1.00  0.00     0.134 A 
ATOM     64  C   UNL A   1      47.354  28.768  29.407  1.00  0.00     0.134 A 
ATOM     65  F   UNL A   1      46.458  30.094  26.146  1.00  0.00    -0.206 F 
ATOM     66  C   UNL A   1      48.453  29.096  26.875  1.00  0.00     0.040 A 
ATOM     67  C   UNL A   1      48.662  28.348  29.155  1.00  0.00     0.040 A 
ATOM     68  F   UNL A   1      46.862  28.586  30.641  1.00  0.00    -0.206 F 
ATOM     69  C   UNL A   1      49.213  28.508  27.884  1.00  0.00     0.006 A 
ENDBRANCH  48  62
BRANCH  49  70
ATOM     70  C   UNL A   1      37.219  32.241  30.380  1.00  0.00     0.057 A 
ATOM     71  C   UNL A   1      36.655  31.982  31.635  1.00  0.00     0.134 A 
ATOM     72  C   UNL A   1      36.423  32.902  29.439  1.00  0.00     0.134 A 
ATOM     73  F   UNL A   1      37.363  31.337  32.574  1.00  0.00    -0.206 F 
ATOM     74  C   UNL A   1      35.338  32.339  31.932  1.00  0.00     0.040 A 
ATOM     75  C   UNL A   1      35.115  33.289  29.732  1.00  0.00     0.040 A 
ATOM     76  F   UNL A   1      36.909  33.189  28.222  1.00  0.00    -0.206 F 
ATOM     77  C   UNL A   1      34.566  32.999  30.979  1.00  0.00     0.006 A 
ENDBRANCH  49  70
BRANCH  61  78
ATOM     78  C   UNL A   1      43.387  35.430  30.710  1.00  0.00     0.057 A 
ATOM     79  C   UNL A   1      43.480  36.465  29.769  1.00  0.00     0.134 A 
ATOM     80  C   UNL A   1      43.670  35.742  32.045  1.00  0.00     0.134 A 
ATOM     81  F   UNL A   1      43.234  36.229  28.472  1.00  0.00    -0.206 F 
ATOM     82  C   UNL A   1      43.876  37.752  30.138  1.00  0.00     0.040 A 
ATOM     83  C   UNL A   1      44.039  37.031  32.430  1.00  0.00     0.040 A 
ATOM     84  F   UNL A   1      43.591  34.800  32.997  1.00  0.00    -0.206 F 
ATOM     85  C   UNL A   1      44.153  38.038  31.473  1.00  0.00     0.006 A 
ENDBRANCH  61  78
ENDBRANCH  35  36
ENDBRANCH  27  30
ENDBRANCH  25  26
ENDBRANCH  24  25
ENDBRANCH  23  24
ENDBRANCH   1  23
TORSDOF 15
ENDMDL
MODEL 3
REMARK VINA RESULT:     -11.1      5.579     10.350
REMARK SMILES C[C@@H](C(=O)NCCCCNC(=O)c1ccc(-c2c3nc(c(-c4c(F)cccc4F)c4ccc([nH]4)c(-c4c(F)cccc4F)c4nc(c(-c5c(F)cccc5F)c5ccc2[nH]5)C=C4)C=C3)cc1)c1ccc(C[C@H]2CCC[C@@H]2O)cc1F
REMARK SMILES IDX 6 1 5 2 3 3 4 4 2 6 1 7 67 8 68 9 79 10 69 11 78 12 80 13
REMARK SMILES IDX 70 14 71 15 72 16 73 17 76 18 74 19 75 20 77 21 7 23 8 24
REMARK SMILES IDX 9 25 10 26 11 27 12 29 13 30 14 31 66 32 15 33 65 34 16 35
REMARK SMILES IDX 17 36 18 37 59 38 19 39 64 40 58 41 60 42 20 43 63 44 57 45
REMARK SMILES IDX 56 46 21 48 47 49 30 50 46 51 31 52 34 53 45 54 61 55 32 56
REMARK SMILES IDX 33 57 44 59 62 60 35 61 22 62 23 63 28 64 24 65 25 66 27 67
REMARK SMILES IDX 29 68 26 69 48 70 49 71 54 72 50 73 51 74 53 75 55 76 52 77
REMARK SMILES IDX 36 78 37 79 42 80 38 81 39 82 41 83 43 84 40 85
REMARK H PARENT 5 5 77 22 10 28 60 47 34 58
REMARK Flexibility Score: inf
ROOT
ATOM      1  C   UNL A   1      36.470  21.729  25.473  1.00  0.00     0.116 C 
ENDROOT
BRANCH   1   2
ATOM      2  N   UNL A   1      36.058  22.596  24.386  1.00  0.00    -0.356 N 
ATOM      3  C   UNL A   1      34.826  22.704  23.799  1.00  0.00     0.227 C 
ATOM      4  O   UNL A   1      34.793  23.143  22.647  1.00  0.00    -0.274 OA
ATOM      5  H   UNL A   1      36.758  23.187  24.023  1.00  0.00     0.163 HD
BRANCH   3   6
ATOM      6  C   UNL A   1      33.579  22.233  24.571  1.00  0.00     0.108 C 
ATOM      7  C   UNL A   1      33.098  20.942  23.885  1.00  0.00     0.023 C 
BRANCH   6   8
ATOM      8  C   UNL A   1      32.459  23.270  24.665  1.00  0.00    -0.000 A 
ATOM      9  C   UNL A   1      31.494  23.384  23.650  1.00  0.00     0.008 A 
ATOM     10  C   UNL A   1      32.331  24.137  25.757  1.00  0.00     0.127 A 
ATOM     11  C   UNL A   1      30.578  24.436  23.640  1.00  0.00     0.004 A 
ATOM     12  C   UNL A   1      31.452  25.222  25.727  1.00  0.00     0.043 A 
ATOM     13  F   UNL A   1      33.067  23.957  26.862  1.00  0.00    -0.207 F 
ATOM     14  C   UNL A   1      30.620  25.423  24.622  1.00  0.00    -0.045 A 
BRANCH  14  15
ATOM     15  C   UNL A   1      29.825  26.694  24.458  1.00  0.00     0.041 C 
BRANCH  15  16
ATOM     16  C   UNL A   1      30.633  27.921  23.985  1.00  0.00     0.022 C 
ATOM     17  C   UNL A   1      31.435  28.661  25.070  1.00  0.00     0.007 C 
ATOM     18  C   UNL A   1      31.662  27.672  22.876  1.00  0.00     0.117 C 
ATOM     19  C   UNL A   1      32.695  29.197  24.376  1.00  0.00     0.003 C 
ATOM     20  C   UNL A   1      32.485  28.950  22.890  1.00  0.00     0.032 C 
BRANCH  18  21
ATOM     21  O   UNL A   1      31.032  27.459  21.627  1.00  0.00    -0.393 OA
ATOM     22  H   UNL A   1      30.528  26.631  21.655  1.00  0.00     0.210 HD
ENDBRANCH  18  21
ENDBRANCH  15  16
ENDBRANCH  14  15
ENDBRANCH   6   8
ENDBRANCH   3   6
ENDBRANCH   1   2
BRANCH   1  23
ATOM     23  C   UNL A   1      36.527  20.271  25.001  1.00  0.00     0.023 C 
BRANCH  23  24
ATOM     24  C   UNL A   1      37.931  19.757  24.675  1.00  0.00     0.023 C 
BRANCH  24  25
ATOM     25  C   UNL A   1      38.972  19.998  25.760  1.00  0.00     0.116 C 
BRANCH  25  26
ATOM     26  N   UNL A   1      40.033  19.006  25.751  1.00  0.00    -0.352 N 
ATOM     27  C   UNL A   1      41.378  19.164  25.961  1.00  0.00     0.251 C 
ATOM     28  H   UNL A   1      39.742  18.082  25.567  1.00  0.00     0.163 HD
ATOM     29  O   UNL A   1      42.138  18.218  25.775  1.00  0.00    -0.269 OA
BRANCH  27  30
ATOM     30  C   UNL A   1      41.920  20.476  26.373  1.00  0.00     0.039 A 
ATOM     31  C   UNL A   1      42.269  21.391  25.377  1.00  0.00     0.014 A 
ATOM     32  C   UNL A   1      42.096  20.807  27.720  1.00  0.00     0.014 A 
ATOM     33  C   UNL A   1      42.738  22.656  25.732  1.00  0.00     0.010 A 
ATOM     34  C   UNL A   1      42.494  22.095  28.074  1.00  0.00     0.010 A 
ATOM     35  C   UNL A   1      42.822  23.030  27.083  1.00  0.00    -0.014 A 
BRANCH  35  36
ATOM     36  C   UNL A   1      43.237  24.406  27.456  1.00  0.00     0.031 A 
ATOM     37  C   UNL A   1      44.678  24.825  27.365  1.00  0.00     0.074 A 
ATOM     38  C   UNL A   1      42.307  25.272  27.901  1.00  0.00     0.049 A 
ATOM     39  N   UNL A   1      45.213  25.991  27.623  1.00  0.00    -0.248 NA
ATOM     40  C   UNL A   1      45.647  23.799  26.949  1.00  0.00     0.031 C 
ATOM     41  C   UNL A   1      40.889  24.963  28.100  1.00  0.00     0.029 A 
ATOM     42  N   UNL A   1      42.413  26.590  28.266  1.00  0.00    -0.354 N 
ATOM     43  C   UNL A   1      46.576  25.840  27.398  1.00  0.00     0.074 A 
ATOM     44  C   UNL A   1      46.794  24.454  27.044  1.00  0.00     0.031 C 
ATOM     45  C   UNL A   1      40.253  26.069  28.519  1.00  0.00     0.029 A 
ATOM     46  C   UNL A   1      41.219  27.154  28.645  1.00  0.00     0.049 A 
ATOM     47  H   UNL A   1      43.265  27.085  28.255  1.00  0.00     0.167 HD
ATOM     48  C   UNL A   1      47.551  26.778  27.452  1.00  0.00     0.037 A 
ATOM     49  C   UNL A   1      40.935  28.407  29.043  1.00  0.00     0.037 A 
ATOM     50  C   UNL A   1      47.332  28.159  27.797  1.00  0.00     0.049 A 
ATOM     51  C   UNL A   1      42.035  29.431  29.080  1.00  0.00     0.074 A 
ATOM     52  C   UNL A   1      48.251  29.194  27.843  1.00  0.00     0.029 A 
ATOM     53  N   UNL A   1      46.106  28.698  28.155  1.00  0.00    -0.354 N 
ATOM     54  N   UNL A   1      43.306  29.290  28.794  1.00  0.00    -0.248 NA
ATOM     55  C   UNL A   1      41.656  30.793  29.482  1.00  0.00     0.031 C 
ATOM     56  C   UNL A   1      47.586  30.351  28.264  1.00  0.00     0.029 A 
ATOM     57  C   UNL A   1      46.245  30.048  28.435  1.00  0.00     0.049 A 
ATOM     58  H   UNL A   1      45.260  28.195  28.202  1.00  0.00     0.167 HD
ATOM     59  C   UNL A   1      43.875  30.545  28.963  1.00  0.00     0.074 A 
ATOM     60  C   UNL A   1      42.803  31.441  29.347  1.00  0.00     0.031 C 
ATOM     61  C   UNL A   1      45.169  30.923  28.822  1.00  0.00     0.037 A 
BRANCH  48  62
ATOM     62  C   UNL A   1      48.948  26.343  27.110  1.00  0.00     0.057 A 
ATOM     63  C   UNL A   1      49.419  26.365  25.790  1.00  0.00     0.134 A 
ATOM     64  C   UNL A   1      49.844  25.946  28.110  1.00  0.00     0.134 A 
ATOM     65  F   UNL A   1      48.607  26.723  24.785  1.00  0.00    -0.206 F 
ATOM     66  C   UNL A   1      50.725  25.987  25.475  1.00  0.00     0.040 A 
ATOM     67  C   UNL A   1      51.162  25.591  27.809  1.00  0.00     0.040 A 
ATOM     68  F   UNL A   1      49.461  25.908  29.395  1.00  0.00    -0.206 F 
ATOM     69  C   UNL A   1      51.603  25.607  26.487  1.00  0.00     0.006 A 
ENDBRANCH  48  62
BRANCH  49  70
ATOM     70  C   UNL A   1      39.545  28.774  29.417  1.00  0.00     0.057 A 
ATOM     71  C   UNL A   1      39.094  28.654  30.736  1.00  0.00     0.134 A 
ATOM     72  C   UNL A   1      38.632  29.234  28.461  1.00  0.00     0.134 A 
ATOM     73  F   UNL A   1      39.917  28.203  31.694  1.00  0.00    -0.206 F 
ATOM     74  C   UNL A   1      37.775  28.952  31.088  1.00  0.00     0.040 A 
ATOM     75  C   UNL A   1      37.319  29.560  28.804  1.00  0.00     0.040 A 
ATOM     76  F   UNL A   1      39.006  29.380  27.182  1.00  0.00    -0.206 F 
ATOM     77  C   UNL A   1      36.885  29.410  30.119  1.00  0.00     0.006 A 
ENDBRANCH  49  70
BRANCH  61  78
ATOM     78  C   UNL A   1      45.484  32.369  29.068  1.00  0.00     0.057 A 
ATOM     79  C   UNL A   1      45.905  32.829  30.323  1.00  0.00     0.134 A 
ATOM     80  C   UNL A   1      45.366  33.312  28.040  1.00  0.00     0.134 A 
ATOM     81  F   UNL A   1      46.024  31.979  31.354  1.00  0.00    -0.206 F 
ATOM     82  C   UNL A   1      46.163  34.181  30.555  1.00  0.00     0.040 A 
ATOM     83  C   UNL A   1      45.650  34.662  28.252  1.00  0.00     0.040 A 
ATOM     84  F   UNL A   1      44.978  32.937  26.811  1.00  0.00    -0.206 F 
ATOM     85  C   UNL A   1      46.039  35.101  29.516  1.00  0.00     0.006 A 
ENDBRANCH  61  78
ENDBRANCH  35  36
ENDBRANCH  27  30
ENDBRANCH  25  26
ENDBRANCH  24  25
ENDBRANCH  23  24
ENDBRANCH   1  23
TORSDOF 15
ENDMDL
