MODEL 1
REMARK VINA RESULT:     -12.3      0.000      0.000
REMARK SMILES C[C@H](Oc1cc2oc(=O)cc(-c3ccccc3)c2cc1Cl)C(=O)NCCCCNC(=O)c1ccc(-c2c3nc(c(-c4c(F)cccc4F)c4ccc([nH]4)c(-c4c(F)cccc4F)c4nc(c(-c5c(F)cccc5F)c5ccc2[nH]5)C=C4)C=C3)cc1
REMARK SMILES IDX 26 1 25 2 24 3 22 4 23 5 2 7 1 8 3 9 4 10 5 11 20 12 6 13
REMARK SMILES IDX 19 14 21 15 7 16 18 17 8 18 11 19 9 20 10 21 12 22 13 23
REMARK SMILES IDX 17 24 14 25 16 26 15 27 27 28 28 29 29 30 30 31 31 33 32 34
REMARK SMILES IDX 33 35 85 36 34 37 84 38 35 39 36 40 37 41 78 42 38 43 83 44
REMARK SMILES IDX 77 45 79 46 39 47 82 48 76 49 75 50 40 52 66 53 49 54 65 55
REMARK SMILES IDX 50 56 53 57 64 58 80 59 51 60 52 61 63 63 81 64 54 65 41 66
REMARK SMILES IDX 42 67 47 68 43 69 44 70 46 71 48 72 45 73 67 74 68 75 73 76
REMARK SMILES IDX 69 77 70 78 72 79 74 80 71 81 55 82 56 83 61 84 57 85 58 86
REMARK SMILES IDX 60 87 62 88 59 89
REMARK H PARENT 24 6 29 32 79 51 53 62
REMARK Flexibility Score: inf
ROOT
ATOM      1  C   UNL A   1      31.438  27.767  26.603  1.00  0.00     0.023 C 
ENDROOT
BRANCH   1   2
ATOM      2  C   UNL A   1      31.204  26.315  26.202  1.00  0.00     0.116 C 
BRANCH   2   3
ATOM      3  N   UNL A   1      29.952  26.134  25.488  1.00  0.00    -0.353 N 
ATOM      4  C   UNL A   1      29.656  26.423  24.179  1.00  0.00     0.260 C 
ATOM      5  O   UNL A   1      28.519  26.179  23.770  1.00  0.00    -0.271 OA
ATOM      6  H   UNL A   1      29.213  25.752  26.014  1.00  0.00     0.163 HD
BRANCH   4   7
ATOM      7  C   UNL A   1      30.748  26.967  23.243  1.00  0.00     0.258 C 
ATOM      8  C   UNL A   1      30.179  28.192  22.516  1.00  0.00     0.064 C 
BRANCH   7   9
ATOM      9  O   UNL A   1      31.138  25.840  22.453  1.00  0.00    -0.479 OA
BRANCH   9  10
ATOM     10  C   UNL A   1      31.949  24.844  22.900  1.00  0.00     0.142 A 
ATOM     11  C   UNL A   1      31.550  23.541  23.162  1.00  0.00     0.096 A 
ATOM     12  C   UNL A   1      33.286  25.198  23.158  1.00  0.00     0.084 A 
ATOM     13  C   UNL A   1      32.435  22.664  23.795  1.00  0.00     0.142 A 
ATOM     14  C   UNL A   1      34.177  24.292  23.746  1.00  0.00     0.037 A 
ATOM     15  Cl  UNL A   1      33.889  26.777  22.786  1.00  0.00    -0.080 Cl
ATOM     16  O   UNL A   1      31.917  21.400  24.132  1.00  0.00    -0.423 OA
ATOM     17  C   UNL A   1      33.744  23.018  24.115  1.00  0.00     0.027 A 
ATOM     18  C   UNL A   1      32.667  20.497  24.862  1.00  0.00     0.336 A 
ATOM     19  C   UNL A   1      34.601  22.055  24.827  1.00  0.00    -0.000 A 
ATOM     20  O   UNL A   1      32.218  19.418  25.227  1.00  0.00    -0.246 OA
ATOM     21  C   UNL A   1      34.050  20.882  25.181  1.00  0.00     0.103 A 
BRANCH  19  22
ATOM     22  C   UNL A   1      36.006  22.269  25.238  1.00  0.00    -0.017 A 
ATOM     23  C   UNL A   1      36.956  21.251  25.073  1.00  0.00     0.009 A 
ATOM     24  C   UNL A   1      36.409  23.492  25.795  1.00  0.00     0.009 A 
ATOM     25  C   UNL A   1      38.283  21.453  25.457  1.00  0.00     0.001 A 
ATOM     26  C   UNL A   1      37.739  23.695  26.168  1.00  0.00     0.001 A 
ATOM     27  C   UNL A   1      38.674  22.674  26.001  1.00  0.00     0.000 A 
ENDBRANCH  19  22
ENDBRANCH   9  10
ENDBRANCH   7   9
ENDBRANCH   4   7
ENDBRANCH   2   3
ENDBRANCH   1   2
BRANCH   1  28
ATOM     28  C   UNL A   1      32.546  27.977  27.633  1.00  0.00     0.023 C 
BRANCH  28  29
ATOM     29  C   UNL A   1      33.714  28.834  27.162  1.00  0.00     0.116 C 
BRANCH  29  30
ATOM     30  N   UNL A   1      33.698  30.179  27.715  1.00  0.00    -0.352 N 
ATOM     31  C   UNL A   1      34.685  30.844  28.404  1.00  0.00     0.251 C 
ATOM     32  H   UNL A   1      32.863  30.685  27.579  1.00  0.00     0.163 HD
ATOM     33  O   UNL A   1      34.457  31.936  28.915  1.00  0.00    -0.269 OA
BRANCH  31  34
ATOM     34  C   UNL A   1      36.015  30.217  28.559  1.00  0.00     0.039 A 
ATOM     35  C   UNL A   1      36.903  30.244  27.482  1.00  0.00     0.014 A 
ATOM     36  C   UNL A   1      36.394  29.637  29.772  1.00  0.00     0.014 A 
ATOM     37  C   UNL A   1      38.201  29.757  27.647  1.00  0.00     0.010 A 
ATOM     38  C   UNL A   1      37.710  29.224  29.957  1.00  0.00     0.010 A 
ATOM     39  C   UNL A   1      38.628  29.280  28.898  1.00  0.00    -0.014 A 
BRANCH  39  40
ATOM     40  C   UNL A   1      40.031  28.847  29.120  1.00  0.00     0.031 A 
ATOM     41  C   UNL A   1      41.022  29.788  29.748  1.00  0.00     0.074 A 
ATOM     42  C   UNL A   1      40.431  27.633  28.695  1.00  0.00     0.049 A 
ATOM     43  N   UNL A   1      42.303  29.620  29.959  1.00  0.00    -0.248 NA
ATOM     44  C   UNL A   1      40.512  31.103  30.170  1.00  0.00     0.031 C 
ATOM     45  C   UNL A   1      39.580  26.647  28.026  1.00  0.00     0.029 A 
ATOM     46  N   UNL A   1      41.661  27.026  28.751  1.00  0.00    -0.354 N 
ATOM     47  C   UNL A   1      42.751  30.807  30.522  1.00  0.00     0.074 A 
ATOM     48  C   UNL A   1      41.621  31.707  30.570  1.00  0.00     0.031 C 
ATOM     49  C   UNL A   1      40.306  25.550  27.757  1.00  0.00     0.029 A 
ATOM     50  C   UNL A   1      41.680  25.769  28.196  1.00  0.00     0.049 A 
ATOM     51  H   UNL A   1      42.453  27.450  29.152  1.00  0.00     0.167 HD
ATOM     52  C   UNL A   1      43.989  31.113  30.981  1.00  0.00     0.037 A 
ATOM     53  C   UNL A   1      42.694  24.896  28.049  1.00  0.00     0.037 A 
ATOM     54  C   UNL A   1      45.108  30.208  30.954  1.00  0.00     0.049 A 
ATOM     55  C   UNL A   1      44.061  25.263  28.557  1.00  0.00     0.074 A 
ATOM     56  C   UNL A   1      46.386  30.403  31.449  1.00  0.00     0.029 A 
ATOM     57  N   UNL A   1      45.085  28.939  30.396  1.00  0.00    -0.354 N 
ATOM     58  N   UNL A   1      44.455  26.362  29.152  1.00  0.00    -0.248 NA
ATOM     59  C   UNL A   1      45.125  24.264  28.376  1.00  0.00     0.031 C 
ATOM     60  C   UNL A   1      47.149  29.270  31.149  1.00  0.00     0.029 A 
ATOM     61  C   UNL A   1      46.332  28.348  30.515  1.00  0.00     0.049 A 
ATOM     62  H   UNL A   1      44.298  28.520  29.979  1.00  0.00     0.167 HD
ATOM     63  C   UNL A   1      45.800  26.177  29.444  1.00  0.00     0.074 A 
ATOM     64  C   UNL A   1      46.152  24.853  28.972  1.00  0.00     0.031 C 
ATOM     65  C   UNL A   1      46.666  27.026  30.049  1.00  0.00     0.037 A 
BRANCH  52  66
ATOM     66  C   UNL A   1      44.195  32.485  31.557  1.00  0.00     0.057 A 
ATOM     67  C   UNL A   1      44.582  33.570  30.758  1.00  0.00     0.134 A 
ATOM     68  C   UNL A   1      43.969  32.732  32.917  1.00  0.00     0.134 A 
ATOM     69  F   UNL A   1      44.826  33.399  29.451  1.00  0.00    -0.206 F 
ATOM     70  C   UNL A   1      44.766  34.844  31.297  1.00  0.00     0.040 A 
ATOM     71  C   UNL A   1      44.121  34.008  33.461  1.00  0.00     0.040 A 
ATOM     72  F   UNL A   1      43.590  31.740  33.736  1.00  0.00    -0.206 F 
ATOM     73  C   UNL A   1      44.528  35.067  32.653  1.00  0.00     0.006 A 
ENDBRANCH  52  66
BRANCH  53  74
ATOM     74  C   UNL A   1      42.455  23.576  27.410  1.00  0.00     0.057 A 
ATOM     75  C   UNL A   1      42.083  22.462  28.172  1.00  0.00     0.134 A 
ATOM     76  C   UNL A   1      42.601  23.392  26.030  1.00  0.00     0.134 A 
ATOM     77  F   UNL A   1      41.945  22.571  29.502  1.00  0.00    -0.206 F 
ATOM     78  C   UNL A   1      41.886  21.209  27.590  1.00  0.00     0.040 A 
ATOM     79  C   UNL A   1      42.382  22.151  25.430  1.00  0.00     0.040 A 
ATOM     80  F   UNL A   1      42.947  24.421  25.242  1.00  0.00    -0.206 F 
ATOM     81  C   UNL A   1      42.031  21.052  26.213  1.00  0.00     0.006 A 
ENDBRANCH  53  74
BRANCH  65  82
ATOM     82  C   UNL A   1      48.068  26.536  30.271  1.00  0.00     0.057 A 
ATOM     83  C   UNL A   1      49.090  26.768  29.343  1.00  0.00     0.134 A 
ATOM     84  C   UNL A   1      48.405  25.858  31.450  1.00  0.00     0.134 A 
ATOM     85  F   UNL A   1      48.830  27.401  28.189  1.00  0.00    -0.206 F 
ATOM     86  C   UNL A   1      50.393  26.322  29.569  1.00  0.00     0.040 A 
ATOM     87  C   UNL A   1      49.710  25.433  31.699  1.00  0.00     0.040 A 
ATOM     88  F   UNL A   1      47.475  25.612  32.385  1.00  0.00    -0.206 F 
ATOM     89  C   UNL A   1      50.708  25.658  30.753  1.00  0.00     0.006 A 
ENDBRANCH  65  82
ENDBRANCH  39  40
ENDBRANCH  31  34
ENDBRANCH  29  30
ENDBRANCH  28  29
ENDBRANCH   1  28
TORSDOF 14
ENDMDL
MODEL 2
REMARK VINA RESULT:     -12.0      1.444      2.763
REMARK SMILES C[C@H](Oc1cc2oc(=O)cc(-c3ccccc3)c2cc1Cl)C(=O)NCCCCNC(=O)c1ccc(-c2c3nc(c(-c4c(F)cccc4F)c4ccc([nH]4)c(-c4c(F)cccc4F)c4nc(c(-c5c(F)cccc5F)c5ccc2[nH]5)C=C4)C=C3)cc1
REMARK SMILES IDX 26 1 25 2 24 3 22 4 23 5 2 7 1 8 3 9 4 10 5 11 20 12 6 13
REMARK SMILES IDX 19 14 21 15 7 16 18 17 8 18 11 19 9 20 10 21 12 22 13 23
REMARK SMILES IDX 17 24 14 25 16 26 15 27 27 28 28 29 29 30 30 31 31 33 32 34
REMARK SMILES IDX 33 35 85 36 34 37 84 38 35 39 36 40 37 41 78 42 38 43 83 44
REMARK SMILES IDX 77 45 79 46 39 47 82 48 76 49 75 50 40 52 66 53 49 54 65 55
REMARK SMILES IDX 50 56 53 57 64 58 80 59 51 60 52 61 63 63 81 64 54 65 41 66
REMARK SMILES IDX 42 67 47 68 43 69 44 70 46 71 48 72 45 73 67 74 68 75 73 76
REMARK SMILES IDX 69 77 70 78 72 79 74 80 71 81 55 82 56 83 61 84 57 85 58 86
REMARK SMILES IDX 60 87 62 88 59 89
REMARK H PARENT 24 6 29 32 79 51 53 62
REMARK Flexibility Score: inf
ROOT
ATOM      1  C   UNL A   1      31.508  28.099  26.809  1.00  0.00     0.023 C 
ENDROOT
BRANCH   1   2
ATOM      2  C   UNL A   1      30.958  26.906  26.036  1.00  0.00     0.116 C 
BRANCH   2   3
ATOM      3  N   UNL A   1      30.664  27.233  24.651  1.00  0.00    -0.353 N 
ATOM      4  C   UNL A   1      31.503  27.217  23.565  1.00  0.00     0.260 C 
ATOM      5  O   UNL A   1      31.038  27.526  22.465  1.00  0.00    -0.271 OA
ATOM      6  H   UNL A   1      29.736  27.503  24.466  1.00  0.00     0.163 HD
BRANCH   4   7
ATOM      7  C   UNL A   1      32.960  26.753  23.721  1.00  0.00     0.258 C 
ATOM      8  C   UNL A   1      33.870  27.869  23.192  1.00  0.00     0.064 C 
BRANCH   7   9
ATOM      9  O   UNL A   1      33.005  25.483  23.063  1.00  0.00    -0.479 OA
BRANCH   9  10
ATOM     10  C   UNL A   1      33.540  24.361  23.616  1.00  0.00     0.142 A 
ATOM     11  C   UNL A   1      34.835  24.247  24.104  1.00  0.00     0.096 A 
ATOM     12  C   UNL A   1      32.714  23.223  23.639  1.00  0.00     0.084 A 
ATOM     13  C   UNL A   1      35.322  22.990  24.473  1.00  0.00     0.142 A 
ATOM     14  C   UNL A   1      33.201  21.980  24.061  1.00  0.00     0.037 A 
ATOM     15  Cl  UNL A   1      31.063  23.296  23.126  1.00  0.00    -0.080 Cl
ATOM     16  O   UNL A   1      36.677  22.939  24.845  1.00  0.00    -0.423 OA
ATOM     17  C   UNL A   1      34.535  21.840  24.443  1.00  0.00     0.027 A 
ATOM     18  C   UNL A   1      37.293  21.731  25.117  1.00  0.00     0.336 A 
ATOM     19  C   UNL A   1      35.135  20.544  24.799  1.00  0.00    -0.000 A 
ATOM     20  O   UNL A   1      38.487  21.651  25.378  1.00  0.00    -0.246 OA
ATOM     21  C   UNL A   1      36.446  20.530  25.093  1.00  0.00     0.103 A 
BRANCH  19  22
ATOM     22  C   UNL A   1      34.445  19.235  24.822  1.00  0.00    -0.017 A 
ATOM     23  C   UNL A   1      33.181  19.110  25.417  1.00  0.00     0.009 A 
ATOM     24  C   UNL A   1      35.042  18.103  24.247  1.00  0.00     0.009 A 
ATOM     25  C   UNL A   1      32.527  17.877  25.436  1.00  0.00     0.001 A 
ATOM     26  C   UNL A   1      34.381  16.873  24.258  1.00  0.00     0.001 A 
ATOM     27  C   UNL A   1      33.126  16.761  24.854  1.00  0.00     0.000 A 
ENDBRANCH  19  22
ENDBRANCH   9  10
ENDBRANCH   7   9
ENDBRANCH   4   7
ENDBRANCH   2   3
ENDBRANCH   1   2
BRANCH   1  28
ATOM     28  C   UNL A   1      32.954  27.950  27.276  1.00  0.00     0.023 C 
BRANCH  28  29
ATOM     29  C   UNL A   1      33.907  29.035  26.793  1.00  0.00     0.116 C 
BRANCH  29  30
ATOM     30  N   UNL A   1      33.824  30.260  27.575  1.00  0.00    -0.352 N 
ATOM     31  C   UNL A   1      34.754  30.808  28.426  1.00  0.00     0.251 C 
ATOM     32  H   UNL A   1      32.985  30.767  27.482  1.00  0.00     0.163 HD
ATOM     33  O   UNL A   1      34.471  31.786  29.108  1.00  0.00    -0.269 OA
BRANCH  31  34
ATOM     34  C   UNL A   1      36.091  30.186  28.544  1.00  0.00     0.039 A 
ATOM     35  C   UNL A   1      36.953  30.224  27.446  1.00  0.00     0.014 A 
ATOM     36  C   UNL A   1      36.503  29.599  29.743  1.00  0.00     0.014 A 
ATOM     37  C   UNL A   1      38.256  29.742  27.575  1.00  0.00     0.010 A 
ATOM     38  C   UNL A   1      37.824  29.191  29.892  1.00  0.00     0.010 A 
ATOM     39  C   UNL A   1      38.716  29.259  28.811  1.00  0.00    -0.014 A 
BRANCH  39  40
ATOM     40  C   UNL A   1      40.126  28.830  28.996  1.00  0.00     0.031 A 
ATOM     41  C   UNL A   1      41.140  29.789  29.556  1.00  0.00     0.074 A 
ATOM     42  C   UNL A   1      40.508  27.602  28.596  1.00  0.00     0.049 A 
ATOM     43  N   UNL A   1      42.428  29.626  29.725  1.00  0.00    -0.248 NA
ATOM     44  C   UNL A   1      40.646  31.118  29.952  1.00  0.00     0.031 C 
ATOM     45  C   UNL A   1      39.633  26.596  27.992  1.00  0.00     0.029 A 
ATOM     46  N   UNL A   1      41.739  26.994  28.627  1.00  0.00    -0.354 N 
ATOM     47  C   UNL A   1      42.897  30.830  30.232  1.00  0.00     0.074 A 
ATOM     48  C   UNL A   1      41.770  31.733  30.292  1.00  0.00     0.031 C 
ATOM     49  C   UNL A   1      40.348  25.489  27.732  1.00  0.00     0.029 A 
ATOM     50  C   UNL A   1      41.738  25.720  28.113  1.00  0.00     0.049 A 
ATOM     51  H   UNL A   1      42.546  27.431  28.984  1.00  0.00     0.167 HD
ATOM     52  C   UNL A   1      44.151  31.148  30.634  1.00  0.00     0.037 A 
ATOM     53  C   UNL A   1      42.745  24.840  27.958  1.00  0.00     0.037 A 
ATOM     54  C   UNL A   1      45.268  30.241  30.595  1.00  0.00     0.049 A 
ATOM     55  C   UNL A   1      44.130  25.221  28.402  1.00  0.00     0.074 A 
ATOM     56  C   UNL A   1      46.563  30.450  31.036  1.00  0.00     0.029 A 
ATOM     57  N   UNL A   1      45.223  28.954  30.081  1.00  0.00    -0.354 N 
ATOM     58  N   UNL A   1      44.546  26.338  28.946  1.00  0.00    -0.248 NA
ATOM     59  C   UNL A   1      45.186  24.215  28.216  1.00  0.00     0.031 C 
ATOM     60  C   UNL A   1      47.314  29.306  30.747  1.00  0.00     0.029 A 
ATOM     61  C   UNL A   1      46.474  28.365  30.173  1.00  0.00     0.049 A 
ATOM     62  H   UNL A   1      44.421  28.523  29.707  1.00  0.00     0.167 HD
ATOM     63  C   UNL A   1      45.901  26.161  29.195  1.00  0.00     0.074 A 
ATOM     64  C   UNL A   1      46.234  24.821  28.754  1.00  0.00     0.031 C 
ATOM     65  C   UNL A   1      46.789  27.027  29.739  1.00  0.00     0.037 A 
BRANCH  52  66
ATOM     66  C   UNL A   1      44.379  32.538  31.156  1.00  0.00     0.057 A 
ATOM     67  C   UNL A   1      44.240  32.848  32.516  1.00  0.00     0.134 A 
ATOM     68  C   UNL A   1      44.774  33.570  30.296  1.00  0.00     0.134 A 
ATOM     69  F   UNL A   1      43.853  31.909  33.392  1.00  0.00    -0.206 F 
ATOM     70  C   UNL A   1      44.460  34.140  32.997  1.00  0.00     0.040 A 
ATOM     71  C   UNL A   1      45.024  34.859  30.769  1.00  0.00     0.040 A 
ATOM     72  F   UNL A   1      44.932  33.341  28.984  1.00  0.00    -0.206 F 
ATOM     73  C   UNL A   1      44.860  35.149  32.122  1.00  0.00     0.006 A 
ENDBRANCH  52  66
BRANCH  53  74
ATOM     74  C   UNL A   1      42.481  23.501  27.372  1.00  0.00     0.057 A 
ATOM     75  C   UNL A   1      42.581  23.284  25.992  1.00  0.00     0.134 A 
ATOM     76  C   UNL A   1      42.113  22.411  28.170  1.00  0.00     0.134 A 
ATOM     77  F   UNL A   1      42.911  24.294  25.174  1.00  0.00    -0.206 F 
ATOM     78  C   UNL A   1      42.305  22.039  25.425  1.00  0.00     0.040 A 
ATOM     79  C   UNL A   1      41.858  21.154  27.619  1.00  0.00     0.040 A 
ATOM     80  F   UNL A   1      42.007  22.550  29.500  1.00  0.00    -0.206 F 
ATOM     81  C   UNL A   1      41.946  20.968  26.240  1.00  0.00     0.006 A 
ENDBRANCH  53  74
BRANCH  65  82
ATOM     82  C   UNL A   1      48.198  26.543  29.925  1.00  0.00     0.057 A 
ATOM     83  C   UNL A   1      48.604  25.872  31.086  1.00  0.00     0.134 A 
ATOM     84  C   UNL A   1      49.149  26.718  28.912  1.00  0.00     0.134 A 
ATOM     85  F   UNL A   1      47.745  25.685  32.098  1.00  0.00    -0.206 F 
ATOM     86  C   UNL A   1      49.912  25.413  31.240  1.00  0.00     0.040 A 
ATOM     87  C   UNL A   1      50.453  26.237  29.044  1.00  0.00     0.040 A 
ATOM     88  F   UNL A   1      48.823  27.343  27.771  1.00  0.00    -0.206 F 
ATOM     89  C   UNL A   1      50.839  25.589  30.214  1.00  0.00     0.006 A 
ENDBRANCH  65  82
ENDBRANCH  39  40
ENDBRANCH  31  34
ENDBRANCH  29  30
ENDBRANCH  28  29
ENDBRANCH   1  28
TORSDOF 14
ENDMDL
MODEL 3
REMARK VINA RESULT:     -12.0      3.629      5.048
REMARK SMILES C[C@H](Oc1cc2oc(=O)cc(-c3ccccc3)c2cc1Cl)C(=O)NCCCCNC(=O)c1ccc(-c2c3nc(c(-c4c(F)cccc4F)c4ccc([nH]4)c(-c4c(F)cccc4F)c4nc(c(-c5c(F)cccc5F)c5ccc2[nH]5)C=C4)C=C3)cc1
REMARK SMILES IDX 26 1 25 2 24 3 22 4 23 5 2 7 1 8 3 9 4 10 5 11 20 12 6 13
REMARK SMILES IDX 19 14 21 15 7 16 18 17 8 18 11 19 9 20 10 21 12 22 13 23
REMARK SMILES IDX 17 24 14 25 16 26 15 27 27 28 28 29 29 30 30 31 31 33 32 34
REMARK SMILES IDX 33 35 85 36 34 37 84 38 35 39 36 40 37 41 78 42 38 43 83 44
REMARK SMILES IDX 77 45 79 46 39 47 82 48 76 49 75 50 40 52 66 53 49 54 65 55
REMARK SMILES IDX 50 56 53 57 64 58 80 59 51 60 52 61 63 63 81 64 54 65 41 66
REMARK SMILES IDX 42 67 47 68 43 69 44 70 46 71 48 72 45 73 67 74 68 75 73 76
REMARK SMILES IDX 69 77 70 78 72 79 74 80 71 81 55 82 56 83 61 84 57 85 58 86
REMARK SMILES IDX 60 87 62 88 59 89
REMARK H PARENT 24 6 29 32 79 51 53 62
REMARK Flexibility Score: inf
ROOT
ATOM      1  C   UNL A   1      31.670  30.216  26.357  1.00  0.00     0.023 C 
ENDROOT
BRANCH   1   2
ATOM      2  C   UNL A   1      31.407  29.701  24.946  1.00  0.00     0.116 C 
BRANCH   2   3
ATOM      3  N   UNL A   1      32.632  29.338  24.253  1.00  0.00    -0.353 N 
ATOM      4  C   UNL A   1      33.183  28.095  24.069  1.00  0.00     0.260 C 
ATOM      5  O   UNL A   1      34.236  28.011  23.434  1.00  0.00    -0.271 OA
ATOM      6  H   UNL A   1      33.136  30.087  23.861  1.00  0.00     0.163 HD
BRANCH   4   7
ATOM      7  C   UNL A   1      32.452  26.844  24.583  1.00  0.00     0.258 C 
ATOM      8  C   UNL A   1      32.765  26.696  26.077  1.00  0.00     0.064 C 
BRANCH   7   9
ATOM      9  O   UNL A   1      32.873  25.795  23.704  1.00  0.00    -0.479 OA
BRANCH   9  10
ATOM     10  C   UNL A   1      33.415  24.622  24.129  1.00  0.00     0.142 A 
ATOM     11  C   UNL A   1      34.733  24.448  24.532  1.00  0.00     0.096 A 
ATOM     12  C   UNL A   1      32.571  23.498  24.102  1.00  0.00     0.084 A 
ATOM     13  C   UNL A   1      35.216  23.158  24.765  1.00  0.00     0.142 A 
ATOM     14  C   UNL A   1      33.056  22.217  24.388  1.00  0.00     0.037 A 
ATOM     15  Cl  UNL A   1      30.895  23.639  23.690  1.00  0.00    -0.080 Cl
ATOM     16  O   UNL A   1      36.588  23.055  25.054  1.00  0.00    -0.423 OA
ATOM     17  C   UNL A   1      34.407  22.026  24.682  1.00  0.00     0.027 A 
ATOM     18  C   UNL A   1      37.195  21.820  25.188  1.00  0.00     0.336 A 
ATOM     19  C   UNL A   1      35.001  20.695  24.892  1.00  0.00    -0.000 A 
ATOM     20  O   UNL A   1      38.400  21.700  25.373  1.00  0.00    -0.246 OA
ATOM     21  C   UNL A   1      36.325  20.637  25.110  1.00  0.00     0.103 A 
BRANCH  19  22
ATOM     22  C   UNL A   1      34.288  19.399  24.842  1.00  0.00    -0.017 A 
ATOM     23  C   UNL A   1      34.840  18.312  24.149  1.00  0.00     0.009 A 
ATOM     24  C   UNL A   1      33.053  19.238  25.488  1.00  0.00     0.009 A 
ATOM     25  C   UNL A   1      34.170  17.088  24.104  1.00  0.00     0.001 A 
ATOM     26  C   UNL A   1      32.390  18.010  25.450  1.00  0.00     0.001 A 
ATOM     27  C   UNL A   1      32.948  16.937  24.756  1.00  0.00     0.000 A 
ENDBRANCH  19  22
ENDBRANCH   9  10
ENDBRANCH   7   9
ENDBRANCH   4   7
ENDBRANCH   2   3
ENDBRANCH   1   2
BRANCH   1  28
ATOM     28  C   UNL A   1      31.506  31.723  26.530  1.00  0.00     0.023 C 
BRANCH  28  29
ATOM     29  C   UNL A   1      32.760  32.466  26.976  1.00  0.00     0.116 C 
BRANCH  29  30
ATOM     30  N   UNL A   1      32.491  33.819  27.437  1.00  0.00    -0.352 N 
ATOM     31  C   UNL A   1      33.098  34.525  28.448  1.00  0.00     0.251 C 
ATOM     32  H   UNL A   1      31.774  34.296  26.959  1.00  0.00     0.163 HD
ATOM     33  O   UNL A   1      32.659  35.618  28.792  1.00  0.00    -0.269 OA
BRANCH  31  34
ATOM     34  C   UNL A   1      34.263  33.942  29.148  1.00  0.00     0.039 A 
ATOM     35  C   UNL A   1      34.042  33.076  30.221  1.00  0.00     0.014 A 
ATOM     36  C   UNL A   1      35.565  34.221  28.724  1.00  0.00     0.014 A 
ATOM     37  C   UNL A   1      35.124  32.431  30.821  1.00  0.00     0.010 A 
ATOM     38  C   UNL A   1      36.633  33.518  29.271  1.00  0.00     0.010 A 
ATOM     39  C   UNL A   1      36.426  32.615  30.324  1.00  0.00    -0.014 A 
BRANCH  39  40
ATOM     40  C   UNL A   1      37.578  31.865  30.885  1.00  0.00     0.031 A 
ATOM     41  C   UNL A   1      38.091  32.185  32.261  1.00  0.00     0.074 A 
ATOM     42  C   UNL A   1      38.207  30.943  30.129  1.00  0.00     0.049 A 
ATOM     43  N   UNL A   1      39.125  31.692  32.895  1.00  0.00    -0.248 NA
ATOM     44  C   UNL A   1      37.361  33.216  33.016  1.00  0.00     0.031 C 
ATOM     45  C   UNL A   1      37.839  30.575  28.760  1.00  0.00     0.029 A 
ATOM     46  N   UNL A   1      39.297  30.155  30.403  1.00  0.00    -0.354 N 
ATOM     47  C   UNL A   1      39.177  32.361  34.110  1.00  0.00     0.074 A 
ATOM     48  C   UNL A   1      38.106  33.332  34.106  1.00  0.00     0.031 C 
ATOM     49  C   UNL A   1      38.673  29.618  28.323  1.00  0.00     0.029 A 
ATOM     50  C   UNL A   1      39.657  29.332  29.362  1.00  0.00     0.049 A 
ATOM     51  H   UNL A   1      39.776  30.178  31.262  1.00  0.00     0.167 HD
ATOM     52  C   UNL A   1      40.026  32.166  35.148  1.00  0.00     0.037 A 
ATOM     53  C   UNL A   1      40.671  28.453  29.255  1.00  0.00     0.037 A 
ATOM     54  C   UNL A   1      41.078  31.184  35.160  1.00  0.00     0.049 A 
ATOM     55  C   UNL A   1      41.606  28.263  30.417  1.00  0.00     0.074 A 
ATOM     56  C   UNL A   1      41.951  30.870  36.186  1.00  0.00     0.029 A 
ATOM     57  N   UNL A   1      41.401  30.359  34.093  1.00  0.00    -0.354 N 
ATOM     58  N   UNL A   1      41.600  28.852  31.589  1.00  0.00    -0.248 NA
ATOM     59  C   UNL A   1      42.688  27.282  30.244  1.00  0.00     0.031 C 
ATOM     60  C   UNL A   1      42.834  29.888  35.725  1.00  0.00     0.029 A 
ATOM     61  C   UNL A   1      42.476  29.553  34.429  1.00  0.00     0.049 A 
ATOM     62  H   UNL A   1      40.935  30.348  33.226  1.00  0.00     0.167 HD
ATOM     63  C   UNL A   1      42.653  28.293  32.301  1.00  0.00     0.074 A 
ATOM     64  C   UNL A   1      43.268  27.309  31.435  1.00  0.00     0.031 C 
ATOM     65  C   UNL A   1      43.073  28.570  33.560  1.00  0.00     0.037 A 
BRANCH  52  66
ATOM     66  C   UNL A   1      39.848  33.035  36.360  1.00  0.00     0.057 A 
ATOM     67  C   UNL A   1      40.557  34.233  36.521  1.00  0.00     0.134 A 
ATOM     68  C   UNL A   1      38.932  32.689  37.361  1.00  0.00     0.134 A 
ATOM     69  F   UNL A   1      41.459  34.618  35.605  1.00  0.00    -0.206 F 
ATOM     70  C   UNL A   1      40.383  35.040  37.646  1.00  0.00     0.040 A 
ATOM     71  C   UNL A   1      38.727  33.502  38.477  1.00  0.00     0.040 A 
ATOM     72  F   UNL A   1      38.215  31.559  37.267  1.00  0.00    -0.206 F 
ATOM     73  C   UNL A   1      39.459  34.678  38.625  1.00  0.00     0.006 A 
ENDBRANCH  52  66
BRANCH  53  74
ATOM     74  C   UNL A   1      40.846  27.665  28.008  1.00  0.00     0.057 A 
ATOM     75  C   UNL A   1      40.261  26.401  27.864  1.00  0.00     0.134 A 
ATOM     76  C   UNL A   1      41.608  28.149  26.937  1.00  0.00     0.134 A 
ATOM     77  F   UNL A   1      39.536  25.877  28.863  1.00  0.00    -0.206 F 
ATOM     78  C   UNL A   1      40.444  25.637  26.711  1.00  0.00     0.040 A 
ATOM     79  C   UNL A   1      41.778  27.406  25.767  1.00  0.00     0.040 A 
ATOM     80  F   UNL A   1      42.188  29.356  27.008  1.00  0.00    -0.206 F 
ATOM     81  C   UNL A   1      41.202  26.142  25.656  1.00  0.00     0.006 A 
ENDBRANCH  53  74
BRANCH  65  82
ATOM     82  C   UNL A   1      44.228  27.772  34.092  1.00  0.00     0.057 A 
ATOM     83  C   UNL A   1      45.545  28.242  34.029  1.00  0.00     0.134 A 
ATOM     84  C   UNL A   1      44.011  26.533  34.709  1.00  0.00     0.134 A 
ATOM     85  F   UNL A   1      45.821  29.414  33.439  1.00  0.00    -0.206 F 
ATOM     86  C   UNL A   1      46.609  27.497  34.541  1.00  0.00     0.040 A 
ATOM     87  C   UNL A   1      45.063  25.794  35.251  1.00  0.00     0.040 A 
ATOM     88  F   UNL A   1      42.771  26.030  34.811  1.00  0.00    -0.206 F 
ATOM     89  C   UNL A   1      46.368  26.272  35.161  1.00  0.00     0.006 A 
ENDBRANCH  65  82
ENDBRANCH  39  40
ENDBRANCH  31  34
ENDBRANCH  29  30
ENDBRANCH  28  29
ENDBRANCH   1  28
TORSDOF 14
ENDMDL
