MODEL 1
REMARK VINA RESULT:     -13.0      0.000      0.000
REMARK SMILES O=C(Cc1ccccc1)Nc1cccc(C(=O)Nc2ccccc2C(=O)NCCCCNC(=O)c2ccc(-c3c4nc(c(-c5c(F)cccc5F)c5ccc([nH]5)c(-c5c(F)cccc5F)c5nc(c(-c6c(F)cccc6F)c6ccc3[nH]6)C=C5)C=C4)cc2)c1
REMARK SMILES IDX 28 1 27 2 25 3 26 4 24 6 19 7 20 8 21 9 23 10 22 11 18 12
REMARK SMILES IDX 16 13 17 14 15 16 11 17 12 18 89 19 13 20 14 21 10 22 1 23
REMARK SMILES IDX 2 24 3 26 4 27 5 28 9 29 6 30 8 31 7 32 29 33 30 34 31 35
REMARK SMILES IDX 32 36 33 37 34 39 35 40 36 41 88 42 37 43 87 44 38 45 39 46
REMARK SMILES IDX 40 47 81 48 41 49 86 50 80 51 82 52 42 53 85 54 79 55 78 56
REMARK SMILES IDX 43 58 69 59 52 60 68 61 53 62 56 63 67 64 83 65 54 66 55 67
REMARK SMILES IDX 66 69 84 70 57 71 44 72 45 73 50 74 46 75 47 76 49 77 51 78
REMARK SMILES IDX 48 79 70 80 71 81 76 82 72 83 73 84 75 85 77 86 74 87 58 88
REMARK SMILES IDX 59 89 64 90 60 91 61 92 63 93 65 94 62 95
REMARK H PARENT 27 5 18 15 10 25 32 38 82 57 56 68
REMARK Flexibility Score: inf
ROOT
ATOM      1  C   UNL A   1      36.271  21.317  25.734  1.00  0.00     0.116 C 
ENDROOT
BRANCH   1   2
ATOM      2  N   UNL A   1      36.303  22.762  25.757  1.00  0.00    -0.352 N 
ATOM      3  C   UNL A   1      35.274  23.656  25.603  1.00  0.00     0.253 C 
ATOM      4  O   UNL A   1      35.548  24.858  25.616  1.00  0.00    -0.269 OA
ATOM      5  H   UNL A   1      37.190  23.161  25.905  1.00  0.00     0.163 HD
BRANCH   3   6
ATOM      6  C   UNL A   1      33.876  23.226  25.310  1.00  0.00     0.063 A 
ATOM      7  C   UNL A   1      33.081  23.553  24.189  1.00  0.00     0.054 A 
ATOM      8  C   UNL A   1      31.722  23.184  24.207  1.00  0.00     0.027 A 
ATOM      9  C   UNL A   1      31.190  22.393  25.228  1.00  0.00     0.002 A 
ATOM     10  C   UNL A   1      33.324  22.412  26.326  1.00  0.00     0.016 A 
ATOM     11  C   UNL A   1      32.000  21.981  26.276  1.00  0.00     0.001 A 
BRANCH   7  12
ATOM     12  N   UNL A   1      33.479  24.174  22.976  1.00  0.00    -0.321 N 
ATOM     13  C   UNL A   1      33.266  25.436  22.456  1.00  0.00     0.255 C 
ATOM     14  O   UNL A   1      33.526  25.654  21.274  1.00  0.00    -0.269 OA
ATOM     15  H   UNL A   1      34.010  23.588  22.389  1.00  0.00     0.170 HD
BRANCH  13  16
ATOM     16  C   UNL A   1      32.771  26.546  23.297  1.00  0.00     0.042 A 
ATOM     17  C   UNL A   1      30.977  28.060  23.816  1.00  0.00     0.041 A 
ATOM     18  C   UNL A   1      31.882  28.877  24.502  1.00  0.00     0.026 A 
ATOM     19  C   UNL A   1      31.411  26.839  23.325  1.00  0.00     0.040 A 
ATOM     20  C   UNL A   1      33.219  28.490  24.646  1.00  0.00     0.003 A 
ATOM     21  C   UNL A   1      33.673  27.333  24.015  1.00  0.00     0.014 A 
BRANCH  17  22
ATOM     22  N   UNL A   1      29.699  28.565  23.524  1.00  0.00    -0.326 N 
ATOM     23  O   UNL A   1      28.326  26.704  23.889  1.00  0.00    -0.274 OA
ATOM     24  C   UNL A   1      28.505  27.855  23.500  1.00  0.00     0.228 C 
ATOM     25  H   UNL A   1      29.643  29.526  23.314  1.00  0.00     0.169 HD
BRANCH  24  26
ATOM     26  C   UNL A   1      27.353  28.654  22.924  1.00  0.00     0.135 C 
BRANCH  26  27
ATOM     27  C   UNL A   1      27.685  30.085  22.568  1.00  0.00    -0.039 A 
ATOM     28  C   UNL A   1      28.027  30.381  21.242  1.00  0.00     0.004 A 
ATOM     29  C   UNL A   1      27.657  31.130  23.505  1.00  0.00     0.004 A 
ATOM     30  C   UNL A   1      28.375  31.680  20.874  1.00  0.00     0.000 A 
ATOM     31  C   UNL A   1      28.028  32.422  23.142  1.00  0.00     0.000 A 
ATOM     32  C   UNL A   1      28.390  32.697  21.827  1.00  0.00     0.000 A 
ENDBRANCH  26  27
ENDBRANCH  24  26
ENDBRANCH  17  22
ENDBRANCH  13  16
ENDBRANCH   7  12
ENDBRANCH   3   6
ENDBRANCH   1   2
BRANCH   1  33
ATOM     33  C   UNL A   1      37.083  20.695  24.609  1.00  0.00     0.023 C 
BRANCH  33  34
ATOM     34  C   UNL A   1      38.043  19.577  25.019  1.00  0.00     0.023 C 
BRANCH  34  35
ATOM     35  C   UNL A   1      39.265  19.993  25.835  1.00  0.00     0.116 C 
BRANCH  35  36
ATOM     36  N   UNL A   1      40.336  19.008  25.834  1.00  0.00    -0.352 N 
ATOM     37  C   UNL A   1      41.691  19.168  26.021  1.00  0.00     0.251 C 
ATOM     38  H   UNL A   1      40.046  18.081  25.677  1.00  0.00     0.163 HD
ATOM     39  O   UNL A   1      42.454  18.227  25.859  1.00  0.00    -0.269 OA
BRANCH  37  40
ATOM     40  C   UNL A   1      42.231  20.496  26.385  1.00  0.00     0.039 A 
ATOM     41  C   UNL A   1      42.638  21.363  25.366  1.00  0.00     0.014 A 
ATOM     42  C   UNL A   1      42.329  20.891  27.720  1.00  0.00     0.014 A 
ATOM     43  C   UNL A   1      43.055  22.658  25.685  1.00  0.00     0.010 A 
ATOM     44  C   UNL A   1      42.656  22.208  28.029  1.00  0.00     0.010 A 
ATOM     45  C   UNL A   1      43.024  23.107  27.016  1.00  0.00    -0.014 A 
BRANCH  45  46
ATOM     46  C   UNL A   1      43.386  24.504  27.371  1.00  0.00     0.031 A 
ATOM     47  C   UNL A   1      44.827  24.937  27.348  1.00  0.00     0.074 A 
ATOM     48  C   UNL A   1      42.431  25.368  27.771  1.00  0.00     0.049 A 
ATOM     49  N   UNL A   1      45.354  26.080  27.706  1.00  0.00    -0.248 NA
ATOM     50  C   UNL A   1      45.810  23.942  26.889  1.00  0.00     0.031 C 
ATOM     51  C   UNL A   1      41.003  25.062  27.890  1.00  0.00     0.029 A 
ATOM     52  N   UNL A   1      42.520  26.680  28.166  1.00  0.00    -0.354 N 
ATOM     53  C   UNL A   1      46.725  25.937  27.524  1.00  0.00     0.074 A 
ATOM     54  C   UNL A   1      46.955  24.578  27.091  1.00  0.00     0.031 C 
ATOM     55  C   UNL A   1      40.350  26.159  28.307  1.00  0.00     0.029 A 
ATOM     56  C   UNL A   1      41.313  27.236  28.517  1.00  0.00     0.049 A 
ATOM     57  H   UNL A   1      43.370  27.177  28.194  1.00  0.00     0.167 HD
ATOM     58  C   UNL A   1      47.702  26.863  27.670  1.00  0.00     0.037 A 
ATOM     59  C   UNL A   1      41.018  28.471  28.964  1.00  0.00     0.037 A 
ATOM     60  C   UNL A   1      47.475  28.224  28.077  1.00  0.00     0.049 A 
ATOM     61  C   UNL A   1      42.123  29.484  29.111  1.00  0.00     0.074 A 
ATOM     62  C   UNL A   1      48.398  29.243  28.240  1.00  0.00     0.029 A 
ATOM     63  N   UNL A   1      46.231  28.759  28.374  1.00  0.00    -0.354 N 
ATOM     64  N   UNL A   1      43.408  29.344  28.891  1.00  0.00    -0.248 NA
ATOM     65  C   UNL A   1      41.733  30.830  29.553  1.00  0.00     0.031 C 
ATOM     66  C   UNL A   1      47.715  30.389  28.658  1.00  0.00     0.029 A 
ATOM     67  C   UNL A   1      46.363  30.095  28.714  1.00  0.00     0.049 A 
ATOM     68  H   UNL A   1      45.381  28.264  28.348  1.00  0.00     0.167 HD
ATOM     69  C   UNL A   1      43.971  30.591  29.128  1.00  0.00     0.074 A 
ATOM     70  C   UNL A   1      42.887  31.478  29.496  1.00  0.00     0.031 C 
ATOM     71  C   UNL A   1      45.269  30.971  29.048  1.00  0.00     0.037 A 
BRANCH  58  72
ATOM     72  C   UNL A   1      49.106  26.438  27.355  1.00  0.00     0.057 A 
ATOM     73  C   UNL A   1      49.979  25.997  28.361  1.00  0.00     0.134 A 
ATOM     74  C   UNL A   1      49.584  26.432  26.039  1.00  0.00     0.134 A 
ATOM     75  F   UNL A   1      49.588  25.991  29.645  1.00  0.00    -0.206 F 
ATOM     76  C   UNL A   1      51.281  25.590  28.072  1.00  0.00     0.040 A 
ATOM     77  C   UNL A   1      50.875  26.001  25.733  1.00  0.00     0.040 A 
ATOM     78  F   UNL A   1      48.800  26.836  25.028  1.00  0.00    -0.206 F 
ATOM     79  C   UNL A   1      51.731  25.583  26.752  1.00  0.00     0.006 A 
ENDBRANCH  58  72
BRANCH  59  80
ATOM     80  C   UNL A   1      39.614  28.841  29.285  1.00  0.00     0.057 A 
ATOM     81  C   UNL A   1      39.115  28.723  30.588  1.00  0.00     0.134 A 
ATOM     82  C   UNL A   1      38.728  29.274  28.293  1.00  0.00     0.134 A 
ATOM     83  F   UNL A   1      39.911  28.296  31.580  1.00  0.00    -0.206 F 
ATOM     84  C   UNL A   1      37.778  28.988  30.887  1.00  0.00     0.040 A 
ATOM     85  C   UNL A   1      37.393  29.569  28.582  1.00  0.00     0.040 A 
ATOM     86  F   UNL A   1      39.144  29.417  27.026  1.00  0.00    -0.206 F 
ATOM     87  C   UNL A   1      36.912  29.414  29.881  1.00  0.00     0.006 A 
ENDBRANCH  59  80
BRANCH  71  88
ATOM     88  C   UNL A   1      45.580  32.417  29.298  1.00  0.00     0.057 A 
ATOM     89  C   UNL A   1      45.934  32.895  30.566  1.00  0.00     0.134 A 
ATOM     90  C   UNL A   1      45.552  33.338  28.242  1.00  0.00     0.134 A 
ATOM     91  F   UNL A   1      45.967  32.066  31.620  1.00  0.00    -0.206 F 
ATOM     92  C   UNL A   1      46.219  34.244  30.781  1.00  0.00     0.040 A 
ATOM     93  C   UNL A   1      45.863  34.684  28.440  1.00  0.00     0.040 A 
ATOM     94  F   UNL A   1      45.231  32.943  27.001  1.00  0.00    -0.206 F 
ATOM     95  C   UNL A   1      46.190  35.141  29.715  1.00  0.00     0.006 A 
ENDBRANCH  71  88
ENDBRANCH  45  46
ENDBRANCH  37  40
ENDBRANCH  35  36
ENDBRANCH  34  35
ENDBRANCH  33  34
ENDBRANCH   1  33
TORSDOF 16
ENDMDL
MODEL 2
REMARK VINA RESULT:     -12.7      1.424      2.099
REMARK SMILES O=C(Cc1ccccc1)Nc1cccc(C(=O)Nc2ccccc2C(=O)NCCCCNC(=O)c2ccc(-c3c4nc(c(-c5c(F)cccc5F)c5ccc([nH]5)c(-c5c(F)cccc5F)c5nc(c(-c6c(F)cccc6F)c6ccc3[nH]6)C=C5)C=C4)cc2)c1
REMARK SMILES IDX 28 1 27 2 25 3 26 4 24 6 19 7 20 8 21 9 23 10 22 11 18 12
REMARK SMILES IDX 16 13 17 14 15 16 11 17 12 18 89 19 13 20 14 21 10 22 1 23
REMARK SMILES IDX 2 24 3 26 4 27 5 28 9 29 6 30 8 31 7 32 29 33 30 34 31 35
REMARK SMILES IDX 32 36 33 37 34 39 35 40 36 41 88 42 37 43 87 44 38 45 39 46
REMARK SMILES IDX 40 47 81 48 41 49 86 50 80 51 82 52 42 53 85 54 79 55 78 56
REMARK SMILES IDX 43 58 69 59 52 60 68 61 53 62 56 63 67 64 83 65 54 66 55 67
REMARK SMILES IDX 66 69 84 70 57 71 44 72 45 73 50 74 46 75 47 76 49 77 51 78
REMARK SMILES IDX 48 79 70 80 71 81 76 82 72 83 73 84 75 85 77 86 74 87 58 88
REMARK SMILES IDX 59 89 64 90 60 91 61 92 63 93 65 94 62 95
REMARK H PARENT 27 5 18 15 10 25 32 38 82 57 56 68
REMARK Flexibility Score: inf
ROOT
ATOM      1  C   UNL A   1      38.009  23.388  26.056  1.00  0.00     0.116 C 
ENDROOT
BRANCH   1   2
ATOM      2  N   UNL A   1      37.780  23.213  24.638  1.00  0.00    -0.352 N 
ATOM      3  C   UNL A   1      36.596  23.192  23.946  1.00  0.00     0.253 C 
ATOM      4  O   UNL A   1      36.643  22.982  22.732  1.00  0.00    -0.269 OA
ATOM      5  H   UNL A   1      38.591  23.093  24.093  1.00  0.00     0.163 HD
BRANCH   3   6
ATOM      6  C   UNL A   1      35.270  23.297  24.621  1.00  0.00     0.063 A 
ATOM      7  C   UNL A   1      34.067  23.822  24.100  1.00  0.00     0.054 A 
ATOM      8  C   UNL A   1      32.979  23.989  24.978  1.00  0.00     0.027 A 
ATOM      9  C   UNL A   1      33.021  23.523  26.294  1.00  0.00     0.002 A 
ATOM     10  C   UNL A   1      35.288  22.818  25.951  1.00  0.00     0.016 A 
ATOM     11  C   UNL A   1      34.168  22.910  26.775  1.00  0.00     0.001 A 
BRANCH   7  12
ATOM     12  N   UNL A   1      33.762  24.166  22.756  1.00  0.00    -0.321 N 
ATOM     13  C   UNL A   1      33.068  25.221  22.195  1.00  0.00     0.255 C 
ATOM     14  O   UNL A   1      32.748  25.169  21.009  1.00  0.00    -0.269 OA
ATOM     15  H   UNL A   1      34.115  23.528  22.095  1.00  0.00     0.170 HD
BRANCH  13  16
ATOM     16  C   UNL A   1      32.734  26.431  22.975  1.00  0.00     0.042 A 
ATOM     17  C   UNL A   1      31.076  28.059  23.593  1.00  0.00     0.041 A 
ATOM     18  C   UNL A   1      32.094  28.908  24.039  1.00  0.00     0.026 A 
ATOM     19  C   UNL A   1      31.401  26.777  23.178  1.00  0.00     0.040 A 
ATOM     20  C   UNL A   1      33.428  28.487  24.018  1.00  0.00     0.003 A 
ATOM     21  C   UNL A   1      33.754  27.254  23.456  1.00  0.00     0.014 A 
BRANCH  17  22
ATOM     22  N   UNL A   1      29.779  28.579  23.446  1.00  0.00    -0.326 N 
ATOM     23  O   UNL A   1      28.436  26.706  23.860  1.00  0.00    -0.274 OA
ATOM     24  C   UNL A   1      28.584  27.873  23.505  1.00  0.00     0.228 C 
ATOM     25  H   UNL A   1      29.710  29.547  23.283  1.00  0.00     0.169 HD
BRANCH  24  26
ATOM     26  C   UNL A   1      27.387  28.699  23.076  1.00  0.00     0.135 C 
BRANCH  26  27
ATOM     27  C   UNL A   1      27.708  30.114  22.656  1.00  0.00    -0.039 A 
ATOM     28  C   UNL A   1      28.028  30.355  21.313  1.00  0.00     0.004 A 
ATOM     29  C   UNL A   1      27.691  31.197  23.548  1.00  0.00     0.004 A 
ATOM     30  C   UNL A   1      28.365  31.639  20.885  1.00  0.00     0.000 A 
ATOM     31  C   UNL A   1      28.050  32.474  23.125  1.00  0.00     0.000 A 
ATOM     32  C   UNL A   1      28.391  32.695  21.795  1.00  0.00     0.000 A 
ENDBRANCH  26  27
ENDBRANCH  24  26
ENDBRANCH  17  22
ENDBRANCH  13  16
ENDBRANCH   7  12
ENDBRANCH   3   6
ENDBRANCH   1   2
BRANCH   1  33
ATOM     33  C   UNL A   1      39.162  22.562  26.606  1.00  0.00     0.023 C 
BRANCH  33  34
ATOM     34  C   UNL A   1      39.410  21.221  25.913  1.00  0.00     0.023 C 
BRANCH  34  35
ATOM     35  C   UNL A   1      40.155  20.163  26.723  1.00  0.00     0.116 C 
BRANCH  35  36
ATOM     36  N   UNL A   1      41.322  19.617  26.046  1.00  0.00    -0.352 N 
ATOM     37  C   UNL A   1      42.533  20.200  25.752  1.00  0.00     0.251 C 
ATOM     38  H   UNL A   1      41.230  18.682  25.753  1.00  0.00     0.163 HD
ATOM     39  O   UNL A   1      43.353  19.614  25.059  1.00  0.00    -0.269 OA
BRANCH  37  40
ATOM     40  C   UNL A   1      42.833  21.562  26.248  1.00  0.00     0.039 A 
ATOM     41  C   UNL A   1      42.980  22.601  25.324  1.00  0.00     0.014 A 
ATOM     42  C   UNL A   1      42.961  21.818  27.614  1.00  0.00     0.014 A 
ATOM     43  C   UNL A   1      43.162  23.910  25.778  1.00  0.00     0.010 A 
ATOM     44  C   UNL A   1      43.050  23.130  28.066  1.00  0.00     0.010 A 
ATOM     45  C   UNL A   1      43.152  24.192  27.154  1.00  0.00    -0.014 A 
BRANCH  45  46
ATOM     46  C   UNL A   1      43.264  25.585  27.660  1.00  0.00     0.031 A 
ATOM     47  C   UNL A   1      44.620  26.189  27.909  1.00  0.00     0.074 A 
ATOM     48  C   UNL A   1      42.151  26.288  27.953  1.00  0.00     0.049 A 
ATOM     49  N   UNL A   1      44.926  27.351  28.428  1.00  0.00    -0.248 NA
ATOM     50  C   UNL A   1      45.787  25.365  27.554  1.00  0.00     0.031 C 
ATOM     51  C   UNL A   1      40.776  25.802  27.809  1.00  0.00     0.029 A 
ATOM     52  N   UNL A   1      42.000  27.561  28.446  1.00  0.00    -0.354 N 
ATOM     53  C   UNL A   1      46.315  27.392  28.469  1.00  0.00     0.074 A 
ATOM     54  C   UNL A   1      46.790  26.114  27.988  1.00  0.00     0.031 C 
ATOM     55  C   UNL A   1      39.925  26.771  28.185  1.00  0.00     0.029 A 
ATOM     56  C   UNL A   1      40.690  27.933  28.628  1.00  0.00     0.049 A 
ATOM     57  H   UNL A   1      42.761  28.153  28.651  1.00  0.00     0.167 HD
ATOM     58  C   UNL A   1      47.124  28.412  28.840  1.00  0.00     0.037 A 
ATOM     59  C   UNL A   1      40.166  29.079  29.102  1.00  0.00     0.037 A 
ATOM     60  C   UNL A   1      46.656  29.693  29.296  1.00  0.00     0.049 A 
ATOM     61  C   UNL A   1      41.088  30.200  29.501  1.00  0.00     0.074 A 
ATOM     62  C   UNL A   1      47.398  30.798  29.681  1.00  0.00     0.029 A 
ATOM     63  N   UNL A   1      45.321  30.045  29.416  1.00  0.00    -0.354 N 
ATOM     64  N   UNL A   1      42.399  30.237  29.491  1.00  0.00    -0.248 NA
ATOM     65  C   UNL A   1      40.457  31.444  29.964  1.00  0.00     0.031 C 
ATOM     66  C   UNL A   1      46.510  31.811  30.056  1.00  0.00     0.029 A 
ATOM     67  C   UNL A   1      45.217  31.352  29.864  1.00  0.00     0.049 A 
ATOM     68  H   UNL A   1      44.559  29.456  29.214  1.00  0.00     0.167 HD
ATOM     69  C   UNL A   1      42.745  31.516  29.904  1.00  0.00     0.074 A 
ATOM     70  C   UNL A   1      41.509  32.229  30.146  1.00  0.00     0.031 C 
ATOM     71  C   UNL A   1      43.977  32.056  30.070  1.00  0.00     0.037 A 
BRANCH  58  72
ATOM     72  C   UNL A   1      48.605  28.189  28.737  1.00  0.00     0.057 A 
ATOM     73  C   UNL A   1      49.337  27.645  29.802  1.00  0.00     0.134 A 
ATOM     74  C   UNL A   1      49.301  28.484  27.558  1.00  0.00     0.134 A 
ATOM     75  F   UNL A   1      48.733  27.354  30.964  1.00  0.00    -0.206 F 
ATOM     76  C   UNL A   1      50.712  27.425  29.706  1.00  0.00     0.040 A 
ATOM     77  C   UNL A   1      50.671  28.243  27.441  1.00  0.00     0.040 A 
ATOM     78  F   UNL A   1      48.660  29.001  26.500  1.00  0.00    -0.206 F 
ATOM     79  C   UNL A   1      51.382  27.717  28.520  1.00  0.00     0.006 A 
ENDBRANCH  58  72
BRANCH  59  80
ATOM     80  C   UNL A   1      38.692  29.247  29.208  1.00  0.00     0.057 A 
ATOM     81  C   UNL A   1      37.919  29.577  28.088  1.00  0.00     0.134 A 
ATOM     82  C   UNL A   1      38.030  29.128  30.435  1.00  0.00     0.134 A 
ATOM     83  F   UNL A   1      38.498  29.723  26.887  1.00  0.00    -0.206 F 
ATOM     84  C   UNL A   1      36.548  29.819  28.190  1.00  0.00     0.040 A 
ATOM     85  C   UNL A   1      36.654  29.340  30.547  1.00  0.00     0.040 A 
ATOM     86  F   UNL A   1      38.710  28.805  31.545  1.00  0.00    -0.206 F 
ATOM     87  C   UNL A   1      35.911  29.698  29.424  1.00  0.00     0.006 A 
ENDBRANCH  59  80
BRANCH  71  88
ATOM     88  C   UNL A   1      44.049  33.500  30.466  1.00  0.00     0.057 A 
ATOM     89  C   UNL A   1      44.080  34.532  29.520  1.00  0.00     0.134 A 
ATOM     90  C   UNL A   1      44.055  33.862  31.820  1.00  0.00     0.134 A 
ATOM     91  F   UNL A   1      44.087  34.251  28.208  1.00  0.00    -0.206 F 
ATOM     92  C   UNL A   1      44.146  35.872  29.906  1.00  0.00     0.040 A 
ATOM     93  C   UNL A   1      44.094  35.199  32.217  1.00  0.00     0.040 A 
ATOM     94  F   UNL A   1      44.017  32.923  32.777  1.00  0.00    -0.206 F 
ATOM     95  C   UNL A   1      44.147  36.208  31.258  1.00  0.00     0.006 A 
ENDBRANCH  71  88
ENDBRANCH  45  46
ENDBRANCH  37  40
ENDBRANCH  35  36
ENDBRANCH  34  35
ENDBRANCH  33  34
ENDBRANCH   1  33
TORSDOF 16
ENDMDL
MODEL 3
REMARK VINA RESULT:     -12.5      2.247      4.047
REMARK SMILES O=C(Cc1ccccc1)Nc1cccc(C(=O)Nc2ccccc2C(=O)NCCCCNC(=O)c2ccc(-c3c4nc(c(-c5c(F)cccc5F)c5ccc([nH]5)c(-c5c(F)cccc5F)c5nc(c(-c6c(F)cccc6F)c6ccc3[nH]6)C=C5)C=C4)cc2)c1
REMARK SMILES IDX 28 1 27 2 25 3 26 4 24 6 19 7 20 8 21 9 23 10 22 11 18 12
REMARK SMILES IDX 16 13 17 14 15 16 11 17 12 18 89 19 13 20 14 21 10 22 1 23
REMARK SMILES IDX 2 24 3 26 4 27 5 28 9 29 6 30 8 31 7 32 29 33 30 34 31 35
REMARK SMILES IDX 32 36 33 37 34 39 35 40 36 41 88 42 37 43 87 44 38 45 39 46
REMARK SMILES IDX 40 47 81 48 41 49 86 50 80 51 82 52 42 53 85 54 79 55 78 56
REMARK SMILES IDX 43 58 69 59 52 60 68 61 53 62 56 63 67 64 83 65 54 66 55 67
REMARK SMILES IDX 66 69 84 70 57 71 44 72 45 73 50 74 46 75 47 76 49 77 51 78
REMARK SMILES IDX 48 79 70 80 71 81 76 82 72 83 73 84 75 85 77 86 74 87 58 88
REMARK SMILES IDX 59 89 64 90 60 91 61 92 63 93 65 94 62 95
REMARK H PARENT 27 5 18 15 10 25 32 38 82 57 56 68
REMARK Flexibility Score: inf
ROOT
ATOM      1  C   UNL A   1      33.399  20.350  25.267  1.00  0.00     0.116 C 
ENDROOT
BRANCH   1   2
ATOM      2  N   UNL A   1      32.773  20.612  23.990  1.00  0.00    -0.352 N 
ATOM      3  C   UNL A   1      32.197  21.768  23.527  1.00  0.00     0.253 C 
ATOM      4  O   UNL A   1      31.679  21.745  22.408  1.00  0.00    -0.269 OA
ATOM      5  H   UNL A   1      32.758  19.853  23.364  1.00  0.00     0.163 HD
BRANCH   3   6
ATOM      6  C   UNL A   1      32.077  22.996  24.365  1.00  0.00     0.063 A 
ATOM      7  C   UNL A   1      32.657  24.264  24.139  1.00  0.00     0.054 A 
ATOM      8  C   UNL A   1      32.559  25.231  25.159  1.00  0.00     0.027 A 
ATOM      9  C   UNL A   1      31.792  25.012  26.305  1.00  0.00     0.002 A 
ATOM     10  C   UNL A   1      31.292  22.799  25.524  1.00  0.00     0.016 A 
ATOM     11  C   UNL A   1      31.133  23.803  26.476  1.00  0.00     0.001 A 
BRANCH   7  12
ATOM     12  N   UNL A   1      33.301  24.745  22.969  1.00  0.00    -0.321 N 
ATOM     13  C   UNL A   1      33.068  25.837  22.155  1.00  0.00     0.255 C 
ATOM     14  O   UNL A   1      33.633  25.907  21.064  1.00  0.00    -0.269 OA
ATOM     15  H   UNL A   1      34.063  24.192  22.682  1.00  0.00     0.170 HD
BRANCH  13  16
ATOM     16  C   UNL A   1      32.188  26.946  22.578  1.00  0.00     0.042 A 
ATOM     17  C   UNL A   1      31.884  28.884  23.967  1.00  0.00     0.041 A 
ATOM     18  C   UNL A   1      30.504  28.801  23.760  1.00  0.00     0.026 A 
ATOM     19  C   UNL A   1      32.723  28.027  23.273  1.00  0.00     0.040 A 
ATOM     20  C   UNL A   1      29.973  27.832  22.902  1.00  0.00     0.003 A 
ATOM     21  C   UNL A   1      30.815  26.880  22.331  1.00  0.00     0.014 A 
BRANCH  17  22
ATOM     22  N   UNL A   1      32.366  29.735  24.977  1.00  0.00    -0.326 N 
ATOM     23  O   UNL A   1      31.710  28.621  26.929  1.00  0.00    -0.274 OA
ATOM     24  C   UNL A   1      32.180  29.595  26.347  1.00  0.00     0.228 C 
ATOM     25  H   UNL A   1      32.891  30.514  24.682  1.00  0.00     0.169 HD
BRANCH  24  26
ATOM     26  C   UNL A   1      32.635  30.809  27.133  1.00  0.00     0.135 C 
BRANCH  26  27
ATOM     27  C   UNL A   1      34.101  30.819  27.498  1.00  0.00    -0.039 A 
ATOM     28  C   UNL A   1      34.805  29.608  27.463  1.00  0.00     0.004 A 
ATOM     29  C   UNL A   1      34.789  31.987  27.861  1.00  0.00     0.004 A 
ATOM     30  C   UNL A   1      36.152  29.561  27.825  1.00  0.00     0.000 A 
ATOM     31  C   UNL A   1      36.126  31.936  28.246  1.00  0.00     0.000 A 
ATOM     32  C   UNL A   1      36.807  30.723  28.231  1.00  0.00     0.000 A 
ENDBRANCH  26  27
ENDBRANCH  24  26
ENDBRANCH  17  22
ENDBRANCH  13  16
ENDBRANCH   7  12
ENDBRANCH   3   6
ENDBRANCH   1   2
BRANCH   1  33
ATOM     33  C   UNL A   1      34.843  20.820  25.359  1.00  0.00     0.023 C 
BRANCH  33  34
ATOM     34  C   UNL A   1      35.066  22.151  26.078  1.00  0.00     0.023 C 
BRANCH  34  35
ATOM     35  C   UNL A   1      36.495  22.686  26.095  1.00  0.00     0.116 C 
BRANCH  35  36
ATOM     36  N   UNL A   1      37.512  21.653  25.971  1.00  0.00    -0.352 N 
ATOM     37  C   UNL A   1      38.875  21.720  26.148  1.00  0.00     0.251 C 
ATOM     38  H   UNL A   1      37.170  20.764  25.721  1.00  0.00     0.163 HD
ATOM     39  O   UNL A   1      39.585  20.763  25.874  1.00  0.00    -0.269 OA
BRANCH  37  40
ATOM     40  C   UNL A   1      39.491  22.972  26.641  1.00  0.00     0.039 A 
ATOM     41  C   UNL A   1      40.474  22.897  27.632  1.00  0.00     0.014 A 
ATOM     42  C   UNL A   1      39.110  24.212  26.126  1.00  0.00     0.014 A 
ATOM     43  C   UNL A   1      41.138  24.059  28.037  1.00  0.00     0.010 A 
ATOM     44  C   UNL A   1      39.833  25.352  26.463  1.00  0.00     0.010 A 
ATOM     45  C   UNL A   1      40.855  25.290  27.423  1.00  0.00    -0.014 A 
BRANCH  45  46
ATOM     46  C   UNL A   1      41.603  26.524  27.779  1.00  0.00     0.031 A 
ATOM     47  C   UNL A   1      43.020  26.709  27.305  1.00  0.00     0.074 A 
ATOM     48  C   UNL A   1      41.034  27.451  28.576  1.00  0.00     0.049 A 
ATOM     49  N   UNL A   1      43.866  27.669  27.580  1.00  0.00    -0.248 NA
ATOM     50  C   UNL A   1      43.567  25.660  26.430  1.00  0.00     0.031 C 
ATOM     51  C   UNL A   1      39.688  27.370  29.148  1.00  0.00     0.029 A 
ATOM     52  N   UNL A   1      41.524  28.641  29.055  1.00  0.00    -0.354 N 
ATOM     53  C   UNL A   1      45.043  27.334  26.921  1.00  0.00     0.074 A 
ATOM     54  C   UNL A   1      44.825  26.051  26.290  1.00  0.00     0.031 C 
ATOM     55  C   UNL A   1      39.454  28.472  29.881  1.00  0.00     0.029 A 
ATOM     56  C   UNL A   1      40.641  29.320  29.860  1.00  0.00     0.049 A 
ATOM     57  H   UNL A   1      42.425  28.978  28.840  1.00  0.00     0.167 HD
ATOM     58  C   UNL A   1      46.190  28.045  26.818  1.00  0.00     0.037 A 
ATOM     59  C   UNL A   1      40.776  30.491  30.512  1.00  0.00     0.037 A 
ATOM     60  C   UNL A   1      46.403  29.333  27.423  1.00  0.00     0.049 A 
ATOM     61  C   UNL A   1      42.061  31.264  30.375  1.00  0.00     0.074 A 
ATOM     62  C   UNL A   1      47.527  30.140  27.365  1.00  0.00     0.029 A 
ATOM     63  N   UNL A   1      45.464  30.007  28.188  1.00  0.00    -0.354 N 
ATOM     64  N   UNL A   1      43.147  30.953  29.710  1.00  0.00    -0.248 NA
ATOM     65  C   UNL A   1      42.132  32.558  31.068  1.00  0.00     0.031 C 
ATOM     66  C   UNL A   1      47.275  31.293  28.115  1.00  0.00     0.029 A 
ATOM     67  C   UNL A   1      45.981  31.223  28.603  1.00  0.00     0.049 A 
ATOM     68  H   UNL A   1      44.565  29.672  28.405  1.00  0.00     0.167 HD
ATOM     69  C   UNL A   1      44.011  32.029  29.871  1.00  0.00     0.074 A 
ATOM     70  C   UNL A   1      43.319  33.005  30.685  1.00  0.00     0.031 C 
ATOM     71  C   UNL A   1      45.266  32.196  29.388  1.00  0.00     0.037 A 
BRANCH  58  72
ATOM     72  C   UNL A   1      47.296  27.454  25.993  1.00  0.00     0.057 A 
ATOM     73  C   UNL A   1      47.364  27.659  24.607  1.00  0.00     0.134 A 
ATOM     74  C   UNL A   1      48.320  26.704  26.585  1.00  0.00     0.134 A 
ATOM     75  F   UNL A   1      46.407  28.356  23.976  1.00  0.00    -0.206 F 
ATOM     76  C   UNL A   1      48.396  27.122  23.838  1.00  0.00     0.040 A 
ATOM     77  C   UNL A   1      49.373  26.184  25.830  1.00  0.00     0.040 A 
ATOM     78  F   UNL A   1      48.319  26.474  27.906  1.00  0.00    -0.206 F 
ATOM     79  C   UNL A   1      49.410  26.388  24.451  1.00  0.00     0.006 A 
ENDBRANCH  58  72
BRANCH  59  80
ATOM     80  C   UNL A   1      39.662  31.027  31.337  1.00  0.00     0.057 A 
ATOM     81  C   UNL A   1      38.858  32.075  30.873  1.00  0.00     0.134 A 
ATOM     82  C   UNL A   1      39.406  30.539  32.623  1.00  0.00     0.134 A 
ATOM     83  F   UNL A   1      39.066  32.598  29.656  1.00  0.00    -0.206 F 
ATOM     84  C   UNL A   1      37.863  32.643  31.671  1.00  0.00     0.040 A 
ATOM     85  C   UNL A   1      38.396  31.079  33.422  1.00  0.00     0.040 A 
ATOM     86  F   UNL A   1      40.134  29.530  33.124  1.00  0.00    -0.206 F 
ATOM     87  C   UNL A   1      37.628  32.143  32.951  1.00  0.00     0.006 A 
ENDBRANCH  59  80
BRANCH  71  88
ATOM     88  C   UNL A   1      45.943  33.505  29.669  1.00  0.00     0.057 A 
ATOM     89  C   UNL A   1      45.816  34.607  28.815  1.00  0.00     0.134 A 
ATOM     90  C   UNL A   1      46.709  33.669  30.831  1.00  0.00     0.134 A 
ATOM     91  F   UNL A   1      45.106  34.511  27.681  1.00  0.00    -0.206 F 
ATOM     92  C   UNL A   1      46.454  35.818  29.091  1.00  0.00     0.040 A 
ATOM     93  C   UNL A   1      47.327  34.883  31.131  1.00  0.00     0.040 A 
ATOM     94  F   UNL A   1      46.861  32.655  31.697  1.00  0.00    -0.206 F 
ATOM     95  C   UNL A   1      47.206  35.960  30.255  1.00  0.00     0.006 A 
ENDBRANCH  71  88
ENDBRANCH  45  46
ENDBRANCH  37  40
ENDBRANCH  35  36
ENDBRANCH  34  35
ENDBRANCH  33  34
ENDBRANCH   1  33
TORSDOF 16
ENDMDL
