MODEL 1
REMARK VINA RESULT:     -12.3      0.000      0.000
REMARK SMILES CCn1ncc(NC(=O)[C@@H]2CCCC[C@@H]2C(=O)NCCCCNC(=O)c2ccc(-c3c4nc(c(-c5c(F)cccc5F)c5ccc([nH]5)c(-c5c(F)cccc5F)c5nc(c(-c6c(F)cccc6F)c6ccc3[nH]6)C=C5)C=C4)cc2)c1C(=O)Nc1cnn(C)c1C
REMARK SMILES IDX 19 1 18 2 16 3 17 4 15 6 10 7 11 8 12 9 14 10 13 11 8 12
REMARK SMILES IDX 7 13 9 15 6 16 3 17 4 18 80 19 5 20 2 21 1 22 81 23 82 24
REMARK SMILES IDX 83 25 84 27 85 28 89 29 86 30 87 31 90 32 88 33 20 34 21 35
REMARK SMILES IDX 22 36 23 37 24 38 25 40 26 41 27 42 79 43 28 44 78 45 29 46
REMARK SMILES IDX 30 47 31 48 72 49 32 50 77 51 71 52 73 53 33 54 76 55 70 56
REMARK SMILES IDX 69 57 34 59 60 60 43 61 59 62 44 63 47 64 58 65 74 66 45 67
REMARK SMILES IDX 46 68 57 70 75 71 48 72 35 73 36 74 41 75 37 76 38 77 40 78
REMARK SMILES IDX 42 79 39 80 61 81 62 82 67 83 63 84 64 85 66 86 68 87 65 88
REMARK SMILES IDX 49 89 50 90 55 91 51 92 52 93 54 94 56 95 53 96
REMARK H PARENT 18 5 7 14 83 26 23 39 73 58 47 69
REMARK Flexibility Score: inf
ROOT
ATOM      1  C   UNL A   1      34.105  28.742  26.306  1.00  0.00     0.116 C 
ENDROOT
BRANCH   1   2
ATOM      2  N   UNL A   1      33.885  28.974  24.896  1.00  0.00    -0.356 N 
ATOM      3  C   UNL A   1      33.202  28.293  23.940  1.00  0.00     0.223 C 
ATOM      4  O   UNL A   1      33.247  28.803  22.815  1.00  0.00    -0.275 OA
ATOM      5  H   UNL A   1      34.318  29.793  24.560  1.00  0.00     0.163 HD
BRANCH   3   6
ATOM      6  C   UNL A   1      32.436  26.974  24.195  1.00  0.00     0.091 C 
ATOM      7  C   UNL A   1      31.966  26.351  22.848  1.00  0.00     0.091 C 
ATOM      8  C   UNL A   1      31.119  27.374  22.071  1.00  0.00     0.014 C 
ATOM      9  C   UNL A   1      29.904  27.810  22.899  1.00  0.00     0.001 C 
ATOM     10  C   UNL A   1      31.123  27.067  24.996  1.00  0.00     0.014 C 
ATOM     11  C   UNL A   1      30.173  28.088  24.375  1.00  0.00     0.001 C 
BRANCH   7  12
ATOM     12  C   UNL A   1      33.005  25.562  22.069  1.00  0.00     0.228 C 
ATOM     13  N   UNL A   1      33.404  24.321  22.500  1.00  0.00    -0.322 N 
ATOM     14  H   UNL A   1      34.071  23.892  21.917  1.00  0.00     0.170 HD
ATOM     15  O   UNL A   1      33.527  26.006  21.044  1.00  0.00    -0.274 OA
BRANCH  13  16
ATOM     16  C   UNL A   1      33.046  23.555  23.604  1.00  0.00     0.092 A 
ATOM     17  N   UNL A   1      32.364  22.856  25.542  1.00  0.00    -0.258 N 
ATOM     18  N   UNL A   1      31.776  22.007  24.672  1.00  0.00    -0.178 NA
ATOM     19  C   UNL A   1      33.403  23.573  24.964  1.00  0.00     0.150 A 
ATOM     20  C   UNL A   1      32.169  22.457  23.488  1.00  0.00     0.162 A 
BRANCH  17  21
ATOM     21  C   UNL A   1      31.741  22.922  26.849  1.00  0.00     0.142 C 
ATOM     22  C   UNL A   1      30.223  22.926  26.818  1.00  0.00     0.029 C 
ENDBRANCH  17  21
BRANCH  19  23
ATOM     23  C   UNL A   1      34.614  24.151  25.554  1.00  0.00     0.276 C 
ATOM     24  O   UNL A   1      34.760  25.371  25.654  1.00  0.00    -0.267 OA
ATOM     25  N   UNL A   1      35.486  23.362  26.273  1.00  0.00    -0.318 N 
ATOM     26  H   UNL A   1      35.473  23.475  27.252  1.00  0.00     0.170 HD
BRANCH  25  27
ATOM     27  C   UNL A   1      36.372  22.436  25.775  1.00  0.00     0.082 A 
ATOM     28  C   UNL A   1      36.137  21.221  25.108  1.00  0.00     0.161 A 
ATOM     29  C   UNL A   1      37.748  22.550  25.855  1.00  0.00     0.059 A 
ATOM     30  N   UNL A   1      37.265  20.533  24.921  1.00  0.00    -0.179 NA
ATOM     31  N   UNL A   1      38.220  21.324  25.449  1.00  0.00    -0.271 N 
ATOM     32  C   UNL A   1      38.633  23.607  26.411  1.00  0.00     0.068 C 
ATOM     33  C   UNL A   1      39.524  20.752  25.698  1.00  0.00     0.174 C 
ENDBRANCH  25  27
ENDBRANCH  19  23
ENDBRANCH  13  16
ENDBRANCH   7  12
ENDBRANCH   3   6
ENDBRANCH   1   2
BRANCH   1  34
ATOM     34  C   UNL A   1      33.028  29.353  27.191  1.00  0.00     0.023 C 
BRANCH  34  35
ATOM     35  C   UNL A   1      33.048  30.875  27.324  1.00  0.00     0.023 C 
BRANCH  35  36
ATOM     36  C   UNL A   1      34.391  31.452  27.745  1.00  0.00     0.116 C 
BRANCH  36  37
ATOM     37  N   UNL A   1      34.349  32.106  29.052  1.00  0.00    -0.352 N 
ATOM     38  C   UNL A   1      35.157  31.837  30.134  1.00  0.00     0.251 C 
ATOM     39  H   UNL A   1      33.672  32.812  29.171  1.00  0.00     0.163 HD
ATOM     40  O   UNL A   1      34.828  32.155  31.279  1.00  0.00    -0.269 OA
BRANCH  38  41
ATOM     41  C   UNL A   1      36.449  31.185  29.891  1.00  0.00     0.039 A 
ATOM     42  C   UNL A   1      37.606  31.920  29.622  1.00  0.00     0.014 A 
ATOM     43  C   UNL A   1      36.482  29.792  29.984  1.00  0.00     0.014 A 
ATOM     44  C   UNL A   1      38.815  31.240  29.512  1.00  0.00     0.010 A 
ATOM     45  C   UNL A   1      37.686  29.141  30.011  1.00  0.00     0.010 A 
ATOM     46  C   UNL A   1      38.845  29.850  29.723  1.00  0.00    -0.014 A 
BRANCH  46  47
ATOM     47  C   UNL A   1      40.109  29.129  29.782  1.00  0.00     0.031 A 
ATOM     48  C   UNL A   1      40.644  28.969  31.160  1.00  0.00     0.074 A 
ATOM     49  C   UNL A   1      40.630  28.473  28.722  1.00  0.00     0.049 A 
ATOM     50  N   UNL A   1      41.669  29.563  31.670  1.00  0.00    -0.248 NA
ATOM     51  C   UNL A   1      39.863  28.190  32.136  1.00  0.00     0.031 C 
ATOM     52  C   UNL A   1      40.045  28.276  27.390  1.00  0.00     0.029 A 
ATOM     53  N   UNL A   1      41.782  27.756  28.644  1.00  0.00    -0.354 N 
ATOM     54  C   UNL A   1      41.800  29.060  32.961  1.00  0.00     0.074 A 
ATOM     55  C   UNL A   1      40.564  28.386  33.256  1.00  0.00     0.031 C 
ATOM     56  C   UNL A   1      40.731  27.316  26.728  1.00  0.00     0.029 A 
ATOM     57  C   UNL A   1      41.897  26.954  27.512  1.00  0.00     0.049 A 
ATOM     58  H   UNL A   1      42.481  27.799  29.337  1.00  0.00     0.167 HD
ATOM     59  C   UNL A   1      43.018  29.018  33.569  1.00  0.00     0.037 A 
ATOM     60  C   UNL A   1      42.877  26.050  27.259  1.00  0.00     0.037 A 
ATOM     61  C   UNL A   1      43.973  29.832  32.858  1.00  0.00     0.049 A 
ATOM     62  C   UNL A   1      44.026  26.395  28.133  1.00  0.00     0.074 A 
ATOM     63  C   UNL A   1      44.065  31.172  32.533  1.00  0.00     0.029 A 
ATOM     64  N   UNL A   1      44.841  29.181  32.014  1.00  0.00    -0.354 N 
ATOM     65  N   UNL A   1      44.738  27.479  27.992  1.00  0.00    -0.248 NA
ATOM     66  C   UNL A   1      44.073  25.783  29.451  1.00  0.00     0.031 C 
ATOM     67  C   UNL A   1      44.599  31.192  31.210  1.00  0.00     0.029 A 
ATOM     68  C   UNL A   1      44.883  29.878  30.836  1.00  0.00     0.049 A 
ATOM     69  H   UNL A   1      45.342  28.360  32.219  1.00  0.00     0.167 HD
ATOM     70  C   UNL A   1      44.947  27.931  29.286  1.00  0.00     0.074 A 
ATOM     71  C   UNL A   1      44.585  26.803  30.145  1.00  0.00     0.031 C 
ATOM     72  C   UNL A   1      45.103  29.261  29.548  1.00  0.00     0.037 A 
BRANCH  59  73
ATOM     73  C   UNL A   1      43.467  27.948  34.536  1.00  0.00     0.057 A 
ATOM     74  C   UNL A   1      43.927  28.334  35.809  1.00  0.00     0.134 A 
ATOM     75  C   UNL A   1      43.758  26.618  34.174  1.00  0.00     0.134 A 
ATOM     76  F   UNL A   1      43.721  29.578  36.269  1.00  0.00    -0.206 F 
ATOM     77  C   UNL A   1      44.696  27.489  36.619  1.00  0.00     0.040 A 
ATOM     78  C   UNL A   1      44.480  25.750  34.997  1.00  0.00     0.040 A 
ATOM     79  F   UNL A   1      43.458  26.118  32.970  1.00  0.00    -0.206 F 
ATOM     80  C   UNL A   1      44.983  26.194  36.209  1.00  0.00     0.006 A 
ENDBRANCH  59  73
BRANCH  60  81
ATOM     81  C   UNL A   1      42.799  24.746  26.558  1.00  0.00     0.057 A 
ATOM     82  C   UNL A   1      43.495  24.523  25.360  1.00  0.00     0.134 A 
ATOM     83  C   UNL A   1      42.293  23.600  27.197  1.00  0.00     0.134 A 
ATOM     84  F   UNL A   1      44.047  25.547  24.693  1.00  0.00    -0.206 F 
ATOM     85  C   UNL A   1      43.710  23.236  24.847  1.00  0.00     0.040 A 
ATOM     86  C   UNL A   1      42.499  22.310  26.696  1.00  0.00     0.040 A 
ATOM     87  F   UNL A   1      41.662  23.689  28.377  1.00  0.00    -0.206 F 
ATOM     88  C   UNL A   1      43.223  22.122  25.525  1.00  0.00     0.006 A 
ENDBRANCH  60  81
BRANCH  72  89
ATOM     89  C   UNL A   1      45.308  30.191  28.382  1.00  0.00     0.057 A 
ATOM     90  C   UNL A   1      44.275  30.843  27.689  1.00  0.00     0.134 A 
ATOM     91  C   UNL A   1      46.616  30.556  28.048  1.00  0.00     0.134 A 
ATOM     92  F   UNL A   1      42.989  30.633  27.998  1.00  0.00    -0.206 F 
ATOM     93  C   UNL A   1      44.536  31.785  26.687  1.00  0.00     0.040 A 
ATOM     94  C   UNL A   1      46.892  31.518  27.074  1.00  0.00     0.040 A 
ATOM     95  F   UNL A   1      47.655  30.013  28.703  1.00  0.00    -0.206 F 
ATOM     96  C   UNL A   1      45.849  32.130  26.383  1.00  0.00     0.006 A 
ENDBRANCH  72  89
ENDBRANCH  46  47
ENDBRANCH  38  41
ENDBRANCH  36  37
ENDBRANCH  35  36
ENDBRANCH  34  35
ENDBRANCH   1  34
TORSDOF 16
ENDMDL
MODEL 2
REMARK VINA RESULT:     -12.1      2.342      8.046
REMARK SMILES CCn1ncc(NC(=O)[C@@H]2CCCC[C@@H]2C(=O)NCCCCNC(=O)c2ccc(-c3c4nc(c(-c5c(F)cccc5F)c5ccc([nH]5)c(-c5c(F)cccc5F)c5nc(c(-c6c(F)cccc6F)c6ccc3[nH]6)C=C5)C=C4)cc2)c1C(=O)Nc1cnn(C)c1C
REMARK SMILES IDX 19 1 18 2 16 3 17 4 15 6 10 7 11 8 12 9 14 10 13 11 8 12
REMARK SMILES IDX 7 13 9 15 6 16 3 17 4 18 80 19 5 20 2 21 1 22 81 23 82 24
REMARK SMILES IDX 83 25 84 27 85 28 89 29 86 30 87 31 90 32 88 33 20 34 21 35
REMARK SMILES IDX 22 36 23 37 24 38 25 40 26 41 27 42 79 43 28 44 78 45 29 46
REMARK SMILES IDX 30 47 31 48 72 49 32 50 77 51 71 52 73 53 33 54 76 55 70 56
REMARK SMILES IDX 69 57 34 59 60 60 43 61 59 62 44 63 47 64 58 65 74 66 45 67
REMARK SMILES IDX 46 68 57 70 75 71 48 72 35 73 36 74 41 75 37 76 38 77 40 78
REMARK SMILES IDX 42 79 39 80 61 81 62 82 67 83 63 84 64 85 66 86 68 87 65 88
REMARK SMILES IDX 49 89 50 90 55 91 51 92 52 93 54 94 56 95 53 96
REMARK H PARENT 18 5 7 14 83 26 23 39 73 58 47 69
REMARK Flexibility Score: inf
ROOT
ATOM      1  C   UNL A   1      36.711  23.654  25.738  1.00  0.00     0.116 C 
ENDROOT
BRANCH   1   2
ATOM      2  N   UNL A   1      35.757  22.807  26.418  1.00  0.00    -0.356 N 
ATOM      3  C   UNL A   1      34.417  22.626  26.284  1.00  0.00     0.223 C 
ATOM      4  O   UNL A   1      33.930  21.805  27.068  1.00  0.00    -0.275 OA
ATOM      5  H   UNL A   1      36.160  22.247  27.121  1.00  0.00     0.163 HD
BRANCH   3   6
ATOM      6  C   UNL A   1      33.539  23.383  25.260  1.00  0.00     0.091 C 
ATOM      7  C   UNL A   1      32.040  23.009  25.453  1.00  0.00     0.091 C 
ATOM      8  C   UNL A   1      31.868  21.483  25.353  1.00  0.00     0.014 C 
ATOM      9  C   UNL A   1      32.364  20.972  23.996  1.00  0.00     0.001 C 
ATOM     10  C   UNL A   1      33.771  23.071  23.769  1.00  0.00     0.014 C 
ATOM     11  C   UNL A   1      33.678  21.571  23.501  1.00  0.00     0.001 C 
BRANCH   7  12
ATOM     12  C   UNL A   1      31.303  23.727  26.571  1.00  0.00     0.228 C 
ATOM     13  N   UNL A   1      30.866  25.018  26.400  1.00  0.00    -0.322 N 
ATOM     14  H   UNL A   1      30.390  25.384  27.180  1.00  0.00     0.170 HD
ATOM     15  O   UNL A   1      31.085  23.189  27.660  1.00  0.00    -0.274 OA
BRANCH  13  16
ATOM     16  C   UNL A   1      30.967  25.906  25.335  1.00  0.00     0.092 A 
ATOM     17  N   UNL A   1      31.569  26.982  23.549  1.00  0.00    -0.258 N 
ATOM     18  N   UNL A   1      30.231  26.854  23.409  1.00  0.00    -0.178 NA
ATOM     19  C   UNL A   1      31.991  26.737  24.849  1.00  0.00     0.150 A 
ATOM     20  C   UNL A   1      29.872  26.168  24.486  1.00  0.00     0.162 A 
BRANCH  17  21
ATOM     21  C   UNL A   1      32.291  27.245  22.320  1.00  0.00     0.142 C 
ATOM     22  C   UNL A   1      33.087  26.062  21.798  1.00  0.00     0.029 C 
ENDBRANCH  17  21
BRANCH  19  23
ATOM     23  C   UNL A   1      33.149  27.244  25.593  1.00  0.00     0.276 C 
ATOM     24  O   UNL A   1      33.955  26.478  26.126  1.00  0.00    -0.267 OA
ATOM     25  N   UNL A   1      33.533  28.561  25.474  1.00  0.00    -0.318 N 
ATOM     26  H   UNL A   1      34.342  28.735  24.940  1.00  0.00     0.170 HD
BRANCH  25  27
ATOM     27  C   UNL A   1      32.911  29.661  26.020  1.00  0.00     0.082 A 
ATOM     28  C   UNL A   1      31.648  30.216  25.752  1.00  0.00     0.161 A 
ATOM     29  C   UNL A   1      33.467  30.467  26.996  1.00  0.00     0.059 A 
ATOM     30  N   UNL A   1      31.474  31.378  26.385  1.00  0.00    -0.179 NA
ATOM     31  N   UNL A   1      32.620  31.548  27.074  1.00  0.00    -0.271 N 
ATOM     32  C   UNL A   1      34.761  30.407  27.726  1.00  0.00     0.068 C 
ATOM     33  C   UNL A   1      32.901  32.854  27.626  1.00  0.00     0.174 C 
ENDBRANCH  25  27
ENDBRANCH  19  23
ENDBRANCH  13  16
ENDBRANCH   7  12
ENDBRANCH   3   6
ENDBRANCH   1   2
BRANCH   1  34
ATOM     34  C   UNL A   1      38.135  23.487  26.248  1.00  0.00     0.023 C 
BRANCH  34  35
ATOM     35  C   UNL A   1      38.813  22.157  25.928  1.00  0.00     0.023 C 
BRANCH  35  36
ATOM     36  C   UNL A   1      40.019  21.838  26.799  1.00  0.00     0.116 C 
BRANCH  36  37
ATOM     37  N   UNL A   1      41.288  21.942  26.081  1.00  0.00    -0.352 N 
ATOM     38  C   UNL A   1      42.001  23.093  25.831  1.00  0.00     0.251 C 
ATOM     39  H   UNL A   1      41.674  21.101  25.742  1.00  0.00     0.163 HD
ATOM     40  O   UNL A   1      42.840  23.148  24.930  1.00  0.00    -0.269 OA
BRANCH  38  41
ATOM     41  C   UNL A   1      41.761  24.259  26.690  1.00  0.00     0.039 A 
ATOM     42  C   UNL A   1      42.244  24.320  28.000  1.00  0.00     0.014 A 
ATOM     43  C   UNL A   1      41.065  25.328  26.126  1.00  0.00     0.014 A 
ATOM     44  C   UNL A   1      42.076  25.501  28.716  1.00  0.00     0.010 A 
ATOM     45  C   UNL A   1      41.018  26.531  26.779  1.00  0.00     0.010 A 
ATOM     46  C   UNL A   1      41.472  26.606  28.090  1.00  0.00    -0.014 A 
BRANCH  46  47
ATOM     47  C   UNL A   1      41.427  27.906  28.745  1.00  0.00     0.031 A 
ATOM     48  C   UNL A   1      42.551  28.805  28.372  1.00  0.00     0.074 A 
ATOM     49  C   UNL A   1      40.354  28.338  29.443  1.00  0.00     0.049 A 
ATOM     50  N   UNL A   1      43.546  29.155  29.115  1.00  0.00    -0.248 NA
ATOM     51  C   UNL A   1      42.678  29.234  26.969  1.00  0.00     0.031 C 
ATOM     52  C   UNL A   1      39.052  27.685  29.617  1.00  0.00     0.029 A 
ATOM     53  N   UNL A   1      40.176  29.523  30.087  1.00  0.00    -0.354 N 
ATOM     54  C   UNL A   1      44.305  30.034  28.348  1.00  0.00     0.074 A 
ATOM     55  C   UNL A   1      43.843  29.886  26.994  1.00  0.00     0.031 C 
ATOM     56  C   UNL A   1      38.160  28.571  30.117  1.00  0.00     0.029 A 
ATOM     57  C   UNL A   1      38.862  29.795  30.457  1.00  0.00     0.049 A 
ATOM     58  H   UNL A   1      40.920  30.141  30.275  1.00  0.00     0.167 HD
ATOM     59  C   UNL A   1      45.065  30.996  28.943  1.00  0.00     0.037 A 
ATOM     60  C   UNL A   1      38.397  30.953  30.990  1.00  0.00     0.037 A 
ATOM     61  C   UNL A   1      45.209  30.733  30.354  1.00  0.00     0.049 A 
ATOM     62  C   UNL A   1      39.567  31.681  31.541  1.00  0.00     0.074 A 
ATOM     63  C   UNL A   1      45.738  29.703  31.107  1.00  0.00     0.029 A 
ATOM     64  N   UNL A   1      44.396  31.442  31.206  1.00  0.00    -0.354 N 
ATOM     65  N   UNL A   1      40.250  31.269  32.573  1.00  0.00    -0.248 NA
ATOM     66  C   UNL A   1      40.265  32.599  30.655  1.00  0.00     0.031 C 
ATOM     67  C   UNL A   1      44.846  29.562  32.212  1.00  0.00     0.029 A 
ATOM     68  C   UNL A   1      43.878  30.564  32.119  1.00  0.00     0.049 A 
ATOM     69  H   UNL A   1      44.217  32.409  31.165  1.00  0.00     0.167 HD
ATOM     70  C   UNL A   1      41.574  31.500  32.230  1.00  0.00     0.074 A 
ATOM     71  C   UNL A   1      41.517  32.394  31.074  1.00  0.00     0.031 C 
ATOM     72  C   UNL A   1      42.574  30.711  32.723  1.00  0.00     0.037 A 
BRANCH  59  73
ATOM     73  C   UNL A   1      45.328  32.368  28.370  1.00  0.00     0.057 A 
ATOM     74  C   UNL A   1      44.237  33.225  28.132  1.00  0.00     0.134 A 
ATOM     75  C   UNL A   1      46.538  32.759  27.762  1.00  0.00     0.134 A 
ATOM     76  F   UNL A   1      43.027  32.959  28.648  1.00  0.00    -0.206 F 
ATOM     77  C   UNL A   1      44.322  34.333  27.282  1.00  0.00     0.040 A 
ATOM     78  C   UNL A   1      46.646  33.894  26.953  1.00  0.00     0.040 A 
ATOM     79  F   UNL A   1      47.648  32.017  27.826  1.00  0.00    -0.206 F 
ATOM     80  C   UNL A   1      45.529  34.666  26.681  1.00  0.00     0.006 A 
ENDBRANCH  59  73
BRANCH  60  81
ATOM     81  C   UNL A   1      37.088  31.621  30.796  1.00  0.00     0.057 A 
ATOM     82  C   UNL A   1      36.117  31.622  31.809  1.00  0.00     0.134 A 
ATOM     83  C   UNL A   1      36.877  32.527  29.741  1.00  0.00     0.134 A 
ATOM     84  F   UNL A   1      36.245  30.821  32.876  1.00  0.00    -0.206 F 
ATOM     85  C   UNL A   1      35.021  32.497  31.795  1.00  0.00     0.040 A 
ATOM     86  C   UNL A   1      35.787  33.405  29.714  1.00  0.00     0.040 A 
ATOM     87  F   UNL A   1      37.771  32.653  28.749  1.00  0.00    -0.206 F 
ATOM     88  C   UNL A   1      34.863  33.405  30.751  1.00  0.00     0.006 A 
ENDBRANCH  60  81
BRANCH  72  89
ATOM     89  C   UNL A   1      42.238  29.765  33.844  1.00  0.00     0.057 A 
ATOM     90  C   UNL A   1      41.834  28.431  33.670  1.00  0.00     0.134 A 
ATOM     91  C   UNL A   1      42.483  30.181  35.157  1.00  0.00     0.134 A 
ATOM     92  F   UNL A   1      41.665  27.910  32.448  1.00  0.00    -0.206 F 
ATOM     93  C   UNL A   1      41.648  27.567  34.755  1.00  0.00     0.040 A 
ATOM     94  C   UNL A   1      42.333  29.320  36.247  1.00  0.00     0.040 A 
ATOM     95  F   UNL A   1      42.922  31.426  35.399  1.00  0.00    -0.206 F 
ATOM     96  C   UNL A   1      41.905  28.010  36.048  1.00  0.00     0.006 A 
ENDBRANCH  72  89
ENDBRANCH  46  47
ENDBRANCH  38  41
ENDBRANCH  36  37
ENDBRANCH  35  36
ENDBRANCH  34  35
ENDBRANCH   1  34
TORSDOF 16
ENDMDL
MODEL 3
REMARK VINA RESULT:     -12.1      1.531      2.569
REMARK SMILES CCn1ncc(NC(=O)[C@@H]2CCCC[C@@H]2C(=O)NCCCCNC(=O)c2ccc(-c3c4nc(c(-c5c(F)cccc5F)c5ccc([nH]5)c(-c5c(F)cccc5F)c5nc(c(-c6c(F)cccc6F)c6ccc3[nH]6)C=C5)C=C4)cc2)c1C(=O)Nc1cnn(C)c1C
REMARK SMILES IDX 19 1 18 2 16 3 17 4 15 6 10 7 11 8 12 9 14 10 13 11 8 12
REMARK SMILES IDX 7 13 9 15 6 16 3 17 4 18 80 19 5 20 2 21 1 22 81 23 82 24
REMARK SMILES IDX 83 25 84 27 85 28 89 29 86 30 87 31 90 32 88 33 20 34 21 35
REMARK SMILES IDX 22 36 23 37 24 38 25 40 26 41 27 42 79 43 28 44 78 45 29 46
REMARK SMILES IDX 30 47 31 48 72 49 32 50 77 51 71 52 73 53 33 54 76 55 70 56
REMARK SMILES IDX 69 57 34 59 60 60 43 61 59 62 44 63 47 64 58 65 74 66 45 67
REMARK SMILES IDX 46 68 57 70 75 71 48 72 35 73 36 74 41 75 37 76 38 77 40 78
REMARK SMILES IDX 42 79 39 80 61 81 62 82 67 83 63 84 64 85 66 86 68 87 65 88
REMARK SMILES IDX 49 89 50 90 55 91 51 92 52 93 54 94 56 95 53 96
REMARK H PARENT 18 5 7 14 83 26 23 39 73 58 47 69
REMARK Flexibility Score: inf
ROOT
ATOM      1  C   UNL A   1      33.993  29.031  26.012  1.00  0.00     0.116 C 
ENDROOT
BRANCH   1   2
ATOM      2  N   UNL A   1      33.281  28.879  24.764  1.00  0.00    -0.356 N 
ATOM      3  C   UNL A   1      32.776  27.800  24.111  1.00  0.00     0.223 C 
ATOM      4  O   UNL A   1      32.227  28.062  23.035  1.00  0.00    -0.275 OA
ATOM      5  H   UNL A   1      33.130  29.729  24.290  1.00  0.00     0.163 HD
BRANCH   3   6
ATOM      6  C   UNL A   1      32.878  26.346  24.629  1.00  0.00     0.091 C 
ATOM      7  C   UNL A   1      31.962  25.407  23.791  1.00  0.00     0.091 C 
ATOM      8  C   UNL A   1      30.516  25.934  23.816  1.00  0.00     0.014 C 
ATOM      9  C   UNL A   1      29.998  26.022  25.256  1.00  0.00     0.001 C 
ATOM     10  C   UNL A   1      32.401  26.079  26.070  1.00  0.00     0.014 C 
ATOM     11  C   UNL A   1      30.978  26.590  26.280  1.00  0.00     0.001 C 
BRANCH   7  12
ATOM     12  C   UNL A   1      32.516  24.938  22.456  1.00  0.00     0.228 C 
ATOM     13  N   UNL A   1      33.538  24.023  22.410  1.00  0.00    -0.322 N 
ATOM     14  H   UNL A   1      33.814  23.778  21.497  1.00  0.00     0.170 HD
ATOM     15  O   UNL A   1      32.081  25.364  21.383  1.00  0.00    -0.274 OA
BRANCH  13  16
ATOM     16  C   UNL A   1      34.260  23.376  23.407  1.00  0.00     0.092 A 
ATOM     17  N   UNL A   1      35.251  21.913  24.668  1.00  0.00    -0.258 N 
ATOM     18  N   UNL A   1      36.163  22.903  24.550  1.00  0.00    -0.178 NA
ATOM     19  C   UNL A   1      33.978  22.317  24.288  1.00  0.00     0.150 A 
ATOM     20  C   UNL A   1      35.566  23.779  23.753  1.00  0.00     0.162 A 
BRANCH  17  21
ATOM     21  C   UNL A   1      35.791  20.627  25.062  1.00  0.00     0.142 C 
ATOM     22  C   UNL A   1      37.295  20.504  24.896  1.00  0.00     0.029 C 
ENDBRANCH  17  21
BRANCH  19  23
ATOM     23  C   UNL A   1      32.656  21.851  24.717  1.00  0.00     0.276 C 
ATOM     24  O   UNL A   1      31.893  22.581  25.354  1.00  0.00    -0.267 OA
ATOM     25  N   UNL A   1      32.111  20.705  24.180  1.00  0.00    -0.318 N 
ATOM     26  H   UNL A   1      31.381  20.830  23.531  1.00  0.00     0.170 HD
BRANCH  25  27
ATOM     27  C   UNL A   1      32.472  19.406  24.453  1.00  0.00     0.082 A 
ATOM     28  C   UNL A   1      32.776  18.786  25.678  1.00  0.00     0.161 A 
ATOM     29  C   UNL A   1      32.611  18.417  23.497  1.00  0.00     0.059 A 
ATOM     30  N   UNL A   1      33.232  17.544  25.504  1.00  0.00    -0.179 NA
ATOM     31  N   UNL A   1      33.194  17.368  24.168  1.00  0.00    -0.271 N 
ATOM     32  C   UNL A   1      32.406  18.414  22.024  1.00  0.00     0.068 C 
ATOM     33  C   UNL A   1      33.910  16.247  23.603  1.00  0.00     0.174 C 
ENDBRANCH  25  27
ENDBRANCH  19  23
ENDBRANCH  13  16
ENDBRANCH   7  12
ENDBRANCH   3   6
ENDBRANCH   1   2
BRANCH   1  34
ATOM     34  C   UNL A   1      33.114  29.534  27.148  1.00  0.00     0.023 C 
BRANCH  34  35
ATOM     35  C   UNL A   1      33.078  31.047  27.353  1.00  0.00     0.023 C 
BRANCH  35  36
ATOM     36  C   UNL A   1      34.410  31.660  27.757  1.00  0.00     0.116 C 
BRANCH  36  37
ATOM     37  N   UNL A   1      34.374  32.293  29.074  1.00  0.00    -0.352 N 
ATOM     38  C   UNL A   1      35.156  31.976  30.162  1.00  0.00     0.251 C 
ATOM     39  H   UNL A   1      33.724  33.023  29.196  1.00  0.00     0.163 HD
ATOM     40  O   UNL A   1      34.823  32.287  31.308  1.00  0.00    -0.269 OA
BRANCH  38  41
ATOM     41  C   UNL A   1      36.426  31.278  29.925  1.00  0.00     0.039 A 
ATOM     42  C   UNL A   1      37.609  31.972  29.662  1.00  0.00     0.014 A 
ATOM     43  C   UNL A   1      36.410  29.886  30.020  1.00  0.00     0.014 A 
ATOM     44  C   UNL A   1      38.794  31.250  29.559  1.00  0.00     0.010 A 
ATOM     45  C   UNL A   1      37.590  29.192  30.054  1.00  0.00     0.010 A 
ATOM     46  C   UNL A   1      38.775  29.861  29.770  1.00  0.00    -0.014 A 
BRANCH  46  47
ATOM     47  C   UNL A   1      40.012  29.096  29.836  1.00  0.00     0.031 A 
ATOM     48  C   UNL A   1      40.535  28.920  31.217  1.00  0.00     0.074 A 
ATOM     49  C   UNL A   1      40.514  28.420  28.780  1.00  0.00     0.049 A 
ATOM     50  N   UNL A   1      41.578  29.479  31.731  1.00  0.00    -0.248 NA
ATOM     51  C   UNL A   1      39.723  28.171  32.191  1.00  0.00     0.031 C 
ATOM     52  C   UNL A   1      39.928  28.241  27.446  1.00  0.00     0.029 A 
ATOM     53  N   UNL A   1      41.641  27.663  28.709  1.00  0.00    -0.354 N 
ATOM     54  C   UNL A   1      41.686  28.973  33.023  1.00  0.00     0.074 A 
ATOM     55  C   UNL A   1      40.426  28.344  33.313  1.00  0.00     0.031 C 
ATOM     56  C   UNL A   1      40.583  27.257  26.789  1.00  0.00     0.029 A 
ATOM     57  C   UNL A   1      41.732  26.855  27.578  1.00  0.00     0.049 A 
ATOM     58  H   UNL A   1      42.338  27.683  29.404  1.00  0.00     0.167 HD
ATOM     59  C   UNL A   1      42.899  28.890  33.637  1.00  0.00     0.037 A 
ATOM     60  C   UNL A   1      42.682  25.917  27.330  1.00  0.00     0.037 A 
ATOM     61  C   UNL A   1      43.885  29.669  32.928  1.00  0.00     0.049 A 
ATOM     62  C   UNL A   1      43.838  26.224  28.209  1.00  0.00     0.074 A 
ATOM     63  C   UNL A   1      44.026  31.004  32.601  1.00  0.00     0.029 A 
ATOM     64  N   UNL A   1      44.733  28.986  32.089  1.00  0.00    -0.354 N 
ATOM     65  N   UNL A   1      44.588  27.282  28.069  1.00  0.00    -0.248 NA
ATOM     66  C   UNL A   1      43.858  25.612  29.528  1.00  0.00     0.031 C 
ATOM     67  C   UNL A   1      44.565  31.003  31.281  1.00  0.00     0.029 A 
ATOM     68  C   UNL A   1      44.804  29.679  30.910  1.00  0.00     0.049 A 
ATOM     69  H   UNL A   1      45.204  28.148  32.298  1.00  0.00     0.167 HD
ATOM     70  C   UNL A   1      44.807  27.728  29.364  1.00  0.00     0.074 A 
ATOM     71  C   UNL A   1      44.402  26.615  30.223  1.00  0.00     0.031 C 
ATOM     72  C   UNL A   1      45.008  29.053  29.624  1.00  0.00     0.037 A 
BRANCH  59  73
ATOM     73  C   UNL A   1      43.306  27.807  34.607  1.00  0.00     0.057 A 
ATOM     74  C   UNL A   1      43.391  26.480  34.145  1.00  0.00     0.134 A 
ATOM     75  C   UNL A   1      43.311  27.953  36.008  1.00  0.00     0.134 A 
ATOM     76  F   UNL A   1      43.387  26.205  32.831  1.00  0.00    -0.206 F 
ATOM     77  C   UNL A   1      43.389  25.380  35.012  1.00  0.00     0.040 A 
ATOM     78  C   UNL A   1      43.362  26.864  36.882  1.00  0.00     0.040 A 
ATOM     79  F   UNL A   1      43.161  29.138  36.609  1.00  0.00    -0.206 F 
ATOM     80  C   UNL A   1      43.365  25.571  36.387  1.00  0.00     0.006 A 
ENDBRANCH  59  73
BRANCH  60  81
ATOM     81  C   UNL A   1      42.560  24.616  26.632  1.00  0.00     0.057 A 
ATOM     82  C   UNL A   1      43.221  24.381  25.416  1.00  0.00     0.134 A 
ATOM     83  C   UNL A   1      42.050  23.479  27.283  1.00  0.00     0.134 A 
ATOM     84  F   UNL A   1      43.775  25.394  24.735  1.00  0.00    -0.206 F 
ATOM     85  C   UNL A   1      43.398  23.090  24.897  1.00  0.00     0.040 A 
ATOM     86  C   UNL A   1      42.218  22.185  26.776  1.00  0.00     0.040 A 
ATOM     87  F   UNL A   1      41.452  23.579  28.480  1.00  0.00    -0.206 F 
ATOM     88  C   UNL A   1      42.908  21.985  25.587  1.00  0.00     0.006 A 
ENDBRANCH  60  81
BRANCH  72  89
ATOM     89  C   UNL A   1      45.251  29.973  28.457  1.00  0.00     0.057 A 
ATOM     90  C   UNL A   1      44.248  30.686  27.781  1.00  0.00     0.134 A 
ATOM     91  C   UNL A   1      46.574  30.261  28.105  1.00  0.00     0.134 A 
ATOM     92  F   UNL A   1      42.957  30.551  28.109  1.00  0.00    -0.206 F 
ATOM     93  C   UNL A   1      44.550  31.615  26.778  1.00  0.00     0.040 A 
ATOM     94  C   UNL A   1      46.891  31.208  27.130  1.00  0.00     0.040 A 
ATOM     95  F   UNL A   1      47.588  29.656  28.744  1.00  0.00    -0.206 F 
ATOM     96  C   UNL A   1      45.876  31.882  26.455  1.00  0.00     0.006 A 
ENDBRANCH  72  89
ENDBRANCH  46  47
ENDBRANCH  38  41
ENDBRANCH  36  37
ENDBRANCH  35  36
ENDBRANCH  34  35
ENDBRANCH   1  34
TORSDOF 16
ENDMDL
