MODEL 1
REMARK VINA RESULT:     -11.7      0.000      0.000
REMARK SMILES Cc1onc(-c2cnn(C)c2C)c1C(=O)NCCCCNC(=O)c1ccc(-c2c3nc(c(-c4c(F)cccc4F)c4ccc([nH]4)c(-c4c(F)cccc4F)c4nc(c(-c5c(F)cccc5F)c5ccc2[nH]5)C=C4)C=C3)cc1
REMARK SMILES IDX 19 1 18 2 17 3 16 4 14 5 15 6 13 8 1 9 2 10 3 11 4 12 5 13
REMARK SMILES IDX 6 14 7 15 11 16 8 17 9 18 12 19 10 20 20 21 21 22 22 23
REMARK SMILES IDX 23 25 24 26 25 27 77 28 26 29 76 30 27 31 28 32 29 33 70 34
REMARK SMILES IDX 30 35 75 36 69 37 71 38 31 39 74 40 68 41 67 42 32 44 58 45
REMARK SMILES IDX 41 46 57 47 42 48 45 49 56 50 72 51 43 52 44 53 55 55 73 56
REMARK SMILES IDX 46 57 33 58 34 59 39 60 35 61 36 62 38 63 40 64 37 65 59 66
REMARK SMILES IDX 60 67 65 68 61 69 62 70 64 71 66 72 63 73 47 74 48 75 53 76
REMARK SMILES IDX 49 77 50 78 52 79 54 80 51 81
REMARK H PARENT 16 7 21 24 71 43 45 54
REMARK Flexibility Score: inf
ROOT
ATOM      1  C   UNL A   1      37.917  19.866  24.844  1.00  0.00     0.023 C 
ENDROOT
BRANCH   1   2
ATOM      2  C   UNL A   1      36.708  20.789  25.022  1.00  0.00     0.023 C 
BRANCH   2   3
ATOM      3  C   UNL A   1      36.992  22.274  24.793  1.00  0.00     0.116 C 
BRANCH   3   4
ATOM      4  N   UNL A   1      36.204  22.767  23.693  1.00  0.00    -0.352 N 
ATOM      5  C   UNL A   1      34.914  23.193  23.548  1.00  0.00     0.257 C 
ATOM      6  O   UNL A   1      34.629  23.453  22.376  1.00  0.00    -0.269 OA
ATOM      7  H   UNL A   1      36.711  22.804  22.851  1.00  0.00     0.163 HD
BRANCH   5   8
ATOM      8  C   UNL A   1      33.944  23.388  24.621  1.00  0.00     0.110 A 
ATOM      9  C   UNL A   1      34.028  25.847  25.708  1.00  0.00     0.092 C 
ATOM     10  C   UNL A   1      33.602  24.460  25.440  1.00  0.00     0.147 A 
ATOM     11  O   UNL A   1      32.571  24.106  26.255  1.00  0.00    -0.360 OA
ATOM     12  N   UNL A   1      32.229  22.803  26.053  1.00  0.00    -0.079 NA
ATOM     13  C   UNL A   1      33.066  22.355  25.116  1.00  0.00     0.130 A 
BRANCH  13  14
ATOM     14  C   UNL A   1      32.990  20.959  24.699  1.00  0.00     0.045 A 
ATOM     15  C   UNL A   1      33.278  19.836  25.495  1.00  0.00     0.145 A 
ATOM     16  C   UNL A   1      32.528  20.446  23.502  1.00  0.00     0.044 A 
ATOM     17  N   UNL A   1      33.033  18.688  24.858  1.00  0.00    -0.181 NA
ATOM     18  N   UNL A   1      32.591  19.083  23.648  1.00  0.00    -0.272 N 
ATOM     19  C   UNL A   1      32.043  21.143  22.285  1.00  0.00     0.067 C 
ATOM     20  C   UNL A   1      32.223  18.077  22.679  1.00  0.00     0.174 C 
ENDBRANCH  13  14
ENDBRANCH   5   8
ENDBRANCH   3   4
ENDBRANCH   2   3
ENDBRANCH   1   2
BRANCH   1  21
ATOM     21  C   UNL A   1      39.102  20.177  25.751  1.00  0.00     0.116 C 
BRANCH  21  22
ATOM     22  N   UNL A   1      40.084  19.106  25.811  1.00  0.00    -0.352 N 
ATOM     23  C   UNL A   1      41.427  19.197  26.087  1.00  0.00     0.251 C 
ATOM     24  H   UNL A   1      39.745  18.200  25.630  1.00  0.00     0.163 HD
ATOM     25  O   UNL A   1      42.147  18.206  26.017  1.00  0.00    -0.269 OA
BRANCH  23  26
ATOM     26  C   UNL A   1      42.002  20.515  26.419  1.00  0.00     0.039 A 
ATOM     27  C   UNL A   1      42.382  21.363  25.376  1.00  0.00     0.014 A 
ATOM     28  C   UNL A   1      42.115  20.928  27.749  1.00  0.00     0.014 A 
ATOM     29  C   UNL A   1      42.808  22.660  25.665  1.00  0.00     0.010 A 
ATOM     30  C   UNL A   1      42.476  22.239  28.031  1.00  0.00     0.010 A 
ATOM     31  C   UNL A   1      42.820  23.118  26.993  1.00  0.00    -0.014 A 
BRANCH  31  32
ATOM     32  C   UNL A   1      43.179  24.519  27.317  1.00  0.00     0.031 A 
ATOM     33  C   UNL A   1      44.615  24.956  27.275  1.00  0.00     0.074 A 
ATOM     34  C   UNL A   1      42.222  25.372  27.727  1.00  0.00     0.049 A 
ATOM     35  N   UNL A   1      45.139  26.108  27.606  1.00  0.00    -0.248 NA
ATOM     36  C   UNL A   1      45.597  23.954  26.828  1.00  0.00     0.031 C 
ATOM     37  C   UNL A   1      40.800  25.051  27.862  1.00  0.00     0.029 A 
ATOM     38  N   UNL A   1      42.304  26.685  28.119  1.00  0.00    -0.354 N 
ATOM     39  C   UNL A   1      46.509  25.964  27.429  1.00  0.00     0.074 A 
ATOM     40  C   UNL A   1      46.740  24.600  27.004  1.00  0.00     0.031 C 
ATOM     41  C   UNL A   1      40.141  26.141  28.287  1.00  0.00     0.029 A 
ATOM     42  C   UNL A   1      41.096  27.227  28.484  1.00  0.00     0.049 A 
ATOM     43  H   UNL A   1      43.148  27.190  28.137  1.00  0.00     0.167 HD
ATOM     44  C   UNL A   1      47.482  26.892  27.584  1.00  0.00     0.037 A 
ATOM     45  C   UNL A   1      40.794  28.460  28.931  1.00  0.00     0.037 A 
ATOM     46  C   UNL A   1      47.245  28.256  27.971  1.00  0.00     0.049 A 
ATOM     47  C   UNL A   1      41.890  29.477  29.075  1.00  0.00     0.074 A 
ATOM     48  C   UNL A   1      48.157  29.289  28.094  1.00  0.00     0.029 A 
ATOM     49  N   UNL A   1      46.002  28.778  28.297  1.00  0.00    -0.354 N 
ATOM     50  N   UNL A   1      43.174  29.347  28.842  1.00  0.00    -0.248 NA
ATOM     51  C   UNL A   1      41.497  30.816  29.539  1.00  0.00     0.031 C 
ATOM     52  C   UNL A   1      47.470  30.430  28.522  1.00  0.00     0.029 A 
ATOM     53  C   UNL A   1      46.125  30.116  28.632  1.00  0.00     0.049 A 
ATOM     54  H   UNL A   1      45.157  28.272  28.290  1.00  0.00     0.167 HD
ATOM     55  C   UNL A   1      43.736  30.589  29.100  1.00  0.00     0.074 A 
ATOM     56  C   UNL A   1      42.653  31.464  29.501  1.00  0.00     0.031 C 
ATOM     57  C   UNL A   1      45.032  30.973  29.013  1.00  0.00     0.037 A 
BRANCH  44  58
ATOM     58  C   UNL A   1      48.894  26.458  27.322  1.00  0.00     0.057 A 
ATOM     59  C   UNL A   1      49.466  26.543  26.046  1.00  0.00     0.134 A 
ATOM     60  C   UNL A   1      49.698  25.974  28.361  1.00  0.00     0.134 A 
ATOM     61  F   UNL A   1      48.743  26.985  25.006  1.00  0.00    -0.206 F 
ATOM     62  C   UNL A   1      50.779  26.140  25.808  1.00  0.00     0.040 A 
ATOM     63  C   UNL A   1      51.022  25.590  28.140  1.00  0.00     0.040 A 
ATOM     64  F   UNL A   1      49.213  25.871  29.608  1.00  0.00    -0.206 F 
ATOM     65  C   UNL A   1      51.564  25.667  26.858  1.00  0.00     0.006 A 
ENDBRANCH  44  58
BRANCH  45  66
ATOM     66  C   UNL A   1      39.389  28.813  29.245  1.00  0.00     0.057 A 
ATOM     67  C   UNL A   1      38.548  29.355  28.267  1.00  0.00     0.134 A 
ATOM     68  C   UNL A   1      38.852  28.621  30.523  1.00  0.00     0.134 A 
ATOM     69  F   UNL A   1      39.012  29.578  27.028  1.00  0.00    -0.206 F 
ATOM     70  C   UNL A   1      37.230  29.713  28.550  1.00  0.00     0.040 A 
ATOM     71  C   UNL A   1      37.528  28.953  30.817  1.00  0.00     0.040 A 
ATOM     72  F   UNL A   1      39.604  28.096  31.502  1.00  0.00    -0.206 F 
ATOM     73  C   UNL A   1      36.716  29.507  29.830  1.00  0.00     0.006 A 
ENDBRANCH  45  66
BRANCH  57  74
ATOM     74  C   UNL A   1      45.345  32.406  29.321  1.00  0.00     0.057 A 
ATOM     75  C   UNL A   1      45.279  33.402  28.340  1.00  0.00     0.134 A 
ATOM     76  C   UNL A   1      45.673  32.798  30.625  1.00  0.00     0.134 A 
ATOM     77  F   UNL A   1      44.984  33.087  27.069  1.00  0.00    -0.206 F 
ATOM     78  C   UNL A   1      45.545  34.739  28.642  1.00  0.00     0.040 A 
ATOM     79  C   UNL A   1      45.919  34.134  30.944  1.00  0.00     0.040 A 
ATOM     80  F   UNL A   1      45.745  31.891  31.611  1.00  0.00    -0.206 F 
ATOM     81  C   UNL A   1      45.859  35.107  29.949  1.00  0.00     0.006 A 
ENDBRANCH  57  74
ENDBRANCH  31  32
ENDBRANCH  23  26
ENDBRANCH  21  22
ENDBRANCH   1  21
TORSDOF 12
ENDMDL
MODEL 2
REMARK VINA RESULT:     -11.6      0.563      6.481
REMARK SMILES Cc1onc(-c2cnn(C)c2C)c1C(=O)NCCCCNC(=O)c1ccc(-c2c3nc(c(-c4c(F)cccc4F)c4ccc([nH]4)c(-c4c(F)cccc4F)c4nc(c(-c5c(F)cccc5F)c5ccc2[nH]5)C=C4)C=C3)cc1
REMARK SMILES IDX 19 1 18 2 17 3 16 4 14 5 15 6 13 8 1 9 2 10 3 11 4 12 5 13
REMARK SMILES IDX 6 14 7 15 11 16 8 17 9 18 12 19 10 20 20 21 21 22 22 23
REMARK SMILES IDX 23 25 24 26 25 27 77 28 26 29 76 30 27 31 28 32 29 33 70 34
REMARK SMILES IDX 30 35 75 36 69 37 71 38 31 39 74 40 68 41 67 42 32 44 58 45
REMARK SMILES IDX 41 46 57 47 42 48 45 49 56 50 72 51 43 52 44 53 55 55 73 56
REMARK SMILES IDX 46 57 33 58 34 59 39 60 35 61 36 62 38 63 40 64 37 65 59 66
REMARK SMILES IDX 60 67 65 68 61 69 62 70 64 71 66 72 63 73 47 74 48 75 53 76
REMARK SMILES IDX 49 77 50 78 52 79 54 80 51 81
REMARK H PARENT 16 7 21 24 71 43 45 54
REMARK Flexibility Score: inf
ROOT
ATOM      1  C   UNL A   1      37.898  20.111  24.957  1.00  0.00     0.023 C 
ENDROOT
BRANCH   1   2
ATOM      2  C   UNL A   1      36.740  21.067  25.254  1.00  0.00     0.023 C 
BRANCH   2   3
ATOM      3  C   UNL A   1      37.001  22.528  24.885  1.00  0.00     0.116 C 
BRANCH   3   4
ATOM      4  N   UNL A   1      36.198  22.904  23.750  1.00  0.00    -0.352 N 
ATOM      5  C   UNL A   1      34.887  23.242  23.566  1.00  0.00     0.257 C 
ATOM      6  O   UNL A   1      34.603  23.412  22.378  1.00  0.00    -0.269 OA
ATOM      7  H   UNL A   1      36.714  22.921  22.912  1.00  0.00     0.163 HD
BRANCH   5   8
ATOM      8  C   UNL A   1      33.893  23.440  24.616  1.00  0.00     0.110 A 
ATOM      9  C   UNL A   1      33.918  25.921  25.658  1.00  0.00     0.092 C 
ATOM     10  C   UNL A   1      33.519  24.523  25.408  1.00  0.00     0.147 A 
ATOM     11  O   UNL A   1      32.477  24.168  26.209  1.00  0.00    -0.360 OA
ATOM     12  N   UNL A   1      32.158  22.856  26.024  1.00  0.00    -0.079 NA
ATOM     13  C   UNL A   1      33.021  22.404  25.113  1.00  0.00     0.130 A 
BRANCH  13  14
ATOM     14  C   UNL A   1      32.974  20.999  24.721  1.00  0.00     0.045 A 
ATOM     15  C   UNL A   1      33.281  19.897  25.538  1.00  0.00     0.145 A 
ATOM     16  C   UNL A   1      32.528  20.456  23.531  1.00  0.00     0.044 A 
ATOM     17  N   UNL A   1      33.062  18.733  24.921  1.00  0.00    -0.181 NA
ATOM     18  N   UNL A   1      32.617  19.097  23.702  1.00  0.00    -0.272 N 
ATOM     19  C   UNL A   1      32.035  21.121  22.300  1.00  0.00     0.067 C 
ATOM     20  C   UNL A   1      32.274  18.067  22.750  1.00  0.00     0.174 C 
ENDBRANCH  13  14
ENDBRANCH   5   8
ENDBRANCH   3   4
ENDBRANCH   2   3
ENDBRANCH   1   2
BRANCH   1  21
ATOM     21  C   UNL A   1      39.161  20.357  25.775  1.00  0.00     0.116 C 
BRANCH  21  22
ATOM     22  N   UNL A   1      40.057  19.212  25.818  1.00  0.00    -0.352 N 
ATOM     23  C   UNL A   1      41.405  19.198  26.082  1.00  0.00     0.251 C 
ATOM     24  H   UNL A   1      39.647  18.337  25.635  1.00  0.00     0.163 HD
ATOM     25  O   UNL A   1      42.046  18.154  25.999  1.00  0.00    -0.269 OA
BRANCH  23  26
ATOM     26  C   UNL A   1      42.084  20.464  26.417  1.00  0.00     0.039 A 
ATOM     27  C   UNL A   1      42.557  21.267  25.377  1.00  0.00     0.014 A 
ATOM     28  C   UNL A   1      42.204  20.878  27.746  1.00  0.00     0.014 A 
ATOM     29  C   UNL A   1      43.086  22.526  25.666  1.00  0.00     0.010 A 
ATOM     30  C   UNL A   1      42.671  22.156  28.027  1.00  0.00     0.010 A 
ATOM     31  C   UNL A   1      43.110  22.993  26.990  1.00  0.00    -0.014 A 
BRANCH  31  32
ATOM     32  C   UNL A   1      43.581  24.361  27.311  1.00  0.00     0.031 A 
ATOM     33  C   UNL A   1      42.601  25.407  27.760  1.00  0.00     0.074 A 
ATOM     34  C   UNL A   1      44.875  24.680  27.121  1.00  0.00     0.049 A 
ATOM     35  N   UNL A   1      42.802  26.677  28.004  1.00  0.00    -0.248 NA
ATOM     36  C   UNL A   1      41.205  24.975  27.928  1.00  0.00     0.031 C 
ATOM     37  C   UNL A   1      45.912  23.766  26.637  1.00  0.00     0.029 A 
ATOM     38  N   UNL A   1      45.538  25.868  27.301  1.00  0.00    -0.354 N 
ATOM     39  C   UNL A   1      41.558  27.198  28.334  1.00  0.00     0.074 A 
ATOM     40  C   UNL A   1      40.601  26.118  28.215  1.00  0.00     0.031 C 
ATOM     41  C   UNL A   1      47.082  24.422  26.576  1.00  0.00     0.029 A 
ATOM     42  C   UNL A   1      46.873  25.806  26.987  1.00  0.00     0.049 A 
ATOM     43  H   UNL A   1      45.098  26.686  27.625  1.00  0.00     0.167 HD
ATOM     44  C   UNL A   1      41.245  28.457  28.722  1.00  0.00     0.037 A 
ATOM     45  C   UNL A   1      47.821  26.761  27.022  1.00  0.00     0.037 A 
ATOM     46  C   UNL A   1      42.204  29.518  28.874  1.00  0.00     0.049 A 
ATOM     47  C   UNL A   1      47.453  28.145  27.476  1.00  0.00     0.074 A 
ATOM     48  C   UNL A   1      41.997  30.809  29.323  1.00  0.00     0.029 A 
ATOM     49  N   UNL A   1      43.555  29.406  28.581  1.00  0.00    -0.354 N 
ATOM     50  N   UNL A   1      46.283  28.609  27.847  1.00  0.00    -0.248 NA
ATOM     51  C   UNL A   1      48.535  29.139  27.523  1.00  0.00     0.031 C 
ATOM     52  C   UNL A   1      43.219  31.490  29.275  1.00  0.00     0.029 A 
ATOM     53  C   UNL A   1      44.192  30.611  28.830  1.00  0.00     0.049 A 
ATOM     54  H   UNL A   1      43.996  28.592  28.247  1.00  0.00     0.167 HD
ATOM     55  C   UNL A   1      46.494  29.935  28.199  1.00  0.00     0.074 A 
ATOM     56  C   UNL A   1      47.904  30.201  28.005  1.00  0.00     0.031 C 
ATOM     57  C   UNL A   1      45.600  30.850  28.644  1.00  0.00     0.037 A 
BRANCH  44  58
ATOM     58  C   UNL A   1      39.805  28.747  29.020  1.00  0.00     0.057 A 
ATOM     59  C   UNL A   1      39.279  28.619  30.312  1.00  0.00     0.134 A 
ATOM     60  C   UNL A   1      38.939  29.184  28.009  1.00  0.00     0.134 A 
ATOM     61  F   UNL A   1      40.054  28.191  31.321  1.00  0.00    -0.206 F 
ATOM     62  C   UNL A   1      37.939  28.891  30.584  1.00  0.00     0.040 A 
ATOM     63  C   UNL A   1      37.602  29.483  28.275  1.00  0.00     0.040 A 
ATOM     64  F   UNL A   1      39.380  29.331  26.750  1.00  0.00    -0.206 F 
ATOM     65  C   UNL A   1      37.096  29.331  29.565  1.00  0.00     0.006 A 
ENDBRANCH  44  58
BRANCH  45  66
ATOM     66  C   UNL A   1      49.218  26.436  26.646  1.00  0.00     0.057 A 
ATOM     67  C   UNL A   1      50.106  25.892  27.581  1.00  0.00     0.134 A 
ATOM     68  C   UNL A   1      49.701  26.659  25.351  1.00  0.00     0.134 A 
ATOM     69  F   UNL A   1      49.705  25.672  28.842  1.00  0.00    -0.206 F 
ATOM     70  C   UNL A   1      51.429  25.600  27.250  1.00  0.00     0.040 A 
ATOM     71  C   UNL A   1      51.016  26.351  24.999  1.00  0.00     0.040 A 
ATOM     72  F   UNL A   1      48.896  27.170  24.407  1.00  0.00    -0.206 F 
ATOM     73  C   UNL A   1      51.885  25.826  25.952  1.00  0.00     0.006 A 
ENDBRANCH  45  66
BRANCH  57  74
ATOM     74  C   UNL A   1      46.126  32.211  28.986  1.00  0.00     0.057 A 
ATOM     75  C   UNL A   1      46.613  32.514  30.263  1.00  0.00     0.134 A 
ATOM     76  C   UNL A   1      46.186  33.216  28.012  1.00  0.00     0.134 A 
ATOM     77  F   UNL A   1      46.569  31.599  31.243  1.00  0.00    -0.206 F 
ATOM     78  C   UNL A   1      47.127  33.777  30.565  1.00  0.00     0.040 A 
ATOM     79  C   UNL A   1      46.718  34.474  28.295  1.00  0.00     0.040 A 
ATOM     80  F   UNL A   1      45.742  32.985  26.767  1.00  0.00    -0.206 F 
ATOM     81  C   UNL A   1      47.186  34.758  29.576  1.00  0.00     0.006 A 
ENDBRANCH  57  74
ENDBRANCH  31  32
ENDBRANCH  23  26
ENDBRANCH  21  22
ENDBRANCH   1  21
TORSDOF 12
ENDMDL
MODEL 3
REMARK VINA RESULT:     -11.6      5.455     10.344
REMARK SMILES Cc1onc(-c2cnn(C)c2C)c1C(=O)NCCCCNC(=O)c1ccc(-c2c3nc(c(-c4c(F)cccc4F)c4ccc([nH]4)c(-c4c(F)cccc4F)c4nc(c(-c5c(F)cccc5F)c5ccc2[nH]5)C=C4)C=C3)cc1
REMARK SMILES IDX 19 1 18 2 17 3 16 4 14 5 15 6 13 8 1 9 2 10 3 11 4 12 5 13
REMARK SMILES IDX 6 14 7 15 11 16 8 17 9 18 12 19 10 20 20 21 21 22 22 23
REMARK SMILES IDX 23 25 24 26 25 27 77 28 26 29 76 30 27 31 28 32 29 33 70 34
REMARK SMILES IDX 30 35 75 36 69 37 71 38 31 39 74 40 68 41 67 42 32 44 58 45
REMARK SMILES IDX 41 46 57 47 42 48 45 49 56 50 72 51 43 52 44 53 55 55 73 56
REMARK SMILES IDX 46 57 33 58 34 59 39 60 35 61 36 62 38 63 40 64 37 65 59 66
REMARK SMILES IDX 60 67 65 68 61 69 62 70 64 71 66 72 63 73 47 74 48 75 53 76
REMARK SMILES IDX 49 77 50 78 52 79 54 80 51 81
REMARK H PARENT 16 7 21 24 71 43 45 54
REMARK Flexibility Score: inf
ROOT
ATOM      1  C   UNL A   1      31.490  31.792  26.570  1.00  0.00     0.023 C 
ENDROOT
BRANCH   1   2
ATOM      2  C   UNL A   1      31.782  30.451  25.891  1.00  0.00     0.023 C 
BRANCH   2   3
ATOM      3  C   UNL A   1      32.552  29.449  26.751  1.00  0.00     0.116 C 
BRANCH   3   4
ATOM      4  N   UNL A   1      31.762  28.262  26.957  1.00  0.00    -0.352 N 
ATOM      5  C   UNL A   1      31.528  27.124  26.237  1.00  0.00     0.257 C 
ATOM      6  O   UNL A   1      30.693  26.389  26.769  1.00  0.00    -0.269 OA
ATOM      7  H   UNL A   1      31.278  28.274  27.813  1.00  0.00     0.163 HD
BRANCH   5   8
ATOM      8  C   UNL A   1      32.191  26.737  24.996  1.00  0.00     0.110 A 
ATOM      9  C   UNL A   1      34.404  25.255  25.380  1.00  0.00     0.092 C 
ATOM     10  C   UNL A   1      33.316  25.975  24.691  1.00  0.00     0.147 A 
ATOM     11  O   UNL A   1      33.461  25.890  23.340  1.00  0.00    -0.360 OA
ATOM     12  N   UNL A   1      32.494  26.615  22.709  1.00  0.00    -0.079 NA
ATOM     13  C   UNL A   1      31.762  27.157  23.684  1.00  0.00     0.130 A 
BRANCH  13  14
ATOM     14  C   UNL A   1      30.655  28.042  23.336  1.00  0.00     0.045 A 
ATOM     15  C   UNL A   1      30.761  29.311  22.739  1.00  0.00     0.145 A 
ATOM     16  C   UNL A   1      29.299  27.789  23.416  1.00  0.00     0.044 A 
ATOM     17  N   UNL A   1      29.566  29.842  22.466  1.00  0.00    -0.181 NA
ATOM     18  N   UNL A   1      28.695  28.907  22.895  1.00  0.00    -0.272 N 
ATOM     19  C   UNL A   1      28.574  26.599  23.925  1.00  0.00     0.067 C 
ATOM     20  C   UNL A   1      27.280  29.155  22.750  1.00  0.00     0.174 C 
ENDBRANCH  13  14
ENDBRANCH   5   8
ENDBRANCH   3   4
ENDBRANCH   2   3
ENDBRANCH   1   2
BRANCH   1  21
ATOM     21  C   UNL A   1      32.689  32.445  27.248  1.00  0.00     0.116 C 
BRANCH  21  22
ATOM     22  N   UNL A   1      32.472  33.842  27.592  1.00  0.00    -0.352 N 
ATOM     23  C   UNL A   1      33.154  34.608  28.506  1.00  0.00     0.251 C 
ATOM     24  H   UNL A   1      31.745  34.296  27.109  1.00  0.00     0.163 HD
ATOM     25  O   UNL A   1      32.797  35.757  28.747  1.00  0.00    -0.269 OA
BRANCH  23  26
ATOM     26  C   UNL A   1      34.291  34.013  29.233  1.00  0.00     0.039 A 
ATOM     27  C   UNL A   1      34.029  33.111  30.266  1.00  0.00     0.014 A 
ATOM     28  C   UNL A   1      35.606  34.306  28.861  1.00  0.00     0.014 A 
ATOM     29  C   UNL A   1      35.089  32.442  30.880  1.00  0.00     0.010 A 
ATOM     30  C   UNL A   1      36.655  33.592  29.427  1.00  0.00     0.010 A 
ATOM     31  C   UNL A   1      36.405  32.650  30.437  1.00  0.00    -0.014 A 
BRANCH  31  32
ATOM     32  C   UNL A   1      37.537  31.883  31.009  1.00  0.00     0.031 A 
ATOM     33  C   UNL A   1      38.030  32.192  32.394  1.00  0.00     0.074 A 
ATOM     34  C   UNL A   1      38.170  30.967  30.252  1.00  0.00     0.049 A 
ATOM     35  N   UNL A   1      39.057  31.696  33.035  1.00  0.00    -0.248 NA
ATOM     36  C   UNL A   1      37.289  33.216  33.145  1.00  0.00     0.031 C 
ATOM     37  C   UNL A   1      37.819  30.618  28.874  1.00  0.00     0.029 A 
ATOM     38  N   UNL A   1      39.252  30.171  30.531  1.00  0.00    -0.354 N 
ATOM     39  C   UNL A   1      39.096  32.360  34.254  1.00  0.00     0.074 A 
ATOM     40  C   UNL A   1      38.019  33.326  34.245  1.00  0.00     0.031 C 
ATOM     41  C   UNL A   1      38.657  29.665  28.435  1.00  0.00     0.029 A 
ATOM     42  C   UNL A   1      39.621  29.359  29.487  1.00  0.00     0.049 A 
ATOM     43  H   UNL A   1      39.718  30.181  31.398  1.00  0.00     0.167 HD
ATOM     44  C   UNL A   1      39.940  32.166  35.295  1.00  0.00     0.037 A 
ATOM     45  C   UNL A   1      40.627  28.470  29.389  1.00  0.00     0.037 A 
ATOM     46  C   UNL A   1      40.987  31.179  35.314  1.00  0.00     0.049 A 
ATOM     47  C   UNL A   1      41.537  28.258  30.566  1.00  0.00     0.074 A 
ATOM     48  C   UNL A   1      41.853  30.862  36.345  1.00  0.00     0.029 A 
ATOM     49  N   UNL A   1      41.307  30.349  34.251  1.00  0.00    -0.354 N 
ATOM     50  N   UNL A   1      41.524  28.848  31.737  1.00  0.00    -0.248 NA
ATOM     51  C   UNL A   1      42.600  27.254  30.411  1.00  0.00     0.031 C 
ATOM     52  C   UNL A   1      42.717  29.857  35.895  1.00  0.00     0.029 A 
ATOM     53  C   UNL A   1      42.365  29.526  34.597  1.00  0.00     0.049 A 
ATOM     54  H   UNL A   1      40.848  30.344  33.379  1.00  0.00     0.167 HD
ATOM     55  C   UNL A   1      42.551  28.267  32.468  1.00  0.00     0.074 A 
ATOM     56  C   UNL A   1      43.164  27.273  31.611  1.00  0.00     0.031 C 
ATOM     57  C   UNL A   1      42.951  28.533  33.734  1.00  0.00     0.037 A 
BRANCH  44  58
ATOM     58  C   UNL A   1      39.754  33.034  36.503  1.00  0.00     0.057 A 
ATOM     59  C   UNL A   1      40.484  34.216  36.680  1.00  0.00     0.134 A 
ATOM     60  C   UNL A   1      38.815  32.699  37.486  1.00  0.00     0.134 A 
ATOM     61  F   UNL A   1      41.409  34.585  35.781  1.00  0.00    -0.206 F 
ATOM     62  C   UNL A   1      40.306  35.022  37.805  1.00  0.00     0.040 A 
ATOM     63  C   UNL A   1      38.610  33.510  38.604  1.00  0.00     0.040 A 
ATOM     64  F   UNL A   1      38.079  31.582  37.375  1.00  0.00    -0.206 F 
ATOM     65  C   UNL A   1      39.361  34.672  38.769  1.00  0.00     0.006 A 
ENDBRANCH  44  58
BRANCH  45  66
ATOM     66  C   UNL A   1      40.810  27.689  28.142  1.00  0.00     0.057 A 
ATOM     67  C   UNL A   1      41.586  28.187  27.089  1.00  0.00     0.134 A 
ATOM     68  C   UNL A   1      40.216  26.434  27.968  1.00  0.00     0.134 A 
ATOM     69  F   UNL A   1      42.166  29.393  27.192  1.00  0.00    -0.206 F 
ATOM     70  C   UNL A   1      41.751  27.476  25.901  1.00  0.00     0.040 A 
ATOM     71  C   UNL A   1      40.389  25.700  26.793  1.00  0.00     0.040 A 
ATOM     72  F   UNL A   1      39.467  25.898  28.943  1.00  0.00    -0.206 F 
ATOM     73  C   UNL A   1      41.154  26.225  25.753  1.00  0.00     0.006 A 
ENDBRANCH  45  66
BRANCH  57  74
ATOM     74  C   UNL A   1      44.079  27.713  34.282  1.00  0.00     0.057 A 
ATOM     75  C   UNL A   1      45.406  28.157  34.235  1.00  0.00     0.134 A 
ATOM     76  C   UNL A   1      43.827  26.483  34.905  1.00  0.00     0.134 A 
ATOM     77  F   UNL A   1      45.713  29.319  33.639  1.00  0.00    -0.206 F 
ATOM     78  C   UNL A   1      46.446  27.398  34.774  1.00  0.00     0.040 A 
ATOM     79  C   UNL A   1      44.856  25.726  35.467  1.00  0.00     0.040 A 
ATOM     80  F   UNL A   1      42.576  26.006  34.989  1.00  0.00    -0.206 F 
ATOM     81  C   UNL A   1      46.170  26.182  35.398  1.00  0.00     0.006 A 
ENDBRANCH  57  74
ENDBRANCH  31  32
ENDBRANCH  23  26
ENDBRANCH  21  22
ENDBRANCH   1  21
TORSDOF 12
ENDMDL
