MODEL 1
REMARK VINA RESULT:     -12.9      0.000      0.000
REMARK SMILES O=C(NCCCCNC(=O)c1cc2c(c(S(=O)(=O)Nc3cc(C(F)(F)F)ccc3-n3cccn3)c1)CCC2)c1ccc(-c2c3nc(c(-c4c(F)cccc4F)c4ccc([nH]4)c(-c4c(F)cccc4F)c4nc(c(-c5c(F)cccc5F)c5ccc2[nH]5)C=C4)C=C3)cc1
REMARK SMILES IDX 6 1 5 2 4 3 3 4 1 5 2 6 39 8 40 9 92 10 41 11 91 12 42 13
REMARK SMILES IDX 43 14 44 15 85 16 45 17 90 18 84 19 86 20 46 21 89 22 83 23
REMARK SMILES IDX 82 24 47 26 73 27 56 28 72 29 57 30 60 31 71 32 87 33 58 34
REMARK SMILES IDX 59 35 70 37 88 38 61 39 48 40 49 41 54 42 50 43 51 44 53 45
REMARK SMILES IDX 55 46 52 47 74 48 75 49 80 50 76 51 77 52 79 53 81 54 78 55
REMARK SMILES IDX 62 56 63 57 68 58 64 59 65 60 67 61 69 62 66 63 7 64 8 65
REMARK SMILES IDX 9 66 10 68 11 69 12 70 35 71 13 72 15 73 14 74 38 75 36 76
REMARK SMILES IDX 37 77 16 78 17 79 18 80 19 81 20 83 21 84 29 85 22 86 28 87
REMARK SMILES IDX 27 88 30 89 31 90 34 91 32 92 33 93 23 94 24 95 25 96 26 97
REMARK H PARENT 3 7 86 25 60 36 8 67 19 82
REMARK Flexibility Score: inf
ROOT
ATOM      1  C   UNL A   1      35.034  30.548  27.604  1.00  0.00     0.023 C 
ENDROOT
BRANCH   1   2
ATOM      2  C   UNL A   1      34.070  31.726  27.745  1.00  0.00     0.023 C 
BRANCH   2   3
ATOM      3  C   UNL A   1      34.555  32.881  28.622  1.00  0.00     0.116 C 
BRANCH   3   4
ATOM      4  N   UNL A   1      34.435  32.661  30.051  1.00  0.00    -0.352 N 
ATOM      5  O   UNL A   1      34.824  32.235  32.181  1.00  0.00    -0.269 OA
ATOM      6  C   UNL A   1      35.230  32.113  31.022  1.00  0.00     0.251 C 
ATOM      7  H   UNL A   1      33.574  32.981  30.408  1.00  0.00     0.163 HD
BRANCH   6   8
ATOM      8  C   UNL A   1      36.500  31.368  30.790  1.00  0.00     0.039 A 
ATOM      9  C   UNL A   1      37.760  31.940  30.631  1.00  0.00     0.014 A 
ATOM     10  C   UNL A   1      36.400  29.962  30.745  1.00  0.00     0.014 A 
ATOM     11  C   UNL A   1      38.879  31.140  30.390  1.00  0.00     0.010 A 
ATOM     12  C   UNL A   1      37.517  29.154  30.523  1.00  0.00     0.010 A 
ATOM     13  C   UNL A   1      38.762  29.747  30.333  1.00  0.00    -0.014 A 
BRANCH  13  14
ATOM     14  C   UNL A   1      39.998  28.965  30.244  1.00  0.00     0.031 A 
ATOM     15  C   UNL A   1      40.743  28.787  31.527  1.00  0.00     0.074 A 
ATOM     16  C   UNL A   1      40.424  28.289  29.158  1.00  0.00     0.049 A 
ATOM     17  N   UNL A   1      41.959  29.129  31.807  1.00  0.00    -0.248 NA
ATOM     18  C   UNL A   1      40.017  28.182  32.653  1.00  0.00     0.031 C 
ATOM     19  C   UNL A   1      39.704  28.035  27.912  1.00  0.00     0.029 A 
ATOM     20  N   UNL A   1      41.593  27.596  28.994  1.00  0.00    -0.354 N 
ATOM     21  C   UNL A   1      42.215  28.643  33.089  1.00  0.00     0.074 A 
ATOM     22  C   UNL A   1      40.958  28.156  33.598  1.00  0.00     0.031 C 
ATOM     23  C   UNL A   1      40.365  27.090  27.204  1.00  0.00     0.029 A 
ATOM     24  C   UNL A   1      41.611  26.768  27.883  1.00  0.00     0.049 A 
ATOM     25  H   UNL A   1      42.355  27.678  29.612  1.00  0.00     0.167 HD
ATOM     26  C   UNL A   1      43.479  28.517  33.580  1.00  0.00     0.037 A 
ATOM     27  C   UNL A   1      42.555  25.848  27.565  1.00  0.00     0.037 A 
ATOM     28  C   UNL A   1      44.420  29.329  32.856  1.00  0.00     0.049 A 
ATOM     29  C   UNL A   1      43.789  26.160  28.321  1.00  0.00     0.074 A 
ATOM     30  C   UNL A   1      44.545  30.676  32.580  1.00  0.00     0.029 A 
ATOM     31  N   UNL A   1      45.319  28.704  32.030  1.00  0.00    -0.354 N 
ATOM     32  N   UNL A   1      44.587  27.155  28.066  1.00  0.00    -0.248 NA
ATOM     33  C   UNL A   1      43.989  25.517  29.611  1.00  0.00     0.031 C 
ATOM     34  C   UNL A   1      45.139  30.739  31.285  1.00  0.00     0.029 A 
ATOM     35  C   UNL A   1      45.354  29.426  30.867  1.00  0.00     0.049 A 
ATOM     36  H   UNL A   1      45.839  27.894  32.234  1.00  0.00     0.167 HD
ATOM     37  C   UNL A   1      45.085  27.532  29.301  1.00  0.00     0.074 A 
ATOM     38  C   UNL A   1      44.794  26.411  30.186  1.00  0.00     0.031 C 
ATOM     39  C   UNL A   1      45.431  28.828  29.557  1.00  0.00     0.037 A 
BRANCH  26  40
ATOM     40  C   UNL A   1      43.932  27.419  34.517  1.00  0.00     0.057 A 
ATOM     41  C   UNL A   1      44.563  27.758  35.730  1.00  0.00     0.134 A 
ATOM     42  C   UNL A   1      44.050  26.066  34.143  1.00  0.00     0.134 A 
ATOM     43  F   UNL A   1      44.536  29.017  36.194  1.00  0.00    -0.206 F 
ATOM     44  C   UNL A   1      45.321  26.841  36.469  1.00  0.00     0.040 A 
ATOM     45  C   UNL A   1      44.761  25.130  34.901  1.00  0.00     0.040 A 
ATOM     46  F   UNL A   1      43.570  25.600  32.983  1.00  0.00    -0.206 F 
ATOM     47  C   UNL A   1      45.429  25.522  36.049  1.00  0.00     0.006 A 
ENDBRANCH  26  40
BRANCH  27  48
ATOM     48  C   UNL A   1      42.427  24.593  26.792  1.00  0.00     0.057 A 
ATOM     49  C   UNL A   1      43.069  24.431  25.555  1.00  0.00     0.134 A 
ATOM     50  C   UNL A   1      41.895  23.427  27.368  1.00  0.00     0.134 A 
ATOM     51  F   UNL A   1      43.645  25.475  24.942  1.00  0.00    -0.206 F 
ATOM     52  C   UNL A   1      43.195  23.179  24.939  1.00  0.00     0.040 A 
ATOM     53  C   UNL A   1      42.003  22.174  26.758  1.00  0.00     0.040 A 
ATOM     54  F   UNL A   1      41.329  23.452  28.584  1.00  0.00    -0.206 F 
ATOM     55  C   UNL A   1      42.670  22.044  25.546  1.00  0.00     0.006 A 
ENDBRANCH  27  48
BRANCH  39  56
ATOM     56  C   UNL A   1      45.605  29.758  28.393  1.00  0.00     0.057 A 
ATOM     57  C   UNL A   1      44.564  30.500  27.816  1.00  0.00     0.134 A 
ATOM     58  C   UNL A   1      46.901  30.013  27.929  1.00  0.00     0.134 A 
ATOM     59  F   UNL A   1      43.307  30.405  28.270  1.00  0.00    -0.206 F 
ATOM     60  C   UNL A   1      44.799  31.412  26.783  1.00  0.00     0.040 A 
ATOM     61  C   UNL A   1      47.153  30.949  26.925  1.00  0.00     0.040 A 
ATOM     62  F   UNL A   1      47.953  29.385  28.476  1.00  0.00    -0.206 F 
ATOM     63  C   UNL A   1      46.098  31.643  26.338  1.00  0.00     0.006 A 
ENDBRANCH  39  56
ENDBRANCH  13  14
ENDBRANCH   6   8
ENDBRANCH   3   4
ENDBRANCH   2   3
ENDBRANCH   1   2
BRANCH   1  64
ATOM     64  C   UNL A   1      34.433  29.229  27.127  1.00  0.00     0.116 C 
BRANCH  64  65
ATOM     65  N   UNL A   1      33.150  28.892  27.744  1.00  0.00    -0.352 N 
ATOM     66  C   UNL A   1      32.196  27.976  27.332  1.00  0.00     0.251 C 
ATOM     67  H   UNL A   1      32.935  29.386  28.568  1.00  0.00     0.163 HD
ATOM     68  O   UNL A   1      31.141  27.852  27.942  1.00  0.00    -0.269 OA
BRANCH  66  69
ATOM     69  C   UNL A   1      32.448  27.168  26.113  1.00  0.00     0.041 A 
ATOM     70  C   UNL A   1      32.299  27.780  24.869  1.00  0.00     0.018 A 
ATOM     71  C   UNL A   1      32.648  25.774  26.226  1.00  0.00     0.036 A 
ATOM     72  C   UNL A   1      32.080  26.957  23.786  1.00  0.00    -0.043 A 
ATOM     73  C   UNL A   1      32.493  24.945  25.097  1.00  0.00     0.092 A 
ATOM     74  C   UNL A   1      32.087  25.555  23.914  1.00  0.00    -0.024 A 
ATOM     75  C   UNL A   1      31.611  27.391  22.429  1.00  0.00     0.036 C 
ATOM     76  C   UNL A   1      31.419  24.984  22.701  1.00  0.00     0.037 C 
ATOM     77  C   UNL A   1      31.701  26.072  21.664  1.00  0.00     0.010 C 
BRANCH  73  78
ATOM     78  S   UNL A   1      32.503  23.172  25.294  1.00  0.00     0.262 S 
ATOM     79  O   UNL A   1      32.899  22.893  26.663  1.00  0.00    -0.201 OA
ATOM     80  O   UNL A   1      31.246  22.660  24.794  1.00  0.00    -0.201 OA
BRANCH  78  81
ATOM     81  N   UNL A   1      33.745  22.465  24.354  1.00  0.00    -0.277 N 
ATOM     82  H   UNL A   1      34.182  22.997  23.651  1.00  0.00     0.180 HD
BRANCH  81  83
ATOM     83  C   UNL A   1      34.158  21.108  24.574  1.00  0.00     0.075 A 
ATOM     84  C   UNL A   1      33.268  20.065  24.268  1.00  0.00     0.042 A 
ATOM     85  C   UNL A   1      35.479  20.801  24.938  1.00  0.00     0.089 A 
ATOM     86  C   UNL A   1      33.703  18.722  24.260  1.00  0.00     0.058 A 
ATOM     87  C   UNL A   1      35.908  19.464  24.961  1.00  0.00     0.031 A 
ATOM     88  C   UNL A   1      35.025  18.434  24.629  1.00  0.00     0.015 A 
BRANCH  85  89
ATOM     89  N   UNL A   1      36.420  21.819  25.230  1.00  0.00    -0.239 N 
ATOM     90  C   UNL A   1      37.771  21.833  24.958  1.00  0.00     0.115 A 
ATOM     91  N   UNL A   1      36.051  22.921  25.933  1.00  0.00    -0.177 NA
ATOM     92  C   UNL A   1      38.315  22.861  25.686  1.00  0.00     0.042 A 
ATOM     93  C   UNL A   1      37.211  23.477  26.293  1.00  0.00     0.135 A 
ENDBRANCH  85  89
BRANCH  86  94
ATOM     94  C   UNL A   1      32.783  17.622  23.776  1.00  0.00     0.416 C 
ATOM     95  F   UNL A   1      33.439  16.455  23.547  1.00  0.00    -0.166 F 
ATOM     96  F   UNL A   1      31.801  17.336  24.675  1.00  0.00    -0.166 F 
ATOM     97  F   UNL A   1      32.139  17.930  22.615  1.00  0.00    -0.166 F 
ENDBRANCH  86  94
ENDBRANCH  81  83
ENDBRANCH  78  81
ENDBRANCH  73  78
ENDBRANCH  66  69
ENDBRANCH  64  65
ENDBRANCH   1  64
TORSDOF 16
ENDMDL
MODEL 2
REMARK VINA RESULT:     -12.9      1.359      2.181
REMARK SMILES O=C(NCCCCNC(=O)c1cc2c(c(S(=O)(=O)Nc3cc(C(F)(F)F)ccc3-n3cccn3)c1)CCC2)c1ccc(-c2c3nc(c(-c4c(F)cccc4F)c4ccc([nH]4)c(-c4c(F)cccc4F)c4nc(c(-c5c(F)cccc5F)c5ccc2[nH]5)C=C4)C=C3)cc1
REMARK SMILES IDX 6 1 5 2 4 3 3 4 1 5 2 6 39 8 40 9 92 10 41 11 91 12 42 13
REMARK SMILES IDX 43 14 44 15 85 16 45 17 90 18 84 19 86 20 46 21 89 22 83 23
REMARK SMILES IDX 82 24 47 26 73 27 56 28 72 29 57 30 60 31 71 32 87 33 58 34
REMARK SMILES IDX 59 35 70 37 88 38 61 39 48 40 49 41 54 42 50 43 51 44 53 45
REMARK SMILES IDX 55 46 52 47 74 48 75 49 80 50 76 51 77 52 79 53 81 54 78 55
REMARK SMILES IDX 62 56 63 57 68 58 64 59 65 60 67 61 69 62 66 63 7 64 8 65
REMARK SMILES IDX 9 66 10 68 11 69 12 70 35 71 13 72 15 73 14 74 38 75 36 76
REMARK SMILES IDX 37 77 16 78 17 79 18 80 19 81 20 83 21 84 29 85 22 86 28 87
REMARK SMILES IDX 27 88 30 89 31 90 34 91 32 92 33 93 23 94 24 95 25 96 26 97
REMARK H PARENT 3 7 86 25 60 36 8 67 19 82
REMARK Flexibility Score: inf
ROOT
ATOM      1  C   UNL A   1      35.240  29.905  27.654  1.00  0.00     0.023 C 
ENDROOT
BRANCH   1   2
ATOM      2  C   UNL A   1      35.722  31.315  27.999  1.00  0.00     0.023 C 
BRANCH   2   3
ATOM      3  C   UNL A   1      34.678  32.240  28.625  1.00  0.00     0.116 C 
BRANCH   3   4
ATOM      4  N   UNL A   1      34.659  32.251  30.076  1.00  0.00    -0.352 N 
ATOM      5  O   UNL A   1      35.198  32.164  32.214  1.00  0.00    -0.269 OA
ATOM      6  C   UNL A   1      35.521  31.855  31.064  1.00  0.00     0.251 C 
ATOM      7  H   UNL A   1      33.826  32.633  30.436  1.00  0.00     0.163 HD
BRANCH   6   8
ATOM      8  C   UNL A   1      36.771  31.067  30.866  1.00  0.00     0.039 A 
ATOM      9  C   UNL A   1      38.039  31.599  30.640  1.00  0.00     0.014 A 
ATOM     10  C   UNL A   1      36.642  29.664  30.929  1.00  0.00     0.014 A 
ATOM     11  C   UNL A   1      39.136  30.759  30.439  1.00  0.00     0.010 A 
ATOM     12  C   UNL A   1      37.738  28.819  30.748  1.00  0.00     0.010 A 
ATOM     13  C   UNL A   1      38.990  29.368  30.490  1.00  0.00    -0.014 A 
BRANCH  13  14
ATOM     14  C   UNL A   1      40.209  28.556  30.437  1.00  0.00     0.031 A 
ATOM     15  C   UNL A   1      40.958  28.431  31.724  1.00  0.00     0.074 A 
ATOM     16  C   UNL A   1      40.613  27.812  29.388  1.00  0.00     0.049 A 
ATOM     17  N   UNL A   1      42.183  28.762  31.979  1.00  0.00    -0.248 NA
ATOM     18  C   UNL A   1      40.226  27.905  32.886  1.00  0.00     0.031 C 
ATOM     19  C   UNL A   1      39.878  27.506  28.162  1.00  0.00     0.029 A 
ATOM     20  N   UNL A   1      41.764  27.085  29.256  1.00  0.00    -0.354 N 
ATOM     21  C   UNL A   1      42.437  28.341  33.284  1.00  0.00     0.074 A 
ATOM     22  C   UNL A   1      41.173  27.911  33.825  1.00  0.00     0.031 C 
ATOM     23  C   UNL A   1      40.514  26.509  27.504  1.00  0.00     0.029 A 
ATOM     24  C   UNL A   1      41.757  26.197  28.192  1.00  0.00     0.049 A 
ATOM     25  H   UNL A   1      42.533  27.184  29.864  1.00  0.00     0.167 HD
ATOM     26  C   UNL A   1      43.701  28.215  33.774  1.00  0.00     0.037 A 
ATOM     27  C   UNL A   1      42.679  25.240  27.919  1.00  0.00     0.037 A 
ATOM     28  C   UNL A   1      44.654  28.964  33.001  1.00  0.00     0.049 A 
ATOM     29  C   UNL A   1      43.925  25.566  28.651  1.00  0.00     0.074 A 
ATOM     30  C   UNL A   1      44.807  30.291  32.651  1.00  0.00     0.029 A 
ATOM     31  N   UNL A   1      45.534  28.276  32.207  1.00  0.00    -0.354 N 
ATOM     32  N   UNL A   1      44.743  26.528  28.337  1.00  0.00    -0.248 NA
ATOM     33  C   UNL A   1      44.119  24.991  29.973  1.00  0.00     0.031 C 
ATOM     34  C   UNL A   1      45.393  30.270  31.351  1.00  0.00     0.029 A 
ATOM     35  C   UNL A   1      45.577  28.931  31.005  1.00  0.00     0.049 A 
ATOM     36  H   UNL A   1      46.038  27.466  32.451  1.00  0.00     0.167 HD
ATOM     37  C   UNL A   1      45.257  26.961  29.547  1.00  0.00     0.074 A 
ATOM     38  C   UNL A   1      44.947  25.897  30.493  1.00  0.00     0.031 C 
ATOM     39  C   UNL A   1      45.632  28.261  29.730  1.00  0.00     0.037 A 
BRANCH  26  40
ATOM     40  C   UNL A   1      44.136  27.159  34.767  1.00  0.00     0.057 A 
ATOM     41  C   UNL A   1      43.962  25.797  34.453  1.00  0.00     0.134 A 
ATOM     42  C   UNL A   1      44.430  27.425  36.119  1.00  0.00     0.134 A 
ATOM     43  F   UNL A   1      43.667  25.410  33.203  1.00  0.00    -0.206 F 
ATOM     44  C   UNL A   1      43.994  24.788  35.424  1.00  0.00     0.040 A 
ATOM     45  C   UNL A   1      44.516  26.420  37.087  1.00  0.00     0.040 A 
ATOM     46  F   UNL A   1      44.551  28.672  36.593  1.00  0.00    -0.206 F 
ATOM     47  C   UNL A   1      44.263  25.100  36.749  1.00  0.00     0.006 A 
ENDBRANCH  26  40
BRANCH  27  48
ATOM     48  C   UNL A   1      42.518  23.948  27.218  1.00  0.00     0.057 A 
ATOM     49  C   UNL A   1      42.912  23.792  25.880  1.00  0.00     0.134 A 
ATOM     50  C   UNL A   1      42.225  22.765  27.916  1.00  0.00     0.134 A 
ATOM     51  F   UNL A   1      43.252  24.857  25.139  1.00  0.00    -0.206 F 
ATOM     52  C   UNL A   1      43.031  22.532  25.280  1.00  0.00     0.040 A 
ATOM     53  C   UNL A   1      42.328  21.502  27.325  1.00  0.00     0.040 A 
ATOM     54  F   UNL A   1      41.915  22.790  29.221  1.00  0.00    -0.206 F 
ATOM     55  C   UNL A   1      42.748  21.381  26.006  1.00  0.00     0.006 A 
ENDBRANCH  27  48
BRANCH  39  56
ATOM     56  C   UNL A   1      45.819  29.122  28.515  1.00  0.00     0.057 A 
ATOM     57  C   UNL A   1      44.780  29.808  27.870  1.00  0.00     0.134 A 
ATOM     58  C   UNL A   1      47.121  29.372  28.067  1.00  0.00     0.134 A 
ATOM     59  F   UNL A   1      43.514  29.717  28.300  1.00  0.00    -0.206 F 
ATOM     60  C   UNL A   1      45.024  30.660  26.789  1.00  0.00     0.040 A 
ATOM     61  C   UNL A   1      47.382  30.250  27.013  1.00  0.00     0.040 A 
ATOM     62  F   UNL A   1      48.170  28.798  28.676  1.00  0.00    -0.206 F 
ATOM     63  C   UNL A   1      46.330  30.888  26.361  1.00  0.00     0.006 A 
ENDBRANCH  39  56
ENDBRANCH  13  14
ENDBRANCH   6   8
ENDBRANCH   3   4
ENDBRANCH   2   3
ENDBRANCH   1   2
BRANCH   1  64
ATOM     64  C   UNL A   1      33.960  29.805  26.829  1.00  0.00     0.116 C 
BRANCH  64  65
ATOM     65  N   UNL A   1      32.941  28.925  27.399  1.00  0.00    -0.352 N 
ATOM     66  C   UNL A   1      32.486  27.701  26.938  1.00  0.00     0.251 C 
ATOM     67  H   UNL A   1      32.520  29.248  28.228  1.00  0.00     0.163 HD
ATOM     68  O   UNL A   1      31.579  27.111  27.514  1.00  0.00    -0.269 OA
BRANCH  66  69
ATOM     69  C   UNL A   1      33.082  27.124  25.708  1.00  0.00     0.041 A 
ATOM     70  C   UNL A   1      32.554  27.502  24.473  1.00  0.00     0.018 A 
ATOM     71  C   UNL A   1      34.032  26.082  25.811  1.00  0.00     0.036 A 
ATOM     72  C   UNL A   1      32.776  26.657  23.409  1.00  0.00    -0.043 A 
ATOM     73  C   UNL A   1      34.307  25.266  24.697  1.00  0.00     0.092 A 
ATOM     74  C   UNL A   1      33.570  25.502  23.540  1.00  0.00    -0.024 A 
ATOM     75  C   UNL A   1      32.076  26.705  22.083  1.00  0.00     0.036 C 
ATOM     76  C   UNL A   1      33.273  24.611  22.373  1.00  0.00     0.037 C 
ATOM     77  C   UNL A   1      32.847  25.632  21.317  1.00  0.00     0.010 C 
BRANCH  73  78
ATOM     78  S   UNL A   1      35.314  23.807  24.897  1.00  0.00     0.262 S 
ATOM     79  O   UNL A   1      35.410  23.169  23.597  1.00  0.00    -0.201 OA
ATOM     80  O   UNL A   1      36.519  24.188  25.599  1.00  0.00    -0.201 OA
BRANCH  78  81
ATOM     81  N   UNL A   1      34.512  22.646  25.866  1.00  0.00    -0.277 N 
ATOM     82  H   UNL A   1      34.478  22.771  26.842  1.00  0.00     0.180 HD
BRANCH  81  83
ATOM     83  C   UNL A   1      33.890  21.495  25.277  1.00  0.00     0.075 A 
ATOM     84  C   UNL A   1      34.680  20.374  24.971  1.00  0.00     0.042 A 
ATOM     85  C   UNL A   1      32.494  21.410  25.149  1.00  0.00     0.089 A 
ATOM     86  C   UNL A   1      34.083  19.149  24.599  1.00  0.00     0.058 A 
ATOM     87  C   UNL A   1      31.899  20.202  24.750  1.00  0.00     0.031 A 
ATOM     88  C   UNL A   1      32.688  19.083  24.473  1.00  0.00     0.015 A 
BRANCH  85  89
ATOM     89  N   UNL A   1      31.655  22.504  25.471  1.00  0.00    -0.239 N 
ATOM     90  C   UNL A   1      30.969  23.334  24.610  1.00  0.00     0.115 A 
ATOM     91  N   UNL A   1      31.509  22.907  26.760  1.00  0.00    -0.177 NA
ATOM     92  C   UNL A   1      30.552  24.415  25.345  1.00  0.00     0.042 A 
ATOM     93  C   UNL A   1      30.940  24.112  26.657  1.00  0.00     0.135 A 
ENDBRANCH  85  89
BRANCH  86  94
ATOM     94  C   UNL A   1      34.930  17.907  24.426  1.00  0.00     0.416 C 
ATOM     95  F   UNL A   1      36.259  18.155  24.568  1.00  0.00    -0.166 F 
ATOM     96  F   UNL A   1      34.625  16.941  25.336  1.00  0.00    -0.166 F 
ATOM     97  F   UNL A   1      34.782  17.321  23.204  1.00  0.00    -0.166 F 
ENDBRANCH  86  94
ENDBRANCH  81  83
ENDBRANCH  78  81
ENDBRANCH  73  78
ENDBRANCH  66  69
ENDBRANCH  64  65
ENDBRANCH   1  64
TORSDOF 16
ENDMDL
MODEL 3
REMARK VINA RESULT:     -12.9      3.606      8.641
REMARK SMILES O=C(NCCCCNC(=O)c1cc2c(c(S(=O)(=O)Nc3cc(C(F)(F)F)ccc3-n3cccn3)c1)CCC2)c1ccc(-c2c3nc(c(-c4c(F)cccc4F)c4ccc([nH]4)c(-c4c(F)cccc4F)c4nc(c(-c5c(F)cccc5F)c5ccc2[nH]5)C=C4)C=C3)cc1
REMARK SMILES IDX 6 1 5 2 4 3 3 4 1 5 2 6 39 8 40 9 92 10 41 11 91 12 42 13
REMARK SMILES IDX 43 14 44 15 85 16 45 17 90 18 84 19 86 20 46 21 89 22 83 23
REMARK SMILES IDX 82 24 47 26 73 27 56 28 72 29 57 30 60 31 71 32 87 33 58 34
REMARK SMILES IDX 59 35 70 37 88 38 61 39 48 40 49 41 54 42 50 43 51 44 53 45
REMARK SMILES IDX 55 46 52 47 74 48 75 49 80 50 76 51 77 52 79 53 81 54 78 55
REMARK SMILES IDX 62 56 63 57 68 58 64 59 65 60 67 61 69 62 66 63 7 64 8 65
REMARK SMILES IDX 9 66 10 68 11 69 12 70 35 71 13 72 15 73 14 74 38 75 36 76
REMARK SMILES IDX 37 77 16 78 17 79 18 80 19 81 20 83 21 84 29 85 22 86 28 87
REMARK SMILES IDX 27 88 30 89 31 90 34 91 32 92 33 93 23 94 24 95 25 96 26 97
REMARK H PARENT 3 7 86 25 60 36 8 67 19 82
REMARK Flexibility Score: inf
ROOT
ATOM      1  C   UNL A   1      38.734  23.318  26.562  1.00  0.00     0.023 C 
ENDROOT
BRANCH   1   2
ATOM      2  C   UNL A   1      39.323  21.956  26.193  1.00  0.00     0.023 C 
BRANCH   2   3
ATOM      3  C   UNL A   1      40.778  21.727  26.605  1.00  0.00     0.116 C 
BRANCH   3   4
ATOM      4  N   UNL A   1      41.766  22.147  25.629  1.00  0.00    -0.352 N 
ATOM      5  O   UNL A   1      43.355  23.215  24.530  1.00  0.00    -0.269 OA
ATOM      6  C   UNL A   1      42.485  23.290  25.403  1.00  0.00     0.251 C 
ATOM      7  H   UNL A   1      41.967  21.442  24.972  1.00  0.00     0.163 HD
BRANCH   6   8
ATOM      8  C   UNL A   1      42.280  24.599  26.088  1.00  0.00     0.039 A 
ATOM      9  C   UNL A   1      41.474  25.639  25.629  1.00  0.00     0.014 A 
ATOM     10  C   UNL A   1      42.958  24.776  27.312  1.00  0.00     0.014 A 
ATOM     11  C   UNL A   1      41.382  26.835  26.344  1.00  0.00     0.010 A 
ATOM     12  C   UNL A   1      42.855  25.961  28.042  1.00  0.00     0.010 A 
ATOM     13  C   UNL A   1      42.071  27.001  27.550  1.00  0.00    -0.014 A 
BRANCH  13  14
ATOM     14  C   UNL A   1      41.796  28.213  28.327  1.00  0.00     0.031 A 
ATOM     15  C   UNL A   1      42.815  29.300  28.209  1.00  0.00     0.074 A 
ATOM     16  C   UNL A   1      40.657  28.474  29.000  1.00  0.00     0.049 A 
ATOM     17  N   UNL A   1      43.512  29.856  29.147  1.00  0.00    -0.248 NA
ATOM     18  C   UNL A   1      43.119  29.800  26.861  1.00  0.00     0.031 C 
ATOM     19  C   UNL A   1      39.403  27.724  28.978  1.00  0.00     0.029 A 
ATOM     20  N   UNL A   1      40.367  29.553  29.790  1.00  0.00    -0.354 N 
ATOM     21  C   UNL A   1      44.229  30.887  28.540  1.00  0.00     0.074 A 
ATOM     22  C   UNL A   1      44.024  30.744  27.121  1.00  0.00     0.031 C 
ATOM     23  C   UNL A   1      38.433  28.469  29.558  1.00  0.00     0.029 A 
ATOM     24  C   UNL A   1      39.022  29.684  30.101  1.00  0.00     0.049 A 
ATOM     25  H   UNL A   1      41.053  30.183  30.109  1.00  0.00     0.167 HD
ATOM     26  C   UNL A   1      44.804  31.892  29.257  1.00  0.00     0.037 A 
ATOM     27  C   UNL A   1      38.424  30.733  30.717  1.00  0.00     0.037 A 
ATOM     28  C   UNL A   1      44.977  31.535  30.639  1.00  0.00     0.049 A 
ATOM     29  C   UNL A   1      39.464  31.522  31.416  1.00  0.00     0.074 A 
ATOM     30  C   UNL A   1      45.637  30.529  31.317  1.00  0.00     0.029 A 
ATOM     31  N   UNL A   1      44.173  32.135  31.573  1.00  0.00    -0.354 N 
ATOM     32  N   UNL A   1      40.072  31.153  32.506  1.00  0.00    -0.248 NA
ATOM     33  C   UNL A   1      40.075  32.637  30.710  1.00  0.00     0.031 C 
ATOM     34  C   UNL A   1      44.839  30.270  32.470  1.00  0.00     0.029 A 
ATOM     35  C   UNL A   1      43.757  31.149  32.427  1.00  0.00     0.049 A 
ATOM     36  H   UNL A   1      43.938  33.090  31.621  1.00  0.00     0.167 HD
ATOM     37  C   UNL A   1      41.345  31.686  32.396  1.00  0.00     0.074 A 
ATOM     38  C   UNL A   1      41.245  32.695  31.350  1.00  0.00     0.031 C 
ATOM     39  C   UNL A   1      42.420  31.064  32.962  1.00  0.00     0.037 A 
BRANCH  26  40
ATOM     40  C   UNL A   1      44.924  33.324  28.784  1.00  0.00     0.057 A 
ATOM     41  C   UNL A   1      46.191  33.941  28.754  1.00  0.00     0.134 A 
ATOM     42  C   UNL A   1      43.831  34.204  28.654  1.00  0.00     0.134 A 
ATOM     43  F   UNL A   1      47.314  33.217  28.880  1.00  0.00    -0.206 F 
ATOM     44  C   UNL A   1      46.353  35.330  28.683  1.00  0.00     0.040 A 
ATOM     45  C   UNL A   1      43.984  35.589  28.529  1.00  0.00     0.040 A 
ATOM     46  F   UNL A   1      42.562  33.785  28.737  1.00  0.00    -0.206 F 
ATOM     47  C   UNL A   1      45.245  36.160  28.580  1.00  0.00     0.006 A 
ENDBRANCH  26  40
BRANCH  27  48
ATOM     48  C   UNL A   1      37.035  31.229  30.600  1.00  0.00     0.057 A 
ATOM     49  C   UNL A   1      36.254  31.480  31.739  1.00  0.00     0.134 A 
ATOM     50  C   UNL A   1      36.530  31.723  29.386  1.00  0.00     0.134 A 
ATOM     51  F   UNL A   1      36.668  31.085  32.952  1.00  0.00    -0.206 F 
ATOM     52  C   UNL A   1      35.055  32.200  31.676  1.00  0.00     0.040 A 
ATOM     53  C   UNL A   1      35.329  32.433  29.308  1.00  0.00     0.040 A 
ATOM     54  F   UNL A   1      37.232  31.609  28.248  1.00  0.00    -0.206 F 
ATOM     55  C   UNL A   1      34.594  32.688  30.458  1.00  0.00     0.006 A 
ENDBRANCH  27  48
BRANCH  39  56
ATOM     56  C   UNL A   1      42.166  30.007  33.996  1.00  0.00     0.057 A 
ATOM     57  C   UNL A   1      41.851  28.674  33.697  1.00  0.00     0.134 A 
ATOM     58  C   UNL A   1      42.382  30.323  35.343  1.00  0.00     0.134 A 
ATOM     59  F   UNL A   1      41.734  28.253  32.429  1.00  0.00    -0.206 F 
ATOM     60  C   UNL A   1      41.702  27.713  34.700  1.00  0.00     0.040 A 
ATOM     61  C   UNL A   1      42.274  29.364  36.351  1.00  0.00     0.040 A 
ATOM     62  F   UNL A   1      42.746  31.565  35.698  1.00  0.00    -0.206 F 
ATOM     63  C   UNL A   1      41.920  28.055  36.032  1.00  0.00     0.006 A 
ENDBRANCH  39  56
ENDBRANCH  13  14
ENDBRANCH   6   8
ENDBRANCH   3   4
ENDBRANCH   2   3
ENDBRANCH   1   2
BRANCH   1  64
ATOM     64  C   UNL A   1      37.520  23.776  25.759  1.00  0.00     0.116 C 
BRANCH  64  65
ATOM     65  N   UNL A   1      37.492  23.294  24.379  1.00  0.00    -0.352 N 
ATOM     66  C   UNL A   1      36.426  23.231  23.496  1.00  0.00     0.251 C 
ATOM     67  H   UNL A   1      38.352  22.969  24.027  1.00  0.00     0.163 HD
ATOM     68  O   UNL A   1      36.564  22.746  22.380  1.00  0.00    -0.269 OA
BRANCH  66  69
ATOM     69  C   UNL A   1      35.096  23.723  23.932  1.00  0.00     0.041 A 
ATOM     70  C   UNL A   1      34.402  22.993  24.897  1.00  0.00     0.018 A 
ATOM     71  C   UNL A   1      34.486  24.796  23.244  1.00  0.00     0.036 A 
ATOM     72  C   UNL A   1      33.037  23.172  24.959  1.00  0.00    -0.043 A 
ATOM     73  C   UNL A   1      33.101  25.017  23.368  1.00  0.00     0.092 A 
ATOM     74  C   UNL A   1      32.380  24.109  24.140  1.00  0.00    -0.024 A 
ATOM     75  C   UNL A   1      32.067  22.301  25.699  1.00  0.00     0.036 C 
ATOM     76  C   UNL A   1      30.922  23.769  24.137  1.00  0.00     0.037 C 
ATOM     77  C   UNL A   1      30.772  23.087  25.498  1.00  0.00     0.010 C 
BRANCH  73  78
ATOM     78  S   UNL A   1      32.297  26.210  22.312  1.00  0.00     0.262 S 
ATOM     79  O   UNL A   1      33.237  27.296  22.097  1.00  0.00    -0.201 OA
ATOM     80  O   UNL A   1      31.748  25.503  21.176  1.00  0.00    -0.201 OA
BRANCH  78  81
ATOM     81  N   UNL A   1      30.988  26.953  23.124  1.00  0.00    -0.277 N 
ATOM     82  H   UNL A   1      30.068  26.664  22.925  1.00  0.00     0.180 HD
BRANCH  81  83
ATOM     83  C   UNL A   1      31.210  27.991  24.091  1.00  0.00     0.075 A 
ATOM     84  C   UNL A   1      32.202  27.811  25.069  1.00  0.00     0.042 A 
ATOM     85  C   UNL A   1      30.568  29.235  23.981  1.00  0.00     0.089 A 
ATOM     86  C   UNL A   1      32.604  28.883  25.896  1.00  0.00     0.058 A 
ATOM     87  C   UNL A   1      30.944  30.295  24.822  1.00  0.00     0.031 A 
ATOM     88  C   UNL A   1      31.950  30.118  25.775  1.00  0.00     0.015 A 
BRANCH  85  89
ATOM     89  N   UNL A   1      29.581  29.472  22.994  1.00  0.00    -0.239 N 
ATOM     90  C   UNL A   1      29.667  30.280  21.880  1.00  0.00     0.115 A 
ATOM     91  N   UNL A   1      28.337  28.941  23.119  1.00  0.00    -0.177 NA
ATOM     92  C   UNL A   1      28.390  30.437  21.401  1.00  0.00     0.042 A 
ATOM     93  C   UNL A   1      27.608  29.614  22.224  1.00  0.00     0.135 A 
ENDBRANCH  85  89
BRANCH  86  94
ATOM     94  C   UNL A   1      33.779  28.725  26.836  1.00  0.00     0.416 C 
ATOM     95  F   UNL A   1      34.525  27.623  26.561  1.00  0.00    -0.166 F 
ATOM     96  F   UNL A   1      34.632  29.785  26.781  1.00  0.00    -0.166 F 
ATOM     97  F   UNL A   1      33.413  28.617  28.144  1.00  0.00    -0.166 F 
ENDBRANCH  86  94
ENDBRANCH  81  83
ENDBRANCH  78  81
ENDBRANCH  73  78
ENDBRANCH  66  69
ENDBRANCH  64  65
ENDBRANCH   1  64
TORSDOF 16
ENDMDL
