MODEL 1
REMARK VINA RESULT:     -11.9      0.000      0.000
REMARK SMILES Cn1cc([C@@H]2CC(NCCCCNC(=O)c3ccc(-c4c5nc(c(-c6c(F)cccc6F)c6ccc([nH]6)c(-c6c(F)cccc6F)c6nc(c(-c7c(F)cccc7F)c7ccc4[nH]7)C=C6)C=C5)cc3)=[NH+]c3c2sc(C(=O)[O-])c3-c2ccc(Cl)cc2)cn1
REMARK SMILES IDX 11 1 10 2 9 3 8 4 5 5 6 6 72 7 7 8 71 9 73 10 70 11 78 12
REMARK SMILES IDX 74 13 4 16 1 17 2 18 3 19 87 20 86 21 79 22 80 23 85 24
REMARK SMILES IDX 81 25 84 26 82 27 83 28 75 29 76 30 77 31 12 32 13 33 14 34
REMARK SMILES IDX 15 36 16 37 17 38 69 39 18 40 68 41 19 42 20 43 21 44 62 45
REMARK SMILES IDX 22 46 67 47 61 48 63 49 23 50 66 51 60 52 59 53 24 55 50 56
REMARK SMILES IDX 33 57 49 58 34 59 37 60 48 61 64 62 35 63 36 64 47 66 65 67
REMARK SMILES IDX 38 68 25 69 26 70 31 71 27 72 28 73 30 74 32 75 29 76 51 77
REMARK SMILES IDX 52 78 57 79 53 80 54 81 56 82 58 83 55 84 39 85 40 86 45 87
REMARK SMILES IDX 41 88 42 89 44 90 46 91 43 92
REMARK H PARENT 8 14 70 15 13 35 63 54 37 65
REMARK Flexibility Score: inf
ROOT
ATOM      1  C   UNL A   1      34.966  31.154  27.627  1.00  0.00     0.025 C 
ENDROOT
BRANCH   1   2
ATOM      2  C   UNL A   1      35.783  29.856  27.589  1.00  0.00     0.048 C 
BRANCH   2   3
ATOM      3  C   UNL A   1      35.011  28.577  27.257  1.00  0.00     0.233 C 
BRANCH   3   4
ATOM      4  N   UNL A   1      33.656  28.867  26.814  1.00  0.00    -0.278 N 
ATOM      5  C   UNL A   1      30.640  27.613  24.775  1.00  0.00     0.079 C 
ATOM      6  C   UNL A   1      31.472  28.482  25.730  1.00  0.00     0.142 C 
ATOM      7  C   UNL A   1      31.372  26.362  24.429  1.00  0.00     0.061 A 
ATOM      8  C   UNL A   1      32.908  28.021  26.015  1.00  0.00     0.248 C 
ATOM      9  C   UNL A   1      32.644  26.067  24.816  1.00  0.00     0.147 A 
ATOM     10  S   UNL A   1      30.703  25.109  23.495  1.00  0.00    -0.133 S 
ATOM     11  N   UNL A   1      33.434  26.908  25.597  1.00  0.00    -0.243 N 
ATOM     12  C   UNL A   1      33.119  24.802  24.344  1.00  0.00     0.049 A 
ATOM     13  C   UNL A   1      32.151  24.165  23.567  1.00  0.00     0.062 A 
ATOM     14  H   UNL A   1      33.248  29.717  27.100  1.00  0.00     0.304 HD
ATOM     15  H   UNL A   1      34.361  26.668  25.824  1.00  0.00     0.312 HD
BRANCH   5  16
ATOM     16  C   UNL A   1      30.209  28.360  23.543  1.00  0.00    -0.001 A 
ATOM     17  C   UNL A   1      28.029  30.124  21.276  1.00  0.00     0.173 C 
ATOM     18  N   UNL A   1      29.076  29.456  22.011  1.00  0.00    -0.276 N 
ATOM     19  C   UNL A   1      28.931  28.684  23.126  1.00  0.00     0.112 A 
ATOM     20  N   UNL A   1      30.355  29.605  21.627  1.00  0.00    -0.182 NA
ATOM     21  C   UNL A   1      31.044  28.962  22.570  1.00  0.00     0.139 A 
ENDBRANCH   5  16
BRANCH  12  22
ATOM     22  C   UNL A   1      34.424  24.231  24.663  1.00  0.00    -0.012 A 
ATOM     23  C   UNL A   1      35.412  24.076  23.683  1.00  0.00     0.010 A 
ATOM     24  C   UNL A   1      34.701  23.858  25.986  1.00  0.00     0.010 A 
ATOM     25  C   UNL A   1      36.643  23.502  24.015  1.00  0.00     0.021 A 
ATOM     26  C   UNL A   1      35.935  23.297  26.320  1.00  0.00     0.021 A 
ATOM     27  C   UNL A   1      36.896  23.109  25.328  1.00  0.00     0.041 A 
ATOM     28  Cl  UNL A   1      38.404  22.387  25.730  1.00  0.00    -0.084 Cl
ENDBRANCH  12  22
BRANCH  13  29
ATOM     29  C   UNL A   1      32.126  22.903  22.857  1.00  0.00     0.082 C 
ATOM     30  O   UNL A   1      31.509  21.882  23.146  1.00  0.00    -0.544 OA
ATOM     31  O   UNL A   1      32.895  22.894  21.750  1.00  0.00    -0.544 OA
ENDBRANCH  13  29
ENDBRANCH   3   4
ENDBRANCH   2   3
ENDBRANCH   1   2
BRANCH   1  32
ATOM     32  C   UNL A   1      35.677  32.346  28.256  1.00  0.00     0.116 C 
BRANCH  32  33
ATOM     33  N   UNL A   1      35.123  32.740  29.551  1.00  0.00    -0.352 N 
ATOM     34  C   UNL A   1      35.351  32.148  30.779  1.00  0.00     0.251 C 
ATOM     35  H   UNL A   1      34.518  33.517  29.546  1.00  0.00     0.163 HD
ATOM     36  O   UNL A   1      34.567  32.286  31.710  1.00  0.00    -0.269 OA
BRANCH  34  37
ATOM     37  C   UNL A   1      36.570  31.338  30.951  1.00  0.00     0.039 A 
ATOM     38  C   UNL A   1      36.535  29.942  30.908  1.00  0.00     0.014 A 
ATOM     39  C   UNL A   1      37.775  32.016  31.107  1.00  0.00     0.014 A 
ATOM     40  C   UNL A   1      37.739  29.240  30.923  1.00  0.00     0.010 A 
ATOM     41  C   UNL A   1      38.959  31.336  30.967  1.00  0.00     0.010 A 
ATOM     42  C   UNL A   1      38.955  29.946  30.923  1.00  0.00    -0.014 A 
BRANCH  42  43
ATOM     43  C   UNL A   1      40.225  29.244  30.742  1.00  0.00     0.031 A 
ATOM     44  C   UNL A   1      41.011  29.048  31.994  1.00  0.00     0.074 A 
ATOM     45  C   UNL A   1      40.562  28.608  29.597  1.00  0.00     0.049 A 
ATOM     46  N   UNL A   1      42.171  29.537  32.287  1.00  0.00    -0.248 NA
ATOM     47  C   UNL A   1      40.377  28.317  33.106  1.00  0.00     0.031 C 
ATOM     48  C   UNL A   1      39.749  28.436  28.385  1.00  0.00     0.029 A 
ATOM     49  N   UNL A   1      41.675  27.874  29.310  1.00  0.00    -0.354 N 
ATOM     50  C   UNL A   1      42.508  29.000  33.529  1.00  0.00     0.074 A 
ATOM     51  C   UNL A   1      41.306  28.413  34.058  1.00  0.00     0.031 C 
ATOM     52  C   UNL A   1      40.281  27.468  27.610  1.00  0.00     0.029 A 
ATOM     53  C   UNL A   1      41.565  27.089  28.166  1.00  0.00     0.049 A 
ATOM     54  H   UNL A   1      42.488  27.898  29.865  1.00  0.00     0.167 HD
ATOM     55  C   UNL A   1      43.811  28.848  33.894  1.00  0.00     0.037 A 
ATOM     56  C   UNL A   1      42.459  26.187  27.699  1.00  0.00     0.037 A 
ATOM     57  C   UNL A   1      44.679  29.647  33.066  1.00  0.00     0.049 A 
ATOM     58  C   UNL A   1      43.763  26.494  28.323  1.00  0.00     0.074 A 
ATOM     59  C   UNL A   1      44.831  30.993  32.805  1.00  0.00     0.029 A 
ATOM     60  N   UNL A   1      45.335  28.987  32.060  1.00  0.00    -0.354 N 
ATOM     61  N   UNL A   1      44.459  27.564  28.069  1.00  0.00    -0.248 NA
ATOM     62  C   UNL A   1      44.122  25.790  29.543  1.00  0.00     0.031 C 
ATOM     63  C   UNL A   1      45.193  31.066  31.426  1.00  0.00     0.029 A 
ATOM     64  C   UNL A   1      45.304  29.764  30.934  1.00  0.00     0.049 A 
ATOM     65  H   UNL A   1      45.759  28.101  32.134  1.00  0.00     0.167 HD
ATOM     66  C   UNL A   1      45.015  27.915  29.288  1.00  0.00     0.074 A 
ATOM     67  C   UNL A   1      44.895  26.717  30.113  1.00  0.00     0.031 C 
ATOM     68  C   UNL A   1      45.250  29.225  29.594  1.00  0.00     0.037 A 
BRANCH  55  69
ATOM     69  C   UNL A   1      44.342  27.666  34.681  1.00  0.00     0.057 A 
ATOM     70  C   UNL A   1      45.145  27.903  35.814  1.00  0.00     0.134 A 
ATOM     71  C   UNL A   1      44.370  26.341  34.201  1.00  0.00     0.134 A 
ATOM     72  F   UNL A   1      45.223  29.126  36.359  1.00  0.00    -0.206 F 
ATOM     73  C   UNL A   1      45.973  26.919  36.370  1.00  0.00     0.040 A 
ATOM     74  C   UNL A   1      45.153  25.337  34.782  1.00  0.00     0.040 A 
ATOM     75  F   UNL A   1      43.732  25.963  33.088  1.00  0.00    -0.206 F 
ATOM     76  C   UNL A   1      45.985  25.632  35.849  1.00  0.00     0.006 A 
ENDBRANCH  55  69
BRANCH  56  77
ATOM     77  C   UNL A   1      42.224  24.944  26.936  1.00  0.00     0.057 A 
ATOM     78  C   UNL A   1      42.841  24.721  25.697  1.00  0.00     0.134 A 
ATOM     79  C   UNL A   1      41.619  23.828  27.537  1.00  0.00     0.134 A 
ATOM     80  F   UNL A   1      43.476  25.717  25.065  1.00  0.00    -0.206 F 
ATOM     81  C   UNL A   1      42.878  23.453  25.102  1.00  0.00     0.040 A 
ATOM     82  C   UNL A   1      41.646  22.557  26.953  1.00  0.00     0.040 A 
ATOM     83  F   UNL A   1      41.062  23.917  28.755  1.00  0.00    -0.206 F 
ATOM     84  C   UNL A   1      42.291  22.362  25.737  1.00  0.00     0.006 A 
ENDBRANCH  56  77
BRANCH  68  85
ATOM     85  C   UNL A   1      45.233  30.216  28.460  1.00  0.00     0.057 A 
ATOM     86  C   UNL A   1      44.098  30.920  28.031  1.00  0.00     0.134 A 
ATOM     87  C   UNL A   1      46.450  30.555  27.859  1.00  0.00     0.134 A 
ATOM     88  F   UNL A   1      42.903  30.734  28.605  1.00  0.00    -0.206 F 
ATOM     89  C   UNL A   1      44.166  31.883  27.017  1.00  0.00     0.040 A 
ATOM     90  C   UNL A   1      46.538  31.540  26.873  1.00  0.00     0.040 A 
ATOM     91  F   UNL A   1      47.587  29.961  28.254  1.00  0.00    -0.206 F 
ATOM     92  C   UNL A   1      45.391  32.199  26.441  1.00  0.00     0.006 A 
ENDBRANCH  68  85
ENDBRANCH  42  43
ENDBRANCH  34  37
ENDBRANCH  32  33
ENDBRANCH   1  32
TORSDOF 13
ENDMDL
MODEL 2
REMARK VINA RESULT:     -11.8      3.333      8.107
REMARK SMILES Cn1cc([C@@H]2CC(NCCCCNC(=O)c3ccc(-c4c5nc(c(-c6c(F)cccc6F)c6ccc([nH]6)c(-c6c(F)cccc6F)c6nc(c(-c7c(F)cccc7F)c7ccc4[nH]7)C=C6)C=C5)cc3)=[NH+]c3c2sc(C(=O)[O-])c3-c2ccc(Cl)cc2)cn1
REMARK SMILES IDX 11 1 10 2 9 3 8 4 5 5 6 6 72 7 7 8 71 9 73 10 70 11 78 12
REMARK SMILES IDX 74 13 4 16 1 17 2 18 3 19 87 20 86 21 79 22 80 23 85 24
REMARK SMILES IDX 81 25 84 26 82 27 83 28 75 29 76 30 77 31 12 32 13 33 14 34
REMARK SMILES IDX 15 36 16 37 17 38 69 39 18 40 68 41 19 42 20 43 21 44 62 45
REMARK SMILES IDX 22 46 67 47 61 48 63 49 23 50 66 51 60 52 59 53 24 55 50 56
REMARK SMILES IDX 33 57 49 58 34 59 37 60 48 61 64 62 35 63 36 64 47 66 65 67
REMARK SMILES IDX 38 68 25 69 26 70 31 71 27 72 28 73 30 74 32 75 29 76 51 77
REMARK SMILES IDX 52 78 57 79 53 80 54 81 56 82 58 83 55 84 39 85 40 86 45 87
REMARK SMILES IDX 41 88 42 89 44 90 46 91 43 92
REMARK H PARENT 8 14 70 15 13 35 63 54 37 65
REMARK Flexibility Score: inf
ROOT
ATOM      1  C   UNL A   1      39.886  22.683  27.212  1.00  0.00     0.025 C 
ENDROOT
BRANCH   1   2
ATOM      2  C   UNL A   1      39.162  24.027  27.373  1.00  0.00     0.048 C 
BRANCH   2   3
ATOM      3  C   UNL A   1      37.761  24.121  26.761  1.00  0.00     0.233 C 
BRANCH   3   4
ATOM      4  N   UNL A   1      37.368  22.873  26.127  1.00  0.00    -0.278 N 
ATOM      5  C   UNL A   1      34.681  21.084  24.027  1.00  0.00     0.079 C 
ATOM      6  C   UNL A   1      36.011  21.334  24.756  1.00  0.00     0.142 C 
ATOM      7  C   UNL A   1      33.871  22.333  23.966  1.00  0.00     0.061 A 
ATOM      8  C   UNL A   1      36.195  22.708  25.411  1.00  0.00     0.248 C 
ATOM      9  C   UNL A   1      34.206  23.511  24.561  1.00  0.00     0.147 A 
ATOM     10  S   UNL A   1      32.399  22.458  23.126  1.00  0.00    -0.133 S 
ATOM     11  N   UNL A   1      35.364  23.703  25.311  1.00  0.00    -0.243 N 
ATOM     12  C   UNL A   1      33.251  24.558  24.357  1.00  0.00     0.049 A 
ATOM     13  C   UNL A   1      32.173  24.108  23.596  1.00  0.00     0.062 A 
ATOM     14  H   UNL A   1      37.972  22.100  26.212  1.00  0.00     0.304 HD
ATOM     15  H   UNL A   1      35.547  24.564  25.751  1.00  0.00     0.312 HD
BRANCH   5  16
ATOM     16  C   UNL A   1      33.901  19.946  24.626  1.00  0.00    -0.001 A 
ATOM     17  C   UNL A   1      32.905  16.549  25.309  1.00  0.00     0.173 C 
ATOM     18  N   UNL A   1      33.120  17.970  25.190  1.00  0.00    -0.276 N 
ATOM     19  C   UNL A   1      33.915  18.607  24.283  1.00  0.00     0.112 A 
ATOM     20  N   UNL A   1      32.530  18.805  26.061  1.00  0.00    -0.182 NA
ATOM     21  C   UNL A   1      33.023  20.001  25.736  1.00  0.00     0.139 A 
ENDBRANCH   5  16
BRANCH  12  22
ATOM     22  C   UNL A   1      33.401  25.927  24.842  1.00  0.00    -0.012 A 
ATOM     23  C   UNL A   1      33.871  26.950  24.009  1.00  0.00     0.010 A 
ATOM     24  C   UNL A   1      33.038  26.227  26.163  1.00  0.00     0.010 A 
ATOM     25  C   UNL A   1      34.028  28.246  24.511  1.00  0.00     0.021 A 
ATOM     26  C   UNL A   1      33.182  27.524  26.660  1.00  0.00     0.021 A 
ATOM     27  C   UNL A   1      33.689  28.524  25.834  1.00  0.00     0.041 A 
ATOM     28  Cl  UNL A   1      33.901  30.115  26.454  1.00  0.00    -0.084 Cl
ENDBRANCH  12  22
BRANCH  13  29
ATOM     29  C   UNL A   1      30.959  24.745  23.126  1.00  0.00     0.082 C 
ATOM     30  O   UNL A   1      30.807  25.902  22.748  1.00  0.00    -0.544 OA
ATOM     31  O   UNL A   1      29.889  23.925  23.126  1.00  0.00    -0.544 OA
ENDBRANCH  13  29
ENDBRANCH   3   4
ENDBRANCH   2   3
ENDBRANCH   1   2
BRANCH   1  32
ATOM     32  C   UNL A   1      41.343  22.679  27.655  1.00  0.00     0.116 C 
BRANCH  32  33
ATOM     33  N   UNL A   1      42.292  22.614  26.544  1.00  0.00    -0.352 N 
ATOM     34  C   UNL A   1      42.720  23.655  25.740  1.00  0.00     0.251 C 
ATOM     35  H   UNL A   1      42.669  21.726  26.346  1.00  0.00     0.163 HD
ATOM     36  O   UNL A   1      43.186  23.450  24.626  1.00  0.00    -0.269 OA
BRANCH  34  37
ATOM     37  C   UNL A   1      42.603  25.031  26.254  1.00  0.00     0.039 A 
ATOM     38  C   UNL A   1      41.653  25.923  25.751  1.00  0.00     0.014 A 
ATOM     39  C   UNL A   1      43.442  25.399  27.301  1.00  0.00     0.014 A 
ATOM     40  C   UNL A   1      41.490  27.155  26.382  1.00  0.00     0.010 A 
ATOM     41  C   UNL A   1      43.176  26.541  28.013  1.00  0.00     0.010 A 
ATOM     42  C   UNL A   1      42.237  27.449  27.536  1.00  0.00    -0.014 A 
BRANCH  42  43
ATOM     43  C   UNL A   1      41.949  28.645  28.327  1.00  0.00     0.031 A 
ATOM     44  C   UNL A   1      42.946  29.744  28.180  1.00  0.00     0.074 A 
ATOM     45  C   UNL A   1      40.767  28.851  28.952  1.00  0.00     0.049 A 
ATOM     46  N   UNL A   1      43.727  30.233  29.086  1.00  0.00    -0.248 NA
ATOM     47  C   UNL A   1      43.192  30.283  26.830  1.00  0.00     0.031 C 
ATOM     48  C   UNL A   1      39.567  28.004  28.918  1.00  0.00     0.029 A 
ATOM     49  N   UNL A   1      40.344  29.931  29.668  1.00  0.00    -0.354 N 
ATOM     50  C   UNL A   1      44.406  31.287  28.475  1.00  0.00     0.074 A 
ATOM     51  C   UNL A   1      44.175  31.154  27.061  1.00  0.00     0.031 C 
ATOM     52  C   UNL A   1      38.502  28.702  29.366  1.00  0.00     0.029 A 
ATOM     53  C   UNL A   1      38.972  29.965  29.898  1.00  0.00     0.049 A 
ATOM     54  H   UNL A   1      40.957  30.628  29.996  1.00  0.00     0.167 HD
ATOM     55  C   UNL A   1      44.877  32.333  29.209  1.00  0.00     0.037 A 
ATOM     56  C   UNL A   1      38.260  30.958  30.481  1.00  0.00     0.037 A 
ATOM     57  C   UNL A   1      44.939  31.999  30.609  1.00  0.00     0.049 A 
ATOM     58  C   UNL A   1      39.209  31.788  31.251  1.00  0.00     0.074 A 
ATOM     59  C   UNL A   1      45.607  31.066  31.373  1.00  0.00     0.029 A 
ATOM     60  N   UNL A   1      43.918  32.472  31.392  1.00  0.00    -0.354 N 
ATOM     61  N   UNL A   1      39.834  31.382  32.318  1.00  0.00    -0.248 NA
ATOM     62  C   UNL A   1      39.774  32.962  30.605  1.00  0.00     0.031 C 
ATOM     63  C   UNL A   1      44.694  30.710  32.410  1.00  0.00     0.029 A 
ATOM     64  C   UNL A   1      43.542  31.486  32.263  1.00  0.00     0.049 A 
ATOM     65  H   UNL A   1      43.520  33.371  31.337  1.00  0.00     0.167 HD
ATOM     66  C   UNL A   1      41.094  31.951  32.222  1.00  0.00     0.074 A 
ATOM     67  C   UNL A   1      40.948  33.018  31.237  1.00  0.00     0.031 C 
ATOM     68  C   UNL A   1      42.186  31.310  32.733  1.00  0.00     0.037 A 
BRANCH  55  69
ATOM     69  C   UNL A   1      44.858  33.776  28.742  1.00  0.00     0.057 A 
ATOM     70  C   UNL A   1      43.626  34.372  28.409  1.00  0.00     0.134 A 
ATOM     71  C   UNL A   1      45.996  34.483  28.304  1.00  0.00     0.134 A 
ATOM     72  F   UNL A   1      42.466  33.791  28.751  1.00  0.00    -0.206 F 
ATOM     73  C   UNL A   1      43.536  35.534  27.632  1.00  0.00     0.040 A 
ATOM     74  C   UNL A   1      45.919  35.673  27.572  1.00  0.00     0.040 A 
ATOM     75  F   UNL A   1      47.240  34.017  28.463  1.00  0.00    -0.206 F 
ATOM     76  C   UNL A   1      44.686  36.184  27.204  1.00  0.00     0.006 A 
ENDBRANCH  55  69
BRANCH  56  77
ATOM     77  C   UNL A   1      36.864  31.377  30.239  1.00  0.00     0.057 A 
ATOM     78  C   UNL A   1      35.990  31.651  31.301  1.00  0.00     0.134 A 
ATOM     79  C   UNL A   1      36.443  31.794  28.966  1.00  0.00     0.134 A 
ATOM     80  F   UNL A   1      36.323  31.323  32.557  1.00  0.00    -0.206 F 
ATOM     81  C   UNL A   1      34.778  32.328  31.111  1.00  0.00     0.040 A 
ATOM     82  C   UNL A   1      35.234  32.468  28.761  1.00  0.00     0.040 A 
ATOM     83  F   UNL A   1      37.235  31.643  27.893  1.00  0.00    -0.206 F 
ATOM     84  C   UNL A   1      34.403  32.751  29.839  1.00  0.00     0.006 A 
ENDBRANCH  56  77
BRANCH  68  85
ATOM     85  C   UNL A   1      41.941  30.182  33.700  1.00  0.00     0.057 A 
ATOM     86  C   UNL A   1      41.784  28.836  33.336  1.00  0.00     0.134 A 
ATOM     87  C   UNL A   1      41.983  30.464  35.070  1.00  0.00     0.134 A 
ATOM     88  F   UNL A   1      41.821  28.452  32.054  1.00  0.00    -0.206 F 
ATOM     89  C   UNL A   1      41.632  27.826  34.292  1.00  0.00     0.040 A 
ATOM     90  C   UNL A   1      41.869  29.461  36.034  1.00  0.00     0.040 A 
ATOM     91  F   UNL A   1      42.180  31.721  35.495  1.00  0.00    -0.206 F 
ATOM     92  C   UNL A   1      41.681  28.137  35.646  1.00  0.00     0.006 A 
ENDBRANCH  68  85
ENDBRANCH  42  43
ENDBRANCH  34  37
ENDBRANCH  32  33
ENDBRANCH   1  32
TORSDOF 13
ENDMDL
MODEL 3
REMARK VINA RESULT:     -11.5      3.043      7.379
REMARK SMILES Cn1cc([C@@H]2CC(NCCCCNC(=O)c3ccc(-c4c5nc(c(-c6c(F)cccc6F)c6ccc([nH]6)c(-c6c(F)cccc6F)c6nc(c(-c7c(F)cccc7F)c7ccc4[nH]7)C=C6)C=C5)cc3)=[NH+]c3c2sc(C(=O)[O-])c3-c2ccc(Cl)cc2)cn1
REMARK SMILES IDX 11 1 10 2 9 3 8 4 5 5 6 6 72 7 7 8 71 9 73 10 70 11 78 12
REMARK SMILES IDX 74 13 4 16 1 17 2 18 3 19 87 20 86 21 79 22 80 23 85 24
REMARK SMILES IDX 81 25 84 26 82 27 83 28 75 29 76 30 77 31 12 32 13 33 14 34
REMARK SMILES IDX 15 36 16 37 17 38 69 39 18 40 68 41 19 42 20 43 21 44 62 45
REMARK SMILES IDX 22 46 67 47 61 48 63 49 23 50 66 51 60 52 59 53 24 55 50 56
REMARK SMILES IDX 33 57 49 58 34 59 37 60 48 61 64 62 35 63 36 64 47 66 65 67
REMARK SMILES IDX 38 68 25 69 26 70 31 71 27 72 28 73 30 74 32 75 29 76 51 77
REMARK SMILES IDX 52 78 57 79 53 80 54 81 56 82 58 83 55 84 39 85 40 86 45 87
REMARK SMILES IDX 41 88 42 89 44 90 46 91 43 92
REMARK H PARENT 8 14 70 15 13 35 63 54 37 65
REMARK Flexibility Score: inf
ROOT
ATOM      1  C   UNL A   1      37.919  19.928  24.934  1.00  0.00     0.025 C 
ENDROOT
BRANCH   1   2
ATOM      2  C   UNL A   1      36.886  21.049  24.763  1.00  0.00     0.048 C 
BRANCH   2   3
ATOM      3  C   UNL A   1      37.204  22.111  23.706  1.00  0.00     0.233 C 
BRANCH   3   4
ATOM      4  N   UNL A   1      36.904  23.451  24.184  1.00  0.00    -0.278 N 
ATOM      5  C   UNL A   1      34.269  25.721  25.839  1.00  0.00     0.079 C 
ATOM      6  C   UNL A   1      35.620  25.257  25.271  1.00  0.00     0.142 C 
ATOM      7  C   UNL A   1      33.317  24.578  25.930  1.00  0.00     0.061 A 
ATOM      8  C   UNL A   1      35.700  23.812  24.763  1.00  0.00     0.248 C 
ATOM      9  C   UNL A   1      33.563  23.318  25.479  1.00  0.00     0.147 A 
ATOM     10  S   UNL A   1      31.772  24.697  26.628  1.00  0.00    -0.133 S 
ATOM     11  N   UNL A   1      34.753  22.927  24.868  1.00  0.00    -0.243 N 
ATOM     12  C   UNL A   1      32.478  22.405  25.680  1.00  0.00     0.049 A 
ATOM     13  C   UNL A   1      31.397  23.042  26.287  1.00  0.00     0.062 A 
ATOM     14  H   UNL A   1      37.599  24.142  24.091  1.00  0.00     0.304 HD
ATOM     15  H   UNL A   1      34.873  22.012  24.527  1.00  0.00     0.312 HD
BRANCH   5  16
ATOM     16  C   UNL A   1      33.683  26.870  25.066  1.00  0.00    -0.001 A 
ATOM     17  C   UNL A   1      31.573  28.608  22.716  1.00  0.00     0.173 C 
ATOM     18  N   UNL A   1      32.510  28.136  23.706  1.00  0.00    -0.276 N 
ATOM     19  C   UNL A   1      32.847  26.841  23.966  1.00  0.00     0.112 A 
ATOM     20  N   UNL A   1      33.120  29.019  24.514  1.00  0.00    -0.182 NA
ATOM     21  C   UNL A   1      33.812  28.250  25.356  1.00  0.00     0.139 A 
ENDBRANCH   5  16
BRANCH  12  22
ATOM     22  C   UNL A   1      32.510  20.986  25.336  1.00  0.00    -0.012 A 
ATOM     23  C   UNL A   1      32.190  20.541  24.048  1.00  0.00     0.010 A 
ATOM     24  C   UNL A   1      32.898  20.055  26.310  1.00  0.00     0.010 A 
ATOM     25  C   UNL A   1      32.203  19.173  23.756  1.00  0.00     0.021 A 
ATOM     26  C   UNL A   1      32.925  18.691  26.015  1.00  0.00     0.021 A 
ATOM     27  C   UNL A   1      32.564  18.256  24.742  1.00  0.00     0.041 A 
ATOM     28  Cl  UNL A   1      32.563  16.573  24.386  1.00  0.00    -0.084 Cl
ENDBRANCH  12  22
BRANCH  13  29
ATOM     29  C   UNL A   1      30.080  22.590  26.689  1.00  0.00     0.082 C 
ATOM     30  O   UNL A   1      29.440  21.638  26.256  1.00  0.00    -0.544 OA
ATOM     31  O   UNL A   1      29.527  23.345  27.660  1.00  0.00    -0.544 OA
ENDBRANCH  13  29
ENDBRANCH   3   4
ENDBRANCH   2   3
ENDBRANCH   1   2
BRANCH   1  32
ATOM     32  C   UNL A   1      39.081  20.258  25.862  1.00  0.00     0.116 C 
BRANCH  32  33
ATOM     33  N   UNL A   1      40.166  19.278  25.811  1.00  0.00    -0.352 N 
ATOM     34  C   UNL A   1      41.524  19.521  25.905  1.00  0.00     0.251 C 
ATOM     35  H   UNL A   1      39.897  18.338  25.697  1.00  0.00     0.163 HD
ATOM     36  O   UNL A   1      42.346  18.724  25.468  1.00  0.00    -0.269 OA
BRANCH  34  37
ATOM     37  C   UNL A   1      41.971  20.769  26.547  1.00  0.00     0.039 A 
ATOM     38  C   UNL A   1      42.446  21.849  25.800  1.00  0.00     0.014 A 
ATOM     39  C   UNL A   1      41.853  20.857  27.931  1.00  0.00     0.014 A 
ATOM     40  C   UNL A   1      42.708  23.053  26.452  1.00  0.00     0.010 A 
ATOM     41  C   UNL A   1      41.962  22.080  28.544  1.00  0.00     0.010 A 
ATOM     42  C   UNL A   1      42.435  23.173  27.825  1.00  0.00    -0.014 A 
BRANCH  42  43
ATOM     43  C   UNL A   1      42.513  24.472  28.491  1.00  0.00     0.031 A 
ATOM     44  C   UNL A   1      41.367  25.385  28.214  1.00  0.00     0.074 A 
ATOM     45  C   UNL A   1      43.411  24.752  29.464  1.00  0.00     0.049 A 
ATOM     46  N   UNL A   1      41.388  26.524  27.605  1.00  0.00    -0.248 NA
ATOM     47  C   UNL A   1      40.010  24.916  28.548  1.00  0.00     0.031 C 
ATOM     48  C   UNL A   1      44.394  23.846  30.074  1.00  0.00     0.029 A 
ATOM     49  N   UNL A   1      43.560  25.888  30.203  1.00  0.00    -0.354 N 
ATOM     50  C   UNL A   1      40.086  27.016  27.670  1.00  0.00     0.074 A 
ATOM     51  C   UNL A   1      39.257  25.919  28.093  1.00  0.00     0.031 C 
ATOM     52  C   UNL A   1      44.855  24.379  31.225  1.00  0.00     0.029 A 
ATOM     53  C   UNL A   1      44.355  25.735  31.336  1.00  0.00     0.049 A 
ATOM     54  H   UNL A   1      43.142  26.744  29.957  1.00  0.00     0.167 HD
ATOM     55  C   UNL A   1      39.842  28.356  27.632  1.00  0.00     0.037 A 
ATOM     56  C   UNL A   1      44.591  26.651  32.304  1.00  0.00     0.037 A 
ATOM     57  C   UNL A   1      40.983  29.076  27.127  1.00  0.00     0.049 A 
ATOM     58  C   UNL A   1      44.260  27.978  31.746  1.00  0.00     0.074 A 
ATOM     59  C   UNL A   1      41.696  29.096  25.946  1.00  0.00     0.029 A 
ATOM     60  N   UNL A   1      41.778  29.687  28.062  1.00  0.00    -0.354 N 
ATOM     61  N   UNL A   1      44.935  28.560  30.798  1.00  0.00    -0.248 NA
ATOM     62  C   UNL A   1      42.924  28.503  31.975  1.00  0.00     0.031 C 
ATOM     63  C   UNL A   1      43.051  29.322  26.332  1.00  0.00     0.029 A 
ATOM     64  C   UNL A   1      43.088  29.490  27.718  1.00  0.00     0.049 A 
ATOM     65  H   UNL A   1      41.461  30.185  28.850  1.00  0.00     0.167 HD
ATOM     66  C   UNL A   1      43.976  29.198  30.029  1.00  0.00     0.074 A 
ATOM     67  C   UNL A   1      42.789  29.250  30.877  1.00  0.00     0.031 C 
ATOM     68  C   UNL A   1      44.155  29.355  28.684  1.00  0.00     0.037 A 
BRANCH  55  69
ATOM     69  C   UNL A   1      38.771  29.049  28.450  1.00  0.00     0.057 A 
ATOM     70  C   UNL A   1      38.704  28.809  29.836  1.00  0.00     0.134 A 
ATOM     71  C   UNL A   1      37.629  29.668  27.901  1.00  0.00     0.134 A 
ATOM     72  F   UNL A   1      39.717  28.209  30.480  1.00  0.00    -0.206 F 
ATOM     73  C   UNL A   1      37.561  29.089  30.596  1.00  0.00     0.040 A 
ATOM     74  C   UNL A   1      36.502  29.999  28.660  1.00  0.00     0.040 A 
ATOM     75  F   UNL A   1      37.491  29.892  26.589  1.00  0.00    -0.206 F 
ATOM     76  C   UNL A   1      36.451  29.678  30.006  1.00  0.00     0.006 A 
ENDBRANCH  55  69
BRANCH  56  77
ATOM     77  C   UNL A   1      44.863  26.446  33.742  1.00  0.00     0.057 A 
ATOM     78  C   UNL A   1      46.068  26.862  34.324  1.00  0.00     0.134 A 
ATOM     79  C   UNL A   1      43.832  26.097  34.631  1.00  0.00     0.134 A 
ATOM     80  F   UNL A   1      47.096  27.249  33.555  1.00  0.00    -0.206 F 
ATOM     81  C   UNL A   1      46.231  26.955  35.712  1.00  0.00     0.040 A 
ATOM     82  C   UNL A   1      43.982  26.182  36.019  1.00  0.00     0.040 A 
ATOM     83  F   UNL A   1      42.617  25.753  34.178  1.00  0.00    -0.206 F 
ATOM     84  C   UNL A   1      45.181  26.627  36.565  1.00  0.00     0.006 A 
ENDBRANCH  56  77
BRANCH  68  85
ATOM     85  C   UNL A   1      45.545  29.154  28.140  1.00  0.00     0.057 A 
ATOM     86  C   UNL A   1      46.055  27.931  27.682  1.00  0.00     0.134 A 
ATOM     87  C   UNL A   1      46.357  30.281  27.968  1.00  0.00     0.134 A 
ATOM     88  F   UNL A   1      45.322  26.812  27.719  1.00  0.00    -0.206 F 
ATOM     89  C   UNL A   1      47.333  27.828  27.120  1.00  0.00     0.040 A 
ATOM     90  C   UNL A   1      47.619  30.198  27.376  1.00  0.00     0.040 A 
ATOM     91  F   UNL A   1      45.917  31.493  28.336  1.00  0.00    -0.206 F 
ATOM     92  C   UNL A   1      48.116  28.966  26.960  1.00  0.00     0.006 A 
ENDBRANCH  68  85
ENDBRANCH  42  43
ENDBRANCH  34  37
ENDBRANCH  32  33
ENDBRANCH   1  32
TORSDOF 13
ENDMDL
