MODEL 1
REMARK VINA RESULT:     -12.4      0.000      0.000
REMARK SMILES Cc1c2c([nH]c(=O)c1C(=O)NCCCCNC(=O)c1ccc(-c3c4nc(c(-c5c(F)cccc5F)c5ccc([nH]5)c(-c5c(F)cccc5F)c5nc(c(-c6c(F)cccc6F)c6ccc3[nH]6)C=C5)C=C4)cc1)CC(C)(C)CC2=O
REMARK SMILES IDX 14 1 13 2 12 3 11 4 9 5 10 6 8 8 1 9 2 10 3 11 4 12 78 13
REMARK SMILES IDX 6 14 5 15 73 16 77 17 79 18 7 19 74 21 75 22 76 23 15 24
REMARK SMILES IDX 16 25 17 26 18 28 19 29 20 30 72 31 21 32 71 33 22 34 23 35
REMARK SMILES IDX 24 36 65 37 25 38 70 39 64 40 66 41 26 42 69 43 63 44 62 45
REMARK SMILES IDX 27 47 53 48 36 49 52 50 37 51 40 52 51 53 67 54 38 55 39 56
REMARK SMILES IDX 50 58 68 59 41 60 28 61 29 62 34 63 30 64 31 65 33 66 35 67
REMARK SMILES IDX 32 68 54 69 55 70 60 71 56 72 57 73 59 74 61 75 58 76 42 77
REMARK SMILES IDX 43 78 48 79 44 80 45 81 47 82 49 83 46 84
REMARK H PARENT 11 7 5 20 16 27 66 46 40 57
REMARK Flexibility Score: inf
ROOT
ATOM      1  C   UNL A   1      37.219  21.349  24.738  1.00  0.00     0.023 C 
ENDROOT
BRANCH   1   2
ATOM      2  C   UNL A   1      36.154  20.291  24.979  1.00  0.00     0.023 C 
BRANCH   2   3
ATOM      3  C   UNL A   1      34.726  20.821  25.173  1.00  0.00     0.116 C 
BRANCH   3   4
ATOM      4  N   UNL A   1      34.556  21.229  26.553  1.00  0.00    -0.352 N 
ATOM      5  C   UNL A   1      34.089  22.378  27.117  1.00  0.00     0.257 C 
ATOM      6  O   UNL A   1      34.307  22.535  28.320  1.00  0.00    -0.269 OA
ATOM      7  H   UNL A   1      34.827  20.546  27.208  1.00  0.00     0.163 HD
BRANCH   5   8
ATOM      8  C   UNL A   1      33.309  23.406  26.358  1.00  0.00     0.108 A 
ATOM      9  C   UNL A   1      35.251  24.474  25.128  1.00  0.00     0.046 C 
ATOM     10  C   UNL A   1      33.796  24.266  25.430  1.00  0.00    -0.020 A 
ATOM     11  C   UNL A   1      32.938  25.291  24.836  1.00  0.00     0.041 A 
ATOM     12  C   UNL A   1      31.873  25.724  25.529  1.00  0.00     0.030 A 
ATOM     13  C   UNL A   1      33.247  25.946  23.519  1.00  0.00     0.165 C 
ATOM     14  C   UNL A   1      31.925  23.706  26.882  1.00  0.00     0.261 A 
ATOM     15  N   UNL A   1      31.398  24.939  26.551  1.00  0.00    -0.325 N 
ATOM     16  C   UNL A   1      31.158  27.016  25.244  1.00  0.00     0.061 C 
ATOM     17  C   UNL A   1      32.501  27.210  23.144  1.00  0.00     0.088 C 
ATOM     18  O   UNL A   1      34.021  25.419  22.720  1.00  0.00    -0.294 OA
ATOM     19  O   UNL A   1      31.292  22.939  27.600  1.00  0.00    -0.269 OA
ATOM     20  H   UNL A   1      30.638  25.274  27.079  1.00  0.00     0.169 HD
ATOM     21  C   UNL A   1      32.014  27.978  24.381  1.00  0.00    -0.023 C 
ATOM     22  C   UNL A   1      33.226  28.538  25.164  1.00  0.00     0.012 C 
ATOM     23  C   UNL A   1      31.154  29.172  23.938  1.00  0.00     0.012 C 
ENDBRANCH   5   8
ENDBRANCH   3   4
ENDBRANCH   2   3
ENDBRANCH   1   2
BRANCH   1  24
ATOM     24  C   UNL A   1      38.373  21.294  25.720  1.00  0.00     0.116 C 
BRANCH  24  25
ATOM     25  N   UNL A   1      39.199  20.098  25.594  1.00  0.00    -0.352 N 
ATOM     26  C   UNL A   1      40.518  19.935  25.946  1.00  0.00     0.251 C 
ATOM     27  H   UNL A   1      38.756  19.308  25.206  1.00  0.00     0.163 HD
ATOM     28  O   UNL A   1      41.112  18.886  25.723  1.00  0.00    -0.269 OA
BRANCH  26  29
ATOM     29  C   UNL A   1      41.221  21.080  26.552  1.00  0.00     0.039 A 
ATOM     30  C   UNL A   1      41.830  22.016  25.714  1.00  0.00     0.014 A 
ATOM     31  C   UNL A   1      41.157  21.281  27.933  1.00  0.00     0.014 A 
ATOM     32  C   UNL A   1      42.297  23.210  26.259  1.00  0.00     0.010 A 
ATOM     33  C   UNL A   1      41.538  22.508  28.456  1.00  0.00     0.010 A 
ATOM     34  C   UNL A   1      42.109  23.482  27.624  1.00  0.00    -0.014 A 
BRANCH  34  35
ATOM     35  C   UNL A   1      42.518  24.777  28.214  1.00  0.00     0.031 A 
ATOM     36  C   UNL A   1      41.491  25.854  28.411  1.00  0.00     0.074 A 
ATOM     37  C   UNL A   1      43.813  25.005  28.504  1.00  0.00     0.049 A 
ATOM     38  N   UNL A   1      41.653  27.083  28.822  1.00  0.00    -0.248 NA
ATOM     39  C   UNL A   1      40.101  25.510  28.066  1.00  0.00     0.031 C 
ATOM     40  C   UNL A   1      44.909  24.053  28.309  1.00  0.00     0.029 A 
ATOM     41  N   UNL A   1      44.427  26.115  29.024  1.00  0.00    -0.354 N 
ATOM     42  C   UNL A   1      40.393  27.664  28.765  1.00  0.00     0.074 A 
ATOM     43  C   UNL A   1      39.489  26.672  28.227  1.00  0.00     0.031 C 
ATOM     44  C   UNL A   1      46.054  24.607  28.741  1.00  0.00     0.029 A 
ATOM     45  C   UNL A   1      45.779  25.961  29.211  1.00  0.00     0.049 A 
ATOM     46  H   UNL A   1      43.944  26.945  29.244  1.00  0.00     0.167 HD
ATOM     47  C   UNL A   1      40.017  28.902  29.158  1.00  0.00     0.037 A 
ATOM     48  C   UNL A   1      46.689  26.816  29.713  1.00  0.00     0.037 A 
ATOM     49  C   UNL A   1      40.909  29.868  29.735  1.00  0.00     0.049 A 
ATOM     50  C   UNL A   1      46.244  28.180  30.159  1.00  0.00     0.074 A 
ATOM     51  C   UNL A   1      40.619  31.135  30.211  1.00  0.00     0.029 A 
ATOM     52  N   UNL A   1      42.268  29.667  29.925  1.00  0.00    -0.354 N 
ATOM     53  N   UNL A   1      45.043  28.705  30.135  1.00  0.00    -0.248 NA
ATOM     54  C   UNL A   1      47.279  29.072  30.702  1.00  0.00     0.031 C 
ATOM     55  C   UNL A   1      41.808  31.708  30.672  1.00  0.00     0.029 A 
ATOM     56  C   UNL A   1      42.832  30.788  30.509  1.00  0.00     0.049 A 
ATOM     57  H   UNL A   1      42.759  28.849  29.682  1.00  0.00     0.167 HD
ATOM     58  C   UNL A   1      45.172  29.977  30.675  1.00  0.00     0.074 A 
ATOM     59  C   UNL A   1      46.567  30.142  31.029  1.00  0.00     0.031 C 
ATOM     60  C   UNL A   1      44.222  30.924  30.860  1.00  0.00     0.037 A 
BRANCH  47  61
ATOM     61  C   UNL A   1      38.572  29.261  28.997  1.00  0.00     0.057 A 
ATOM     62  C   UNL A   1      37.681  29.211  30.077  1.00  0.00     0.134 A 
ATOM     63  C   UNL A   1      38.068  29.672  27.757  1.00  0.00     0.134 A 
ATOM     64  F   UNL A   1      38.100  28.807  31.285  1.00  0.00    -0.206 F 
ATOM     65  C   UNL A   1      36.333  29.537  29.925  1.00  0.00     0.040 A 
ATOM     66  C   UNL A   1      36.726  30.023  27.599  1.00  0.00     0.040 A 
ATOM     67  F   UNL A   1      38.869  29.739  26.684  1.00  0.00    -0.206 F 
ATOM     68  C   UNL A   1      35.854  29.950  28.684  1.00  0.00     0.006 A 
ENDBRANCH  47  61
BRANCH  48  69
ATOM     69  C   UNL A   1      48.101  26.391  29.865  1.00  0.00     0.057 A 
ATOM     70  C   UNL A   1      48.532  25.752  31.033  1.00  0.00     0.134 A 
ATOM     71  C   UNL A   1      49.047  26.598  28.856  1.00  0.00     0.134 A 
ATOM     72  F   UNL A   1      47.674  25.541  32.042  1.00  0.00    -0.206 F 
ATOM     73  C   UNL A   1      49.856  25.344  31.199  1.00  0.00     0.040 A 
ATOM     74  C   UNL A   1      50.372  26.179  29.000  1.00  0.00     0.040 A 
ATOM     75  F   UNL A   1      48.694  27.200  27.709  1.00  0.00    -0.206 F 
ATOM     76  C   UNL A   1      50.779  25.553  30.175  1.00  0.00     0.006 A 
ENDBRANCH  48  69
BRANCH  60  77
ATOM     77  C   UNL A   1      44.649  32.214  31.489  1.00  0.00     0.057 A 
ATOM     78  C   UNL A   1      45.059  33.304  30.713  1.00  0.00     0.134 A 
ATOM     79  C   UNL A   1      44.581  32.388  32.876  1.00  0.00     0.134 A 
ATOM     80  F   UNL A   1      45.153  33.194  29.379  1.00  0.00    -0.206 F 
ATOM     81  C   UNL A   1      45.395  34.526  31.298  1.00  0.00     0.040 A 
ATOM     82  C   UNL A   1      44.896  33.610  33.471  1.00  0.00     0.040 A 
ATOM     83  F   UNL A   1      44.188  31.381  33.671  1.00  0.00    -0.206 F 
ATOM     84  C   UNL A   1      45.306  34.682  32.681  1.00  0.00     0.006 A 
ENDBRANCH  60  77
ENDBRANCH  34  35
ENDBRANCH  26  29
ENDBRANCH  24  25
ENDBRANCH   1  24
TORSDOF 11
ENDMDL
MODEL 2
REMARK VINA RESULT:     -12.3      0.128      1.320
REMARK SMILES Cc1c2c([nH]c(=O)c1C(=O)NCCCCNC(=O)c1ccc(-c3c4nc(c(-c5c(F)cccc5F)c5ccc([nH]5)c(-c5c(F)cccc5F)c5nc(c(-c6c(F)cccc6F)c6ccc3[nH]6)C=C5)C=C4)cc1)CC(C)(C)CC2=O
REMARK SMILES IDX 14 1 13 2 12 3 11 4 9 5 10 6 8 8 1 9 2 10 3 11 4 12 78 13
REMARK SMILES IDX 6 14 5 15 73 16 77 17 79 18 7 19 74 21 75 22 76 23 15 24
REMARK SMILES IDX 16 25 17 26 18 28 19 29 20 30 72 31 21 32 71 33 22 34 23 35
REMARK SMILES IDX 24 36 65 37 25 38 70 39 64 40 66 41 26 42 69 43 63 44 62 45
REMARK SMILES IDX 27 47 53 48 36 49 52 50 37 51 40 52 51 53 67 54 38 55 39 56
REMARK SMILES IDX 50 58 68 59 41 60 28 61 29 62 34 63 30 64 31 65 33 66 35 67
REMARK SMILES IDX 32 68 54 69 55 70 60 71 56 72 57 73 59 74 61 75 58 76 42 77
REMARK SMILES IDX 43 78 48 79 44 80 45 81 47 82 49 83 46 84
REMARK H PARENT 11 7 5 20 16 27 66 46 40 57
REMARK Flexibility Score: inf
ROOT
ATOM      1  C   UNL A   1      37.342  21.331  24.715  1.00  0.00     0.023 C 
ENDROOT
BRANCH   1   2
ATOM      2  C   UNL A   1      36.263  20.285  24.947  1.00  0.00     0.023 C 
BRANCH   2   3
ATOM      3  C   UNL A   1      34.840  20.830  25.132  1.00  0.00     0.116 C 
BRANCH   3   4
ATOM      4  N   UNL A   1      34.663  21.232  26.513  1.00  0.00    -0.352 N 
ATOM      5  C   UNL A   1      34.174  22.370  27.080  1.00  0.00     0.257 C 
ATOM      6  O   UNL A   1      34.389  22.529  28.283  1.00  0.00    -0.269 OA
ATOM      7  H   UNL A   1      34.948  20.553  27.166  1.00  0.00     0.163 HD
BRANCH   5   8
ATOM      8  C   UNL A   1      33.372  23.383  26.323  1.00  0.00     0.108 A 
ATOM      9  C   UNL A   1      35.285  24.460  25.055  1.00  0.00     0.046 C 
ATOM     10  C   UNL A   1      33.837  24.240  25.381  1.00  0.00    -0.020 A 
ATOM     11  C   UNL A   1      32.960  25.252  24.791  1.00  0.00     0.041 A 
ATOM     12  C   UNL A   1      31.901  25.680  25.496  1.00  0.00     0.030 A 
ATOM     13  C   UNL A   1      33.244  25.898  23.464  1.00  0.00     0.165 C 
ATOM     14  C   UNL A   1      31.993  23.675  26.866  1.00  0.00     0.261 A 
ATOM     15  N   UNL A   1      31.450  24.899  26.532  1.00  0.00    -0.325 N 
ATOM     16  C   UNL A   1      31.169  26.963  25.210  1.00  0.00     0.061 C 
ATOM     17  C   UNL A   1      32.480  27.151  23.089  1.00  0.00     0.088 C 
ATOM     18  O   UNL A   1      34.010  25.371  22.657  1.00  0.00    -0.294 OA
ATOM     19  O   UNL A   1      31.378  22.908  27.599  1.00  0.00    -0.269 OA
ATOM     20  H   UNL A   1      30.694  25.232  27.068  1.00  0.00     0.169 HD
ATOM     21  C   UNL A   1      32.004  27.925  24.326  1.00  0.00    -0.023 C 
ATOM     22  C   UNL A   1      33.221  28.503  25.086  1.00  0.00     0.012 C 
ATOM     23  C   UNL A   1      31.125  29.107  23.886  1.00  0.00     0.012 C 
ENDBRANCH   5   8
ENDBRANCH   3   4
ENDBRANCH   2   3
ENDBRANCH   1   2
BRANCH   1  24
ATOM     24  C   UNL A   1      38.480  21.274  25.716  1.00  0.00     0.116 C 
BRANCH  24  25
ATOM     25  N   UNL A   1      39.308  20.078  25.601  1.00  0.00    -0.352 N 
ATOM     26  C   UNL A   1      40.625  19.919  25.961  1.00  0.00     0.251 C 
ATOM     27  H   UNL A   1      38.868  19.286  25.216  1.00  0.00     0.163 HD
ATOM     28  O   UNL A   1      41.222  18.870  25.747  1.00  0.00    -0.269 OA
BRANCH  26  29
ATOM     29  C   UNL A   1      41.323  21.068  26.564  1.00  0.00     0.039 A 
ATOM     30  C   UNL A   1      41.949  21.991  25.725  1.00  0.00     0.014 A 
ATOM     31  C   UNL A   1      41.238  21.288  27.941  1.00  0.00     0.014 A 
ATOM     32  C   UNL A   1      42.413  23.191  26.262  1.00  0.00     0.010 A 
ATOM     33  C   UNL A   1      41.616  22.519  28.455  1.00  0.00     0.010 A 
ATOM     34  C   UNL A   1      42.205  23.480  27.620  1.00  0.00    -0.014 A 
BRANCH  34  35
ATOM     35  C   UNL A   1      42.610  24.781  28.201  1.00  0.00     0.031 A 
ATOM     36  C   UNL A   1      41.576  25.849  28.408  1.00  0.00     0.074 A 
ATOM     37  C   UNL A   1      43.906  25.020  28.474  1.00  0.00     0.049 A 
ATOM     38  N   UNL A   1      41.732  27.081  28.812  1.00  0.00    -0.248 NA
ATOM     39  C   UNL A   1      40.184  25.493  28.082  1.00  0.00     0.031 C 
ATOM     40  C   UNL A   1      45.008  24.078  28.267  1.00  0.00     0.029 A 
ATOM     41  N   UNL A   1      44.517  26.138  28.982  1.00  0.00    -0.354 N 
ATOM     42  C   UNL A   1      40.467  27.651  28.770  1.00  0.00     0.074 A 
ATOM     43  C   UNL A   1      39.564  26.650  28.247  1.00  0.00     0.031 C 
ATOM     44  C   UNL A   1      46.153  24.643  28.683  1.00  0.00     0.029 A 
ATOM     45  C   UNL A   1      45.872  25.996  29.152  1.00  0.00     0.049 A 
ATOM     46  H   UNL A   1      44.030  26.964  29.206  1.00  0.00     0.167 HD
ATOM     47  C   UNL A   1      40.085  28.887  29.164  1.00  0.00     0.037 A 
ATOM     48  C   UNL A   1      46.782  26.861  29.639  1.00  0.00     0.037 A 
ATOM     49  C   UNL A   1      40.976  29.863  29.726  1.00  0.00     0.049 A 
ATOM     50  C   UNL A   1      46.330  28.223  30.087  1.00  0.00     0.074 A 
ATOM     51  C   UNL A   1      40.681  31.128  30.201  1.00  0.00     0.029 A 
ATOM     52  N   UNL A   1      42.339  29.674  29.900  1.00  0.00    -0.354 N 
ATOM     53  N   UNL A   1      45.124  28.737  30.077  1.00  0.00    -0.248 NA
ATOM     54  C   UNL A   1      47.365  29.125  30.614  1.00  0.00     0.031 C 
ATOM     55  C   UNL A   1      41.870  31.713  30.646  1.00  0.00     0.029 A 
ATOM     56  C   UNL A   1      42.900  30.802  30.473  1.00  0.00     0.049 A 
ATOM     57  H   UNL A   1      42.833  28.860  29.653  1.00  0.00     0.167 HD
ATOM     58  C   UNL A   1      45.249  30.011  30.611  1.00  0.00     0.074 A 
ATOM     59  C   UNL A   1      46.648  30.190  30.947  1.00  0.00     0.031 C 
ATOM     60  C   UNL A   1      44.293  30.951  30.805  1.00  0.00     0.037 A 
BRANCH  47  61
ATOM     61  C   UNL A   1      38.635  29.233  29.020  1.00  0.00     0.057 A 
ATOM     62  C   UNL A   1      37.757  29.173  30.110  1.00  0.00     0.134 A 
ATOM     63  C   UNL A   1      38.113  29.641  27.788  1.00  0.00     0.134 A 
ATOM     64  F   UNL A   1      38.193  28.770  31.313  1.00  0.00    -0.206 F 
ATOM     65  C   UNL A   1      36.404  29.487  29.975  1.00  0.00     0.040 A 
ATOM     66  C   UNL A   1      36.766  29.980  27.645  1.00  0.00     0.040 A 
ATOM     67  F   UNL A   1      38.901  29.718  26.705  1.00  0.00    -0.206 F 
ATOM     68  C   UNL A   1      35.907  29.897  28.740  1.00  0.00     0.006 A 
ENDBRANCH  47  61
BRANCH  48  69
ATOM     69  C   UNL A   1      48.199  26.449  29.775  1.00  0.00     0.057 A 
ATOM     70  C   UNL A   1      49.123  26.727  28.761  1.00  0.00     0.134 A 
ATOM     71  C   UNL A   1      48.669  25.783  30.912  1.00  0.00     0.134 A 
ATOM     72  F   UNL A   1      48.728  27.349  27.640  1.00  0.00    -0.206 F 
ATOM     73  C   UNL A   1      50.462  26.348  28.867  1.00  0.00     0.040 A 
ATOM     74  C   UNL A   1      50.009  25.413  31.040  1.00  0.00     0.040 A 
ATOM     75  F   UNL A   1      47.832  25.494  31.921  1.00  0.00    -0.206 F 
ATOM     76  C   UNL A   1      50.909  25.693  30.013  1.00  0.00     0.006 A 
ENDBRANCH  48  69
BRANCH  60  77
ATOM     77  C   UNL A   1      44.717  32.247  31.424  1.00  0.00     0.057 A 
ATOM     78  C   UNL A   1      44.744  32.419  32.813  1.00  0.00     0.134 A 
ATOM     79  C   UNL A   1      45.169  33.304  30.626  1.00  0.00     0.134 A 
ATOM     80  F   UNL A   1      44.315  31.443  33.627  1.00  0.00    -0.206 F 
ATOM     81  C   UNL A   1      45.202  33.604  33.389  1.00  0.00     0.040 A 
ATOM     82  C   UNL A   1      45.646  34.488  31.191  1.00  0.00     0.040 A 
ATOM     83  F   UNL A   1      45.173  33.196  29.289  1.00  0.00    -0.206 F 
ATOM     84  C   UNL A   1      45.661  34.640  32.576  1.00  0.00     0.006 A 
ENDBRANCH  60  77
ENDBRANCH  34  35
ENDBRANCH  26  29
ENDBRANCH  24  25
ENDBRANCH   1  24
TORSDOF 11
ENDMDL
MODEL 3
REMARK VINA RESULT:     -12.2      0.716      6.358
REMARK SMILES Cc1c2c([nH]c(=O)c1C(=O)NCCCCNC(=O)c1ccc(-c3c4nc(c(-c5c(F)cccc5F)c5ccc([nH]5)c(-c5c(F)cccc5F)c5nc(c(-c6c(F)cccc6F)c6ccc3[nH]6)C=C5)C=C4)cc1)CC(C)(C)CC2=O
REMARK SMILES IDX 14 1 13 2 12 3 11 4 9 5 10 6 8 8 1 9 2 10 3 11 4 12 78 13
REMARK SMILES IDX 6 14 5 15 73 16 77 17 79 18 7 19 74 21 75 22 76 23 15 24
REMARK SMILES IDX 16 25 17 26 18 28 19 29 20 30 72 31 21 32 71 33 22 34 23 35
REMARK SMILES IDX 24 36 65 37 25 38 70 39 64 40 66 41 26 42 69 43 63 44 62 45
REMARK SMILES IDX 27 47 53 48 36 49 52 50 37 51 40 52 51 53 67 54 38 55 39 56
REMARK SMILES IDX 50 58 68 59 41 60 28 61 29 62 34 63 30 64 31 65 33 66 35 67
REMARK SMILES IDX 32 68 54 69 55 70 60 71 56 72 57 73 59 74 61 75 58 76 42 77
REMARK SMILES IDX 43 78 48 79 44 80 45 81 47 82 49 83 46 84
REMARK H PARENT 11 7 5 20 16 27 66 46 40 57
REMARK Flexibility Score: inf
ROOT
ATOM      1  C   UNL A   1      37.400  20.632  24.989  1.00  0.00     0.023 C 
ENDROOT
BRANCH   1   2
ATOM      2  C   UNL A   1      36.278  21.553  25.441  1.00  0.00     0.023 C 
BRANCH   2   3
ATOM      3  C   UNL A   1      34.863  20.966  25.349  1.00  0.00     0.116 C 
BRANCH   3   4
ATOM      4  N   UNL A   1      34.152  21.249  26.581  1.00  0.00    -0.352 N 
ATOM      5  C   UNL A   1      33.256  22.219  26.919  1.00  0.00     0.257 C 
ATOM      6  O   UNL A   1      33.020  22.363  28.120  1.00  0.00    -0.269 OA
ATOM      7  H   UNL A   1      34.354  20.622  27.311  1.00  0.00     0.163 HD
BRANCH   5   8
ATOM      8  C   UNL A   1      32.539  23.060  25.909  1.00  0.00     0.108 A 
ATOM      9  C   UNL A   1      34.316  24.846  25.625  1.00  0.00     0.046 C 
ATOM     10  C   UNL A   1      33.027  24.158  25.282  1.00  0.00    -0.020 A 
ATOM     11  C   UNL A   1      32.179  24.949  24.389  1.00  0.00     0.041 A 
ATOM     12  C   UNL A   1      30.849  24.924  24.571  1.00  0.00     0.030 A 
ATOM     13  C   UNL A   1      32.739  25.859  23.332  1.00  0.00     0.165 C 
ATOM     14  C   UNL A   1      31.049  22.838  25.802  1.00  0.00     0.261 A 
ATOM     15  N   UNL A   1      30.310  23.886  25.289  1.00  0.00    -0.325 N 
ATOM     16  C   UNL A   1      29.910  25.962  24.020  1.00  0.00     0.061 C 
ATOM     17  C   UNL A   1      31.819  26.875  22.687  1.00  0.00     0.088 C 
ATOM     18  O   UNL A   1      33.894  25.722  22.930  1.00  0.00    -0.294 OA
ATOM     19  O   UNL A   1      30.488  21.815  26.178  1.00  0.00    -0.269 OA
ATOM     20  H   UNL A   1      29.338  23.887  25.449  1.00  0.00     0.169 HD
ATOM     21  C   UNL A   1      30.652  27.260  23.609  1.00  0.00    -0.023 C 
ATOM     22  C   UNL A   1      31.185  28.038  24.835  1.00  0.00     0.012 C 
ATOM     23  C   UNL A   1      29.685  28.185  22.853  1.00  0.00     0.012 C 
ENDBRANCH   5   8
ENDBRANCH   3   4
ENDBRANCH   2   3
ENDBRANCH   1   2
BRANCH   1  24
ATOM     24  C   UNL A   1      38.719  20.875  25.698  1.00  0.00     0.116 C 
BRANCH  24  25
ATOM     25  N   UNL A   1      39.669  19.775  25.571  1.00  0.00    -0.352 N 
ATOM     26  C   UNL A   1      41.000  19.760  25.914  1.00  0.00     0.251 C 
ATOM     27  H   UNL A   1      39.312  18.940  25.191  1.00  0.00     0.163 HD
ATOM     28  O   UNL A   1      41.704  18.781  25.691  1.00  0.00    -0.269 OA
BRANCH  26  29
ATOM     29  C   UNL A   1      41.579  20.977  26.508  1.00  0.00     0.039 A 
ATOM     30  C   UNL A   1      42.077  21.968  25.661  1.00  0.00     0.014 A 
ATOM     31  C   UNL A   1      41.501  21.180  27.889  1.00  0.00     0.014 A 
ATOM     32  C   UNL A   1      42.416  23.210  26.196  1.00  0.00     0.010 A 
ATOM     33  C   UNL A   1      41.751  22.444  28.402  1.00  0.00     0.010 A 
ATOM     34  C   UNL A   1      42.208  23.469  27.560  1.00  0.00    -0.014 A 
BRANCH  34  35
ATOM     35  C   UNL A   1      42.477  24.805  28.140  1.00  0.00     0.031 A 
ATOM     36  C   UNL A   1      43.866  25.141  28.599  1.00  0.00     0.074 A 
ATOM     37  C   UNL A   1      41.467  25.677  28.315  1.00  0.00     0.049 A 
ATOM     38  N   UNL A   1      44.295  26.211  29.215  1.00  0.00    -0.248 NA
ATOM     39  C   UNL A   1      44.904  24.123  28.365  1.00  0.00     0.031 C 
ATOM     40  C   UNL A   1      40.067  25.443  27.954  1.00  0.00     0.029 A 
ATOM     41  N   UNL A   1      41.465  26.942  28.845  1.00  0.00    -0.354 N 
ATOM     42  C   UNL A   1      45.642  25.986  29.459  1.00  0.00     0.074 A 
ATOM     43  C   UNL A   1      45.948  24.657  28.977  1.00  0.00     0.031 C 
ATOM     44  C   UNL A   1      39.351  26.543  28.238  1.00  0.00     0.029 A 
ATOM     45  C   UNL A   1      40.232  27.545  28.829  1.00  0.00     0.049 A 
ATOM     46  H   UNL A   1      42.274  27.378  29.203  1.00  0.00     0.167 HD
ATOM     47  C   UNL A   1      46.552  26.824  30.005  1.00  0.00     0.037 A 
ATOM     48  C   UNL A   1      39.859  28.771  29.241  1.00  0.00     0.037 A 
ATOM     49  C   UNL A   1      46.255  28.160  30.440  1.00  0.00     0.049 A 
ATOM     50  C   UNL A   1      40.892  29.692  29.828  1.00  0.00     0.074 A 
ATOM     51  C   UNL A   1      47.116  29.108  30.963  1.00  0.00     0.029 A 
ATOM     52  N   UNL A   1      44.997  28.741  30.390  1.00  0.00    -0.354 N 
ATOM     53  N   UNL A   1      42.171  29.481  30.019  1.00  0.00    -0.248 NA
ATOM     54  C   UNL A   1      40.430  31.020  30.258  1.00  0.00     0.031 C 
ATOM     55  C   UNL A   1      46.374  30.258  31.248  1.00  0.00     0.029 A 
ATOM     56  C   UNL A   1      45.057  30.035  30.876  1.00  0.00     0.049 A 
ATOM     57  H   UNL A   1      44.183  28.299  30.058  1.00  0.00     0.167 HD
ATOM     58  C   UNL A   1      42.672  30.651  30.571  1.00  0.00     0.074 A 
ATOM     59  C   UNL A   1      41.560  31.575  30.674  1.00  0.00     0.031 C 
ATOM     60  C   UNL A   1      43.938  30.937  30.960  1.00  0.00     0.037 A 
BRANCH  47  61
ATOM     61  C   UNL A   1      47.957  26.319  30.133  1.00  0.00     0.057 A 
ATOM     62  C   UNL A   1      48.404  25.688  31.300  1.00  0.00     0.134 A 
ATOM     63  C   UNL A   1      48.867  26.454  29.077  1.00  0.00     0.134 A 
ATOM     64  F   UNL A   1      47.584  25.547  32.353  1.00  0.00    -0.206 F 
ATOM     65  C   UNL A   1      49.714  25.226  31.423  1.00  0.00     0.040 A 
ATOM     66  C   UNL A   1      50.174  25.975  29.180  1.00  0.00     0.040 A 
ATOM     67  F   UNL A   1      48.502  27.051  27.934  1.00  0.00    -0.206 F 
ATOM     68  C   UNL A   1      50.602  25.364  30.358  1.00  0.00     0.006 A 
ENDBRANCH  47  61
BRANCH  48  69
ATOM     69  C   UNL A   1      38.456  29.217  29.067  1.00  0.00     0.057 A 
ATOM     70  C   UNL A   1      38.009  29.701  27.832  1.00  0.00     0.134 A 
ATOM     71  C   UNL A   1      37.529  29.163  30.113  1.00  0.00     0.134 A 
ATOM     72  F   UNL A   1      38.856  29.791  26.796  1.00  0.00    -0.206 F 
ATOM     73  C   UNL A   1      36.693  30.127  27.645  1.00  0.00     0.040 A 
ATOM     74  C   UNL A   1      36.205  29.569  29.937  1.00  0.00     0.040 A 
ATOM     75  F   UNL A   1      37.896  28.703  31.319  1.00  0.00    -0.206 F 
ATOM     76  C   UNL A   1      35.785  30.055  28.701  1.00  0.00     0.006 A 
ENDBRANCH  48  69
BRANCH  60  77
ATOM     77  C   UNL A   1      44.196  32.304  31.512  1.00  0.00     0.057 A 
ATOM     78  C   UNL A   1      44.136  32.560  32.887  1.00  0.00     0.134 A 
ATOM     79  C   UNL A   1      44.578  33.353  30.669  1.00  0.00     0.134 A 
ATOM     80  F   UNL A   1      43.767  31.595  33.743  1.00  0.00    -0.206 F 
ATOM     81  C   UNL A   1      44.441  33.819  33.405  1.00  0.00     0.040 A 
ATOM     82  C   UNL A   1      44.903  34.612  31.176  1.00  0.00     0.040 A 
ATOM     83  F   UNL A   1      44.661  33.167  29.343  1.00  0.00    -0.206 F 
ATOM     84  C   UNL A   1      44.834  34.847  32.548  1.00  0.00     0.006 A 
ENDBRANCH  60  77
ENDBRANCH  34  35
ENDBRANCH  26  29
ENDBRANCH  24  25
ENDBRANCH   1  24
TORSDOF 11
ENDMDL
