MODEL 1
REMARK VINA RESULT:     -12.6      0.000      0.000
REMARK SMILES O=C(NCCCCNC(=O)[C@@H]1CCCC[C@@H]1C(=O)Nc1cccc(C(F)(F)F)c1)c1ccc(-c2c3nc(c(-c4c(F)cccc4F)c4ccc([nH]4)c(-c4c(F)cccc4F)c4nc(c(-c5c(F)cccc5F)c5ccc2[nH]5)C=C4)C=C3)cc1
REMARK SMILES IDX 6 1 5 2 4 3 3 4 1 5 2 6 30 8 31 9 83 10 32 11 82 12 33 13
REMARK SMILES IDX 34 14 35 15 76 16 36 17 81 18 75 19 77 20 37 21 80 22 74 23
REMARK SMILES IDX 73 24 38 26 64 27 47 28 63 29 48 30 51 31 62 32 78 33 49 34
REMARK SMILES IDX 50 35 61 37 79 38 52 39 39 40 40 41 45 42 41 43 42 44 44 45
REMARK SMILES IDX 46 46 43 47 65 48 66 49 71 50 67 51 68 52 70 53 72 54 69 55
REMARK SMILES IDX 53 56 54 57 59 58 55 59 56 60 58 61 60 62 57 63 7 64 8 65
REMARK SMILES IDX 9 66 10 68 11 69 12 70 16 71 13 72 15 73 14 74 17 75 18 76
REMARK SMILES IDX 19 77 20 79 21 80 29 81 22 82 24 83 23 84 25 85 26 86 27 87
REMARK SMILES IDX 28 88
REMARK H PARENT 3 7 77 25 51 36 8 67 19 78
REMARK Flexibility Score: inf
ROOT
ATOM      1  C   UNL A   1      36.935  20.284  24.885  1.00  0.00     0.023 C 
ENDROOT
BRANCH   1   2
ATOM      2  C   UNL A   1      38.105  19.307  25.013  1.00  0.00     0.023 C 
BRANCH   2   3
ATOM      3  C   UNL A   1      39.300  19.840  25.791  1.00  0.00     0.116 C 
BRANCH   3   4
ATOM      4  N   UNL A   1      40.397  18.888  25.845  1.00  0.00    -0.352 N 
ATOM      5  O   UNL A   1      42.556  18.227  25.902  1.00  0.00    -0.269 OA
ATOM      6  C   UNL A   1      41.732  19.124  26.062  1.00  0.00     0.251 C 
ATOM      7  H   UNL A   1      40.149  17.945  25.708  1.00  0.00     0.163 HD
BRANCH   6   8
ATOM      8  C   UNL A   1      42.176  20.471  26.475  1.00  0.00     0.039 A 
ATOM      9  C   UNL A   1      42.630  21.389  25.523  1.00  0.00     0.014 A 
ATOM     10  C   UNL A   1      42.120  20.825  27.825  1.00  0.00     0.014 A 
ATOM     11  C   UNL A   1      43.139  22.614  25.933  1.00  0.00     0.010 A 
ATOM     12  C   UNL A   1      42.553  22.091  28.226  1.00  0.00     0.010 A 
ATOM     13  C   UNL A   1      43.075  22.992  27.284  1.00  0.00    -0.014 A 
BRANCH  13  14
ATOM     14  C   UNL A   1      43.440  24.376  27.672  1.00  0.00     0.031 A 
ATOM     15  C   UNL A   1      42.394  25.389  28.038  1.00  0.00     0.074 A 
ATOM     16  C   UNL A   1      44.744  24.713  27.666  1.00  0.00     0.049 A 
ATOM     17  N   UNL A   1      42.549  26.651  28.350  1.00  0.00    -0.248 NA
ATOM     18  C   UNL A   1      40.995  24.936  28.049  1.00  0.00     0.031 C 
ATOM     19  C   UNL A   1      45.845  23.812  27.310  1.00  0.00     0.029 A 
ATOM     20  N   UNL A   1      45.370  25.898  27.960  1.00  0.00    -0.354 N 
ATOM     21  C   UNL A   1      41.272  27.149  28.572  1.00  0.00     0.074 A 
ATOM     22  C   UNL A   1      40.349  26.057  28.349  1.00  0.00     0.031 C 
ATOM     23  C   UNL A   1      47.007  24.470  27.422  1.00  0.00     0.029 A 
ATOM     24  C   UNL A   1      46.732  25.853  27.787  1.00  0.00     0.049 A 
ATOM     25  H   UNL A   1      44.890  26.702  28.264  1.00  0.00     0.167 HD
ATOM     26  C   UNL A   1      40.912  28.405  28.931  1.00  0.00     0.037 A 
ATOM     27  C   UNL A   1      47.657  26.827  27.870  1.00  0.00     0.037 A 
ATOM     28  C   UNL A   1      41.844  29.478  29.169  1.00  0.00     0.049 A 
ATOM     29  C   UNL A   1      47.217  28.217  28.226  1.00  0.00     0.074 A 
ATOM     30  C   UNL A   1      41.581  30.762  29.616  1.00  0.00     0.029 A 
ATOM     31  N   UNL A   1      43.213  29.400  28.965  1.00  0.00    -0.354 N 
ATOM     32  N   UNL A   1      46.015  28.653  28.511  1.00  0.00    -0.248 NA
ATOM     33  C   UNL A   1      48.260  29.251  28.265  1.00  0.00     0.031 C 
ATOM     34  C   UNL A   1      42.780  31.480  29.616  1.00  0.00     0.029 A 
ATOM     35  C   UNL A   1      43.800  30.627  29.228  1.00  0.00     0.049 A 
ATOM     36  H   UNL A   1      43.697  28.592  28.678  1.00  0.00     0.167 HD
ATOM     37  C   UNL A   1      46.157  30.009  28.775  1.00  0.00     0.074 A 
ATOM     38  C   UNL A   1      47.566  30.315  28.643  1.00  0.00     0.031 C 
ATOM     39  C   UNL A   1      45.204  30.917  29.090  1.00  0.00     0.037 A 
BRANCH  26  40
ATOM     40  C   UNL A   1      39.450  28.713  29.069  1.00  0.00     0.057 A 
ATOM     41  C   UNL A   1      38.774  28.593  30.289  1.00  0.00     0.134 A 
ATOM     42  C   UNL A   1      38.732  29.233  27.982  1.00  0.00     0.134 A 
ATOM     43  F   UNL A   1      39.400  28.099  31.367  1.00  0.00    -0.206 F 
ATOM     44  C   UNL A   1      37.435  28.971  30.422  1.00  0.00     0.040 A 
ATOM     45  C   UNL A   1      37.401  29.635  28.109  1.00  0.00     0.040 A 
ATOM     46  F   UNL A   1      39.320  29.384  26.786  1.00  0.00    -0.206 F 
ATOM     47  C   UNL A   1      36.749  29.504  29.333  1.00  0.00     0.006 A 
ENDBRANCH  26  40
BRANCH  27  48
ATOM     48  C   UNL A   1      49.078  26.530  27.559  1.00  0.00     0.057 A 
ATOM     49  C   UNL A   1      49.563  26.579  26.248  1.00  0.00     0.134 A 
ATOM     50  C   UNL A   1      49.982  26.173  28.569  1.00  0.00     0.134 A 
ATOM     51  F   UNL A   1      48.742  26.898  25.237  1.00  0.00    -0.206 F 
ATOM     52  C   UNL A   1      50.888  26.260  25.948  1.00  0.00     0.040 A 
ATOM     53  C   UNL A   1      51.318  25.883  28.287  1.00  0.00     0.040 A 
ATOM     54  F   UNL A   1      49.583  26.116  29.848  1.00  0.00    -0.206 F 
ATOM     55  C   UNL A   1      51.770  25.915  26.970  1.00  0.00     0.006 A 
ENDBRANCH  27  48
BRANCH  39  56
ATOM     56  C   UNL A   1      45.656  32.328  29.329  1.00  0.00     0.057 A 
ATOM     57  C   UNL A   1      45.709  33.268  28.292  1.00  0.00     0.134 A 
ATOM     58  C   UNL A   1      45.999  32.762  30.616  1.00  0.00     0.134 A 
ATOM     59  F   UNL A   1      45.411  32.911  27.034  1.00  0.00    -0.206 F 
ATOM     60  C   UNL A   1      46.101  34.587  28.525  1.00  0.00     0.040 A 
ATOM     61  C   UNL A   1      46.365  34.085  30.866  1.00  0.00     0.040 A 
ATOM     62  F   UNL A   1      45.964  31.912  31.653  1.00  0.00    -0.206 F 
ATOM     63  C   UNL A   1      46.421  35.001  29.817  1.00  0.00     0.006 A 
ENDBRANCH  39  56
ENDBRANCH  13  14
ENDBRANCH   6   8
ENDBRANCH   3   4
ENDBRANCH   2   3
ENDBRANCH   1   2
BRANCH   1  64
ATOM     64  C   UNL A   1      37.237  21.706  25.346  1.00  0.00     0.116 C 
BRANCH  64  65
ATOM     65  N   UNL A   1      36.249  22.175  26.302  1.00  0.00    -0.356 N 
ATOM     66  C   UNL A   1      35.186  23.012  26.159  1.00  0.00     0.223 C 
ATOM     67  H   UNL A   1      36.369  21.825  27.215  1.00  0.00     0.163 HD
ATOM     68  O   UNL A   1      34.547  23.292  27.172  1.00  0.00    -0.275 OA
BRANCH  66  69
ATOM     69  C   UNL A   1      34.784  23.502  24.780  1.00  0.00     0.091 C 
ATOM     70  C   UNL A   1      34.202  24.913  24.860  1.00  0.00     0.014 C 
ATOM     71  C   UNL A   1      33.871  22.492  24.064  1.00  0.00     0.091 C 
ATOM     72  C   UNL A   1      33.864  25.425  23.463  1.00  0.00     0.001 C 
ATOM     73  C   UNL A   1      33.428  23.042  22.693  1.00  0.00     0.014 C 
ATOM     74  C   UNL A   1      32.915  24.482  22.731  1.00  0.00     0.001 C 
BRANCH  71  75
ATOM     75  C   UNL A   1      32.632  22.072  24.865  1.00  0.00     0.228 C 
ATOM     76  O   UNL A   1      32.017  22.886  25.561  1.00  0.00    -0.274 OA
ATOM     77  N   UNL A   1      32.059  20.843  24.682  1.00  0.00    -0.326 N 
ATOM     78  H   UNL A   1      31.134  20.786  25.016  1.00  0.00     0.169 HD
BRANCH  77  79
ATOM     79  C   UNL A   1      32.524  19.647  24.115  1.00  0.00     0.041 A 
ATOM     80  C   UNL A   1      32.114  19.352  22.811  1.00  0.00     0.026 A 
ATOM     81  C   UNL A   1      33.309  18.719  24.798  1.00  0.00     0.039 A 
ATOM     82  C   UNL A   1      32.561  18.194  22.172  1.00  0.00     0.003 A 
ATOM     83  C   UNL A   1      33.751  17.538  24.177  1.00  0.00     0.058 A 
ATOM     84  C   UNL A   1      33.388  17.296  22.846  1.00  0.00     0.013 A 
BRANCH  83  85
ATOM     85  C   UNL A   1      34.616  16.552  24.921  1.00  0.00     0.416 C 
ATOM     86  F   UNL A   1      35.842  17.054  25.239  1.00  0.00    -0.166 F 
ATOM     87  F   UNL A   1      34.055  16.153  26.094  1.00  0.00    -0.166 F 
ATOM     88  F   UNL A   1      34.861  15.407  24.222  1.00  0.00    -0.166 F 
ENDBRANCH  83  85
ENDBRANCH  77  79
ENDBRANCH  71  75
ENDBRANCH  66  69
ENDBRANCH  64  65
ENDBRANCH   1  64
TORSDOF 14
ENDMDL
MODEL 2
REMARK VINA RESULT:     -12.6      6.095     11.046
REMARK SMILES O=C(NCCCCNC(=O)[C@@H]1CCCC[C@@H]1C(=O)Nc1cccc(C(F)(F)F)c1)c1ccc(-c2c3nc(c(-c4c(F)cccc4F)c4ccc([nH]4)c(-c4c(F)cccc4F)c4nc(c(-c5c(F)cccc5F)c5ccc2[nH]5)C=C4)C=C3)cc1
REMARK SMILES IDX 6 1 5 2 4 3 3 4 1 5 2 6 30 8 31 9 83 10 32 11 82 12 33 13
REMARK SMILES IDX 34 14 35 15 76 16 36 17 81 18 75 19 77 20 37 21 80 22 74 23
REMARK SMILES IDX 73 24 38 26 64 27 47 28 63 29 48 30 51 31 62 32 78 33 49 34
REMARK SMILES IDX 50 35 61 37 79 38 52 39 39 40 40 41 45 42 41 43 42 44 44 45
REMARK SMILES IDX 46 46 43 47 65 48 66 49 71 50 67 51 68 52 70 53 72 54 69 55
REMARK SMILES IDX 53 56 54 57 59 58 55 59 56 60 58 61 60 62 57 63 7 64 8 65
REMARK SMILES IDX 9 66 10 68 11 69 12 70 16 71 13 72 15 73 14 74 17 75 18 76
REMARK SMILES IDX 19 77 20 79 21 80 29 81 22 82 24 83 23 84 25 85 26 86 27 87
REMARK SMILES IDX 28 88
REMARK H PARENT 3 7 77 25 51 36 8 67 19 78
REMARK Flexibility Score: inf
ROOT
ATOM      1  C   UNL A   1      31.395  30.879  25.997  1.00  0.00     0.023 C 
ENDROOT
BRANCH   1   2
ATOM      2  C   UNL A   1      31.294  32.320  26.502  1.00  0.00     0.023 C 
BRANCH   2   3
ATOM      3  C   UNL A   1      32.540  32.839  27.207  1.00  0.00     0.116 C 
BRANCH   3   4
ATOM      4  N   UNL A   1      32.386  34.208  27.670  1.00  0.00    -0.352 N 
ATOM      5  O   UNL A   1      32.689  35.964  29.057  1.00  0.00    -0.269 OA
ATOM      6  C   UNL A   1      33.062  34.859  28.672  1.00  0.00     0.251 C 
ATOM      7  H   UNL A   1      31.704  34.741  27.202  1.00  0.00     0.163 HD
BRANCH   6   8
ATOM      8  C   UNL A   1      34.234  34.214  29.298  1.00  0.00     0.039 A 
ATOM      9  C   UNL A   1      34.064  33.288  30.332  1.00  0.00     0.014 A 
ATOM     10  C   UNL A   1      35.514  34.526  28.835  1.00  0.00     0.014 A 
ATOM     11  C   UNL A   1      35.175  32.764  30.980  1.00  0.00     0.010 A 
ATOM     12  C   UNL A   1      36.629  33.932  29.432  1.00  0.00     0.010 A 
ATOM     13  C   UNL A   1      36.468  33.054  30.516  1.00  0.00    -0.014 A 
BRANCH  13  14
ATOM     14  C   UNL A   1      37.628  32.334  31.093  1.00  0.00     0.031 A 
ATOM     15  C   UNL A   1      38.326  31.239  30.339  1.00  0.00     0.074 A 
ATOM     16  C   UNL A   1      38.033  32.673  32.333  1.00  0.00     0.049 A 
ATOM     17  N   UNL A   1      39.321  30.482  30.726  1.00  0.00    -0.248 NA
ATOM     18  C   UNL A   1      37.845  30.948  28.979  1.00  0.00     0.031 C 
ATOM     19  C   UNL A   1      37.417  33.711  33.164  1.00  0.00     0.029 A 
ATOM     20  N   UNL A   1      39.047  32.183  33.115  1.00  0.00    -0.354 N 
ATOM     21  C   UNL A   1      39.571  29.611  29.674  1.00  0.00     0.074 A 
ATOM     22  C   UNL A   1      38.616  29.925  28.632  1.00  0.00     0.031 C 
ATOM     23  C   UNL A   1      38.074  33.791  34.329  1.00  0.00     0.029 A 
ATOM     24  C   UNL A   1      39.109  32.767  34.357  1.00  0.00     0.049 A 
ATOM     25  H   UNL A   1      39.670  31.482  32.816  1.00  0.00     0.167 HD
ATOM     26  C   UNL A   1      40.515  28.643  29.592  1.00  0.00     0.037 A 
ATOM     27  C   UNL A   1      39.883  32.482  35.420  1.00  0.00     0.037 A 
ATOM     28  C   UNL A   1      41.472  28.355  30.630  1.00  0.00     0.049 A 
ATOM     29  C   UNL A   1      40.888  31.374  35.310  1.00  0.00     0.074 A 
ATOM     30  C   UNL A   1      42.518  27.448  30.607  1.00  0.00     0.029 A 
ATOM     31  N   UNL A   1      41.491  28.954  31.881  1.00  0.00    -0.354 N 
ATOM     32  N   UNL A   1      41.166  30.613  34.280  1.00  0.00    -0.248 NA
ATOM     33  C   UNL A   1      41.681  31.077  36.510  1.00  0.00     0.031 C 
ATOM     34  C   UNL A   1      43.126  27.449  31.866  1.00  0.00     0.029 A 
ATOM     35  C   UNL A   1      42.498  28.399  32.654  1.00  0.00     0.049 A 
ATOM     36  H   UNL A   1      40.880  29.668  32.175  1.00  0.00     0.167 HD
ATOM     37  C   UNL A   1      42.173  29.756  34.703  1.00  0.00     0.074 A 
ATOM     38  C   UNL A   1      42.476  30.110  36.074  1.00  0.00     0.031 C 
ATOM     39  C   UNL A   1      42.786  28.762  34.018  1.00  0.00     0.037 A 
BRANCH  26  40
ATOM     40  C   UNL A   1      40.558  27.795  28.354  1.00  0.00     0.057 A 
ATOM     41  C   UNL A   1      41.311  28.155  27.230  1.00  0.00     0.134 A 
ATOM     42  C   UNL A   1      39.913  26.550  28.328  1.00  0.00     0.134 A 
ATOM     43  F   UNL A   1      41.949  29.333  27.188  1.00  0.00    -0.206 F 
ATOM     44  C   UNL A   1      41.414  27.311  26.121  1.00  0.00     0.040 A 
ATOM     45  C   UNL A   1      40.028  25.689  27.235  1.00  0.00     0.040 A 
ATOM     46  F   UNL A   1      39.183  26.139  29.375  1.00  0.00    -0.206 F 
ATOM     47  C   UNL A   1      40.780  26.070  26.126  1.00  0.00     0.006 A 
ENDBRANCH  26  40
BRANCH  27  48
ATOM     48  C   UNL A   1      39.700  33.226  36.693  1.00  0.00     0.057 A 
ATOM     49  C   UNL A   1      38.735  32.841  37.628  1.00  0.00     0.134 A 
ATOM     50  C   UNL A   1      40.479  34.351  36.994  1.00  0.00     0.134 A 
ATOM     51  F   UNL A   1      37.948  31.781  37.390  1.00  0.00    -0.206 F 
ATOM     52  C   UNL A   1      38.532  33.562  38.807  1.00  0.00     0.040 A 
ATOM     53  C   UNL A   1      40.309  35.062  38.183  1.00  0.00     0.040 A 
ATOM     54  F   UNL A   1      41.428  34.767  36.143  1.00  0.00    -0.206 F 
ATOM     55  C   UNL A   1      39.324  34.673  39.087  1.00  0.00     0.006 A 
ENDBRANCH  27  48
BRANCH  39  56
ATOM     56  C   UNL A   1      43.856  27.994  34.737  1.00  0.00     0.057 A 
ATOM     57  C   UNL A   1      45.176  28.458  34.802  1.00  0.00     0.134 A 
ATOM     58  C   UNL A   1      43.553  26.803  35.410  1.00  0.00     0.134 A 
ATOM     59  F   UNL A   1      45.533  29.583  34.164  1.00  0.00    -0.206 F 
ATOM     60  C   UNL A   1      46.161  27.756  35.498  1.00  0.00     0.040 A 
ATOM     61  C   UNL A   1      44.523  26.108  36.133  1.00  0.00     0.040 A 
ATOM     62  F   UNL A   1      42.307  26.308  35.392  1.00  0.00    -0.206 F 
ATOM     63  C   UNL A   1      45.832  26.582  36.174  1.00  0.00     0.006 A 
ENDBRANCH  39  56
ENDBRANCH  13  14
ENDBRANCH   6   8
ENDBRANCH   3   4
ENDBRANCH   2   3
ENDBRANCH   1   2
BRANCH   1  64
ATOM     64  C   UNL A   1      32.660  30.141  26.424  1.00  0.00     0.116 C 
BRANCH  64  65
ATOM     65  N   UNL A   1      33.421  29.685  25.274  1.00  0.00    -0.356 N 
ATOM     66  C   UNL A   1      33.654  28.436  24.788  1.00  0.00     0.223 C 
ATOM     67  H   UNL A   1      33.843  30.407  24.755  1.00  0.00     0.163 HD
ATOM     68  O   UNL A   1      34.405  28.339  23.819  1.00  0.00    -0.275 OA
BRANCH  66  69
ATOM     69  C   UNL A   1      32.942  27.240  25.391  1.00  0.00     0.091 C 
ATOM     70  C   UNL A   1      33.833  25.999  25.337  1.00  0.00     0.014 C 
ATOM     71  C   UNL A   1      31.552  27.034  24.764  1.00  0.00     0.091 C 
ATOM     72  C   UNL A   1      33.137  24.818  26.006  1.00  0.00     0.001 C 
ATOM     73  C   UNL A   1      30.876  25.777  25.349  1.00  0.00     0.014 C 
ATOM     74  C   UNL A   1      31.774  24.539  25.381  1.00  0.00     0.001 C 
BRANCH  71  75
ATOM     75  C   UNL A   1      31.550  26.943  23.232  1.00  0.00     0.228 C 
ATOM     76  O   UNL A   1      32.407  26.288  22.631  1.00  0.00    -0.274 OA
ATOM     77  N   UNL A   1      30.495  27.416  22.501  1.00  0.00    -0.326 N 
ATOM     78  H   UNL A   1      30.460  27.058  21.584  1.00  0.00     0.169 HD
BRANCH  77  79
ATOM     79  C   UNL A   1      29.452  28.307  22.794  1.00  0.00     0.041 A 
ATOM     80  C   UNL A   1      28.215  27.758  23.144  1.00  0.00     0.026 A 
ATOM     81  C   UNL A   1      29.565  29.693  22.692  1.00  0.00     0.039 A 
ATOM     82  C   UNL A   1      27.140  28.584  23.478  1.00  0.00     0.003 A 
ATOM     83  C   UNL A   1      28.487  30.540  23.003  1.00  0.00     0.058 A 
ATOM     84  C   UNL A   1      27.278  29.971  23.422  1.00  0.00     0.013 A 
BRANCH  83  85
ATOM     85  C   UNL A   1      28.630  32.038  22.908  1.00  0.00     0.416 C 
ATOM     86  F   UNL A   1      29.150  32.448  21.717  1.00  0.00    -0.166 F 
ATOM     87  F   UNL A   1      27.439  32.681  23.041  1.00  0.00    -0.166 F 
ATOM     88  F   UNL A   1      29.445  32.569  23.864  1.00  0.00    -0.166 F 
ENDBRANCH  83  85
ENDBRANCH  77  79
ENDBRANCH  71  75
ENDBRANCH  66  69
ENDBRANCH  64  65
ENDBRANCH   1  64
TORSDOF 14
ENDMDL
MODEL 3
REMARK VINA RESULT:     -12.5      0.324      6.044
REMARK SMILES O=C(NCCCCNC(=O)[C@@H]1CCCC[C@@H]1C(=O)Nc1cccc(C(F)(F)F)c1)c1ccc(-c2c3nc(c(-c4c(F)cccc4F)c4ccc([nH]4)c(-c4c(F)cccc4F)c4nc(c(-c5c(F)cccc5F)c5ccc2[nH]5)C=C4)C=C3)cc1
REMARK SMILES IDX 6 1 5 2 4 3 3 4 1 5 2 6 30 8 31 9 83 10 32 11 82 12 33 13
REMARK SMILES IDX 34 14 35 15 76 16 36 17 81 18 75 19 77 20 37 21 80 22 74 23
REMARK SMILES IDX 73 24 38 26 64 27 47 28 63 29 48 30 51 31 62 32 78 33 49 34
REMARK SMILES IDX 50 35 61 37 79 38 52 39 39 40 40 41 45 42 41 43 42 44 44 45
REMARK SMILES IDX 46 46 43 47 65 48 66 49 71 50 67 51 68 52 70 53 72 54 69 55
REMARK SMILES IDX 53 56 54 57 59 58 55 59 56 60 58 61 60 62 57 63 7 64 8 65
REMARK SMILES IDX 9 66 10 68 11 69 12 70 16 71 13 72 15 73 14 74 17 75 18 76
REMARK SMILES IDX 19 77 20 79 21 80 29 81 22 82 24 83 23 84 25 85 26 86 27 87
REMARK SMILES IDX 28 88
REMARK H PARENT 3 7 77 25 51 36 8 67 19 78
REMARK Flexibility Score: inf
ROOT
ATOM      1  C   UNL A   1      36.984  20.254  24.719  1.00  0.00     0.023 C 
ENDROOT
BRANCH   1   2
ATOM      2  C   UNL A   1      38.106  19.259  25.019  1.00  0.00     0.023 C 
BRANCH   2   3
ATOM      3  C   UNL A   1      39.306  19.849  25.748  1.00  0.00     0.116 C 
BRANCH   3   4
ATOM      4  N   UNL A   1      40.384  18.887  25.910  1.00  0.00    -0.352 N 
ATOM      5  O   UNL A   1      42.529  18.198  26.067  1.00  0.00    -0.269 OA
ATOM      6  C   UNL A   1      41.719  19.120  26.127  1.00  0.00     0.251 C 
ATOM      7  H   UNL A   1      40.121  17.940  25.859  1.00  0.00     0.163 HD
BRANCH   6   8
ATOM      8  C   UNL A   1      42.182  20.492  26.417  1.00  0.00     0.039 A 
ATOM      9  C   UNL A   1      42.526  21.359  25.376  1.00  0.00     0.014 A 
ATOM     10  C   UNL A   1      42.256  20.922  27.745  1.00  0.00     0.014 A 
ATOM     11  C   UNL A   1      43.054  22.611  25.663  1.00  0.00     0.010 A 
ATOM     12  C   UNL A   1      42.707  22.213  28.029  1.00  0.00     0.010 A 
ATOM     13  C   UNL A   1      43.119  23.064  26.991  1.00  0.00    -0.014 A 
BRANCH  13  14
ATOM     14  C   UNL A   1      43.500  24.471  27.263  1.00  0.00     0.031 A 
ATOM     15  C   UNL A   1      44.929  24.924  27.192  1.00  0.00     0.074 A 
ATOM     16  C   UNL A   1      42.524  25.338  27.601  1.00  0.00     0.049 A 
ATOM     17  N   UNL A   1      45.427  26.107  27.451  1.00  0.00    -0.248 NA
ATOM     18  C   UNL A   1      45.931  23.927  26.787  1.00  0.00     0.031 C 
ATOM     19  C   UNL A   1      41.102  25.000  27.717  1.00  0.00     0.029 A 
ATOM     20  N   UNL A   1      42.574  26.671  27.915  1.00  0.00    -0.354 N 
ATOM     21  C   UNL A   1      46.799  25.993  27.264  1.00  0.00     0.074 A 
ATOM     22  C   UNL A   1      47.058  24.622  26.880  1.00  0.00     0.031 C 
ATOM     23  C   UNL A   1      40.415  26.099  28.059  1.00  0.00     0.029 A 
ATOM     24  C   UNL A   1      41.351  27.197  28.256  1.00  0.00     0.049 A 
ATOM     25  H   UNL A   1      43.404  27.200  27.898  1.00  0.00     0.167 HD
ATOM     26  C   UNL A   1      47.747  26.951  27.401  1.00  0.00     0.037 A 
ATOM     27  C   UNL A   1      41.022  28.417  28.718  1.00  0.00     0.037 A 
ATOM     28  C   UNL A   1      47.470  28.317  27.766  1.00  0.00     0.049 A 
ATOM     29  C   UNL A   1      42.103  29.440  28.901  1.00  0.00     0.074 A 
ATOM     30  C   UNL A   1      48.354  29.380  27.851  1.00  0.00     0.029 A 
ATOM     31  N   UNL A   1      46.223  28.808  28.122  1.00  0.00    -0.354 N 
ATOM     32  N   UNL A   1      43.384  29.340  28.644  1.00  0.00    -0.248 NA
ATOM     33  C   UNL A   1      41.698  30.743  29.445  1.00  0.00     0.031 C 
ATOM     34  C   UNL A   1      47.655  30.494  28.324  1.00  0.00     0.029 A 
ATOM     35  C   UNL A   1      46.325  30.143  28.476  1.00  0.00     0.049 A 
ATOM     36  H   UNL A   1      45.389  28.285  28.122  1.00  0.00     0.167 HD
ATOM     37  C   UNL A   1      43.936  30.569  28.983  1.00  0.00     0.074 A 
ATOM     38  C   UNL A   1      42.845  31.405  29.437  1.00  0.00     0.031 C 
ATOM     39  C   UNL A   1      45.230  30.963  28.929  1.00  0.00     0.037 A 
BRANCH  26  40
ATOM     40  C   UNL A   1      49.181  26.567  27.185  1.00  0.00     0.057 A 
ATOM     41  C   UNL A   1      49.999  26.121  28.230  1.00  0.00     0.134 A 
ATOM     42  C   UNL A   1      49.722  26.553  25.892  1.00  0.00     0.134 A 
ATOM     43  F   UNL A   1      49.545  26.112  29.492  1.00  0.00    -0.206 F 
ATOM     44  C   UNL A   1      51.305  25.681  27.998  1.00  0.00     0.040 A 
ATOM     45  C   UNL A   1      51.017  26.095  25.644  1.00  0.00     0.040 A 
ATOM     46  F   UNL A   1      48.990  26.959  24.843  1.00  0.00    -0.206 F 
ATOM     47  C   UNL A   1      51.813  25.657  26.701  1.00  0.00     0.006 A 
ENDBRANCH  26  40
BRANCH  27  48
ATOM     48  C   UNL A   1      39.615  28.716  29.088  1.00  0.00     0.057 A 
ATOM     49  C   UNL A   1      38.721  29.267  28.165  1.00  0.00     0.134 A 
ATOM     50  C   UNL A   1      39.137  28.471  30.383  1.00  0.00     0.134 A 
ATOM     51  F   UNL A   1      39.123  29.539  26.915  1.00  0.00    -0.206 F 
ATOM     52  C   UNL A   1      37.409  29.588  28.521  1.00  0.00     0.040 A 
ATOM     53  C   UNL A   1      37.820  28.756  30.743  1.00  0.00     0.040 A 
ATOM     54  F   UNL A   1      39.941  27.935  31.312  1.00  0.00    -0.206 F 
ATOM     55  C   UNL A   1      36.956  29.328  29.812  1.00  0.00     0.006 A 
ENDBRANCH  27  48
BRANCH  39  56
ATOM     56  C   UNL A   1      45.536  32.367  29.359  1.00  0.00     0.057 A 
ATOM     57  C   UNL A   1      45.459  33.443  28.465  1.00  0.00     0.134 A 
ATOM     58  C   UNL A   1      45.866  32.652  30.690  1.00  0.00     0.134 A 
ATOM     59  F   UNL A   1      45.166  33.234  27.173  1.00  0.00    -0.206 F 
ATOM     60  C   UNL A   1      45.715  34.752  28.878  1.00  0.00     0.040 A 
ATOM     61  C   UNL A   1      46.095  33.959  31.120  1.00  0.00     0.040 A 
ATOM     62  F   UNL A   1      45.950  31.668  31.597  1.00  0.00    -0.206 F 
ATOM     63  C   UNL A   1      46.025  35.013  30.212  1.00  0.00     0.006 A 
ENDBRANCH  39  56
ENDBRANCH  13  14
ENDBRANCH   6   8
ENDBRANCH   3   4
ENDBRANCH   2   3
ENDBRANCH   1   2
BRANCH   1  64
ATOM     64  C   UNL A   1      37.290  21.698  25.108  1.00  0.00     0.116 C 
BRANCH  64  65
ATOM     65  N   UNL A   1      36.372  22.179  26.126  1.00  0.00    -0.356 N 
ATOM     66  C   UNL A   1      35.327  23.045  26.056  1.00  0.00     0.223 C 
ATOM     67  H   UNL A   1      36.536  21.813  27.025  1.00  0.00     0.163 HD
ATOM     68  O   UNL A   1      34.756  23.328  27.108  1.00  0.00    -0.275 OA
BRANCH  66  69
ATOM     69  C   UNL A   1      34.859  23.566  24.710  1.00  0.00     0.091 C 
ATOM     70  C   UNL A   1      34.301  24.983  24.845  1.00  0.00     0.014 C 
ATOM     71  C   UNL A   1      33.895  22.581  24.026  1.00  0.00     0.091 C 
ATOM     72  C   UNL A   1      33.896  25.525  23.478  1.00  0.00     0.001 C 
ATOM     73  C   UNL A   1      33.387  23.162  22.690  1.00  0.00     0.014 C 
ATOM     74  C   UNL A   1      32.897  24.608  22.781  1.00  0.00     0.001 C 
BRANCH  71  75
ATOM     75  C   UNL A   1      32.694  22.163  24.884  1.00  0.00     0.228 C 
ATOM     76  O   UNL A   1      32.109  22.979  25.603  1.00  0.00    -0.274 OA
ATOM     77  N   UNL A   1      32.117  20.932  24.734  1.00  0.00    -0.326 N 
ATOM     78  H   UNL A   1      31.208  20.875  25.109  1.00  0.00     0.169 HD
BRANCH  77  79
ATOM     79  C   UNL A   1      32.558  19.734  24.152  1.00  0.00     0.041 A 
ATOM     80  C   UNL A   1      32.153  19.468  22.840  1.00  0.00     0.026 A 
ATOM     81  C   UNL A   1      33.315  18.777  24.827  1.00  0.00     0.039 A 
ATOM     82  C   UNL A   1      32.577  18.310  22.187  1.00  0.00     0.003 A 
ATOM     83  C   UNL A   1      33.735  17.595  24.192  1.00  0.00     0.058 A 
ATOM     84  C   UNL A   1      33.378  17.382  22.854  1.00  0.00     0.013 A 
BRANCH  83  85
ATOM     85  C   UNL A   1      34.570  16.579  24.927  1.00  0.00     0.416 C 
ATOM     86  F   UNL A   1      34.742  15.423  24.226  1.00  0.00    -0.166 F 
ATOM     87  F   UNL A   1      35.819  17.039  25.207  1.00  0.00    -0.166 F 
ATOM     88  F   UNL A   1      34.039  16.203  26.126  1.00  0.00    -0.166 F 
ENDBRANCH  83  85
ENDBRANCH  77  79
ENDBRANCH  71  75
ENDBRANCH  66  69
ENDBRANCH  64  65
ENDBRANCH   1  64
TORSDOF 14
ENDMDL
