MODEL 1
REMARK VINA RESULT:     -11.0      0.000      0.000
REMARK SMILES CNC(=O)NC(=O)CCSc1csc(C(=O)NCCCCNC(=O)c2ccc(-c3c4nc(c(-c5c(F)cccc5F)c5ccc([nH]5)c(-c5c(F)cccc5F)c5nc(c(-c6c(F)cccc6F)c6ccc3[nH]6)C=C5)C=C4)cc2)c1
REMARK SMILES IDX 18 1 17 2 15 3 16 4 14 6 11 7 12 8 79 9 13 10 10 11 9 12
REMARK SMILES IDX 8 13 6 14 1 15 2 16 3 17 4 19 5 20 7 22 19 23 20 24 21 25
REMARK SMILES IDX 22 26 23 27 24 29 25 30 26 31 78 32 27 33 77 34 28 35 29 36
REMARK SMILES IDX 30 37 71 38 31 39 76 40 70 41 72 42 32 43 75 44 69 45 68 46
REMARK SMILES IDX 33 48 59 49 42 50 58 51 43 52 46 53 57 54 73 55 44 56 45 57
REMARK SMILES IDX 56 59 74 60 47 61 34 62 35 63 40 64 36 65 37 66 39 67 41 68
REMARK SMILES IDX 38 69 60 70 61 71 66 72 62 73 63 74 65 75 67 76 64 77 48 78
REMARK SMILES IDX 49 79 54 80 50 81 51 82 53 83 55 84 52 85
REMARK H PARENT 17 5 2 18 5 21 22 28 72 47 46 58
REMARK Flexibility Score: inf
ROOT
ATOM      1  C   UNL A   1      31.406  29.520  25.045  1.00  0.00     0.116 C 
ENDROOT
BRANCH   1   2
ATOM      2  N   UNL A   1      30.897  29.674  23.696  1.00  0.00    -0.351 N 
ATOM      3  C   UNL A   1      30.698  28.756  22.688  1.00  0.00     0.261 C 
ATOM      4  O   UNL A   1      30.074  29.177  21.711  1.00  0.00    -0.268 OA
ATOM      5  H   UNL A   1      30.651  30.596  23.458  1.00  0.00     0.163 HD
BRANCH   3   6
ATOM      6  C   UNL A   1      31.174  27.385  22.802  1.00  0.00     0.093 A 
ATOM      7  C   UNL A   1      31.372  25.074  23.069  1.00  0.00     0.019 A 
ATOM      8  C   UNL A   1      32.635  25.388  22.631  1.00  0.00     0.080 A 
ATOM      9  C   UNL A   1      30.571  26.232  23.276  1.00  0.00     0.040 A 
ATOM     10  S   UNL A   1      32.804  27.061  22.337  1.00  0.00    -0.137 S 
BRANCH   7  11
ATOM     11  S   UNL A   1      30.791  23.441  23.361  1.00  0.00    -0.125 SA
BRANCH  11  12
ATOM     12  C   UNL A   1      32.285  22.480  22.951  1.00  0.00     0.085 C 
BRANCH  12  13
ATOM     13  C   UNL A   1      33.119  21.920  24.098  1.00  0.00     0.112 C 
BRANCH  13  14
ATOM     14  C   UNL A   1      32.397  21.349  25.289  1.00  0.00     0.228 C 
ATOM     15  C   UNL A   1      34.070  24.484  26.056  1.00  0.00     0.144 C 
ATOM     16  N   UNL A   1      32.681  24.339  26.400  1.00  0.00    -0.341 N 
ATOM     17  C   UNL A   1      31.995  23.238  26.755  1.00  0.00     0.321 C 
ATOM     18  H   UNL A   1      32.153  25.170  26.371  1.00  0.00     0.165 HD
ATOM     19  O   UNL A   1      30.940  23.377  27.371  1.00  0.00    -0.248 OA
ATOM     20  N   UNL A   1      32.481  21.996  26.501  1.00  0.00    -0.278 N 
ATOM     21  H   UNL A   1      32.927  21.523  27.241  1.00  0.00     0.174 HD
ATOM     22  O   UNL A   1      31.792  20.278  25.220  1.00  0.00    -0.275 OA
ENDBRANCH  13  14
ENDBRANCH  12  13
ENDBRANCH  11  12
ENDBRANCH   7  11
ENDBRANCH   3   6
ENDBRANCH   1   2
BRANCH   1  23
ATOM     23  C   UNL A   1      32.924  29.705  25.095  1.00  0.00     0.023 C 
BRANCH  23  24
ATOM     24  C   UNL A   1      33.673  28.587  25.825  1.00  0.00     0.023 C 
BRANCH  24  25
ATOM     25  C   UNL A   1      33.679  28.700  27.348  1.00  0.00     0.116 C 
BRANCH  25  26
ATOM     26  N   UNL A   1      33.722  30.071  27.840  1.00  0.00    -0.352 N 
ATOM     27  C   UNL A   1      34.775  30.763  28.400  1.00  0.00     0.251 C 
ATOM     28  H   UNL A   1      32.880  30.573  27.761  1.00  0.00     0.163 HD
ATOM     29  O   UNL A   1      34.614  31.899  28.820  1.00  0.00    -0.269 OA
BRANCH  27  30
ATOM     30  C   UNL A   1      36.097  30.106  28.535  1.00  0.00     0.039 A 
ATOM     31  C   UNL A   1      36.988  30.166  27.460  1.00  0.00     0.014 A 
ATOM     32  C   UNL A   1      36.472  29.472  29.722  1.00  0.00     0.014 A 
ATOM     33  C   UNL A   1      38.286  29.671  27.607  1.00  0.00     0.010 A 
ATOM     34  C   UNL A   1      37.788  29.048  29.891  1.00  0.00     0.010 A 
ATOM     35  C   UNL A   1      38.713  29.153  28.842  1.00  0.00    -0.014 A 
BRANCH  35  36
ATOM     36  C   UNL A   1      40.125  28.743  29.063  1.00  0.00     0.031 A 
ATOM     37  C   UNL A   1      41.110  29.703  29.673  1.00  0.00     0.074 A 
ATOM     38  C   UNL A   1      40.543  27.532  28.642  1.00  0.00     0.049 A 
ATOM     39  N   UNL A   1      42.397  29.559  29.860  1.00  0.00    -0.248 NA
ATOM     40  C   UNL A   1      40.582  31.006  30.104  1.00  0.00     0.031 C 
ATOM     41  C   UNL A   1      39.704  26.524  27.988  1.00  0.00     0.029 A 
ATOM     42  N   UNL A   1      41.785  26.947  28.685  1.00  0.00    -0.354 N 
ATOM     43  C   UNL A   1      42.835  30.757  30.411  1.00  0.00     0.074 A 
ATOM     44  C   UNL A   1      41.686  31.633  30.485  1.00  0.00     0.031 C 
ATOM     45  C   UNL A   1      40.449  25.441  27.712  1.00  0.00     0.029 A 
ATOM     46  C   UNL A   1      41.825  25.691  28.130  1.00  0.00     0.049 A 
ATOM     47  H   UNL A   1      42.574  27.388  29.077  1.00  0.00     0.167 HD
ATOM     48  C   UNL A   1      44.077  31.090  30.836  1.00  0.00     0.037 A 
ATOM     49  C   UNL A   1      42.855  24.838  27.967  1.00  0.00     0.037 A 
ATOM     50  C   UNL A   1      45.214  30.208  30.793  1.00  0.00     0.049 A 
ATOM     51  C   UNL A   1      44.224  25.235  28.447  1.00  0.00     0.074 A 
ATOM     52  C   UNL A   1      46.496  30.434  31.263  1.00  0.00     0.029 A 
ATOM     53  N   UNL A   1      45.207  28.934  30.246  1.00  0.00    -0.354 N 
ATOM     54  N   UNL A   1      44.606  26.343  29.033  1.00  0.00    -0.248 NA
ATOM     55  C   UNL A   1      45.305  24.259  28.247  1.00  0.00     0.031 C 
ATOM     56  C   UNL A   1      47.276  29.312  30.965  1.00  0.00     0.029 A 
ATOM     57  C   UNL A   1      46.467  28.369  30.351  1.00  0.00     0.049 A 
ATOM     58  H   UNL A   1      44.422  28.496  29.844  1.00  0.00     0.167 HD
ATOM     59  C   UNL A   1      45.960  26.185  29.301  1.00  0.00     0.074 A 
ATOM     60  C   UNL A   1      46.330  24.869  28.825  1.00  0.00     0.031 C 
ATOM     61  C   UNL A   1      46.819  27.052  29.887  1.00  0.00     0.037 A 
BRANCH  48  62
ATOM     62  C   UNL A   1      44.274  32.467  31.398  1.00  0.00     0.057 A 
ATOM     63  C   UNL A   1      44.120  32.735  32.764  1.00  0.00     0.134 A 
ATOM     64  C   UNL A   1      44.674  33.526  30.572  1.00  0.00     0.134 A 
ATOM     65  F   UNL A   1      43.727  31.768  33.606  1.00  0.00    -0.206 F 
ATOM     66  C   UNL A   1      44.337  34.011  33.287  1.00  0.00     0.040 A 
ATOM     67  C   UNL A   1      44.921  34.800  31.087  1.00  0.00     0.040 A 
ATOM     68  F   UNL A   1      44.847  33.336  29.255  1.00  0.00    -0.206 F 
ATOM     69  C   UNL A   1      44.747  35.046  32.448  1.00  0.00     0.006 A 
ENDBRANCH  48  62
BRANCH  49  70
ATOM     70  C   UNL A   1      42.638  23.512  27.334  1.00  0.00     0.057 A 
ATOM     71  C   UNL A   1      42.266  22.400  28.098  1.00  0.00     0.134 A 
ATOM     72  C   UNL A   1      42.825  23.316  25.960  1.00  0.00     0.134 A 
ATOM     73  F   UNL A   1      42.092  22.520  29.422  1.00  0.00    -0.206 F 
ATOM     74  C   UNL A   1      42.115  21.136  27.527  1.00  0.00     0.040 A 
ATOM     75  C   UNL A   1      42.652  22.062  25.370  1.00  0.00     0.040 A 
ATOM     76  F   UNL A   1      43.177  24.341  25.171  1.00  0.00    -0.206 F 
ATOM     77  C   UNL A   1      42.305  20.965  26.157  1.00  0.00     0.006 A 
ENDBRANCH  49  70
BRANCH  61  78
ATOM     78  C   UNL A   1      48.232  26.591  30.090  1.00  0.00     0.057 A 
ATOM     79  C   UNL A   1      49.239  26.856  29.155  1.00  0.00     0.134 A 
ATOM     80  C   UNL A   1      48.597  25.907  31.258  1.00  0.00     0.134 A 
ATOM     81  F   UNL A   1      48.954  27.495  28.010  1.00  0.00    -0.206 F 
ATOM     82  C   UNL A   1      50.555  26.438  29.362  1.00  0.00     0.040 A 
ATOM     83  C   UNL A   1      49.913  25.508  31.488  1.00  0.00     0.040 A 
ATOM     84  F   UNL A   1      47.682  25.629  32.198  1.00  0.00    -0.206 F 
ATOM     85  C   UNL A   1      50.896  25.768  30.536  1.00  0.00     0.006 A 
ENDBRANCH  61  78
ENDBRANCH  35  36
ENDBRANCH  27  30
ENDBRANCH  25  26
ENDBRANCH  24  25
ENDBRANCH  23  24
ENDBRANCH   1  23
TORSDOF 15
ENDMDL
MODEL 2
REMARK VINA RESULT:     -10.8      2.305      7.774
REMARK SMILES CNC(=O)NC(=O)CCSc1csc(C(=O)NCCCCNC(=O)c2ccc(-c3c4nc(c(-c5c(F)cccc5F)c5ccc([nH]5)c(-c5c(F)cccc5F)c5nc(c(-c6c(F)cccc6F)c6ccc3[nH]6)C=C5)C=C4)cc2)c1
REMARK SMILES IDX 18 1 17 2 15 3 16 4 14 6 11 7 12 8 79 9 13 10 10 11 9 12
REMARK SMILES IDX 8 13 6 14 1 15 2 16 3 17 4 19 5 20 7 22 19 23 20 24 21 25
REMARK SMILES IDX 22 26 23 27 24 29 25 30 26 31 78 32 27 33 77 34 28 35 29 36
REMARK SMILES IDX 30 37 71 38 31 39 76 40 70 41 72 42 32 43 75 44 69 45 68 46
REMARK SMILES IDX 33 48 59 49 42 50 58 51 43 52 46 53 57 54 73 55 44 56 45 57
REMARK SMILES IDX 56 59 74 60 47 61 34 62 35 63 40 64 36 65 37 66 39 67 41 68
REMARK SMILES IDX 38 69 60 70 61 71 66 72 62 73 63 74 65 75 67 76 64 77 48 78
REMARK SMILES IDX 49 79 54 80 50 81 51 82 53 83 55 84 52 85
REMARK H PARENT 17 5 2 18 5 21 22 28 72 47 46 58
REMARK Flexibility Score: inf
ROOT
ATOM      1  C   UNL A   1      35.663  21.543  25.715  1.00  0.00     0.116 C 
ENDROOT
BRANCH   1   2
ATOM      2  N   UNL A   1      34.643  20.513  25.773  1.00  0.00    -0.351 N 
ATOM      3  C   UNL A   1      33.285  20.563  25.551  1.00  0.00     0.261 C 
ATOM      4  O   UNL A   1      32.720  19.467  25.501  1.00  0.00    -0.268 OA
ATOM      5  H   UNL A   1      34.981  19.621  26.015  1.00  0.00     0.163 HD
BRANCH   3   6
ATOM      6  C   UNL A   1      32.590  21.829  25.362  1.00  0.00     0.093 A 
ATOM      7  C   UNL A   1      31.370  23.637  24.532  1.00  0.00     0.019 A 
ATOM      8  C   UNL A   1      31.459  23.980  25.859  1.00  0.00     0.080 A 
ATOM      9  C   UNL A   1      32.115  22.463  24.228  1.00  0.00     0.040 A 
ATOM     10  S   UNL A   1      32.322  22.811  26.755  1.00  0.00    -0.137 S 
BRANCH   7  11
ATOM     11  S   UNL A   1      30.457  24.533  23.326  1.00  0.00    -0.125 SA
BRANCH  11  12
ATOM     12  C   UNL A   1      29.903  25.958  24.322  1.00  0.00     0.085 C 
BRANCH  12  13
ATOM     13  C   UNL A   1      30.621  27.289  24.136  1.00  0.00     0.112 C 
BRANCH  13  14
ATOM     14  C   UNL A   1      31.052  27.677  22.746  1.00  0.00     0.228 C 
ATOM     15  C   UNL A   1      33.868  26.842  24.889  1.00  0.00     0.144 C 
ATOM     16  N   UNL A   1      33.764  26.206  23.602  1.00  0.00    -0.341 N 
ATOM     17  C   UNL A   1      33.238  26.670  22.455  1.00  0.00     0.321 C 
ATOM     18  H   UNL A   1      34.134  25.295  23.555  1.00  0.00     0.165 HD
ATOM     19  O   UNL A   1      33.583  26.148  21.397  1.00  0.00    -0.248 OA
ATOM     20  N   UNL A   1      32.395  27.734  22.450  1.00  0.00    -0.278 N 
ATOM     21  H   UNL A   1      32.773  28.612  22.215  1.00  0.00     0.174 HD
ATOM     22  O   UNL A   1      30.232  28.013  21.891  1.00  0.00    -0.275 OA
ENDBRANCH  13  14
ENDBRANCH  12  13
ENDBRANCH  11  12
ENDBRANCH   7  11
ENDBRANCH   3   6
ENDBRANCH   1   2
BRANCH   1  23
ATOM     23  C   UNL A   1      36.705  21.239  24.638  1.00  0.00     0.023 C 
BRANCH  23  24
ATOM     24  C   UNL A   1      37.645  20.080  24.977  1.00  0.00     0.023 C 
BRANCH  24  25
ATOM     25  C   UNL A   1      38.920  20.476  25.719  1.00  0.00     0.116 C 
BRANCH  25  26
ATOM     26  N   UNL A   1      39.953  19.451  25.709  1.00  0.00    -0.352 N 
ATOM     27  C   UNL A   1      41.277  19.542  26.086  1.00  0.00     0.251 C 
ATOM     28  H   UNL A   1      39.666  18.566  25.387  1.00  0.00     0.163 HD
ATOM     29  O   UNL A   1      42.026  18.587  25.949  1.00  0.00    -0.269 OA
BRANCH  27  30
ATOM     30  C   UNL A   1      41.802  20.823  26.616  1.00  0.00     0.039 A 
ATOM     31  C   UNL A   1      42.310  21.762  25.713  1.00  0.00     0.014 A 
ATOM     32  C   UNL A   1      41.759  21.115  27.981  1.00  0.00     0.014 A 
ATOM     33  C   UNL A   1      42.689  23.027  26.170  1.00  0.00     0.010 A 
ATOM     34  C   UNL A   1      42.065  22.400  28.422  1.00  0.00     0.010 A 
ATOM     35  C   UNL A   1      42.522  23.374  27.521  1.00  0.00    -0.014 A 
BRANCH  35  36
ATOM     36  C   UNL A   1      42.793  24.754  28.006  1.00  0.00     0.031 A 
ATOM     37  C   UNL A   1      44.183  25.157  28.416  1.00  0.00     0.074 A 
ATOM     38  C   UNL A   1      41.772  25.623  28.155  1.00  0.00     0.049 A 
ATOM     39  N   UNL A   1      44.596  26.279  28.947  1.00  0.00    -0.248 NA
ATOM     40  C   UNL A   1      45.244  24.155  28.229  1.00  0.00     0.031 C 
ATOM     41  C   UNL A   1      40.368  25.344  27.844  1.00  0.00     0.029 A 
ATOM     42  N   UNL A   1      41.756  26.914  28.621  1.00  0.00    -0.354 N 
ATOM     43  C   UNL A   1      45.956  26.112  29.174  1.00  0.00     0.074 A 
ATOM     44  C   UNL A   1      46.291  24.764  28.768  1.00  0.00     0.031 C 
ATOM     45  C   UNL A   1      39.633  26.436  28.108  1.00  0.00     0.029 A 
ATOM     46  C   UNL A   1      40.502  27.478  28.645  1.00  0.00     0.049 A 
ATOM     47  H   UNL A   1      42.566  27.391  28.913  1.00  0.00     0.167 HD
ATOM     48  C   UNL A   1      46.850  27.007  29.658  1.00  0.00     0.037 A 
ATOM     49  C   UNL A   1      40.097  28.693  29.060  1.00  0.00     0.037 A 
ATOM     50  C   UNL A   1      46.526  28.359  30.033  1.00  0.00     0.049 A 
ATOM     51  C   UNL A   1      41.112  29.667  29.595  1.00  0.00     0.074 A 
ATOM     52  C   UNL A   1      47.378  29.359  30.469  1.00  0.00     0.029 A 
ATOM     53  N   UNL A   1      45.250  28.899  30.018  1.00  0.00    -0.354 N 
ATOM     54  N   UNL A   1      42.406  29.518  29.734  1.00  0.00    -0.248 NA
ATOM     55  C   UNL A   1      40.608  30.979  30.025  1.00  0.00     0.031 C 
ATOM     56  C   UNL A   1      46.611  30.493  30.757  1.00  0.00     0.029 A 
ATOM     57  C   UNL A   1      45.288  30.212  30.455  1.00  0.00     0.049 A 
ATOM     58  H   UNL A   1      44.436  28.420  29.737  1.00  0.00     0.167 HD
ATOM     59  C   UNL A   1      42.875  30.725  30.237  1.00  0.00     0.074 A 
ATOM     60  C   UNL A   1      41.729  31.600  30.365  1.00  0.00     0.031 C 
ATOM     61  C   UNL A   1      44.142  31.078  30.563  1.00  0.00     0.037 A 
BRANCH  48  62
ATOM     62  C   UNL A   1      48.275  26.558  29.803  1.00  0.00     0.057 A 
ATOM     63  C   UNL A   1      48.722  25.883  30.946  1.00  0.00     0.134 A 
ATOM     64  C   UNL A   1      49.197  26.757  28.767  1.00  0.00     0.134 A 
ATOM     65  F   UNL A   1      47.892  25.670  31.978  1.00  0.00    -0.206 F 
ATOM     66  C   UNL A   1      50.040  25.437  31.063  1.00  0.00     0.040 A 
ATOM     67  C   UNL A   1      50.510  26.293  28.861  1.00  0.00     0.040 A 
ATOM     68  F   UNL A   1      48.832  27.391  27.643  1.00  0.00    -0.206 F 
ATOM     69  C   UNL A   1      50.936  25.636  30.014  1.00  0.00     0.006 A 
ENDBRANCH  48  62
BRANCH  49  70
ATOM     70  C   UNL A   1      38.664  29.076  28.975  1.00  0.00     0.057 A 
ATOM     71  C   UNL A   1      38.113  29.548  27.778  1.00  0.00     0.134 A 
ATOM     72  C   UNL A   1      37.820  29.008  30.091  1.00  0.00     0.134 A 
ATOM     73  F   UNL A   1      38.876  29.656  26.681  1.00  0.00    -0.206 F 
ATOM     74  C   UNL A   1      36.784  29.965  27.698  1.00  0.00     0.040 A 
ATOM     75  C   UNL A   1      36.481  29.397  30.019  1.00  0.00     0.040 A 
ATOM     76  F   UNL A   1      38.284  28.559  31.266  1.00  0.00    -0.206 F 
ATOM     77  C   UNL A   1      35.962  29.887  28.821  1.00  0.00     0.006 A 
ENDBRANCH  49  70
BRANCH  61  78
ATOM     78  C   UNL A   1      44.365  32.480  31.046  1.00  0.00     0.057 A 
ATOM     79  C   UNL A   1      44.344  32.807  32.407  1.00  0.00     0.134 A 
ATOM     80  C   UNL A   1      44.643  33.511  30.137  1.00  0.00     0.134 A 
ATOM     81  F   UNL A   1      44.072  31.870  33.327  1.00  0.00    -0.206 F 
ATOM     82  C   UNL A   1      44.571  34.113  32.847  1.00  0.00     0.040 A 
ATOM     83  C   UNL A   1      44.896  34.813  30.566  1.00  0.00     0.040 A 
ATOM     84  F   UNL A   1      44.685  33.263  28.820  1.00  0.00    -0.206 F 
ATOM     85  C   UNL A   1      44.855  35.118  31.924  1.00  0.00     0.006 A 
ENDBRANCH  61  78
ENDBRANCH  35  36
ENDBRANCH  27  30
ENDBRANCH  25  26
ENDBRANCH  24  25
ENDBRANCH  23  24
ENDBRANCH   1  23
TORSDOF 15
ENDMDL
MODEL 3
REMARK VINA RESULT:     -10.8      2.203      7.499
REMARK SMILES CNC(=O)NC(=O)CCSc1csc(C(=O)NCCCCNC(=O)c2ccc(-c3c4nc(c(-c5c(F)cccc5F)c5ccc([nH]5)c(-c5c(F)cccc5F)c5nc(c(-c6c(F)cccc6F)c6ccc3[nH]6)C=C5)C=C4)cc2)c1
REMARK SMILES IDX 18 1 17 2 15 3 16 4 14 6 11 7 12 8 79 9 13 10 10 11 9 12
REMARK SMILES IDX 8 13 6 14 1 15 2 16 3 17 4 19 5 20 7 22 19 23 20 24 21 25
REMARK SMILES IDX 22 26 23 27 24 29 25 30 26 31 78 32 27 33 77 34 28 35 29 36
REMARK SMILES IDX 30 37 71 38 31 39 76 40 70 41 72 42 32 43 75 44 69 45 68 46
REMARK SMILES IDX 33 48 59 49 42 50 58 51 43 52 46 53 57 54 73 55 44 56 45 57
REMARK SMILES IDX 56 59 74 60 47 61 34 62 35 63 40 64 36 65 37 66 39 67 41 68
REMARK SMILES IDX 38 69 60 70 61 71 66 72 62 73 63 74 65 75 67 76 64 77 48 78
REMARK SMILES IDX 49 79 54 80 50 81 51 82 53 83 55 84 52 85
REMARK H PARENT 17 5 2 18 5 21 22 28 72 47 46 58
REMARK Flexibility Score: inf
ROOT
ATOM      1  C   UNL A   1      34.807  21.477  26.467  1.00  0.00     0.116 C 
ENDROOT
BRANCH   1   2
ATOM      2  N   UNL A   1      33.904  20.408  26.085  1.00  0.00    -0.351 N 
ATOM      3  C   UNL A   1      32.754  20.417  25.327  1.00  0.00     0.261 C 
ATOM      4  O   UNL A   1      32.312  19.303  25.032  1.00  0.00    -0.268 OA
ATOM      5  H   UNL A   1      34.156  19.522  26.429  1.00  0.00     0.163 HD
BRANCH   3   6
ATOM      6  C   UNL A   1      32.136  21.661  24.892  1.00  0.00     0.093 A 
ATOM      7  C   UNL A   1      31.144  23.771  24.767  1.00  0.00     0.019 A 
ATOM      8  C   UNL A   1      31.399  23.531  23.439  1.00  0.00     0.080 A 
ATOM      9  C   UNL A   1      31.462  22.651  25.586  1.00  0.00     0.040 A 
ATOM     10  S   UNL A   1      32.149  22.016  23.204  1.00  0.00    -0.137 S 
BRANCH   7  11
ATOM     11  S   UNL A   1      30.490  25.271  25.405  1.00  0.00    -0.125 SA
BRANCH  11  12
ATOM     12  C   UNL A   1      30.401  26.269  23.881  1.00  0.00     0.085 C 
BRANCH  12  13
ATOM     13  C   UNL A   1      30.678  27.764  23.981  1.00  0.00     0.112 C 
BRANCH  13  14
ATOM     14  C   UNL A   1      31.063  28.502  22.725  1.00  0.00     0.228 C 
ATOM     15  C   UNL A   1      33.747  28.448  25.178  1.00  0.00     0.144 C 
ATOM     16  N   UNL A   1      34.032  28.034  23.830  1.00  0.00    -0.341 N 
ATOM     17  C   UNL A   1      33.486  28.444  22.671  1.00  0.00     0.321 C 
ATOM     18  H   UNL A   1      34.732  27.346  23.742  1.00  0.00     0.165 HD
ATOM     19  O   UNL A   1      34.115  28.265  21.630  1.00  0.00    -0.248 OA
ATOM     20  N   UNL A   1      32.299  29.103  22.649  1.00  0.00    -0.278 N 
ATOM     21  H   UNL A   1      32.325  30.084  22.573  1.00  0.00     0.174 HD
ATOM     22  O   UNL A   1      30.269  28.639  21.794  1.00  0.00    -0.275 OA
ENDBRANCH  13  14
ENDBRANCH  12  13
ENDBRANCH  11  12
ENDBRANCH   7  11
ENDBRANCH   3   6
ENDBRANCH   1   2
BRANCH   1  23
ATOM     23  C   UNL A   1      35.820  21.776  25.361  1.00  0.00     0.023 C 
BRANCH  23  24
ATOM     24  C   UNL A   1      36.817  20.646  25.094  1.00  0.00     0.023 C 
BRANCH  24  25
ATOM     25  C   UNL A   1      38.278  20.992  25.374  1.00  0.00     0.116 C 
BRANCH  25  26
ATOM     26  N   UNL A   1      39.168  19.840  25.386  1.00  0.00    -0.352 N 
ATOM     27  C   UNL A   1      40.458  19.737  25.864  1.00  0.00     0.251 C 
ATOM     28  H   UNL A   1      38.796  19.016  24.996  1.00  0.00     0.163 HD
ATOM     29  O   UNL A   1      41.085  18.698  25.731  1.00  0.00    -0.269 OA
BRANCH  27  30
ATOM     30  C   UNL A   1      41.100  20.913  26.498  1.00  0.00     0.039 A 
ATOM     31  C   UNL A   1      41.814  21.803  25.690  1.00  0.00     0.014 A 
ATOM     32  C   UNL A   1      40.969  21.161  27.866  1.00  0.00     0.014 A 
ATOM     33  C   UNL A   1      42.317  22.986  26.238  1.00  0.00     0.010 A 
ATOM     34  C   UNL A   1      41.405  22.373  28.394  1.00  0.00     0.010 A 
ATOM     35  C   UNL A   1      42.072  23.305  27.584  1.00  0.00    -0.014 A 
BRANCH  35  36
ATOM     36  C   UNL A   1      42.481  24.615  28.157  1.00  0.00     0.031 A 
ATOM     37  C   UNL A   1      41.464  25.702  28.372  1.00  0.00     0.074 A 
ATOM     38  C   UNL A   1      43.784  24.857  28.409  1.00  0.00     0.049 A 
ATOM     39  N   UNL A   1      41.644  26.935  28.773  1.00  0.00    -0.248 NA
ATOM     40  C   UNL A   1      40.064  25.367  28.071  1.00  0.00     0.031 C 
ATOM     41  C   UNL A   1      44.880  23.908  28.197  1.00  0.00     0.029 A 
ATOM     42  N   UNL A   1      44.411  25.983  28.885  1.00  0.00    -0.354 N 
ATOM     43  C   UNL A   1      40.386  27.526  28.754  1.00  0.00     0.074 A 
ATOM     44  C   UNL A   1      39.459  26.531  28.258  1.00  0.00     0.031 C 
ATOM     45  C   UNL A   1      46.038  24.484  28.560  1.00  0.00     0.029 A 
ATOM     46  C   UNL A   1      45.775  25.853  28.991  1.00  0.00     0.049 A 
ATOM     47  H   UNL A   1      43.928  26.806  29.126  1.00  0.00     0.167 HD
ATOM     48  C   UNL A   1      40.032  28.776  29.135  1.00  0.00     0.037 A 
ATOM     49  C   UNL A   1      46.711  26.739  29.383  1.00  0.00     0.037 A 
ATOM     50  C   UNL A   1      40.947  29.756  29.660  1.00  0.00     0.049 A 
ATOM     51  C   UNL A   1      46.288  28.122  29.799  1.00  0.00     0.074 A 
ATOM     52  C   UNL A   1      40.669  31.025  30.136  1.00  0.00     0.029 A 
ATOM     53  N   UNL A   1      42.317  29.577  29.776  1.00  0.00    -0.354 N 
ATOM     54  N   UNL A   1      45.086  28.641  29.845  1.00  0.00    -0.248 NA
ATOM     55  C   UNL A   1      47.355  29.041  30.223  1.00  0.00     0.031 C 
ATOM     56  C   UNL A   1      41.875  31.630  30.502  1.00  0.00     0.029 A 
ATOM     57  C   UNL A   1      42.900  30.719  30.298  1.00  0.00     0.049 A 
ATOM     58  H   UNL A   1      42.803  28.758  29.524  1.00  0.00     0.167 HD
ATOM     59  C   UNL A   1      45.247  29.932  30.332  1.00  0.00     0.074 A 
ATOM     60  C   UNL A   1      46.661  30.113  30.579  1.00  0.00     0.031 C 
ATOM     61  C   UNL A   1      44.307  30.882  30.554  1.00  0.00     0.037 A 
BRANCH  48  62
ATOM     62  C   UNL A   1      38.586  29.158  29.010  1.00  0.00     0.057 A 
ATOM     63  C   UNL A   1      37.716  29.120  30.106  1.00  0.00     0.134 A 
ATOM     64  C   UNL A   1      38.072  29.620  27.791  1.00  0.00     0.134 A 
ATOM     65  F   UNL A   1      38.143  28.677  31.298  1.00  0.00    -0.206 F 
ATOM     66  C   UNL A   1      36.380  29.508  29.992  1.00  0.00     0.040 A 
ATOM     67  C   UNL A   1      36.745  30.037  27.671  1.00  0.00     0.040 A 
ATOM     68  F   UNL A   1      38.854  29.689  26.703  1.00  0.00    -0.206 F 
ATOM     69  C   UNL A   1      35.894  29.976  28.773  1.00  0.00     0.006 A 
ENDBRANCH  48  62
BRANCH  49  70
ATOM     70  C   UNL A   1      48.144  26.351  29.419  1.00  0.00     0.057 A 
ATOM     71  C   UNL A   1      48.958  26.491  28.289  1.00  0.00     0.134 A 
ATOM     72  C   UNL A   1      48.726  25.803  30.569  1.00  0.00     0.134 A 
ATOM     73  F   UNL A   1      48.452  26.990  27.152  1.00  0.00    -0.206 F 
ATOM     74  C   UNL A   1      50.291  26.078  28.291  1.00  0.00     0.040 A 
ATOM     75  C   UNL A   1      50.065  25.409  30.593  1.00  0.00     0.040 A 
ATOM     76  F   UNL A   1      48.002  25.647  31.687  1.00  0.00    -0.206 F 
ATOM     77  C   UNL A   1      50.849  25.537  29.447  1.00  0.00     0.006 A 
ENDBRANCH  49  70
BRANCH  61  78
ATOM     78  C   UNL A   1      44.769  32.186  31.134  1.00  0.00     0.057 A 
ATOM     79  C   UNL A   1      44.870  32.388  32.515  1.00  0.00     0.134 A 
ATOM     80  C   UNL A   1      45.157  33.240  30.295  1.00  0.00     0.134 A 
ATOM     81  F   UNL A   1      44.502  31.424  33.372  1.00  0.00    -0.206 F 
ATOM     82  C   UNL A   1      45.319  33.600  33.044  1.00  0.00     0.040 A 
ATOM     83  C   UNL A   1      45.632  34.445  30.811  1.00  0.00     0.040 A 
ATOM     84  F   UNL A   1      45.094  33.108  28.962  1.00  0.00    -0.206 F 
ATOM     85  C   UNL A   1      45.709  34.630  32.190  1.00  0.00     0.006 A 
ENDBRANCH  61  78
ENDBRANCH  35  36
ENDBRANCH  27  30
ENDBRANCH  25  26
ENDBRANCH  24  25
ENDBRANCH  23  24
ENDBRANCH   1  23
TORSDOF 15
ENDMDL
