MODEL 1
REMARK VINA RESULT:     -13.2      0.000      0.000
REMARK SMILES O=C(NCCCCNC(=O)[C@H](Cc1ccc([N+](=O)[O-])cc1)N1C(=O)c2ccccc2C1=O)c1ccc(-c2c3nc(c(-c4c(F)cccc4F)c4ccc([nH]4)c(-c4c(F)cccc4F)c4nc(c(-c5c(F)cccc5F)c5ccc2[nH]5)C=C4)C=C3)cc1
REMARK SMILES IDX 6 1 5 2 4 3 3 4 1 5 2 6 33 8 34 9 86 10 35 11 85 12 36 13
REMARK SMILES IDX 37 14 38 15 79 16 39 17 84 18 78 19 80 20 40 21 83 22 77 23
REMARK SMILES IDX 76 24 41 26 67 27 50 28 66 29 51 30 54 31 65 32 81 33 52 34
REMARK SMILES IDX 53 35 64 37 82 38 55 39 42 40 43 41 48 42 44 43 45 44 47 45
REMARK SMILES IDX 49 46 46 47 68 48 69 49 74 50 70 51 71 52 73 53 75 54 72 55
REMARK SMILES IDX 56 56 57 57 62 58 58 59 59 60 61 61 63 62 60 63 7 64 8 65
REMARK SMILES IDX 9 66 10 68 11 69 22 70 23 71 31 72 24 73 25 74 30 75 32 76
REMARK SMILES IDX 26 77 29 78 27 79 28 80 12 81 13 82 14 83 21 84 15 85 20 86
REMARK SMILES IDX 16 87 17 88 18 89 19 90
REMARK H PARENT 3 7 80 25 54 36 8 67
REMARK Flexibility Score: inf
ROOT
ATOM      1  C   UNL A   1      31.832  30.544  26.779  1.00  0.00     0.023 C 
ENDROOT
BRANCH   1   2
ATOM      2  C   UNL A   1      31.229  31.943  26.777  1.00  0.00     0.023 C 
BRANCH   2   3
ATOM      3  C   UNL A   1      32.195  33.101  26.554  1.00  0.00     0.116 C 
BRANCH   3   4
ATOM      4  N   UNL A   1      32.169  34.136  27.581  1.00  0.00    -0.352 N 
ATOM      5  O   UNL A   1      32.918  35.333  29.351  1.00  0.00    -0.269 OA
ATOM      6  C   UNL A   1      33.118  34.434  28.540  1.00  0.00     0.251 C 
ATOM      7  H   UNL A   1      31.363  34.700  27.593  1.00  0.00     0.163 HD
BRANCH   6   8
ATOM      8  C   UNL A   1      34.322  33.581  28.653  1.00  0.00     0.039 A 
ATOM      9  C   UNL A   1      34.207  32.223  28.949  1.00  0.00     0.014 A 
ATOM     10  C   UNL A   1      35.575  34.197  28.637  1.00  0.00     0.014 A 
ATOM     11  C   UNL A   1      35.297  31.562  29.502  1.00  0.00     0.010 A 
ATOM     12  C   UNL A   1      36.695  33.491  29.081  1.00  0.00     0.010 A 
ATOM     13  C   UNL A   1      36.546  32.198  29.604  1.00  0.00    -0.014 A 
BRANCH  13  14
ATOM     14  C   UNL A   1      37.677  31.510  30.281  1.00  0.00     0.031 A 
ATOM     15  C   UNL A   1      37.986  31.768  31.735  1.00  0.00     0.074 A 
ATOM     16  C   UNL A   1      38.408  30.621  29.583  1.00  0.00     0.049 A 
ATOM     17  N   UNL A   1      38.943  31.269  32.479  1.00  0.00    -0.248 NA
ATOM     18  C   UNL A   1      37.115  32.717  32.447  1.00  0.00     0.031 C 
ATOM     19  C   UNL A   1      38.197  30.282  28.174  1.00  0.00     0.029 A 
ATOM     20  N   UNL A   1      39.465  29.835  29.961  1.00  0.00    -0.354 N 
ATOM     21  C   UNL A   1      38.810  31.866  33.730  1.00  0.00     0.074 A 
ATOM     22  C   UNL A   1      37.694  32.783  33.638  1.00  0.00     0.031 C 
ATOM     23  C   UNL A   1      39.063  29.325  27.819  1.00  0.00     0.029 A 
ATOM     24  C   UNL A   1      39.938  29.037  28.949  1.00  0.00     0.049 A 
ATOM     25  H   UNL A   1      39.846  29.841  30.868  1.00  0.00     0.167 HD
ATOM     26  C   UNL A   1      39.550  31.665  34.848  1.00  0.00     0.037 A 
ATOM     27  C   UNL A   1      40.977  28.184  28.925  1.00  0.00     0.037 A 
ATOM     28  C   UNL A   1      40.649  30.735  34.932  1.00  0.00     0.049 A 
ATOM     29  C   UNL A   1      41.801  28.008  30.166  1.00  0.00     0.074 A 
ATOM     30  C   UNL A   1      41.437  30.424  36.027  1.00  0.00     0.029 A 
ATOM     31  N   UNL A   1      41.120  29.970  33.874  1.00  0.00    -0.354 N 
ATOM     32  N   UNL A   1      41.647  28.559  31.347  1.00  0.00    -0.248 NA
ATOM     33  C   UNL A   1      42.944  27.094  30.071  1.00  0.00     0.031 C 
ATOM     34  C   UNL A   1      42.420  29.517  35.617  1.00  0.00     0.029 A 
ATOM     35  C   UNL A   1      42.206  29.212  34.282  1.00  0.00     0.049 A 
ATOM     36  H   UNL A   1      40.739  29.968  32.966  1.00  0.00     0.167 HD
ATOM     37  C   UNL A   1      42.657  28.037  32.143  1.00  0.00     0.074 A 
ATOM     38  C   UNL A   1      43.405  27.114  31.313  1.00  0.00     0.031 C 
ATOM     39  C   UNL A   1      42.939  28.296  33.443  1.00  0.00     0.037 A 
BRANCH  26  40
ATOM     40  C   UNL A   1      39.220  32.488  36.066  1.00  0.00     0.057 A 
ATOM     41  C   UNL A   1      39.749  33.769  36.273  1.00  0.00     0.134 A 
ATOM     42  C   UNL A   1      38.328  32.001  37.033  1.00  0.00     0.134 A 
ATOM     43  F   UNL A   1      40.613  34.298  35.394  1.00  0.00    -0.206 F 
ATOM     44  C   UNL A   1      39.428  34.521  37.406  1.00  0.00     0.040 A 
ATOM     45  C   UNL A   1      37.977  32.755  38.154  1.00  0.00     0.040 A 
ATOM     46  F   UNL A   1      37.772  30.788  36.898  1.00  0.00    -0.206 F 
ATOM     47  C   UNL A   1      38.534  34.017  38.349  1.00  0.00     0.006 A 
ENDBRANCH  26  40
BRANCH  27  48
ATOM     48  C   UNL A   1      41.288  27.436  27.681  1.00  0.00     0.057 A 
ATOM     49  C   UNL A   1      42.095  27.999  26.686  1.00  0.00     0.134 A 
ATOM     50  C   UNL A   1      40.805  26.140  27.466  1.00  0.00     0.134 A 
ATOM     51  F   UNL A   1      42.575  29.243  26.830  1.00  0.00    -0.206 F 
ATOM     52  C   UNL A   1      42.399  27.305  25.515  1.00  0.00     0.040 A 
ATOM     53  C   UNL A   1      41.127  25.422  26.313  1.00  0.00     0.040 A 
ATOM     54  F   UNL A   1      40.036  25.541  28.386  1.00  0.00    -0.206 F 
ATOM     55  C   UNL A   1      41.920  26.009  25.330  1.00  0.00     0.006 A 
ENDBRANCH  27  48
BRANCH  39  56
ATOM     56  C   UNL A   1      44.081  27.537  34.053  1.00  0.00     0.057 A 
ATOM     57  C   UNL A   1      45.390  28.035  34.056  1.00  0.00     0.134 A 
ATOM     58  C   UNL A   1      43.863  26.290  34.654  1.00  0.00     0.134 A 
ATOM     59  F   UNL A   1      45.670  29.216  33.483  1.00  0.00    -0.206 F 
ATOM     60  C   UNL A   1      46.447  27.305  34.604  1.00  0.00     0.040 A 
ATOM     61  C   UNL A   1      44.905  25.565  35.233  1.00  0.00     0.040 A 
ATOM     62  F   UNL A   1      42.631  25.758  34.694  1.00  0.00    -0.206 F 
ATOM     63  C   UNL A   1      46.203  26.069  35.198  1.00  0.00     0.006 A 
ENDBRANCH  39  56
ENDBRANCH  13  14
ENDBRANCH   6   8
ENDBRANCH   3   4
ENDBRANCH   2   3
ENDBRANCH   1   2
BRANCH   1  64
ATOM     64  C   UNL A   1      31.614  29.743  25.510  1.00  0.00     0.116 C 
BRANCH  64  65
ATOM     65  N   UNL A   1      32.748  29.625  24.627  1.00  0.00    -0.354 N 
ATOM     66  C   UNL A   1      32.839  28.971  23.435  1.00  0.00     0.243 C 
ATOM     67  H   UNL A   1      33.569  30.080  24.927  1.00  0.00     0.163 HD
ATOM     68  O   UNL A   1      33.854  29.218  22.770  1.00  0.00    -0.273 OA
BRANCH  66  69
ATOM     69  C   UNL A   1      31.888  27.828  22.982  1.00  0.00     0.187 C 
BRANCH  69  70
ATOM     70  N   UNL A   1      32.539  26.603  23.475  1.00  0.00    -0.261 N 
ATOM     71  C   UNL A   1      32.544  26.193  24.780  1.00  0.00     0.262 C 
ATOM     72  C   UNL A   1      33.359  25.817  22.704  1.00  0.00     0.262 C 
ATOM     73  O   UNL A   1      31.930  26.625  25.738  1.00  0.00    -0.269 OA
ATOM     74  C   UNL A   1      33.479  25.081  24.875  1.00  0.00     0.053 A 
ATOM     75  C   UNL A   1      33.979  24.847  23.609  1.00  0.00     0.053 A 
ATOM     76  O   UNL A   1      33.563  25.858  21.511  1.00  0.00    -0.269 OA
ATOM     77  C   UNL A   1      33.888  24.357  25.979  1.00  0.00     0.015 A 
ATOM     78  C   UNL A   1      34.921  23.864  23.374  1.00  0.00     0.015 A 
ATOM     79  C   UNL A   1      34.840  23.357  25.767  1.00  0.00     0.001 A 
ATOM     80  C   UNL A   1      35.352  23.112  24.475  1.00  0.00     0.001 A 
ENDBRANCH  69  70
BRANCH  69  81
ATOM     81  C   UNL A   1      30.354  27.852  23.181  1.00  0.00     0.071 C 
BRANCH  81  82
ATOM     82  C   UNL A   1      29.580  29.073  22.723  1.00  0.00    -0.045 A 
ATOM     83  C   UNL A   1      29.828  29.697  21.492  1.00  0.00     0.011 A 
ATOM     84  C   UNL A   1      28.668  29.669  23.621  1.00  0.00     0.011 A 
ATOM     85  C   UNL A   1      29.312  30.971  21.237  1.00  0.00     0.086 A 
ATOM     86  C   UNL A   1      28.147  30.940  23.373  1.00  0.00     0.086 A 
ATOM     87  C   UNL A   1      28.512  31.601  22.198  1.00  0.00     0.269 A 
BRANCH  87  88
ATOM     88  N   UNL A   1      28.132  33.002  22.014  1.00  0.00     0.062 N 
ATOM     89  O   UNL A   1      27.605  33.309  20.934  1.00  0.00    -0.258 OA
ATOM     90  O   UNL A   1      28.383  33.787  22.936  1.00  0.00    -0.258 OA
ENDBRANCH  87  88
ENDBRANCH  81  82
ENDBRANCH  69  81
ENDBRANCH  66  69
ENDBRANCH  64  65
ENDBRANCH   1  64
TORSDOF 15
ENDMDL
MODEL 2
REMARK VINA RESULT:     -13.1      0.311      6.067
REMARK SMILES O=C(NCCCCNC(=O)[C@H](Cc1ccc([N+](=O)[O-])cc1)N1C(=O)c2ccccc2C1=O)c1ccc(-c2c3nc(c(-c4c(F)cccc4F)c4ccc([nH]4)c(-c4c(F)cccc4F)c4nc(c(-c5c(F)cccc5F)c5ccc2[nH]5)C=C4)C=C3)cc1
REMARK SMILES IDX 6 1 5 2 4 3 3 4 1 5 2 6 33 8 34 9 86 10 35 11 85 12 36 13
REMARK SMILES IDX 37 14 38 15 79 16 39 17 84 18 78 19 80 20 40 21 83 22 77 23
REMARK SMILES IDX 76 24 41 26 67 27 50 28 66 29 51 30 54 31 65 32 81 33 52 34
REMARK SMILES IDX 53 35 64 37 82 38 55 39 42 40 43 41 48 42 44 43 45 44 47 45
REMARK SMILES IDX 49 46 46 47 68 48 69 49 74 50 70 51 71 52 73 53 75 54 72 55
REMARK SMILES IDX 56 56 57 57 62 58 58 59 59 60 61 61 63 62 60 63 7 64 8 65
REMARK SMILES IDX 9 66 10 68 11 69 22 70 23 71 31 72 24 73 25 74 30 75 32 76
REMARK SMILES IDX 26 77 29 78 27 79 28 80 12 81 13 82 14 83 21 84 15 85 20 86
REMARK SMILES IDX 16 87 17 88 18 89 19 90
REMARK H PARENT 3 7 80 25 54 36 8 67
REMARK Flexibility Score: inf
ROOT
ATOM      1  C   UNL A   1      32.060  30.598  26.699  1.00  0.00     0.023 C 
ENDROOT
BRANCH   1   2
ATOM      2  C   UNL A   1      31.369  31.942  26.887  1.00  0.00     0.023 C 
BRANCH   2   3
ATOM      3  C   UNL A   1      32.203  33.184  26.592  1.00  0.00     0.116 C 
BRANCH   3   4
ATOM      4  N   UNL A   1      32.156  34.220  27.618  1.00  0.00    -0.352 N 
ATOM      5  O   UNL A   1      32.864  35.412  29.408  1.00  0.00    -0.269 OA
ATOM      6  C   UNL A   1      33.080  34.511  28.603  1.00  0.00     0.251 C 
ATOM      7  H   UNL A   1      31.355  34.791  27.606  1.00  0.00     0.163 HD
BRANCH   6   8
ATOM      8  C   UNL A   1      34.272  33.647  28.752  1.00  0.00     0.039 A 
ATOM      9  C   UNL A   1      34.143  32.313  29.135  1.00  0.00     0.014 A 
ATOM     10  C   UNL A   1      35.534  34.241  28.677  1.00  0.00     0.014 A 
ATOM     11  C   UNL A   1      35.232  31.671  29.713  1.00  0.00     0.010 A 
ATOM     12  C   UNL A   1      36.650  33.546  29.147  1.00  0.00     0.010 A 
ATOM     13  C   UNL A   1      36.491  32.292  29.754  1.00  0.00    -0.014 A 
BRANCH  13  14
ATOM     14  C   UNL A   1      37.623  31.630  30.455  1.00  0.00     0.031 A 
ATOM     15  C   UNL A   1      38.499  30.629  29.742  1.00  0.00     0.074 A 
ATOM     16  C   UNL A   1      37.878  31.960  31.734  1.00  0.00     0.049 A 
ATOM     17  N   UNL A   1      39.517  29.944  30.204  1.00  0.00    -0.248 NA
ATOM     18  C   UNL A   1      38.189  30.352  28.331  1.00  0.00     0.031 C 
ATOM     19  C   UNL A   1      37.106  32.922  32.524  1.00  0.00     0.029 A 
ATOM     20  N   UNL A   1      38.860  31.537  32.592  1.00  0.00    -0.354 N 
ATOM     21  C   UNL A   1      39.944  29.134  29.155  1.00  0.00     0.074 A 
ATOM     22  C   UNL A   1      39.060  29.396  28.039  1.00  0.00     0.031 C 
ATOM     23  C   UNL A   1      37.669  33.051  33.732  1.00  0.00     0.029 A 
ATOM     24  C   UNL A   1      38.793  32.128  33.829  1.00  0.00     0.049 A 
ATOM     25  H   UNL A   1      39.545  30.875  32.344  1.00  0.00     0.167 HD
ATOM     26  C   UNL A   1      40.978  28.257  29.127  1.00  0.00     0.037 A 
ATOM     27  C   UNL A   1      39.540  31.932  34.930  1.00  0.00     0.037 A 
ATOM     28  C   UNL A   1      41.863  28.018  30.241  1.00  0.00     0.049 A 
ATOM     29  C   UNL A   1      40.655  30.929  34.882  1.00  0.00     0.074 A 
ATOM     30  C   UNL A   1      42.966  27.183  30.305  1.00  0.00     0.029 A 
ATOM     31  N   UNL A   1      41.741  28.612  31.489  1.00  0.00    -0.354 N 
ATOM     32  N   UNL A   1      41.062  30.192  33.877  1.00  0.00    -0.248 NA
ATOM     33  C   UNL A   1      41.411  30.729  36.123  1.00  0.00     0.031 C 
ATOM     34  C   UNL A   1      43.473  27.227  31.608  1.00  0.00     0.029 A 
ATOM     35  C   UNL A   1      42.728  28.138  32.339  1.00  0.00     0.049 A 
ATOM     36  H   UNL A   1      41.052  29.272  31.736  1.00  0.00     0.167 HD
ATOM     37  C   UNL A   1      42.141  29.462  34.356  1.00  0.00     0.074 A 
ATOM     38  C   UNL A   1      42.331  29.859  35.736  1.00  0.00     0.031 C 
ATOM     39  C   UNL A   1      42.905  28.546  33.712  1.00  0.00     0.037 A 
BRANCH  26  40
ATOM     40  C   UNL A   1      41.193  27.464  27.865  1.00  0.00     0.057 A 
ATOM     41  C   UNL A   1      40.592  26.216  27.651  1.00  0.00     0.134 A 
ATOM     42  C   UNL A   1      41.989  27.976  26.830  1.00  0.00     0.134 A 
ATOM     43  F   UNL A   1      39.823  25.660  28.599  1.00  0.00    -0.206 F 
ATOM     44  C   UNL A   1      40.798  25.495  26.471  1.00  0.00     0.040 A 
ATOM     45  C   UNL A   1      42.177  27.279  25.635  1.00  0.00     0.040 A 
ATOM     46  F   UNL A   1      42.586  29.170  26.957  1.00  0.00    -0.206 F 
ATOM     47  C   UNL A   1      41.588  26.030  25.456  1.00  0.00     0.006 A 
ENDBRANCH  26  40
BRANCH  27  48
ATOM     48  C   UNL A   1      39.251  32.706  36.163  1.00  0.00     0.057 A 
ATOM     49  C   UNL A   1      38.405  32.193  37.153  1.00  0.00     0.134 A 
ATOM     50  C   UNL A   1      39.827  33.961  36.391  1.00  0.00     0.134 A 
ATOM     51  F   UNL A   1      37.813  31.002  36.984  1.00  0.00    -0.206 F 
ATOM     52  C   UNL A   1      38.130  32.908  38.318  1.00  0.00     0.040 A 
ATOM     53  C   UNL A   1      39.585  34.673  37.567  1.00  0.00     0.040 A 
ATOM     54  F   UNL A   1      40.656  34.502  35.486  1.00  0.00    -0.206 F 
ATOM     55  C   UNL A   1      38.727  34.149  38.531  1.00  0.00     0.006 A 
ENDBRANCH  27  48
BRANCH  39  56
ATOM     56  C   UNL A   1      44.042  27.946  34.487  1.00  0.00     0.057 A 
ATOM     57  C   UNL A   1      45.305  28.548  34.541  1.00  0.00     0.134 A 
ATOM     58  C   UNL A   1      43.864  26.750  35.195  1.00  0.00     0.134 A 
ATOM     59  F   UNL A   1      45.546  29.686  33.872  1.00  0.00    -0.206 F 
ATOM     60  C   UNL A   1      46.361  27.965  35.245  1.00  0.00     0.040 A 
ATOM     61  C   UNL A   1      44.903  26.174  35.927  1.00  0.00     0.040 A 
ATOM     62  F   UNL A   1      42.677  26.125  35.192  1.00  0.00    -0.206 F 
ATOM     63  C   UNL A   1      46.158  26.776  35.944  1.00  0.00     0.006 A 
ENDBRANCH  39  56
ENDBRANCH  13  14
ENDBRANCH   6   8
ENDBRANCH   3   4
ENDBRANCH   2   3
ENDBRANCH   1   2
BRANCH   1  64
ATOM     64  C   UNL A   1      31.763  29.894  25.389  1.00  0.00     0.116 C 
BRANCH  64  65
ATOM     65  N   UNL A   1      32.891  29.659  24.522  1.00  0.00    -0.354 N 
ATOM     66  C   UNL A   1      32.948  28.924  23.375  1.00  0.00     0.243 C 
ATOM     67  H   UNL A   1      33.734  30.087  24.795  1.00  0.00     0.163 HD
ATOM     68  O   UNL A   1      33.975  29.073  22.700  1.00  0.00    -0.273 OA
BRANCH  66  69
ATOM     69  C   UNL A   1      31.938  27.806  22.992  1.00  0.00     0.187 C 
BRANCH  69  70
ATOM     70  N   UNL A   1      32.571  26.569  23.479  1.00  0.00    -0.261 N 
ATOM     71  C   UNL A   1      32.599  26.169  24.786  1.00  0.00     0.262 C 
ATOM     72  C   UNL A   1      33.352  25.758  22.694  1.00  0.00     0.262 C 
ATOM     73  O   UNL A   1      32.019  26.623  25.756  1.00  0.00    -0.269 OA
ATOM     74  C   UNL A   1      33.509  25.034  24.867  1.00  0.00     0.053 A 
ATOM     75  C   UNL A   1      33.971  24.779  23.590  1.00  0.00     0.053 A 
ATOM     76  O   UNL A   1      33.527  25.785  21.495  1.00  0.00    -0.269 OA
ATOM     77  C   UNL A   1      33.927  24.308  25.965  1.00  0.00     0.015 A 
ATOM     78  C   UNL A   1      34.882  23.771  23.340  1.00  0.00     0.015 A 
ATOM     79  C   UNL A   1      34.849  23.284  25.738  1.00  0.00     0.001 A 
ATOM     80  C   UNL A   1      35.321  23.017  24.435  1.00  0.00     0.001 A 
ENDBRANCH  69  70
BRANCH  69  81
ATOM     81  C   UNL A   1      30.417  27.887  23.265  1.00  0.00     0.071 C 
BRANCH  81  82
ATOM     82  C   UNL A   1      29.647  29.085  22.743  1.00  0.00    -0.045 A 
ATOM     83  C   UNL A   1      30.016  29.756  21.569  1.00  0.00     0.011 A 
ATOM     84  C   UNL A   1      28.602  29.611  23.533  1.00  0.00     0.011 A 
ATOM     85  C   UNL A   1      29.474  31.012  21.281  1.00  0.00     0.086 A 
ATOM     86  C   UNL A   1      28.053  30.864  23.252  1.00  0.00     0.086 A 
ATOM     87  C   UNL A   1      28.529  31.576  22.149  1.00  0.00     0.269 A 
BRANCH  87  88
ATOM     88  N   UNL A   1      28.107  32.962  21.952  1.00  0.00     0.062 N 
ATOM     89  O   UNL A   1      27.544  33.237  20.880  1.00  0.00    -0.258 OA
ATOM     90  O   UNL A   1      28.359  33.770  22.855  1.00  0.00    -0.258 OA
ENDBRANCH  87  88
ENDBRANCH  81  82
ENDBRANCH  69  81
ENDBRANCH  66  69
ENDBRANCH  64  65
ENDBRANCH   1  64
TORSDOF 15
ENDMDL
MODEL 3
REMARK VINA RESULT:     -13.0      4.694      9.919
REMARK SMILES O=C(NCCCCNC(=O)[C@H](Cc1ccc([N+](=O)[O-])cc1)N1C(=O)c2ccccc2C1=O)c1ccc(-c2c3nc(c(-c4c(F)cccc4F)c4ccc([nH]4)c(-c4c(F)cccc4F)c4nc(c(-c5c(F)cccc5F)c5ccc2[nH]5)C=C4)C=C3)cc1
REMARK SMILES IDX 6 1 5 2 4 3 3 4 1 5 2 6 33 8 34 9 86 10 35 11 85 12 36 13
REMARK SMILES IDX 37 14 38 15 79 16 39 17 84 18 78 19 80 20 40 21 83 22 77 23
REMARK SMILES IDX 76 24 41 26 67 27 50 28 66 29 51 30 54 31 65 32 81 33 52 34
REMARK SMILES IDX 53 35 64 37 82 38 55 39 42 40 43 41 48 42 44 43 45 44 47 45
REMARK SMILES IDX 49 46 46 47 68 48 69 49 74 50 70 51 71 52 73 53 75 54 72 55
REMARK SMILES IDX 56 56 57 57 62 58 58 59 59 60 61 61 63 62 60 63 7 64 8 65
REMARK SMILES IDX 9 66 10 68 11 69 22 70 23 71 31 72 24 73 25 74 30 75 32 76
REMARK SMILES IDX 26 77 29 78 27 79 28 80 12 81 13 82 14 83 21 84 15 85 20 86
REMARK SMILES IDX 16 87 17 88 18 89 19 90
REMARK H PARENT 3 7 80 25 54 36 8 67
REMARK Flexibility Score: inf
ROOT
ATOM      1  C   UNL A   1      37.033  22.209  24.233  1.00  0.00     0.023 C 
ENDROOT
BRANCH   1   2
ATOM      2  C   UNL A   1      37.475  21.259  25.337  1.00  0.00     0.023 C 
BRANCH   2   3
ATOM      3  C   UNL A   1      38.931  21.358  25.779  1.00  0.00     0.116 C 
BRANCH   3   4
ATOM      4  N   UNL A   1      39.697  20.121  25.673  1.00  0.00    -0.352 N 
ATOM      5  O   UNL A   1      41.491  18.757  25.888  1.00  0.00    -0.269 OA
ATOM      6  C   UNL A   1      40.991  19.861  26.082  1.00  0.00     0.251 C 
ATOM      7  H   UNL A   1      39.226  19.367  25.250  1.00  0.00     0.163 HD
BRANCH   6   8
ATOM      8  C   UNL A   1      41.804  20.961  26.646  1.00  0.00     0.039 A 
ATOM      9  C   UNL A   1      41.865  21.168  28.023  1.00  0.00     0.014 A 
ATOM     10  C   UNL A   1      42.359  21.892  25.766  1.00  0.00     0.014 A 
ATOM     11  C   UNL A   1      42.219  22.425  28.499  1.00  0.00     0.010 A 
ATOM     12  C   UNL A   1      42.828  23.111  26.261  1.00  0.00     0.010 A 
ATOM     13  C   UNL A   1      42.674  23.422  27.619  1.00  0.00    -0.014 A 
BRANCH  13  14
ATOM     14  C   UNL A   1      42.962  24.788  28.131  1.00  0.00     0.031 A 
ATOM     15  C   UNL A   1      44.376  25.222  28.436  1.00  0.00     0.074 A 
ATOM     16  C   UNL A   1      41.943  25.651  28.291  1.00  0.00     0.049 A 
ATOM     17  N   UNL A   1      44.807  26.368  28.905  1.00  0.00    -0.248 NA
ATOM     18  C   UNL A   1      45.445  24.240  28.194  1.00  0.00     0.031 C 
ATOM     19  C   UNL A   1      40.535  25.348  28.019  1.00  0.00     0.029 A 
ATOM     20  N   UNL A   1      41.928  26.957  28.707  1.00  0.00    -0.354 N 
ATOM     21  C   UNL A   1      46.185  26.233  29.044  1.00  0.00     0.074 A 
ATOM     22  C   UNL A   1      46.516  24.886  28.633  1.00  0.00     0.031 C 
ATOM     23  C   UNL A   1      39.801  26.448  28.230  1.00  0.00     0.029 A 
ATOM     24  C   UNL A   1      40.672  27.509  28.723  1.00  0.00     0.049 A 
ATOM     25  H   UNL A   1      42.739  27.450  28.967  1.00  0.00     0.167 HD
ATOM     26  C   UNL A   1      47.088  27.149  29.473  1.00  0.00     0.037 A 
ATOM     27  C   UNL A   1      40.260  28.728  29.113  1.00  0.00     0.037 A 
ATOM     28  C   UNL A   1      46.746  28.495  29.864  1.00  0.00     0.049 A 
ATOM     29  C   UNL A   1      41.275  29.710  29.618  1.00  0.00     0.074 A 
ATOM     30  C   UNL A   1      47.588  29.516  30.274  1.00  0.00     0.029 A 
ATOM     31  N   UNL A   1      45.456  29.005  29.900  1.00  0.00    -0.354 N 
ATOM     32  N   UNL A   1      42.576  29.577  29.719  1.00  0.00    -0.248 NA
ATOM     33  C   UNL A   1      40.764  31.010  30.066  1.00  0.00     0.031 C 
ATOM     34  C   UNL A   1      46.802  30.622  30.613  1.00  0.00     0.029 A 
ATOM     35  C   UNL A   1      45.476  30.315  30.353  1.00  0.00     0.049 A 
ATOM     36  H   UNL A   1      44.646  28.509  29.641  1.00  0.00     0.167 HD
ATOM     37  C   UNL A   1      43.042  30.786  30.215  1.00  0.00     0.074 A 
ATOM     38  C   UNL A   1      41.885  31.643  30.378  1.00  0.00     0.031 C 
ATOM     39  C   UNL A   1      44.314  31.155  30.509  1.00  0.00     0.037 A 
BRANCH  26  40
ATOM     40  C   UNL A   1      48.529  26.722  29.577  1.00  0.00     0.057 A 
ATOM     41  C   UNL A   1      49.440  26.894  28.527  1.00  0.00     0.134 A 
ATOM     42  C   UNL A   1      49.020  26.161  30.764  1.00  0.00     0.134 A 
ATOM     43  F   UNL A   1      49.040  27.417  27.358  1.00  0.00    -0.206 F 
ATOM     44  C   UNL A   1      50.775  26.497  28.642  1.00  0.00     0.040 A 
ATOM     45  C   UNL A   1      50.358  25.788  30.902  1.00  0.00     0.040 A 
ATOM     46  F   UNL A   1      48.210  25.977  31.818  1.00  0.00    -0.206 F 
ATOM     47  C   UNL A   1      51.239  25.947  29.835  1.00  0.00     0.006 A 
ENDBRANCH  26  40
BRANCH  27  48
ATOM     48  C   UNL A   1      38.819  29.078  29.038  1.00  0.00     0.057 A 
ATOM     49  C   UNL A   1      37.993  28.973  30.162  1.00  0.00     0.134 A 
ATOM     50  C   UNL A   1      38.240  29.543  27.851  1.00  0.00     0.134 A 
ATOM     51  F   UNL A   1      38.488  28.520  31.323  1.00  0.00    -0.206 F 
ATOM     52  C   UNL A   1      36.639  29.304  30.105  1.00  0.00     0.040 A 
ATOM     53  C   UNL A   1      36.895  29.907  27.788  1.00  0.00     0.040 A 
ATOM     54  F   UNL A   1      38.981  29.676  26.741  1.00  0.00    -0.206 F 
ATOM     55  C   UNL A   1      36.089  29.781  28.917  1.00  0.00     0.006 A 
ENDBRANCH  27  48
BRANCH  39  56
ATOM     56  C   UNL A   1      44.516  32.561  30.995  1.00  0.00     0.057 A 
ATOM     57  C   UNL A   1      44.530  32.882  32.358  1.00  0.00     0.134 A 
ATOM     58  C   UNL A   1      44.708  33.606  30.082  1.00  0.00     0.134 A 
ATOM     59  F   UNL A   1      44.336  31.930  33.284  1.00  0.00    -0.206 F 
ATOM     60  C   UNL A   1      44.693  34.198  32.795  1.00  0.00     0.040 A 
ATOM     61  C   UNL A   1      44.904  34.921  30.507  1.00  0.00     0.040 A 
ATOM     62  F   UNL A   1      44.715  33.366  28.761  1.00  0.00    -0.206 F 
ATOM     63  C   UNL A   1      44.885  35.220  31.867  1.00  0.00     0.006 A 
ENDBRANCH  39  56
ENDBRANCH  13  14
ENDBRANCH   6   8
ENDBRANCH   3   4
ENDBRANCH   2   3
ENDBRANCH   1   2
BRANCH   1  64
ATOM     64  C   UNL A   1      36.333  23.470  24.704  1.00  0.00     0.116 C 
BRANCH  64  65
ATOM     65  N   UNL A   1      35.795  23.438  26.041  1.00  0.00    -0.354 N 
ATOM     66  C   UNL A   1      34.551  23.062  26.452  1.00  0.00     0.243 C 
ATOM     67  H   UNL A   1      36.410  23.727  26.754  1.00  0.00     0.163 HD
ATOM     68  O   UNL A   1      34.421  22.907  27.674  1.00  0.00    -0.273 OA
BRANCH  66  69
ATOM     69  C   UNL A   1      33.294  23.023  25.540  1.00  0.00     0.187 C 
BRANCH  69  70
ATOM     70  N   UNL A   1      32.880  24.432  25.438  1.00  0.00    -0.261 N 
ATOM     71  C   UNL A   1      33.390  25.332  24.543  1.00  0.00     0.262 C 
ATOM     72  C   UNL A   1      32.053  25.046  26.344  1.00  0.00     0.262 C 
ATOM     73  O   UNL A   1      34.130  25.157  23.593  1.00  0.00    -0.269 OA
ATOM     74  C   UNL A   1      32.891  26.646  24.926  1.00  0.00     0.053 A 
ATOM     75  C   UNL A   1      32.072  26.476  26.027  1.00  0.00     0.053 A 
ATOM     76  O   UNL A   1      31.399  24.560  27.241  1.00  0.00    -0.269 OA
ATOM     77  C   UNL A   1      33.156  27.889  24.385  1.00  0.00     0.015 A 
ATOM     78  C   UNL A   1      31.466  27.550  26.648  1.00  0.00     0.015 A 
ATOM     79  C   UNL A   1      32.554  28.991  24.997  1.00  0.00     0.001 A 
ATOM     80  C   UNL A   1      31.715  28.823  26.119  1.00  0.00     0.001 A 
ENDBRANCH  69  70
BRANCH  69  81
ATOM     81  C   UNL A   1      33.222  22.246  24.203  1.00  0.00     0.071 C 
BRANCH  81  82
ATOM     82  C   UNL A   1      33.203  20.729  24.244  1.00  0.00    -0.045 A 
ATOM     83  C   UNL A   1      34.151  19.990  24.965  1.00  0.00     0.011 A 
ATOM     84  C   UNL A   1      32.275  20.045  23.430  1.00  0.00     0.011 A 
ATOM     85  C   UNL A   1      34.281  18.615  24.744  1.00  0.00     0.086 A 
ATOM     86  C   UNL A   1      32.396  18.672  23.205  1.00  0.00     0.086 A 
ATOM     87  C   UNL A   1      33.431  17.975  23.832  1.00  0.00     0.269 A 
BRANCH  87  88
ATOM     88  N   UNL A   1      33.689  16.584  23.461  1.00  0.00     0.062 N 
ATOM     89  O   UNL A   1      33.296  15.706  24.245  1.00  0.00    -0.258 OA
ATOM     90  O   UNL A   1      34.300  16.379  22.405  1.00  0.00    -0.258 OA
ENDBRANCH  87  88
ENDBRANCH  81  82
ENDBRANCH  69  81
ENDBRANCH  66  69
ENDBRANCH  64  65
ENDBRANCH   1  64
TORSDOF 15
ENDMDL
