MODEL 1
REMARK VINA RESULT:     -12.2      0.000      0.000
REMARK SMILES C[N@@H+]1CCN(C(=O)c2cnn3c2CCCC3)C[C@@H]1C(=O)NCCCCNC(=O)c1ccc(-c2c3nc(c(-c4c(F)cccc4F)c4ccc([nH]4)c(-c4c(F)cccc4F)c4nc(c(-c5c(F)cccc5F)c5ccc2[nH]5)C=C4)C=C3)cc1
REMARK SMILES IDX 23 1 22 2 21 3 19 4 20 5 18 7 1 8 2 9 3 10 4 12 17 13 5 14
REMARK SMILES IDX 6 15 7 16 8 17 9 18 12 19 10 20 11 21 13 22 16 23 14 24
REMARK SMILES IDX 15 25 24 26 25 27 26 28 27 29 28 31 29 32 30 33 82 34 31 35
REMARK SMILES IDX 81 36 32 37 33 38 34 39 75 40 35 41 80 42 74 43 76 44 36 45
REMARK SMILES IDX 79 46 73 47 72 48 37 50 63 51 46 52 62 53 47 54 50 55 61 56
REMARK SMILES IDX 77 57 48 58 49 59 60 61 78 62 51 63 38 64 39 65 44 66 40 67
REMARK SMILES IDX 41 68 43 69 45 70 42 71 64 72 65 73 70 74 66 75 67 76 69 77
REMARK SMILES IDX 71 78 68 79 52 80 53 81 58 82 54 83 55 84 57 85 59 86 56 87
REMARK H PARENT 21 6 2 11 26 30 76 49 50 60
REMARK Flexibility Score: inf
ROOT
ATOM      1  C   UNL A   1      39.435  21.679  25.857  1.00  0.00     0.023 C 
ENDROOT
BRANCH   1   2
ATOM      2  C   UNL A   1      37.906  21.765  25.761  1.00  0.00     0.116 C 
BRANCH   2   3
ATOM      3  N   UNL A   1      37.443  22.296  24.493  1.00  0.00    -0.351 N 
ATOM      4  C   UNL A   1      36.271  22.896  24.130  1.00  0.00     0.280 C 
ATOM      5  O   UNL A   1      36.230  23.329  22.975  1.00  0.00    -0.268 OA
ATOM      6  H   UNL A   1      38.093  22.208  23.759  1.00  0.00     0.163 HD
BRANCH   4   7
ATOM      7  C   UNL A   1      35.075  23.024  25.111  1.00  0.00     0.293 C 
ATOM      8  C   UNL A   1      34.433  20.626  25.107  1.00  0.00     0.333 C 
ATOM      9  N   UNL A   1      34.010  21.997  24.908  1.00  0.00    -0.324 N 
ATOM     10  C   UNL A   1      33.348  22.154  23.600  1.00  0.00     0.284 C 
ATOM     11  H   UNL A   1      33.336  22.181  25.651  1.00  0.00     0.348 HD
ATOM     12  C   UNL A   1      32.716  23.542  23.449  1.00  0.00     0.181 C 
ATOM     13  C   UNL A   1      34.447  24.442  24.968  1.00  0.00     0.195 C 
ATOM     14  N   UNL A   1      33.669  24.612  23.729  1.00  0.00    -0.326 N 
BRANCH  14  15
ATOM     15  C   UNL A   1      33.666  25.724  22.895  1.00  0.00     0.257 C 
ATOM     16  O   UNL A   1      33.942  25.645  21.699  1.00  0.00    -0.269 OA
BRANCH  15  17
ATOM     17  C   UNL A   1      33.218  26.987  23.444  1.00  0.00     0.081 A 
ATOM     18  C   UNL A   1      33.935  28.034  24.066  1.00  0.00     0.149 A 
ATOM     19  C   UNL A   1      31.921  27.462  23.378  1.00  0.00     0.051 A 
ATOM     20  N   UNL A   1      33.152  29.059  24.426  1.00  0.00    -0.180 NA
ATOM     21  N   UNL A   1      31.942  28.697  23.961  1.00  0.00    -0.269 N 
ATOM     22  C   UNL A   1      30.684  26.887  22.783  1.00  0.00     0.057 C 
ATOM     23  C   UNL A   1      30.783  29.549  24.146  1.00  0.00     0.144 C 
ATOM     24  C   UNL A   1      29.429  27.605  23.283  1.00  0.00     0.008 C 
ATOM     25  C   UNL A   1      29.618  29.124  23.250  1.00  0.00     0.024 C 
ENDBRANCH  15  17
ENDBRANCH  14  15
ENDBRANCH   4   7
ENDBRANCH   2   3
ENDBRANCH   1   2
BRANCH   1  26
ATOM     26  C   UNL A   1      40.040  20.273  25.958  1.00  0.00     0.023 C 
BRANCH  26  27
ATOM     27  C   UNL A   1      41.315  20.211  26.780  1.00  0.00     0.116 C 
BRANCH  27  28
ATOM     28  N   UNL A   1      42.473  19.818  25.979  1.00  0.00    -0.352 N 
ATOM     29  C   UNL A   1      43.401  20.632  25.356  1.00  0.00     0.251 C 
ATOM     30  H   UNL A   1      42.610  18.850  25.869  1.00  0.00     0.163 HD
ATOM     31  O   UNL A   1      44.119  20.212  24.468  1.00  0.00    -0.269 OA
BRANCH  29  32
ATOM     32  C   UNL A   1      43.495  22.033  25.796  1.00  0.00     0.039 A 
ATOM     33  C   UNL A   1      42.859  23.055  25.088  1.00  0.00     0.014 A 
ATOM     34  C   UNL A   1      44.186  22.295  26.974  1.00  0.00     0.014 A 
ATOM     35  C   UNL A   1      42.848  24.340  25.628  1.00  0.00     0.010 A 
ATOM     36  C   UNL A   1      44.041  23.517  27.578  1.00  0.00     0.010 A 
ATOM     37  C   UNL A   1      43.424  24.558  26.887  1.00  0.00    -0.014 A 
BRANCH  37  38
ATOM     38  C   UNL A   1      43.294  25.848  27.559  1.00  0.00     0.031 A 
ATOM     39  C   UNL A   1      44.298  26.879  27.160  1.00  0.00     0.074 A 
ATOM     40  C   UNL A   1      42.185  26.165  28.264  1.00  0.00     0.049 A 
ATOM     41  N   UNL A   1      45.146  27.504  27.909  1.00  0.00    -0.248 NA
ATOM     42  C   UNL A   1      44.451  27.173  25.724  1.00  0.00     0.031 C 
ATOM     43  C   UNL A   1      40.970  25.358  28.447  1.00  0.00     0.029 A 
ATOM     44  N   UNL A   1      41.843  27.342  28.850  1.00  0.00    -0.354 N 
ATOM     45  C   UNL A   1      45.797  28.419  27.079  1.00  0.00     0.074 A 
ATOM     46  C   UNL A   1      45.463  28.042  25.733  1.00  0.00     0.031 C 
ATOM     47  C   UNL A   1      39.958  26.149  28.856  1.00  0.00     0.029 A 
ATOM     48  C   UNL A   1      40.489  27.468  29.137  1.00  0.00     0.049 A 
ATOM     49  H   UNL A   1      42.500  28.048  29.055  1.00  0.00     0.167 HD
ATOM     50  C   UNL A   1      46.349  29.561  27.582  1.00  0.00     0.037 A 
ATOM     51  C   UNL A   1      39.842  28.587  29.541  1.00  0.00     0.037 A 
ATOM     52  C   UNL A   1      46.536  29.452  29.010  1.00  0.00     0.049 A 
ATOM     53  C   UNL A   1      40.867  29.532  30.045  1.00  0.00     0.074 A 
ATOM     54  C   UNL A   1      47.231  28.599  29.846  1.00  0.00     0.029 A 
ATOM     55  N   UNL A   1      45.650  30.118  29.821  1.00  0.00    -0.354 N 
ATOM     56  N   UNL A   1      41.569  29.335  31.127  1.00  0.00    -0.248 NA
ATOM     57  C   UNL A   1      41.430  30.483  29.099  1.00  0.00     0.031 C 
ATOM     58  C   UNL A   1      46.392  28.441  30.989  1.00  0.00     0.029 A 
ATOM     59  C   UNL A   1      45.272  29.254  30.812  1.00  0.00     0.049 A 
ATOM     60  H   UNL A   1      45.344  31.047  29.708  1.00  0.00     0.167 HD
ATOM     61  C   UNL A   1      42.842  29.781  30.804  1.00  0.00     0.074 A 
ATOM     62  C   UNL A   1      42.672  30.567  29.584  1.00  0.00     0.031 C 
ATOM     63  C   UNL A   1      43.949  29.231  31.387  1.00  0.00     0.037 A 
BRANCH  50  64
ATOM     64  C   UNL A   1      46.322  30.913  26.890  1.00  0.00     0.057 A 
ATOM     65  C   UNL A   1      47.512  31.670  26.840  1.00  0.00     0.134 A 
ATOM     66  C   UNL A   1      45.155  31.637  26.573  1.00  0.00     0.134 A 
ATOM     67  F   UNL A   1      48.702  31.103  27.091  1.00  0.00    -0.206 F 
ATOM     68  C   UNL A   1      47.520  33.055  26.639  1.00  0.00     0.040 A 
ATOM     69  C   UNL A   1      45.158  33.013  26.320  1.00  0.00     0.040 A 
ATOM     70  F   UNL A   1      43.936  31.088  26.575  1.00  0.00    -0.206 F 
ATOM     71  C   UNL A   1      46.335  33.736  26.398  1.00  0.00     0.006 A 
ENDBRANCH  50  64
BRANCH  51  72
ATOM     72  C   UNL A   1      38.449  29.001  29.262  1.00  0.00     0.057 A 
ATOM     73  C   UNL A   1      37.502  29.098  30.290  1.00  0.00     0.134 A 
ATOM     74  C   UNL A   1      38.083  29.571  28.030  1.00  0.00     0.134 A 
ATOM     75  F   UNL A   1      37.775  28.617  31.512  1.00  0.00    -0.206 F 
ATOM     76  C   UNL A   1      36.272  29.746  30.112  1.00  0.00     0.040 A 
ATOM     77  C   UNL A   1      36.856  30.214  27.835  1.00  0.00     0.040 A 
ATOM     78  F   UNL A   1      38.939  29.598  26.998  1.00  0.00    -0.206 F 
ATOM     79  C   UNL A   1      35.951  30.317  28.884  1.00  0.00     0.006 A 
ENDBRANCH  51  72
BRANCH  63  80
ATOM     80  C   UNL A   1      43.747  28.328  32.572  1.00  0.00     0.057 A 
ATOM     81  C   UNL A   1      43.639  26.931  32.491  1.00  0.00     0.134 A 
ATOM     82  C   UNL A   1      43.826  28.880  33.855  1.00  0.00     0.134 A 
ATOM     83  F   UNL A   1      43.657  26.300  31.312  1.00  0.00    -0.206 F 
ATOM     84  C   UNL A   1      43.570  26.127  33.632  1.00  0.00     0.040 A 
ATOM     85  C   UNL A   1      43.794  28.085  35.003  1.00  0.00     0.040 A 
ATOM     86  F   UNL A   1      43.990  30.203  34.012  1.00  0.00    -0.206 F 
ATOM     87  C   UNL A   1      43.656  26.705  34.895  1.00  0.00     0.006 A 
ENDBRANCH  63  80
ENDBRANCH  37  38
ENDBRANCH  29  32
ENDBRANCH  27  28
ENDBRANCH  26  27
ENDBRANCH   1  26
TORSDOF 13
ENDMDL
MODEL 2
REMARK VINA RESULT:     -12.0      3.458      8.708
REMARK SMILES C[N@@H+]1CCN(C(=O)c2cnn3c2CCCC3)C[C@@H]1C(=O)NCCCCNC(=O)c1ccc(-c2c3nc(c(-c4c(F)cccc4F)c4ccc([nH]4)c(-c4c(F)cccc4F)c4nc(c(-c5c(F)cccc5F)c5ccc2[nH]5)C=C4)C=C3)cc1
REMARK SMILES IDX 23 1 22 2 21 3 19 4 20 5 18 7 1 8 2 9 3 10 4 12 17 13 5 14
REMARK SMILES IDX 6 15 7 16 8 17 9 18 12 19 10 20 11 21 13 22 16 23 14 24
REMARK SMILES IDX 15 25 24 26 25 27 26 28 27 29 28 31 29 32 30 33 82 34 31 35
REMARK SMILES IDX 81 36 32 37 33 38 34 39 75 40 35 41 80 42 74 43 76 44 36 45
REMARK SMILES IDX 79 46 73 47 72 48 37 50 63 51 46 52 62 53 47 54 50 55 61 56
REMARK SMILES IDX 77 57 48 58 49 59 60 61 78 62 51 63 38 64 39 65 44 66 40 67
REMARK SMILES IDX 41 68 43 69 45 70 42 71 64 72 65 73 70 74 66 75 67 76 69 77
REMARK SMILES IDX 71 78 68 79 52 80 53 81 58 82 54 83 55 84 57 85 59 86 56 87
REMARK H PARENT 21 6 2 11 26 30 76 49 50 60
REMARK Flexibility Score: inf
ROOT
ATOM      1  C   UNL A   1      34.159  31.182  27.793  1.00  0.00     0.023 C 
ENDROOT
BRANCH   1   2
ATOM      2  C   UNL A   1      34.109  29.765  27.204  1.00  0.00     0.116 C 
BRANCH   2   3
ATOM      3  N   UNL A   1      32.895  29.049  27.544  1.00  0.00    -0.351 N 
ATOM      4  C   UNL A   1      32.195  28.079  26.883  1.00  0.00     0.280 C 
ATOM      5  O   UNL A   1      31.240  27.599  27.500  1.00  0.00    -0.268 OA
ATOM      6  H   UNL A   1      32.503  29.308  28.408  1.00  0.00     0.163 HD
BRANCH   4   7
ATOM      7  C   UNL A   1      32.583  27.615  25.454  1.00  0.00     0.293 C 
ATOM      8  C   UNL A   1      30.909  28.984  24.235  1.00  0.00     0.333 C 
ATOM      9  N   UNL A   1      31.458  27.665  24.472  1.00  0.00    -0.324 N 
ATOM     10  C   UNL A   1      30.390  26.711  24.823  1.00  0.00     0.284 C 
ATOM     11  H   UNL A   1      31.882  27.386  23.588  1.00  0.00     0.348 HD
ATOM     12  C   UNL A   1      30.914  25.272  24.884  1.00  0.00     0.181 C 
ATOM     13  C   UNL A   1      33.132  26.159  25.522  1.00  0.00     0.195 C 
ATOM     14  N   UNL A   1      32.083  25.150  25.750  1.00  0.00    -0.326 N 
BRANCH  14  15
ATOM     15  C   UNL A   1      32.156  24.051  26.597  1.00  0.00     0.257 C 
ATOM     16  O   UNL A   1      31.311  23.837  27.465  1.00  0.00    -0.269 OA
BRANCH  15  17
ATOM     17  C   UNL A   1      33.207  23.081  26.367  1.00  0.00     0.081 A 
ATOM     18  C   UNL A   1      34.504  22.972  26.919  1.00  0.00     0.149 A 
ATOM     19  C   UNL A   1      33.087  21.960  25.568  1.00  0.00     0.051 A 
ATOM     20  N   UNL A   1      35.176  21.909  26.458  1.00  0.00    -0.180 NA
ATOM     21  N   UNL A   1      34.276  21.295  25.669  1.00  0.00    -0.269 N 
ATOM     22  C   UNL A   1      31.952  21.436  24.760  1.00  0.00     0.057 C 
ATOM     23  C   UNL A   1      34.609  20.075  24.961  1.00  0.00     0.144 C 
ATOM     24  C   UNL A   1      32.412  20.374  23.759  1.00  0.00     0.008 C 
ATOM     25  C   UNL A   1      33.360  19.372  24.423  1.00  0.00     0.024 C 
ENDBRANCH  15  17
ENDBRANCH  14  15
ENDBRANCH   4   7
ENDBRANCH   2   3
ENDBRANCH   1   2
BRANCH   1  26
ATOM     26  C   UNL A   1      32.839  31.963  27.817  1.00  0.00     0.023 C 
BRANCH  26  27
ATOM     27  C   UNL A   1      32.934  33.349  27.204  1.00  0.00     0.116 C 
BRANCH  27  28
ATOM     28  N   UNL A   1      32.538  34.399  28.140  1.00  0.00    -0.352 N 
ATOM     29  C   UNL A   1      33.101  34.715  29.363  1.00  0.00     0.251 C 
ATOM     30  H   UNL A   1      31.773  34.953  27.864  1.00  0.00     0.163 HD
ATOM     31  O   UNL A   1      32.501  35.382  30.184  1.00  0.00    -0.269 OA
BRANCH  29  32
ATOM     32  C   UNL A   1      34.456  34.215  29.648  1.00  0.00     0.039 A 
ATOM     33  C   UNL A   1      34.702  33.390  30.748  1.00  0.00     0.014 A 
ATOM     34  C   UNL A   1      35.467  34.541  28.751  1.00  0.00     0.014 A 
ATOM     35  C   UNL A   1      35.965  32.819  30.888  1.00  0.00     0.010 A 
ATOM     36  C   UNL A   1      36.654  33.859  28.803  1.00  0.00     0.010 A 
ATOM     37  C   UNL A   1      36.932  33.042  29.897  1.00  0.00    -0.014 A 
BRANCH  37  38
ATOM     38  C   UNL A   1      38.210  32.335  29.921  1.00  0.00     0.031 A 
ATOM     39  C   UNL A   1      38.193  30.966  29.326  1.00  0.00     0.074 A 
ATOM     40  C   UNL A   1      39.365  32.982  30.197  1.00  0.00     0.049 A 
ATOM     41  N   UNL A   1      38.501  29.844  29.889  1.00  0.00    -0.248 NA
ATOM     42  C   UNL A   1      37.662  30.814  27.960  1.00  0.00     0.031 C 
ATOM     43  C   UNL A   1      39.556  34.414  30.466  1.00  0.00     0.029 A 
ATOM     44  N   UNL A   1      40.642  32.520  30.153  1.00  0.00    -0.354 N 
ATOM     45  C   UNL A   1      38.402  28.870  28.893  1.00  0.00     0.074 A 
ATOM     46  C   UNL A   1      37.713  29.491  27.796  1.00  0.00     0.031 C 
ATOM     47  C   UNL A   1      40.855  34.736  30.298  1.00  0.00     0.029 A 
ATOM     48  C   UNL A   1      41.610  33.516  30.092  1.00  0.00     0.049 A 
ATOM     49  H   UNL A   1      40.864  31.561  30.162  1.00  0.00     0.167 HD
ATOM     50  C   UNL A   1      39.123  27.713  28.962  1.00  0.00     0.037 A 
ATOM     51  C   UNL A   1      42.933  33.353  29.852  1.00  0.00     0.037 A 
ATOM     52  C   UNL A   1      39.592  27.483  30.308  1.00  0.00     0.049 A 
ATOM     53  C   UNL A   1      43.253  31.928  30.096  1.00  0.00     0.074 A 
ATOM     54  C   UNL A   1      38.991  27.330  31.543  1.00  0.00     0.029 A 
ATOM     55  N   UNL A   1      40.915  27.736  30.573  1.00  0.00    -0.354 N 
ATOM     56  N   UNL A   1      43.219  31.366  31.273  1.00  0.00    -0.248 NA
ATOM     57  C   UNL A   1      43.177  31.016  28.965  1.00  0.00     0.031 C 
ATOM     58  C   UNL A   1      39.864  27.988  32.460  1.00  0.00     0.029 A 
ATOM     59  C   UNL A   1      40.971  28.443  31.744  1.00  0.00     0.049 A 
ATOM     60  H   UNL A   1      41.682  27.459  30.022  1.00  0.00     0.167 HD
ATOM     61  C   UNL A   1      42.680  30.108  31.044  1.00  0.00     0.074 A 
ATOM     62  C   UNL A   1      42.769  29.913  29.599  1.00  0.00     0.031 C 
ATOM     63  C   UNL A   1      41.948  29.472  32.007  1.00  0.00     0.037 A 
BRANCH  50  64
ATOM     64  C   UNL A   1      39.768  27.023  27.772  1.00  0.00     0.057 A 
ATOM     65  C   UNL A   1      39.744  25.613  27.716  1.00  0.00     0.134 A 
ATOM     66  C   UNL A   1      40.671  27.629  26.877  1.00  0.00     0.134 A 
ATOM     67  F   UNL A   1      38.910  24.905  28.492  1.00  0.00    -0.206 F 
ATOM     68  C   UNL A   1      40.646  24.871  26.944  1.00  0.00     0.040 A 
ATOM     69  C   UNL A   1      41.543  26.896  26.064  1.00  0.00     0.040 A 
ATOM     70  F   UNL A   1      40.835  28.953  26.795  1.00  0.00    -0.206 F 
ATOM     71  C   UNL A   1      41.566  25.514  26.128  1.00  0.00     0.006 A 
ENDBRANCH  50  64
BRANCH  51  72
ATOM     72  C   UNL A   1      43.866  34.271  29.160  1.00  0.00     0.057 A 
ATOM     73  C   UNL A   1      43.864  34.389  27.764  1.00  0.00     0.134 A 
ATOM     74  C   UNL A   1      44.592  35.250  29.862  1.00  0.00     0.134 A 
ATOM     75  F   UNL A   1      43.169  33.525  27.010  1.00  0.00    -0.206 F 
ATOM     76  C   UNL A   1      44.525  35.434  27.104  1.00  0.00     0.040 A 
ATOM     77  C   UNL A   1      45.262  36.294  29.217  1.00  0.00     0.040 A 
ATOM     78  F   UNL A   1      44.603  35.274  31.203  1.00  0.00    -0.206 F 
ATOM     79  C   UNL A   1      45.217  36.398  27.832  1.00  0.00     0.006 A 
ENDBRANCH  51  72
BRANCH  63  80
ATOM     80  C   UNL A   1      41.967  30.040  33.399  1.00  0.00     0.057 A 
ATOM     81  C   UNL A   1      41.053  30.992  33.876  1.00  0.00     0.134 A 
ATOM     82  C   UNL A   1      42.843  29.482  34.337  1.00  0.00     0.134 A 
ATOM     83  F   UNL A   1      40.111  31.510  33.081  1.00  0.00    -0.206 F 
ATOM     84  C   UNL A   1      41.041  31.401  35.213  1.00  0.00     0.040 A 
ATOM     85  C   UNL A   1      42.818  29.856  35.682  1.00  0.00     0.040 A 
ATOM     86  F   UNL A   1      43.706  28.522  33.968  1.00  0.00    -0.206 F 
ATOM     87  C   UNL A   1      41.921  30.825  36.123  1.00  0.00     0.006 A 
ENDBRANCH  63  80
ENDBRANCH  37  38
ENDBRANCH  29  32
ENDBRANCH  27  28
ENDBRANCH  26  27
ENDBRANCH   1  26
TORSDOF 13
ENDMDL
MODEL 3
REMARK VINA RESULT:     -11.8      2.649      6.886
REMARK SMILES C[N@@H+]1CCN(C(=O)c2cnn3c2CCCC3)C[C@@H]1C(=O)NCCCCNC(=O)c1ccc(-c2c3nc(c(-c4c(F)cccc4F)c4ccc([nH]4)c(-c4c(F)cccc4F)c4nc(c(-c5c(F)cccc5F)c5ccc2[nH]5)C=C4)C=C3)cc1
REMARK SMILES IDX 23 1 22 2 21 3 19 4 20 5 18 7 1 8 2 9 3 10 4 12 17 13 5 14
REMARK SMILES IDX 6 15 7 16 8 17 9 18 12 19 10 20 11 21 13 22 16 23 14 24
REMARK SMILES IDX 15 25 24 26 25 27 26 28 27 29 28 31 29 32 30 33 82 34 31 35
REMARK SMILES IDX 81 36 32 37 33 38 34 39 75 40 35 41 80 42 74 43 76 44 36 45
REMARK SMILES IDX 79 46 73 47 72 48 37 50 63 51 46 52 62 53 47 54 50 55 61 56
REMARK SMILES IDX 77 57 48 58 49 59 60 61 78 62 51 63 38 64 39 65 44 66 40 67
REMARK SMILES IDX 41 68 43 69 45 70 42 71 64 72 65 73 70 74 66 75 67 76 69 77
REMARK SMILES IDX 71 78 68 79 52 80 53 81 58 82 54 83 55 84 57 85 59 86 56 87
REMARK H PARENT 21 6 2 11 26 30 76 49 50 60
REMARK Flexibility Score: inf
ROOT
ATOM      1  C   UNL A   1      33.569  27.373  25.798  1.00  0.00     0.023 C 
ENDROOT
BRANCH   1   2
ATOM      2  C   UNL A   1      33.950  25.920  26.115  1.00  0.00     0.116 C 
BRANCH   2   3
ATOM      3  N   UNL A   1      34.688  25.279  25.045  1.00  0.00    -0.351 N 
ATOM      4  C   UNL A   1      35.375  24.099  24.993  1.00  0.00     0.280 C 
ATOM      5  O   UNL A   1      35.818  23.789  23.882  1.00  0.00    -0.268 OA
ATOM      6  H   UNL A   1      34.698  25.786  24.201  1.00  0.00     0.163 HD
BRANCH   4   7
ATOM      7  C   UNL A   1      35.577  23.209  26.248  1.00  0.00     0.293 C 
ATOM      8  C   UNL A   1      37.807  22.317  25.621  1.00  0.00     0.333 C 
ATOM      9  N   UNL A   1      36.446  22.017  26.015  1.00  0.00    -0.324 N 
ATOM     10  C   UNL A   1      35.826  21.071  25.068  1.00  0.00     0.284 C 
ATOM     11  H   UNL A   1      36.521  21.576  26.931  1.00  0.00     0.348 HD
ATOM     12  C   UNL A   1      34.461  20.584  25.568  1.00  0.00     0.181 C 
ATOM     13  C   UNL A   1      34.187  22.730  26.764  1.00  0.00     0.195 C 
ATOM     14  N   UNL A   1      33.577  21.692  25.916  1.00  0.00    -0.326 N 
BRANCH  14  15
ATOM     15  C   UNL A   1      32.243  21.608  25.535  1.00  0.00     0.257 C 
ATOM     16  O   UNL A   1      31.748  20.563  25.114  1.00  0.00    -0.269 OA
BRANCH  15  17
ATOM     17  C   UNL A   1      31.398  22.764  25.750  1.00  0.00     0.081 A 
ATOM     18  C   UNL A   1      30.636  23.159  26.873  1.00  0.00     0.149 A 
ATOM     19  C   UNL A   1      31.241  23.806  24.855  1.00  0.00     0.051 A 
ATOM     20  N   UNL A   1      29.995  24.320  26.683  1.00  0.00    -0.180 NA
ATOM     21  N   UNL A   1      30.412  24.705  25.464  1.00  0.00    -0.269 N 
ATOM     22  C   UNL A   1      31.829  24.054  23.510  1.00  0.00     0.057 C 
ATOM     23  C   UNL A   1      29.944  25.940  24.866  1.00  0.00     0.144 C 
ATOM     24  C   UNL A   1      31.074  25.150  22.755  1.00  0.00     0.008 C 
ATOM     25  C   UNL A   1      30.798  26.350  23.665  1.00  0.00     0.024 C 
ENDBRANCH  15  17
ENDBRANCH  14  15
ENDBRANCH   4   7
ENDBRANCH   2   3
ENDBRANCH   1   2
BRANCH   1  26
ATOM     26  C   UNL A   1      33.717  28.387  26.940  1.00  0.00     0.023 C 
BRANCH  26  27
ATOM     27  C   UNL A   1      35.134  28.901  27.124  1.00  0.00     0.116 C 
BRANCH  27  28
ATOM     28  N   UNL A   1      35.237  29.864  28.219  1.00  0.00    -0.352 N 
ATOM     29  C   UNL A   1      36.235  29.980  29.169  1.00  0.00     0.251 C 
ATOM     30  H   UNL A   1      34.501  30.514  28.290  1.00  0.00     0.163 HD
ATOM     31  O   UNL A   1      36.059  30.596  30.203  1.00  0.00    -0.269 OA
BRANCH  29  32
ATOM     32  C   UNL A   1      37.527  29.330  28.894  1.00  0.00     0.039 A 
ATOM     33  C   UNL A   1      38.304  29.707  27.796  1.00  0.00     0.014 A 
ATOM     34  C   UNL A   1      37.974  28.373  29.798  1.00  0.00     0.014 A 
ATOM     35  C   UNL A   1      39.584  29.173  27.666  1.00  0.00     0.010 A 
ATOM     36  C   UNL A   1      39.283  27.971  29.755  1.00  0.00     0.010 A 
ATOM     37  C   UNL A   1      40.076  28.321  28.664  1.00  0.00    -0.014 A 
BRANCH  37  38
ATOM     38  C   UNL A   1      41.465  27.869  28.649  1.00  0.00     0.031 A 
ATOM     39  C   UNL A   1      41.719  26.614  27.880  1.00  0.00     0.074 A 
ATOM     40  C   UNL A   1      42.471  28.676  29.054  1.00  0.00     0.049 A 
ATOM     41  N   UNL A   1      42.226  25.503  28.304  1.00  0.00    -0.248 NA
ATOM     42  C   UNL A   1      41.248  26.552  26.485  1.00  0.00     0.031 C 
ATOM     43  C   UNL A   1      42.382  30.069  29.515  1.00  0.00     0.029 A 
ATOM     44  N   UNL A   1      43.814  28.472  29.002  1.00  0.00    -0.354 N 
ATOM     45  C   UNL A   1      42.330  24.673  27.187  1.00  0.00     0.074 A 
ATOM     46  C   UNL A   1      41.552  25.297  26.152  1.00  0.00     0.031 C 
ATOM     47  C   UNL A   1      43.598  30.648  29.443  1.00  0.00     0.029 A 
ATOM     48  C   UNL A   1      44.574  29.630  29.112  1.00  0.00     0.049 A 
ATOM     49  H   UNL A   1      44.214  27.578  28.896  1.00  0.00     0.167 HD
ATOM     50  C   UNL A   1      43.257  23.672  27.134  1.00  0.00     0.037 A 
ATOM     51  C   UNL A   1      45.908  29.751  28.907  1.00  0.00     0.037 A 
ATOM     52  C   UNL A   1      43.740  23.353  28.457  1.00  0.00     0.049 A 
ATOM     53  C   UNL A   1      46.490  28.391  28.977  1.00  0.00     0.074 A 
ATOM     54  C   UNL A   1      43.160  22.924  29.635  1.00  0.00     0.029 A 
ATOM     55  N   UNL A   1      44.986  23.810  28.807  1.00  0.00    -0.354 N 
ATOM     56  N   UNL A   1      46.545  27.677  30.068  1.00  0.00    -0.248 NA
ATOM     57  C   UNL A   1      46.606  27.643  27.734  1.00  0.00     0.031 C 
ATOM     58  C   UNL A   1      43.877  23.603  30.665  1.00  0.00     0.029 A 
ATOM     59  C   UNL A   1      44.888  24.350  30.061  1.00  0.00     0.049 A 
ATOM     60  H   UNL A   1      45.801  23.759  28.257  1.00  0.00     0.167 HD
ATOM     61  C   UNL A   1      46.259  26.384  29.655  1.00  0.00     0.074 A 
ATOM     62  C   UNL A   1      46.406  26.407  28.201  1.00  0.00     0.031 C 
ATOM     63  C   UNL A   1      45.647  25.498  30.496  1.00  0.00     0.037 A 
BRANCH  50  64
ATOM     64  C   UNL A   1      44.040  23.282  25.892  1.00  0.00     0.057 A 
ATOM     65  C   UNL A   1      44.154  21.914  25.568  1.00  0.00     0.134 A 
ATOM     66  C   UNL A   1      44.938  24.123  25.204  1.00  0.00     0.134 A 
ATOM     67  F   UNL A   1      43.343  21.002  26.126  1.00  0.00    -0.206 F 
ATOM     68  C   UNL A   1      45.171  21.413  24.747  1.00  0.00     0.040 A 
ATOM     69  C   UNL A   1      45.926  23.637  24.342  1.00  0.00     0.040 A 
ATOM     70  F   UNL A   1      44.981  25.446  25.388  1.00  0.00    -0.206 F 
ATOM     71  C   UNL A   1      46.076  22.275  24.145  1.00  0.00     0.006 A 
ENDBRANCH  50  64
BRANCH  51  72
ATOM     72  C   UNL A   1      46.659  30.912  28.380  1.00  0.00     0.057 A 
ATOM     73  C   UNL A   1      46.508  31.331  27.052  1.00  0.00     0.134 A 
ATOM     74  C   UNL A   1      47.337  31.800  29.234  1.00  0.00     0.134 A 
ATOM     75  F   UNL A   1      45.844  30.568  26.170  1.00  0.00    -0.206 F 
ATOM     76  C   UNL A   1      46.979  32.572  26.604  1.00  0.00     0.040 A 
ATOM     77  C   UNL A   1      47.818  33.040  28.799  1.00  0.00     0.040 A 
ATOM     78  F   UNL A   1      47.476  31.533  30.541  1.00  0.00    -0.206 F 
ATOM     79  C   UNL A   1      47.626  33.436  27.482  1.00  0.00     0.006 A 
ENDBRANCH  51  72
BRANCH  63  80
ATOM     80  C   UNL A   1      45.535  25.865  31.950  1.00  0.00     0.057 A 
ATOM     81  C   UNL A   1      46.573  25.717  32.883  1.00  0.00     0.134 A 
ATOM     82  C   UNL A   1      44.390  26.542  32.382  1.00  0.00     0.134 A 
ATOM     83  F   UNL A   1      47.745  25.174  32.539  1.00  0.00    -0.206 F 
ATOM     84  C   UNL A   1      46.458  26.183  34.196  1.00  0.00     0.040 A 
ATOM     85  C   UNL A   1      44.276  27.042  33.681  1.00  0.00     0.040 A 
ATOM     86  F   UNL A   1      43.379  26.773  31.529  1.00  0.00    -0.206 F 
ATOM     87  C   UNL A   1      45.308  26.856  34.596  1.00  0.00     0.006 A 
ENDBRANCH  63  80
ENDBRANCH  37  38
ENDBRANCH  29  32
ENDBRANCH  27  28
ENDBRANCH  26  27
ENDBRANCH   1  26
TORSDOF 13
ENDMDL
