MODEL 1
REMARK VINA RESULT:     -12.1      0.000      0.000
REMARK SMILES Nc1oc(-c2ccccc2)cc1C(=O)NCCCCNC(=O)c1ccc(-c2c3nc(c(-c4c(F)cccc4F)c4ccc([nH]4)c(-c4c(F)cccc4F)c4nc(c(-c5c(F)cccc5F)c5ccc2[nH]5)C=C4)C=C3)cc1
REMARK SMILES IDX 18 1 17 2 16 3 15 4 13 5 14 6 12 8 2 9 3 10 4 11 11 12 1 13
REMARK SMILES IDX 5 16 6 17 10 18 7 19 9 20 8 21 19 22 20 23 21 24 22 26 23 27
REMARK SMILES IDX 24 28 76 29 25 30 75 31 26 32 27 33 28 34 69 35 29 36 74 37
REMARK SMILES IDX 68 38 70 39 30 40 73 41 67 42 66 43 31 45 57 46 40 47 56 48
REMARK SMILES IDX 41 49 44 50 55 51 71 52 42 53 43 54 54 56 72 57 45 58 32 59
REMARK SMILES IDX 33 60 38 61 34 62 35 63 37 64 39 65 36 66 58 67 59 68 64 69
REMARK SMILES IDX 60 70 61 71 63 72 65 73 62 74 46 75 47 76 52 77 48 78 49 79
REMARK SMILES IDX 51 80 53 81 50 82
REMARK H PARENT 15 7 1 14 1 15 20 25 70 44 44 55
REMARK Flexibility Score: inf
ROOT
ATOM      1  C   UNL A   1      41.296  19.753  26.232  1.00  0.00     0.023 C 
ENDROOT
BRANCH   1   2
ATOM      2  C   UNL A   1      40.607  21.120  26.380  1.00  0.00     0.023 C 
BRANCH   2   3
ATOM      3  C   UNL A   1      39.193  21.201  25.798  1.00  0.00     0.116 C 
BRANCH   3   4
ATOM      4  N   UNL A   1      38.622  22.527  25.927  1.00  0.00    -0.352 N 
ATOM      5  C   UNL A   1      37.327  22.987  25.915  1.00  0.00     0.256 C 
ATOM      6  O   UNL A   1      37.178  24.194  26.126  1.00  0.00    -0.269 OA
ATOM      7  H   UNL A   1      39.295  23.237  26.047  1.00  0.00     0.163 HD
BRANCH   5   8
ATOM      8  C   UNL A   1      36.195  22.096  25.703  1.00  0.00     0.103 A 
ATOM      9  C   UNL A   1      35.103  22.017  26.559  1.00  0.00     0.203 A 
ATOM     10  O   UNL A   1      34.232  21.047  26.172  1.00  0.00    -0.440 OA
ATOM     11  C   UNL A   1      34.746  20.500  25.041  1.00  0.00     0.137 A 
ATOM     12  C   UNL A   1      35.895  21.162  24.675  1.00  0.00     0.067 A 
BRANCH   9  13
ATOM     13  N   UNL A   1      34.770  22.685  27.668  1.00  0.00    -0.369 N 
ATOM     14  H   UNL A   1      34.827  23.667  27.687  1.00  0.00     0.159 HD
ATOM     15  H   UNL A   1      34.469  22.195  28.466  1.00  0.00     0.159 HD
ENDBRANCH   9  13
BRANCH  11  16
ATOM     16  C   UNL A   1      34.074  19.355  24.466  1.00  0.00     0.017 A 
ATOM     17  C   UNL A   1      32.827  19.480  23.849  1.00  0.00     0.012 A 
ATOM     18  C   UNL A   1      34.748  18.126  24.415  1.00  0.00     0.012 A 
ATOM     19  C   UNL A   1      32.282  18.397  23.153  1.00  0.00     0.001 A 
ATOM     20  C   UNL A   1      34.199  17.044  23.729  1.00  0.00     0.001 A 
ATOM     21  C   UNL A   1      32.971  17.185  23.086  1.00  0.00     0.000 A 
ENDBRANCH  11  16
ENDBRANCH   5   8
ENDBRANCH   3   4
ENDBRANCH   2   3
ENDBRANCH   1   2
BRANCH   1  22
ATOM     22  C   UNL A   1      42.728  19.682  26.759  1.00  0.00     0.116 C 
BRANCH  22  23
ATOM     23  N   UNL A   1      43.730  19.562  25.698  1.00  0.00    -0.352 N 
ATOM     24  C   UNL A   1      44.240  20.554  24.875  1.00  0.00     0.251 C 
ATOM     25  H   UNL A   1      44.089  18.658  25.550  1.00  0.00     0.163 HD
ATOM     26  O   UNL A   1      44.754  20.286  23.804  1.00  0.00    -0.269 OA
BRANCH  24  27
ATOM     27  C   UNL A   1      44.167  21.954  25.334  1.00  0.00     0.039 A 
ATOM     28  C   UNL A   1      43.221  22.851  24.830  1.00  0.00     0.014 A 
ATOM     29  C   UNL A   1      45.061  22.345  26.321  1.00  0.00     0.014 A 
ATOM     30  C   UNL A   1      43.129  24.120  25.400  1.00  0.00     0.010 A 
ATOM     31  C   UNL A   1      44.855  23.518  26.995  1.00  0.00     0.010 A 
ATOM     32  C   UNL A   1      43.939  24.441  26.500  1.00  0.00    -0.014 A 
BRANCH  32  33
ATOM     33  C   UNL A   1      43.766  25.692  27.237  1.00  0.00     0.031 A 
ATOM     34  C   UNL A   1      44.759  26.752  26.897  1.00  0.00     0.074 A 
ATOM     35  C   UNL A   1      42.644  25.952  27.947  1.00  0.00     0.049 A 
ATOM     36  N   UNL A   1      45.621  27.319  27.675  1.00  0.00    -0.248 NA
ATOM     37  C   UNL A   1      44.899  27.137  25.481  1.00  0.00     0.031 C 
ATOM     38  C   UNL A   1      41.444  25.111  28.079  1.00  0.00     0.029 A 
ATOM     39  N   UNL A   1      42.274  27.086  28.603  1.00  0.00    -0.354 N 
ATOM     40  C   UNL A   1      46.259  28.289  26.898  1.00  0.00     0.074 A 
ATOM     41  C   UNL A   1      45.922  27.992  25.533  1.00  0.00     0.031 C 
ATOM     42  C   UNL A   1      40.414  25.853  28.535  1.00  0.00     0.029 A 
ATOM     43  C   UNL A   1      40.918  27.158  28.909  1.00  0.00     0.049 A 
ATOM     44  H   UNL A   1      42.913  27.797  28.842  1.00  0.00     0.167 HD
ATOM     45  C   UNL A   1      46.775  29.413  27.470  1.00  0.00     0.037 A 
ATOM     46  C   UNL A   1      40.248  28.222  29.415  1.00  0.00     0.037 A 
ATOM     47  C   UNL A   1      46.946  29.228  28.891  1.00  0.00     0.049 A 
ATOM     48  C   UNL A   1      41.256  29.138  29.994  1.00  0.00     0.074 A 
ATOM     49  C   UNL A   1      47.666  28.367  29.692  1.00  0.00     0.029 A 
ATOM     50  N   UNL A   1      46.005  29.802  29.708  1.00  0.00    -0.354 N 
ATOM     51  N   UNL A   1      41.977  28.858  31.042  1.00  0.00    -0.248 NA
ATOM     52  C   UNL A   1      41.774  30.196  29.143  1.00  0.00     0.031 C 
ATOM     53  C   UNL A   1      46.828  28.125  30.823  1.00  0.00     0.029 A 
ATOM     54  C   UNL A   1      45.676  28.900  30.681  1.00  0.00     0.049 A 
ATOM     55  H   UNL A   1      45.631  30.708  29.610  1.00  0.00     0.167 HD
ATOM     56  C   UNL A   1      43.231  29.376  30.754  1.00  0.00     0.074 A 
ATOM     57  C   UNL A   1      43.014  30.281  29.627  1.00  0.00     0.031 C 
ATOM     58  C   UNL A   1      44.358  28.799  31.266  1.00  0.00     0.037 A 
BRANCH  45  59
ATOM     59  C   UNL A   1      46.694  30.803  26.858  1.00  0.00     0.057 A 
ATOM     60  C   UNL A   1      47.852  31.609  26.863  1.00  0.00     0.134 A 
ATOM     61  C   UNL A   1      45.499  31.498  26.577  1.00  0.00     0.134 A 
ATOM     62  F   UNL A   1      49.062  31.076  27.095  1.00  0.00    -0.206 F 
ATOM     63  C   UNL A   1      47.805  33.003  26.737  1.00  0.00     0.040 A 
ATOM     64  C   UNL A   1      45.449  32.884  26.401  1.00  0.00     0.040 A 
ATOM     65  F   UNL A   1      44.302  30.904  26.546  1.00  0.00    -0.206 F 
ATOM     66  C   UNL A   1      46.595  33.648  26.524  1.00  0.00     0.006 A 
ENDBRANCH  45  59
BRANCH  46  67
ATOM     67  C   UNL A   1      38.847  28.636  29.180  1.00  0.00     0.057 A 
ATOM     68  C   UNL A   1      37.919  28.690  30.229  1.00  0.00     0.134 A 
ATOM     69  C   UNL A   1      38.457  29.255  27.978  1.00  0.00     0.134 A 
ATOM     70  F   UNL A   1      38.216  28.164  31.425  1.00  0.00    -0.206 F 
ATOM     71  C   UNL A   1      36.686  29.345  30.101  1.00  0.00     0.040 A 
ATOM     72  C   UNL A   1      37.227  29.906  27.835  1.00  0.00     0.040 A 
ATOM     73  F   UNL A   1      39.296  29.324  26.935  1.00  0.00    -0.206 F 
ATOM     74  C   UNL A   1      36.342  29.966  28.905  1.00  0.00     0.006 A 
ENDBRANCH  46  67
BRANCH  58  75
ATOM     75  C   UNL A   1      44.195  27.802  32.380  1.00  0.00     0.057 A 
ATOM     76  C   UNL A   1      44.109  26.413  32.196  1.00  0.00     0.134 A 
ATOM     77  C   UNL A   1      44.288  28.261  33.698  1.00  0.00     0.134 A 
ATOM     78  F   UNL A   1      44.105  25.873  30.973  1.00  0.00    -0.206 F 
ATOM     79  C   UNL A   1      44.087  25.527  33.278  1.00  0.00     0.040 A 
ATOM     80  C   UNL A   1      44.301  27.384  34.785  1.00  0.00     0.040 A 
ATOM     81  F   UNL A   1      44.425  29.572  33.948  1.00  0.00    -0.206 F 
ATOM     82  C   UNL A   1      44.193  26.012  34.577  1.00  0.00     0.006 A 
ENDBRANCH  58  75
ENDBRANCH  32  33
ENDBRANCH  24  27
ENDBRANCH  22  23
ENDBRANCH   1  22
TORSDOF 13
ENDMDL
MODEL 2
REMARK VINA RESULT:     -11.4      3.409      7.657
REMARK SMILES Nc1oc(-c2ccccc2)cc1C(=O)NCCCCNC(=O)c1ccc(-c2c3nc(c(-c4c(F)cccc4F)c4ccc([nH]4)c(-c4c(F)cccc4F)c4nc(c(-c5c(F)cccc5F)c5ccc2[nH]5)C=C4)C=C3)cc1
REMARK SMILES IDX 18 1 17 2 16 3 15 4 13 5 14 6 12 8 2 9 3 10 4 11 11 12 1 13
REMARK SMILES IDX 5 16 6 17 10 18 7 19 9 20 8 21 19 22 20 23 21 24 22 26 23 27
REMARK SMILES IDX 24 28 76 29 25 30 75 31 26 32 27 33 28 34 69 35 29 36 74 37
REMARK SMILES IDX 68 38 70 39 30 40 73 41 67 42 66 43 31 45 57 46 40 47 56 48
REMARK SMILES IDX 41 49 44 50 55 51 71 52 42 53 43 54 54 56 72 57 45 58 32 59
REMARK SMILES IDX 33 60 38 61 34 62 35 63 37 64 39 65 36 66 58 67 59 68 64 69
REMARK SMILES IDX 60 70 61 71 63 72 65 73 62 74 46 75 47 76 52 77 48 78 49 79
REMARK SMILES IDX 51 80 53 81 50 82
REMARK H PARENT 15 7 1 14 1 15 20 25 70 44 44 55
REMARK Flexibility Score: inf
ROOT
ATOM      1  C   UNL A   1      33.464  28.360  26.969  1.00  0.00     0.023 C 
ENDROOT
BRANCH   1   2
ATOM      2  C   UNL A   1      32.488  29.109  26.047  1.00  0.00     0.023 C 
BRANCH   2   3
ATOM      3  C   UNL A   1      32.988  29.333  24.617  1.00  0.00     0.116 C 
BRANCH   3   4
ATOM      4  N   UNL A   1      31.976  29.021  23.627  1.00  0.00    -0.352 N 
ATOM      5  C   UNL A   1      31.763  27.924  22.826  1.00  0.00     0.256 C 
ATOM      6  O   UNL A   1      30.746  27.950  22.129  1.00  0.00    -0.269 OA
ATOM      7  H   UNL A   1      31.309  29.737  23.504  1.00  0.00     0.163 HD
BRANCH   5   8
ATOM      8  C   UNL A   1      32.668  26.782  22.830  1.00  0.00     0.103 A 
ATOM      9  C   UNL A   1      32.766  25.872  21.784  1.00  0.00     0.203 A 
ATOM     10  O   UNL A   1      33.624  24.859  22.081  1.00  0.00    -0.440 OA
ATOM     11  C   UNL A   1      34.108  25.119  23.322  1.00  0.00     0.137 A 
ATOM     12  C   UNL A   1      33.618  26.320  23.780  1.00  0.00     0.067 A 
BRANCH   9  13
ATOM     13  N   UNL A   1      32.178  25.800  20.586  1.00  0.00    -0.369 N 
ATOM     14  H   UNL A   1      31.974  26.624  20.088  1.00  0.00     0.159 HD
ATOM     15  H   UNL A   1      31.947  24.923  20.203  1.00  0.00     0.159 HD
ENDBRANCH   9  13
BRANCH  11  16
ATOM     16  C   UNL A   1      34.970  24.135  23.943  1.00  0.00     0.017 A 
ATOM     17  C   UNL A   1      35.657  23.188  23.180  1.00  0.00     0.012 A 
ATOM     18  C   UNL A   1      35.216  24.221  25.320  1.00  0.00     0.012 A 
ATOM     19  C   UNL A   1      36.610  22.364  23.785  1.00  0.00     0.001 A 
ATOM     20  C   UNL A   1      36.161  23.392  25.924  1.00  0.00     0.001 A 
ATOM     21  C   UNL A   1      36.868  22.473  25.152  1.00  0.00     0.000 A 
ENDBRANCH  11  16
ENDBRANCH   5   8
ENDBRANCH   3   4
ENDBRANCH   2   3
ENDBRANCH   1   2
BRANCH   1  22
ATOM     22  C   UNL A   1      34.874  28.944  27.040  1.00  0.00     0.116 C 
BRANCH  22  23
ATOM     23  N   UNL A   1      35.020  29.983  28.060  1.00  0.00    -0.352 N 
ATOM     24  C   UNL A   1      36.028  30.136  29.000  1.00  0.00     0.251 C 
ATOM     25  H   UNL A   1      34.308  30.663  28.082  1.00  0.00     0.163 HD
ATOM     26  O   UNL A   1      35.851  30.781  30.019  1.00  0.00    -0.269 OA
BRANCH  24  27
ATOM     27  C   UNL A   1      37.338  29.515  28.732  1.00  0.00     0.039 A 
ATOM     28  C   UNL A   1      38.087  29.827  27.594  1.00  0.00     0.014 A 
ATOM     29  C   UNL A   1      37.822  28.623  29.679  1.00  0.00     0.014 A 
ATOM     30  C   UNL A   1      39.371  29.297  27.470  1.00  0.00     0.010 A 
ATOM     31  C   UNL A   1      39.138  28.247  29.645  1.00  0.00     0.010 A 
ATOM     32  C   UNL A   1      39.900  28.522  28.514  1.00  0.00    -0.014 A 
BRANCH  32  33
ATOM     33  C   UNL A   1      41.294  28.082  28.508  1.00  0.00     0.031 A 
ATOM     34  C   UNL A   1      41.540  26.816  27.758  1.00  0.00     0.074 A 
ATOM     35  C   UNL A   1      42.300  28.896  28.906  1.00  0.00     0.049 A 
ATOM     36  N   UNL A   1      42.003  25.697  28.209  1.00  0.00    -0.248 NA
ATOM     37  C   UNL A   1      41.094  26.748  26.355  1.00  0.00     0.031 C 
ATOM     38  C   UNL A   1      42.206  30.295  29.350  1.00  0.00     0.029 A 
ATOM     39  N   UNL A   1      43.646  28.693  28.874  1.00  0.00    -0.354 N 
ATOM     40  C   UNL A   1      42.114  24.854  27.101  1.00  0.00     0.074 A 
ATOM     41  C   UNL A   1      41.360  25.477  26.049  1.00  0.00     0.031 C 
ATOM     42  C   UNL A   1      43.422  30.875  29.295  1.00  0.00     0.029 A 
ATOM     43  C   UNL A   1      44.405  29.852  29.000  1.00  0.00     0.049 A 
ATOM     44  H   UNL A   1      44.048  27.800  28.772  1.00  0.00     0.167 HD
ATOM     45  C   UNL A   1      43.048  23.862  27.069  1.00  0.00     0.037 A 
ATOM     46  C   UNL A   1      45.747  29.972  28.852  1.00  0.00     0.037 A 
ATOM     47  C   UNL A   1      43.525  23.569  28.400  1.00  0.00     0.049 A 
ATOM     48  C   UNL A   1      46.323  28.614  28.968  1.00  0.00     0.074 A 
ATOM     49  C   UNL A   1      42.953  23.132  29.576  1.00  0.00     0.029 A 
ATOM     50  N   UNL A   1      44.750  24.080  28.746  1.00  0.00    -0.354 N 
ATOM     51  N   UNL A   1      46.319  27.913  30.066  1.00  0.00    -0.248 NA
ATOM     52  C   UNL A   1      46.514  27.856  27.743  1.00  0.00     0.031 C 
ATOM     53  C   UNL A   1      43.658  23.821  30.609  1.00  0.00     0.029 A 
ATOM     54  C   UNL A   1      44.660  24.588  30.012  1.00  0.00     0.049 A 
ATOM     55  H   UNL A   1      45.555  24.082  28.179  1.00  0.00     0.167 HD
ATOM     56  C   UNL A   1      46.066  26.614  29.652  1.00  0.00     0.074 A 
ATOM     57  C   UNL A   1      46.306  26.624  28.210  1.00  0.00     0.031 C 
ATOM     58  C   UNL A   1      45.406  25.738  30.467  1.00  0.00     0.037 A 
BRANCH  45  59
ATOM     59  C   UNL A   1      43.858  23.484  25.838  1.00  0.00     0.057 A 
ATOM     60  C   UNL A   1      43.938  22.122  25.477  1.00  0.00     0.134 A 
ATOM     61  C   UNL A   1      44.807  24.314  25.206  1.00  0.00     0.134 A 
ATOM     62  F   UNL A   1      43.083  21.223  25.988  1.00  0.00    -0.206 F 
ATOM     63  C   UNL A   1      44.959  21.613  24.665  1.00  0.00     0.040 A 
ATOM     64  C   UNL A   1      45.800  23.821  24.354  1.00  0.00     0.040 A 
ATOM     65  F   UNL A   1      44.894  25.627  25.435  1.00  0.00    -0.206 F 
ATOM     66  C   UNL A   1      45.908  22.463  24.115  1.00  0.00     0.006 A 
ENDBRANCH  45  59
BRANCH  46  67
ATOM     67  C   UNL A   1      46.527  31.119  28.337  1.00  0.00     0.057 A 
ATOM     68  C   UNL A   1      46.369  31.573  27.020  1.00  0.00     0.134 A 
ATOM     69  C   UNL A   1      47.238  31.970  29.202  1.00  0.00     0.134 A 
ATOM     70  F   UNL A   1      45.672  30.852  26.132  1.00  0.00    -0.206 F 
ATOM     71  C   UNL A   1      46.865  32.814  26.594  1.00  0.00     0.040 A 
ATOM     72  C   UNL A   1      47.744  33.207  28.788  1.00  0.00     0.040 A 
ATOM     73  F   UNL A   1      47.385  31.667  30.500  1.00  0.00    -0.206 F 
ATOM     74  C   UNL A   1      47.545  33.640  27.483  1.00  0.00     0.006 A 
ENDBRANCH  46  67
BRANCH  58  75
ATOM     75  C   UNL A   1      45.243  26.111  31.915  1.00  0.00     0.057 A 
ATOM     76  C   UNL A   1      44.107  26.736  32.451  1.00  0.00     0.134 A 
ATOM     77  C   UNL A   1      46.213  25.675  32.824  1.00  0.00     0.134 A 
ATOM     78  F   UNL A   1      43.086  27.108  31.672  1.00  0.00    -0.206 F 
ATOM     79  C   UNL A   1      43.959  26.942  33.826  1.00  0.00     0.040 A 
ATOM     80  C   UNL A   1      46.061  25.845  34.202  1.00  0.00     0.040 A 
ATOM     81  F   UNL A   1      47.302  25.024  32.388  1.00  0.00    -0.206 F 
ATOM     82  C   UNL A   1      44.934  26.487  34.708  1.00  0.00     0.006 A 
ENDBRANCH  58  75
ENDBRANCH  32  33
ENDBRANCH  24  27
ENDBRANCH  22  23
ENDBRANCH   1  22
TORSDOF 13
ENDMDL
MODEL 3
REMARK VINA RESULT:     -11.4      3.488      6.360
REMARK SMILES Nc1oc(-c2ccccc2)cc1C(=O)NCCCCNC(=O)c1ccc(-c2c3nc(c(-c4c(F)cccc4F)c4ccc([nH]4)c(-c4c(F)cccc4F)c4nc(c(-c5c(F)cccc5F)c5ccc2[nH]5)C=C4)C=C3)cc1
REMARK SMILES IDX 18 1 17 2 16 3 15 4 13 5 14 6 12 8 2 9 3 10 4 11 11 12 1 13
REMARK SMILES IDX 5 16 6 17 10 18 7 19 9 20 8 21 19 22 20 23 21 24 22 26 23 27
REMARK SMILES IDX 24 28 76 29 25 30 75 31 26 32 27 33 28 34 69 35 29 36 74 37
REMARK SMILES IDX 68 38 70 39 30 40 73 41 67 42 66 43 31 45 57 46 40 47 56 48
REMARK SMILES IDX 41 49 44 50 55 51 71 52 42 53 43 54 54 56 72 57 45 58 32 59
REMARK SMILES IDX 33 60 38 61 34 62 35 63 37 64 39 65 36 66 58 67 59 68 64 69
REMARK SMILES IDX 60 70 61 71 63 72 65 73 62 74 46 75 47 76 52 77 48 78 49 79
REMARK SMILES IDX 51 80 53 81 50 82
REMARK H PARENT 15 7 1 14 1 15 20 25 70 44 44 55
REMARK Flexibility Score: inf
ROOT
ATOM      1  C   UNL A   1      43.479  21.011  25.734  1.00  0.00     0.023 C 
ENDROOT
BRANCH   1   2
ATOM      2  C   UNL A   1      44.500  20.601  24.660  1.00  0.00     0.023 C 
BRANCH   2   3
ATOM      3  C   UNL A   1      45.957  20.940  24.987  1.00  0.00     0.116 C 
BRANCH   3   4
ATOM      4  N   UNL A   1      46.416  22.122  24.286  1.00  0.00    -0.352 N 
ATOM      5  C   UNL A   1      46.384  23.461  24.599  1.00  0.00     0.256 C 
ATOM      6  O   UNL A   1      46.936  24.219  23.797  1.00  0.00    -0.269 OA
ATOM      7  H   UNL A   1      46.832  21.929  23.414  1.00  0.00     0.163 HD
BRANCH   5   8
ATOM      8  C   UNL A   1      45.768  23.950  25.824  1.00  0.00     0.103 A 
ATOM      9  C   UNL A   1      44.988  25.099  25.891  1.00  0.00     0.203 A 
ATOM     10  O   UNL A   1      44.606  25.372  27.167  1.00  0.00    -0.440 OA
ATOM     11  C   UNL A   1      45.122  24.383  27.941  1.00  0.00     0.137 A 
ATOM     12  C   UNL A   1      45.764  23.454  27.156  1.00  0.00     0.067 A 
BRANCH   9  13
ATOM     13  N   UNL A   1      44.572  25.967  24.964  1.00  0.00    -0.369 N 
ATOM     14  H   UNL A   1      44.531  25.696  24.019  1.00  0.00     0.159 HD
ATOM     15  H   UNL A   1      44.309  26.879  25.226  1.00  0.00     0.159 HD
ENDBRANCH   9  13
BRANCH  11  16
ATOM     16  C   UNL A   1      44.964  24.481  29.376  1.00  0.00     0.017 A 
ATOM     17  C   UNL A   1      45.166  25.690  30.047  1.00  0.00     0.012 A 
ATOM     18  C   UNL A   1      44.475  23.374  30.083  1.00  0.00     0.012 A 
ATOM     19  C   UNL A   1      44.841  25.797  31.402  1.00  0.00     0.001 A 
ATOM     20  C   UNL A   1      44.160  23.479  31.438  1.00  0.00     0.001 A 
ATOM     21  C   UNL A   1      44.331  24.697  32.093  1.00  0.00     0.000 A 
ENDBRANCH  11  16
ENDBRANCH   5   8
ENDBRANCH   3   4
ENDBRANCH   2   3
ENDBRANCH   1   2
BRANCH   1  22
ATOM     22  C   UNL A   1      42.621  22.228  25.390  1.00  0.00     0.116 C 
BRANCH  22  23
ATOM     23  N   UNL A   1      41.189  22.002  25.592  1.00  0.00    -0.352 N 
ATOM     24  C   UNL A   1      40.327  22.646  26.467  1.00  0.00     0.251 C 
ATOM     25  H   UNL A   1      40.784  21.301  25.032  1.00  0.00     0.163 HD
ATOM     26  O   UNL A   1      39.284  22.128  26.823  1.00  0.00    -0.269 OA
BRANCH  24  27
ATOM     27  C   UNL A   1      40.691  23.992  26.947  1.00  0.00     0.039 A 
ATOM     28  C   UNL A   1      40.280  25.152  26.285  1.00  0.00     0.014 A 
ATOM     29  C   UNL A   1      41.439  24.067  28.114  1.00  0.00     0.014 A 
ATOM     30  C   UNL A   1      40.555  26.389  26.866  1.00  0.00     0.010 A 
ATOM     31  C   UNL A   1      41.554  25.263  28.769  1.00  0.00     0.010 A 
ATOM     32  C   UNL A   1      41.176  26.437  28.124  1.00  0.00    -0.014 A 
BRANCH  32  33
ATOM     33  C   UNL A   1      41.337  27.696  28.849  1.00  0.00     0.031 A 
ATOM     34  C   UNL A   1      42.543  28.483  28.462  1.00  0.00     0.074 A 
ATOM     35  C   UNL A   1      40.337  28.222  29.594  1.00  0.00     0.049 A 
ATOM     36  N   UNL A   1      43.544  28.830  29.203  1.00  0.00    -0.248 NA
ATOM     37  C   UNL A   1      42.721  28.817  27.037  1.00  0.00     0.031 C 
ATOM     38  C   UNL A   1      38.975  27.696  29.777  1.00  0.00     0.029 A 
ATOM     39  N   UNL A   1      40.275  29.415  30.247  1.00  0.00    -0.354 N 
ATOM     40  C   UNL A   1      44.368  29.613  28.393  1.00  0.00     0.074 A 
ATOM     41  C   UNL A   1      43.921  29.400  27.044  1.00  0.00     0.031 C 
ATOM     42  C   UNL A   1      38.171  28.666  30.259  1.00  0.00     0.029 A 
ATOM     43  C   UNL A   1      38.989  29.813  30.598  1.00  0.00     0.049 A 
ATOM     44  H   UNL A   1      41.075  29.951  30.455  1.00  0.00     0.167 HD
ATOM     45  C   UNL A   1      45.160  30.582  28.932  1.00  0.00     0.037 A 
ATOM     46  C   UNL A   1      38.613  31.009  31.112  1.00  0.00     0.037 A 
ATOM     47  C   UNL A   1      45.333  30.368  30.349  1.00  0.00     0.049 A 
ATOM     48  C   UNL A   1      39.832  31.658  31.645  1.00  0.00     0.074 A 
ATOM     49  C   UNL A   1      45.853  29.361  31.136  1.00  0.00     0.029 A 
ATOM     50  N   UNL A   1      44.588  31.155  31.190  1.00  0.00    -0.354 N 
ATOM     51  N   UNL A   1      40.502  31.217  32.672  1.00  0.00    -0.248 NA
ATOM     52  C   UNL A   1      40.559  32.555  30.763  1.00  0.00     0.031 C 
ATOM     53  C   UNL A   1      45.023  29.334  32.297  1.00  0.00     0.029 A 
ATOM     54  C   UNL A   1      44.086  30.363  32.185  1.00  0.00     0.049 A 
ATOM     55  H   UNL A   1      44.439  32.124  31.093  1.00  0.00     0.167 HD
ATOM     56  C   UNL A   1      41.832  31.416  32.334  1.00  0.00     0.074 A 
ATOM     57  C   UNL A   1      41.800  32.341  31.204  1.00  0.00     0.031 C 
ATOM     58  C   UNL A   1      42.805  30.586  32.815  1.00  0.00     0.037 A 
BRANCH  45  59
ATOM     59  C   UNL A   1      45.394  31.948  28.305  1.00  0.00     0.057 A 
ATOM     60  C   UNL A   1      44.273  32.746  27.993  1.00  0.00     0.134 A 
ATOM     61  C   UNL A   1      46.597  32.370  27.703  1.00  0.00     0.134 A 
ATOM     62  F   UNL A   1      43.066  32.473  28.513  1.00  0.00    -0.206 F 
ATOM     63  C   UNL A   1      44.321  33.786  27.056  1.00  0.00     0.040 A 
ATOM     64  C   UNL A   1      46.665  33.438  26.804  1.00  0.00     0.040 A 
ATOM     65  F   UNL A   1      47.758  31.729  27.870  1.00  0.00    -0.206 F 
ATOM     66  C   UNL A   1      45.519  34.123  26.443  1.00  0.00     0.006 A 
ENDBRANCH  45  59
BRANCH  46  67
ATOM     67  C   UNL A   1      37.346  31.748  30.920  1.00  0.00     0.057 A 
ATOM     68  C   UNL A   1      36.958  32.209  29.654  1.00  0.00     0.134 A 
ATOM     69  C   UNL A   1      36.355  31.776  31.918  1.00  0.00     0.134 A 
ATOM     70  F   UNL A   1      37.820  32.184  28.628  1.00  0.00    -0.206 F 
ATOM     71  C   UNL A   1      35.653  32.647  29.387  1.00  0.00     0.040 A 
ATOM     72  C   UNL A   1      35.051  32.216  31.666  1.00  0.00     0.040 A 
ATOM     73  F   UNL A   1      36.597  31.292  33.144  1.00  0.00    -0.206 F 
ATOM     74  C   UNL A   1      34.692  32.640  30.393  1.00  0.00     0.006 A 
ENDBRANCH  46  67
BRANCH  58  75
ATOM     75  C   UNL A   1      42.447  29.662  33.947  1.00  0.00     0.057 A 
ATOM     76  C   UNL A   1      42.018  28.336  33.784  1.00  0.00     0.134 A 
ATOM     77  C   UNL A   1      42.700  30.089  35.255  1.00  0.00     0.134 A 
ATOM     78  F   UNL A   1      41.835  27.809  32.569  1.00  0.00    -0.206 F 
ATOM     79  C   UNL A   1      41.822  27.486  34.877  1.00  0.00     0.040 A 
ATOM     80  C   UNL A   1      42.540  29.240  36.352  1.00  0.00     0.040 A 
ATOM     81  F   UNL A   1      43.161  31.329  35.484  1.00  0.00    -0.206 F 
ATOM     82  C   UNL A   1      42.093  27.934  36.166  1.00  0.00     0.006 A 
ENDBRANCH  58  75
ENDBRANCH  32  33
ENDBRANCH  24  27
ENDBRANCH  22  23
ENDBRANCH   1  22
TORSDOF 13
ENDMDL
