MODEL 1
REMARK VINA RESULT:     -11.0      0.000      0.000
REMARK SMILES CCOc1ccc([C@H](C)[C@](O)(C(=O)NCCCCNC(=O)c2ccc(-c3c4nc(c(-c5c(F)cccc5F)c5ccc([nH]5)c(-c5c(F)cccc5F)c5nc(c(-c6c(F)cccc6F)c6ccc3[nH]6)C=C5)C=C4)cc2)C(C)C)cc1
REMARK SMILES IDX 15 1 14 2 12 3 13 4 10 6 8 7 9 8 7 9 4 10 5 11 80 12 6 13
REMARK SMILES IDX 79 14 3 15 2 16 1 17 76 18 77 19 78 20 11 21 16 23 17 24
REMARK SMILES IDX 18 25 19 26 20 27 21 29 22 30 23 31 75 32 24 33 74 34 25 35
REMARK SMILES IDX 26 36 27 37 68 38 28 39 73 40 67 41 69 42 29 43 72 44 66 45
REMARK SMILES IDX 65 46 30 48 56 49 39 50 55 51 40 52 43 53 54 54 70 55 41 56
REMARK SMILES IDX 42 57 53 59 71 60 44 61 31 62 32 63 37 64 33 65 34 66 36 67
REMARK SMILES IDX 38 68 35 69 57 70 58 71 63 72 59 73 60 74 62 75 64 76 61 77
REMARK SMILES IDX 45 78 46 79 51 80 47 81 48 82 50 83 52 84 49 85
REMARK H PARENT 14 5 11 22 19 28 69 47 43 58
REMARK Flexibility Score: inf
ROOT
ATOM      1  C   UNL A   1      32.019  29.779  25.926  1.00  0.00     0.116 C 
ENDROOT
BRANCH   1   2
ATOM      2  N   UNL A   1      32.890  29.251  24.895  1.00  0.00    -0.354 N 
ATOM      3  C   UNL A   1      32.885  28.036  24.271  1.00  0.00     0.252 C 
ATOM      4  O   UNL A   1      33.654  27.926  23.309  1.00  0.00    -0.272 OA
ATOM      5  H   UNL A   1      33.598  29.866  24.596  1.00  0.00     0.163 HD
BRANCH   3   6
ATOM      6  C   UNL A   1      31.863  26.906  24.663  1.00  0.00     0.151 C 
BRANCH   6   7
ATOM      7  C   UNL A   1      30.969  26.648  23.373  1.00  0.00     0.058 C 
ATOM      8  C   UNL A   1      30.227  25.292  23.419  1.00  0.00     0.016 C 
BRANCH   7   9
ATOM      9  C   UNL A   1      30.048  27.799  22.968  1.00  0.00    -0.041 A 
ATOM     10  C   UNL A   1      28.429  30.020  22.385  1.00  0.00     0.119 A 
ATOM     11  C   UNL A   1      29.742  29.984  21.926  1.00  0.00     0.047 A 
ATOM     12  C   UNL A   1      27.888  28.916  23.027  1.00  0.00     0.047 A 
ATOM     13  C   UNL A   1      30.542  28.870  22.201  1.00  0.00     0.008 A 
ATOM     14  C   UNL A   1      28.694  27.827  23.339  1.00  0.00     0.008 A 
BRANCH  10  15
ATOM     15  O   UNL A   1      27.666  31.126  22.133  1.00  0.00    -0.494 OA
BRANCH  15  16
ATOM     16  C   UNL A   1      28.460  32.269  21.776  1.00  0.00     0.226 C 
ATOM     17  C   UNL A   1      28.796  33.144  22.976  1.00  0.00     0.049 C 
ENDBRANCH  15  16
ENDBRANCH  10  15
ENDBRANCH   7   9
ENDBRANCH   6   7
BRANCH   6  18
ATOM     18  C   UNL A   1      32.689  25.675  25.234  1.00  0.00     0.025 C 
ATOM     19  C   UNL A   1      34.039  26.122  25.848  1.00  0.00     0.011 C 
ATOM     20  C   UNL A   1      32.012  24.838  26.337  1.00  0.00     0.011 C 
ENDBRANCH   6  18
BRANCH   6  21
ATOM     21  O   UNL A   1      31.023  27.427  25.713  1.00  0.00    -0.379 OA
ATOM     22  H   UNL A   1      31.122  26.880  26.508  1.00  0.00     0.212 HD
ENDBRANCH   6  21
ENDBRANCH   3   6
ENDBRANCH   1   2
BRANCH   1  23
ATOM     23  C   UNL A   1      31.045  30.814  25.379  1.00  0.00     0.023 C 
BRANCH  23  24
ATOM     24  C   UNL A   1      30.997  32.127  26.159  1.00  0.00     0.023 C 
BRANCH  24  25
ATOM     25  C   UNL A   1      32.285  32.499  26.885  1.00  0.00     0.116 C 
BRANCH  25  26
ATOM     26  N   UNL A   1      32.265  33.854  27.416  1.00  0.00    -0.352 N 
ATOM     27  C   UNL A   1      33.092  34.440  28.344  1.00  0.00     0.251 C 
ATOM     28  H   UNL A   1      31.556  34.437  27.057  1.00  0.00     0.163 HD
ATOM     29  O   UNL A   1      32.835  35.557  28.784  1.00  0.00    -0.269 OA
BRANCH  27  30
ATOM     30  C   UNL A   1      34.275  33.706  28.839  1.00  0.00     0.039 A 
ATOM     31  C   UNL A   1      35.545  34.242  28.615  1.00  0.00     0.014 A 
ATOM     32  C   UNL A   1      34.130  32.508  29.542  1.00  0.00     0.014 A 
ATOM     33  C   UNL A   1      36.665  33.615  29.164  1.00  0.00     0.010 A 
ATOM     34  C   UNL A   1      35.237  31.931  30.158  1.00  0.00     0.010 A 
ATOM     35  C   UNL A   1      36.516  32.479  29.976  1.00  0.00    -0.014 A 
BRANCH  35  36
ATOM     36  C   UNL A   1      37.683  31.855  30.649  1.00  0.00     0.031 A 
ATOM     37  C   UNL A   1      38.485  30.794  29.950  1.00  0.00     0.074 A 
ATOM     38  C   UNL A   1      37.979  32.193  31.920  1.00  0.00     0.049 A 
ATOM     39  N   UNL A   1      39.493  30.089  30.396  1.00  0.00    -0.248 NA
ATOM     40  C   UNL A   1      38.082  30.460  28.575  1.00  0.00     0.031 C 
ATOM     41  C   UNL A   1      37.247  33.171  32.727  1.00  0.00     0.029 A 
ATOM     42  N   UNL A   1      38.968  31.744  32.758  1.00  0.00    -0.354 N 
ATOM     43  C   UNL A   1      39.834  29.223  29.366  1.00  0.00     0.074 A 
ATOM     44  C   UNL A   1      38.889  29.448  28.295  1.00  0.00     0.031 C 
ATOM     45  C   UNL A   1      37.826  33.266  33.935  1.00  0.00     0.029 A 
ATOM     46  C   UNL A   1      38.943  32.328  34.002  1.00  0.00     0.049 A 
ATOM     47  H   UNL A   1      39.633  31.068  32.494  1.00  0.00     0.167 HD
ATOM     48  C   UNL A   1      40.858  28.336  29.307  1.00  0.00     0.037 A 
ATOM     49  C   UNL A   1      39.726  32.125  35.078  1.00  0.00     0.037 A 
ATOM     50  C   UNL A   1      41.807  28.126  30.368  1.00  0.00     0.049 A 
ATOM     51  C   UNL A   1      40.848  31.127  34.995  1.00  0.00     0.074 A 
ATOM     52  C   UNL A   1      42.914  27.296  30.383  1.00  0.00     0.029 A 
ATOM     53  N   UNL A   1      41.755  28.746  31.609  1.00  0.00    -0.354 N 
ATOM     54  N   UNL A   1      41.205  30.367  33.988  1.00  0.00    -0.248 NA
ATOM     55  C   UNL A   1      41.679  30.963  36.196  1.00  0.00     0.031 C 
ATOM     56  C   UNL A   1      43.502  27.373  31.650  1.00  0.00     0.029 A 
ATOM     57  C   UNL A   1      42.796  28.295  32.406  1.00  0.00     0.049 A 
ATOM     58  H   UNL A   1      41.080  29.406  31.882  1.00  0.00     0.167 HD
ATOM     59  C   UNL A   1      42.316  29.657  34.422  1.00  0.00     0.074 A 
ATOM     60  C   UNL A   1      42.583  30.087  35.779  1.00  0.00     0.031 C 
ATOM     61  C   UNL A   1      43.050  28.732  33.755  1.00  0.00     0.037 A 
BRANCH  48  62
ATOM     62  C   UNL A   1      40.996  27.526  28.049  1.00  0.00     0.057 A 
ATOM     63  C   UNL A   1      41.758  27.971  26.960  1.00  0.00     0.134 A 
ATOM     64  C   UNL A   1      40.376  26.275  27.932  1.00  0.00     0.134 A 
ATOM     65  F   UNL A   1      42.370  29.166  27.001  1.00  0.00    -0.206 F 
ATOM     66  C   UNL A   1      41.869  27.221  25.788  1.00  0.00     0.040 A 
ATOM     67  C   UNL A   1      40.506  25.501  26.777  1.00  0.00     0.040 A 
ATOM     68  F   UNL A   1      39.638  25.783  28.938  1.00  0.00    -0.206 F 
ATOM     69  C   UNL A   1      41.245  25.978  25.697  1.00  0.00     0.006 A 
ENDBRANCH  48  62
BRANCH  49  70
ATOM     70  C   UNL A   1      39.489  32.902  36.322  1.00  0.00     0.057 A 
ATOM     71  C   UNL A   1      38.592  32.447  37.296  1.00  0.00     0.134 A 
ATOM     72  C   UNL A   1      40.154  34.107  36.571  1.00  0.00     0.134 A 
ATOM     73  F   UNL A   1      37.910  31.307  37.107  1.00  0.00    -0.206 F 
ATOM     74  C   UNL A   1      38.352  33.172  38.465  1.00  0.00     0.040 A 
ATOM     75  C   UNL A   1      39.943  34.830  37.746  1.00  0.00     0.040 A 
ATOM     76  F   UNL A   1      41.033  34.593  35.680  1.00  0.00    -0.206 F 
ATOM     77  C   UNL A   1      39.035  34.365  38.695  1.00  0.00     0.006 A 
ENDBRANCH  49  70
BRANCH  61  78
ATOM     78  C   UNL A   1      44.234  28.147  34.471  1.00  0.00     0.057 A 
ATOM     79  C   UNL A   1      44.144  26.958  35.205  1.00  0.00     0.134 A 
ATOM     80  C   UNL A   1      45.491  28.763  34.390  1.00  0.00     0.134 A 
ATOM     81  F   UNL A   1      42.968  26.324  35.334  1.00  0.00    -0.206 F 
ATOM     82  C   UNL A   1      45.256  26.414  35.852  1.00  0.00     0.040 A 
ATOM     83  C   UNL A   1      46.614  28.214  35.007  1.00  0.00     0.040 A 
ATOM     84  F   UNL A   1      45.648  29.900  33.695  1.00  0.00    -0.206 F 
ATOM     85  C   UNL A   1      46.497  27.039  35.748  1.00  0.00     0.006 A 
ENDBRANCH  61  78
ENDBRANCH  35  36
ENDBRANCH  27  30
ENDBRANCH  25  26
ENDBRANCH  24  25
ENDBRANCH  23  24
ENDBRANCH   1  23
TORSDOF 17
ENDMDL
MODEL 2
REMARK VINA RESULT:     -10.9      1.619      3.756
REMARK SMILES CCOc1ccc([C@H](C)[C@](O)(C(=O)NCCCCNC(=O)c2ccc(-c3c4nc(c(-c5c(F)cccc5F)c5ccc([nH]5)c(-c5c(F)cccc5F)c5nc(c(-c6c(F)cccc6F)c6ccc3[nH]6)C=C5)C=C4)cc2)C(C)C)cc1
REMARK SMILES IDX 15 1 14 2 12 3 13 4 10 6 8 7 9 8 7 9 4 10 5 11 80 12 6 13
REMARK SMILES IDX 79 14 3 15 2 16 1 17 76 18 77 19 78 20 11 21 16 23 17 24
REMARK SMILES IDX 18 25 19 26 20 27 21 29 22 30 23 31 75 32 24 33 74 34 25 35
REMARK SMILES IDX 26 36 27 37 68 38 28 39 73 40 67 41 69 42 29 43 72 44 66 45
REMARK SMILES IDX 65 46 30 48 56 49 39 50 55 51 40 52 43 53 54 54 70 55 41 56
REMARK SMILES IDX 42 57 53 59 71 60 44 61 31 62 32 63 37 64 33 65 34 66 36 67
REMARK SMILES IDX 38 68 35 69 57 70 58 71 63 72 59 73 60 74 62 75 64 76 61 77
REMARK SMILES IDX 45 78 46 79 51 80 47 81 48 82 50 83 52 84 49 85
REMARK H PARENT 14 5 11 22 19 28 69 47 43 58
REMARK Flexibility Score: inf
ROOT
ATOM      1  C   UNL A   1      31.447  30.082  25.103  1.00  0.00     0.116 C 
ENDROOT
BRANCH   1   2
ATOM      2  N   UNL A   1      32.621  29.631  24.383  1.00  0.00    -0.354 N 
ATOM      3  C   UNL A   1      32.984  28.377  23.981  1.00  0.00     0.252 C 
ATOM      4  O   UNL A   1      33.970  28.317  23.237  1.00  0.00    -0.272 OA
ATOM      5  H   UNL A   1      33.259  30.342  24.144  1.00  0.00     0.163 HD
BRANCH   3   6
ATOM      6  C   UNL A   1      32.116  27.111  24.328  1.00  0.00     0.151 C 
BRANCH   6   7
ATOM      7  C   UNL A   1      32.480  26.720  25.826  1.00  0.00     0.058 C 
ATOM      8  C   UNL A   1      31.433  27.218  26.849  1.00  0.00     0.016 C 
BRANCH   7   9
ATOM      9  C   UNL A   1      32.859  25.256  26.053  1.00  0.00    -0.041 A 
ATOM     10  C   UNL A   1      33.525  22.535  26.265  1.00  0.00     0.119 A 
ATOM     11  C   UNL A   1      34.498  23.455  25.888  1.00  0.00     0.047 A 
ATOM     12  C   UNL A   1      32.265  22.973  26.646  1.00  0.00     0.047 A 
ATOM     13  C   UNL A   1      34.170  24.813  25.799  1.00  0.00     0.008 A 
ATOM     14  C   UNL A   1      31.926  24.316  26.516  1.00  0.00     0.008 A 
BRANCH  10  15
ATOM     15  O   UNL A   1      33.850  21.209  26.322  1.00  0.00    -0.494 OA
BRANCH  15  16
ATOM     16  C   UNL A   1      34.178  20.670  25.030  1.00  0.00     0.226 C 
ATOM     17  C   UNL A   1      32.941  20.319  24.214  1.00  0.00     0.049 C 
ENDBRANCH  15  16
ENDBRANCH  10  15
ENDBRANCH   7   9
ENDBRANCH   6   7
BRANCH   6  18
ATOM     18  C   UNL A   1      30.597  27.457  24.016  1.00  0.00     0.025 C 
ATOM     19  C   UNL A   1      30.389  27.844  22.531  1.00  0.00     0.011 C 
ATOM     20  C   UNL A   1      29.564  26.346  24.283  1.00  0.00     0.011 C 
ENDBRANCH   6  18
BRANCH   6  21
ATOM     21  O   UNL A   1      32.537  26.044  23.455  1.00  0.00    -0.379 OA
ATOM     22  H   UNL A   1      33.012  26.416  22.696  1.00  0.00     0.212 HD
ENDBRANCH   6  21
ENDBRANCH   3   6
ENDBRANCH   1   2
BRANCH   1  23
ATOM     23  C   UNL A   1      31.785  30.551  26.513  1.00  0.00     0.023 C 
BRANCH  23  24
ATOM     24  C   UNL A   1      31.528  32.035  26.774  1.00  0.00     0.023 C 
BRANCH  24  25
ATOM     25  C   UNL A   1      32.738  32.829  27.252  1.00  0.00     0.116 C 
BRANCH  25  26
ATOM     26  N   UNL A   1      32.412  34.206  27.595  1.00  0.00    -0.352 N 
ATOM     27  C   UNL A   1      32.969  35.022  28.549  1.00  0.00     0.251 C 
ATOM     28  H   UNL A   1      31.687  34.611  27.066  1.00  0.00     0.163 HD
ATOM     29  O   UNL A   1      32.466  36.114  28.800  1.00  0.00    -0.269 OA
BRANCH  27  30
ATOM     30  C   UNL A   1      34.157  34.568  29.301  1.00  0.00     0.039 A 
ATOM     31  C   UNL A   1      33.983  34.016  30.572  1.00  0.00     0.014 A 
ATOM     32  C   UNL A   1      35.435  34.664  28.744  1.00  0.00     0.014 A 
ATOM     33  C   UNL A   1      35.082  33.490  31.252  1.00  0.00     0.010 A 
ATOM     34  C   UNL A   1      36.514  34.065  29.386  1.00  0.00     0.010 A 
ATOM     35  C   UNL A   1      36.349  33.471  30.647  1.00  0.00    -0.014 A 
BRANCH  35  36
ATOM     36  C   UNL A   1      37.511  32.827  31.311  1.00  0.00     0.031 A 
ATOM     37  C   UNL A   1      38.178  31.634  30.685  1.00  0.00     0.074 A 
ATOM     38  C   UNL A   1      37.923  33.273  32.514  1.00  0.00     0.049 A 
ATOM     39  N   UNL A   1      39.159  30.899  31.143  1.00  0.00    -0.248 NA
ATOM     40  C   UNL A   1      37.651  31.191  29.385  1.00  0.00     0.031 C 
ATOM     41  C   UNL A   1      37.328  34.388  33.252  1.00  0.00     0.029 A 
ATOM     42  N   UNL A   1      38.933  32.835  33.333  1.00  0.00    -0.354 N 
ATOM     43  C   UNL A   1      39.357  29.902  30.196  1.00  0.00     0.074 A 
ATOM     44  C   UNL A   1      38.356  30.090  29.169  1.00  0.00     0.031 C 
ATOM     45  C   UNL A   1      37.999  34.563  34.402  1.00  0.00     0.029 A 
ATOM     46  C   UNL A   1      39.043  33.547  34.502  1.00  0.00     0.049 A 
ATOM     47  H   UNL A   1      39.524  32.081  33.105  1.00  0.00     0.167 HD
ATOM     48  C   UNL A   1      40.303  28.933  30.172  1.00  0.00     0.037 A 
ATOM     49  C   UNL A   1      39.884  33.396  35.543  1.00  0.00     0.037 A 
ATOM     50  C   UNL A   1      41.308  28.758  31.188  1.00  0.00     0.049 A 
ATOM     51  C   UNL A   1      40.918  32.305  35.500  1.00  0.00     0.074 A 
ATOM     52  C   UNL A   1      42.347  27.844  31.225  1.00  0.00     0.029 A 
ATOM     53  N   UNL A   1      41.394  29.508  32.352  1.00  0.00    -0.354 N 
ATOM     54  N   UNL A   1      41.142  31.415  34.564  1.00  0.00    -0.248 NA
ATOM     55  C   UNL A   1      41.819  32.201  36.657  1.00  0.00     0.031 C 
ATOM     56  C   UNL A   1      43.030  28.007  32.435  1.00  0.00     0.029 A 
ATOM     57  C   UNL A   1      42.452  29.060  33.126  1.00  0.00     0.049 A 
ATOM     58  H   UNL A   1      40.793  30.249  32.591  1.00  0.00     0.167 HD
ATOM     59  C   UNL A   1      42.225  30.664  35.004  1.00  0.00     0.074 A 
ATOM     60  C   UNL A   1      42.621  31.213  36.284  1.00  0.00     0.031 C 
ATOM     61  C   UNL A   1      42.837  29.616  34.399  1.00  0.00     0.037 A 
BRANCH  48  62
ATOM     62  C   UNL A   1      40.288  27.984  29.006  1.00  0.00     0.057 A 
ATOM     63  C   UNL A   1      41.006  28.242  27.831  1.00  0.00     0.134 A 
ATOM     64  C   UNL A   1      39.563  26.787  29.068  1.00  0.00     0.134 A 
ATOM     65  F   UNL A   1      41.714  29.376  27.701  1.00  0.00    -0.206 F 
ATOM     66  C   UNL A   1      40.975  27.365  26.746  1.00  0.00     0.040 A 
ATOM     67  C   UNL A   1      39.549  25.886  28.001  1.00  0.00     0.040 A 
ATOM     68  F   UNL A   1      38.859  26.471  30.165  1.00  0.00    -0.206 F 
ATOM     69  C   UNL A   1      40.248  26.179  26.832  1.00  0.00     0.006 A 
ENDBRANCH  48  62
BRANCH  49  70
ATOM     70  C   UNL A   1      39.798  34.318  36.704  1.00  0.00     0.057 A 
ATOM     71  C   UNL A   1      40.447  35.558  36.691  1.00  0.00     0.134 A 
ATOM     72  C   UNL A   1      39.064  33.987  37.849  1.00  0.00     0.134 A 
ATOM     73  F   UNL A   1      41.182  35.924  35.629  1.00  0.00    -0.206 F 
ATOM     74  C   UNL A   1      40.382  36.430  37.779  1.00  0.00     0.040 A 
ATOM     75  C   UNL A   1      38.970  34.859  38.934  1.00  0.00     0.040 A 
ATOM     76  F   UNL A   1      38.412  32.817  37.921  1.00  0.00    -0.206 F 
ATOM     77  C   UNL A   1      39.636  36.083  38.904  1.00  0.00     0.006 A 
ENDBRANCH  49  70
BRANCH  61  78
ATOM     78  C   UNL A   1      44.021  29.013  35.099  1.00  0.00     0.057 A 
ATOM     79  C   UNL A   1      43.887  27.961  36.012  1.00  0.00     0.134 A 
ATOM     80  C   UNL A   1      45.318  29.468  34.823  1.00  0.00     0.134 A 
ATOM     81  F   UNL A   1      42.673  27.486  36.331  1.00  0.00    -0.206 F 
ATOM     82  C   UNL A   1      44.998  27.397  36.644  1.00  0.00     0.040 A 
ATOM     83  C   UNL A   1      46.437  28.895  35.426  1.00  0.00     0.040 A 
ATOM     84  F   UNL A   1      45.518  30.469  33.951  1.00  0.00    -0.206 F 
ATOM     85  C   UNL A   1      46.278  27.860  36.345  1.00  0.00     0.006 A 
ENDBRANCH  61  78
ENDBRANCH  35  36
ENDBRANCH  27  30
ENDBRANCH  25  26
ENDBRANCH  24  25
ENDBRANCH  23  24
ENDBRANCH   1  23
TORSDOF 17
ENDMDL
MODEL 3
REMARK VINA RESULT:     -10.9      4.471      8.735
REMARK SMILES CCOc1ccc([C@H](C)[C@](O)(C(=O)NCCCCNC(=O)c2ccc(-c3c4nc(c(-c5c(F)cccc5F)c5ccc([nH]5)c(-c5c(F)cccc5F)c5nc(c(-c6c(F)cccc6F)c6ccc3[nH]6)C=C5)C=C4)cc2)C(C)C)cc1
REMARK SMILES IDX 15 1 14 2 12 3 13 4 10 6 8 7 9 8 7 9 4 10 5 11 80 12 6 13
REMARK SMILES IDX 79 14 3 15 2 16 1 17 76 18 77 19 78 20 11 21 16 23 17 24
REMARK SMILES IDX 18 25 19 26 20 27 21 29 22 30 23 31 75 32 24 33 74 34 25 35
REMARK SMILES IDX 26 36 27 37 68 38 28 39 73 40 67 41 69 42 29 43 72 44 66 45
REMARK SMILES IDX 65 46 30 48 56 49 39 50 55 51 40 52 43 53 54 54 70 55 41 56
REMARK SMILES IDX 42 57 53 59 71 60 44 61 31 62 32 63 37 64 33 65 34 66 36 67
REMARK SMILES IDX 38 68 35 69 57 70 58 71 63 72 59 73 60 74 62 75 64 76 61 77
REMARK SMILES IDX 45 78 46 79 51 80 47 81 48 82 50 83 52 84 49 85
REMARK H PARENT 14 5 11 22 19 28 69 47 43 58
REMARK Flexibility Score: inf
ROOT
ATOM      1  C   UNL A   1      37.791  23.574  25.895  1.00  0.00     0.116 C 
ENDROOT
BRANCH   1   2
ATOM      2  N   UNL A   1      37.491  23.302  24.504  1.00  0.00    -0.354 N 
ATOM      3  C   UNL A   1      36.295  23.071  23.886  1.00  0.00     0.252 C 
ATOM      4  O   UNL A   1      36.330  23.029  22.651  1.00  0.00    -0.272 OA
ATOM      5  H   UNL A   1      38.275  23.280  23.908  1.00  0.00     0.163 HD
BRANCH   3   6
ATOM      6  C   UNL A   1      34.945  23.009  24.691  1.00  0.00     0.151 C 
BRANCH   6   7
ATOM      7  C   UNL A   1      33.942  23.999  23.954  1.00  0.00     0.058 C 
ATOM      8  C   UNL A   1      32.822  23.257  23.188  1.00  0.00     0.016 C 
BRANCH   7   9
ATOM      9  C   UNL A   1      33.398  25.144  24.807  1.00  0.00    -0.041 A 
ATOM     10  C   UNL A   1      32.543  27.202  26.519  1.00  0.00     0.119 A 
ATOM     11  C   UNL A   1      33.613  27.422  25.657  1.00  0.00     0.047 A 
ATOM     12  C   UNL A   1      31.829  26.014  26.450  1.00  0.00     0.047 A 
ATOM     13  C   UNL A   1      34.027  26.403  24.793  1.00  0.00     0.008 A 
ATOM     14  C   UNL A   1      32.267  24.985  25.623  1.00  0.00     0.008 A 
BRANCH  10  15
ATOM     15  O   UNL A   1      32.164  28.196  27.377  1.00  0.00    -0.494 OA
BRANCH  15  16
ATOM     16  C   UNL A   1      31.946  29.446  26.704  1.00  0.00     0.226 C 
ATOM     17  C   UNL A   1      32.818  30.566  27.256  1.00  0.00     0.049 C 
ENDBRANCH  15  16
ENDBRANCH  10  15
ENDBRANCH   7   9
ENDBRANCH   6   7
BRANCH   6  18
ATOM     18  C   UNL A   1      34.511  21.484  24.804  1.00  0.00     0.025 C 
ATOM     19  C   UNL A   1      35.735  20.548  24.965  1.00  0.00     0.011 C 
ATOM     20  C   UNL A   1      33.575  21.115  25.971  1.00  0.00     0.011 C 
ENDBRANCH   6  18
BRANCH   6  21
ATOM     21  O   UNL A   1      35.206  23.515  26.016  1.00  0.00    -0.379 OA
ATOM     22  H   UNL A   1      36.153  23.443  26.209  1.00  0.00     0.212 HD
ENDBRANCH   6  21
ENDBRANCH   3   6
ENDBRANCH   1   2
BRANCH   1  23
ATOM     23  C   UNL A   1      38.898  22.673  26.430  1.00  0.00     0.023 C 
BRANCH  23  24
ATOM     24  C   UNL A   1      39.186  21.437  25.579  1.00  0.00     0.023 C 
BRANCH  24  25
ATOM     25  C   UNL A   1      39.396  20.145  26.360  1.00  0.00     0.116 C 
BRANCH  25  26
ATOM     26  N   UNL A   1      40.550  19.387  25.901  1.00  0.00    -0.352 N 
ATOM     27  C   UNL A   1      41.871  19.759  25.843  1.00  0.00     0.251 C 
ATOM     28  H   UNL A   1      40.356  18.474  25.586  1.00  0.00     0.163 HD
ATOM     29  O   UNL A   1      42.694  19.038  25.286  1.00  0.00    -0.269 OA
BRANCH  27  30
ATOM     30  C   UNL A   1      42.296  21.050  26.423  1.00  0.00     0.039 A 
ATOM     31  C   UNL A   1      42.720  22.069  25.568  1.00  0.00     0.014 A 
ATOM     32  C   UNL A   1      42.253  21.262  27.804  1.00  0.00     0.014 A 
ATOM     33  C   UNL A   1      43.027  23.326  26.091  1.00  0.00     0.010 A 
ATOM     34  C   UNL A   1      42.478  22.538  28.313  1.00  0.00     0.010 A 
ATOM     35  C   UNL A   1      42.867  23.584  27.462  1.00  0.00    -0.014 A 
BRANCH  35  36
ATOM     36  C   UNL A   1      43.093  24.939  28.023  1.00  0.00     0.031 A 
ATOM     37  C   UNL A   1      44.464  25.354  28.479  1.00  0.00     0.074 A 
ATOM     38  C   UNL A   1      42.049  25.775  28.188  1.00  0.00     0.049 A 
ATOM     39  N   UNL A   1      44.844  26.466  29.053  1.00  0.00    -0.248 NA
ATOM     40  C   UNL A   1      45.546  24.374  28.291  1.00  0.00     0.031 C 
ATOM     41  C   UNL A   1      40.660  25.474  27.834  1.00  0.00     0.029 A 
ATOM     42  N   UNL A   1      41.992  27.045  28.705  1.00  0.00    -0.354 N 
ATOM     43  C   UNL A   1      46.202  26.316  29.306  1.00  0.00     0.074 A 
ATOM     44  C   UNL A   1      46.565  24.983  28.879  1.00  0.00     0.031 C 
ATOM     45  C   UNL A   1      39.893  26.538  28.121  1.00  0.00     0.029 A 
ATOM     46  C   UNL A   1      40.726  27.579  28.716  1.00  0.00     0.049 A 
ATOM     47  H   UNL A   1      42.783  27.529  29.036  1.00  0.00     0.167 HD
ATOM     48  C   UNL A   1      47.072  27.215  29.825  1.00  0.00     0.037 A 
ATOM     49  C   UNL A   1      40.283  28.769  29.164  1.00  0.00     0.037 A 
ATOM     50  C   UNL A   1      46.710  28.547  30.235  1.00  0.00     0.049 A 
ATOM     51  C   UNL A   1      41.265  29.747  29.748  1.00  0.00     0.074 A 
ATOM     52  C   UNL A   1      47.529  29.553  30.716  1.00  0.00     0.029 A 
ATOM     53  N   UNL A   1      45.419  29.055  30.220  1.00  0.00    -0.354 N 
ATOM     54  N   UNL A   1      42.559  29.620  29.913  1.00  0.00    -0.248 NA
ATOM     55  C   UNL A   1      40.725  31.036  30.203  1.00  0.00     0.031 C 
ATOM     56  C   UNL A   1      46.727  30.652  31.041  1.00  0.00     0.029 A 
ATOM     57  C   UNL A   1      45.416  30.351  30.709  1.00  0.00     0.049 A 
ATOM     58  H   UNL A   1      44.624  28.567  29.908  1.00  0.00     0.167 HD
ATOM     59  C   UNL A   1      42.993  30.819  30.464  1.00  0.00     0.074 A 
ATOM     60  C   UNL A   1      41.825  31.666  30.591  1.00  0.00     0.031 C 
ATOM     61  C   UNL A   1      44.246  31.185  30.829  1.00  0.00     0.037 A 
BRANCH  48  62
ATOM     62  C   UNL A   1      48.502  26.780  29.981  1.00  0.00     0.057 A 
ATOM     63  C   UNL A   1      49.474  27.068  29.013  1.00  0.00     0.134 A 
ATOM     64  C   UNL A   1      48.917  26.081  31.122  1.00  0.00     0.134 A 
ATOM     65  F   UNL A   1      49.142  27.725  27.890  1.00  0.00    -0.206 F 
ATOM     66  C   UNL A   1      50.797  26.646  29.156  1.00  0.00     0.040 A 
ATOM     67  C   UNL A   1      50.244  25.682  31.291  1.00  0.00     0.040 A 
ATOM     68  F   UNL A   1      48.042  25.778  32.092  1.00  0.00    -0.206 F 
ATOM     69  C   UNL A   1      51.186  25.955  30.302  1.00  0.00     0.006 A 
ENDBRANCH  48  62
BRANCH  49  70
ATOM     70  C   UNL A   1      38.842  29.111  29.055  1.00  0.00     0.057 A 
ATOM     71  C   UNL A   1      37.992  29.016  30.164  1.00  0.00     0.134 A 
ATOM     72  C   UNL A   1      38.281  29.545  27.848  1.00  0.00     0.134 A 
ATOM     73  F   UNL A   1      38.467  28.589  31.343  1.00  0.00    -0.206 F 
ATOM     74  C   UNL A   1      36.634  29.325  30.073  1.00  0.00     0.040 A 
ATOM     75  C   UNL A   1      36.930  29.881  27.749  1.00  0.00     0.040 A 
ATOM     76  F   UNL A   1      39.044  29.665  26.751  1.00  0.00    -0.206 F 
ATOM     77  C   UNL A   1      36.101  29.765  28.863  1.00  0.00     0.006 A 
ENDBRANCH  49  70
BRANCH  61  78
ATOM     78  C   UNL A   1      44.427  32.574  31.370  1.00  0.00     0.057 A 
ATOM     79  C   UNL A   1      44.369  32.850  32.742  1.00  0.00     0.134 A 
ATOM     80  C   UNL A   1      44.703  33.644  30.507  1.00  0.00     0.134 A 
ATOM     81  F   UNL A   1      44.095  31.875  33.622  1.00  0.00    -0.206 F 
ATOM     82  C   UNL A   1      44.556  34.144  33.234  1.00  0.00     0.040 A 
ATOM     83  C   UNL A   1      44.920  34.934  30.989  1.00  0.00     0.040 A 
ATOM     84  F   UNL A   1      44.782  33.447  29.182  1.00  0.00    -0.206 F 
ATOM     85  C   UNL A   1      44.839  35.188  32.357  1.00  0.00     0.006 A 
ENDBRANCH  61  78
ENDBRANCH  35  36
ENDBRANCH  27  30
ENDBRANCH  25  26
ENDBRANCH  24  25
ENDBRANCH  23  24
ENDBRANCH   1  23
TORSDOF 17
ENDMDL
