MODEL 1
REMARK VINA RESULT:     -10.0      0.000      0.000
REMARK SMILES O=C(NCCCCNC(=O)c1ccc(-c2c3nc(c(-c4c(F)cccc4F)c4ccc([nH]4)c(-c4c(F)cccc4F)c4nc(c(-c5c(F)cccc5F)c5ccc2[nH]5)C=C4)C=C3)cc1)c1ccc(/C=C/c2ccc3cccc(O)c3n2)cc1
REMARK SMILES IDX 5 1 4 2 3 3 1 4 2 5 65 7 66 8 83 9 67 10 82 11 68 12 69 13
REMARK SMILES IDX 70 14 71 15 72 16 81 17 73 18 80 19 74 20 78 21 75 22 77 23
REMARK SMILES IDX 76 24 79 25 6 27 7 28 8 29 9 30 10 32 11 33 12 34 64 35
REMARK SMILES IDX 13 36 63 37 14 38 15 39 16 40 57 41 17 42 62 43 56 44 58 45
REMARK SMILES IDX 18 46 61 47 55 48 54 49 19 51 45 52 28 53 44 54 29 55 32 56
REMARK SMILES IDX 43 57 59 58 30 59 31 60 42 62 60 63 33 64 20 65 21 66 26 67
REMARK SMILES IDX 22 68 23 69 25 70 27 71 24 72 46 73 47 74 52 75 48 76 49 77
REMARK SMILES IDX 51 78 53 79 50 80 34 81 35 82 40 83 36 84 37 85 39 86 41 87
REMARK SMILES IDX 38 88
REMARK H PARENT 3 6 79 26 8 31 58 50 32 61
REMARK Flexibility Score: inf
ROOT
ATOM      1  C   UNL A   1      35.838  33.806  29.781  1.00  0.00     0.023 C 
ENDROOT
BRANCH   1   2
ATOM      2  C   UNL A   1      36.724  33.278  30.908  1.00  0.00     0.116 C 
BRANCH   2   3
ATOM      3  N   UNL A   1      36.121  33.455  32.215  1.00  0.00    -0.352 N 
ATOM      4  O   UNL A   1      35.735  33.040  34.391  1.00  0.00    -0.269 OA
ATOM      5  C   UNL A   1      36.466  32.897  33.419  1.00  0.00     0.251 C 
ATOM      6  H   UNL A   1      35.349  34.065  32.241  1.00  0.00     0.163 HD
BRANCH   5   7
ATOM      7  C   UNL A   1      37.698  32.090  33.546  1.00  0.00     0.039 A 
ATOM      8  C   UNL A   1      38.911  32.640  33.983  1.00  0.00     0.014 A 
ATOM      9  C   UNL A   1      37.609  30.730  33.263  1.00  0.00     0.014 A 
ATOM     10  C   UNL A   1      40.055  31.834  34.084  1.00  0.00     0.009 A 
ATOM     11  C   UNL A   1      38.746  29.933  33.375  1.00  0.00     0.009 A 
ATOM     12  C   UNL A   1      39.984  30.475  33.774  1.00  0.00    -0.026 A 
BRANCH  12  13
ATOM     13  C   UNL A   1      41.131  29.560  33.748  1.00  0.00     0.010 C 
ATOM     14  C   UNL A   1      41.182  28.219  33.606  1.00  0.00     0.029 C 
BRANCH  14  15
ATOM     15  C   UNL A   1      42.401  27.616  34.202  1.00  0.00     0.064 A 
ATOM     16  C   UNL A   1      43.538  27.879  33.441  1.00  0.00     0.029 A 
ATOM     17  N   UNL A   1      42.218  26.451  34.872  1.00  0.00    -0.245 NA
ATOM     18  C   UNL A   1      44.300  26.793  33.038  1.00  0.00     0.013 A 
ATOM     19  C   UNL A   1      43.009  25.411  34.522  1.00  0.00     0.113 A 
ATOM     20  C   UNL A   1      43.979  25.515  33.507  1.00  0.00     0.004 A 
ATOM     21  C   UNL A   1      42.825  24.158  35.103  1.00  0.00     0.141 A 
ATOM     22  C   UNL A   1      44.564  24.358  32.966  1.00  0.00     0.010 A 
ATOM     23  C   UNL A   1      43.433  23.007  34.606  1.00  0.00     0.048 A 
ATOM     24  C   UNL A   1      44.264  23.104  33.494  1.00  0.00     0.005 A 
BRANCH  21  25
ATOM     25  O   UNL A   1      42.004  24.029  36.197  1.00  0.00    -0.506 OA
ATOM     26  H   UNL A   1      41.513  24.765  36.504  1.00  0.00     0.293 HD
ENDBRANCH  21  25
ENDBRANCH  14  15
ENDBRANCH  12  13
ENDBRANCH   5   7
ENDBRANCH   2   3
ENDBRANCH   1   2
BRANCH   1  27
ATOM     27  C   UNL A   1      34.610  32.956  29.451  1.00  0.00     0.023 C 
BRANCH  27  28
ATOM     28  C   UNL A   1      34.482  32.516  27.996  1.00  0.00     0.116 C 
BRANCH  28  29
ATOM     29  N   UNL A   1      33.884  31.198  27.845  1.00  0.00    -0.352 N 
ATOM     30  C   UNL A   1      34.469  29.956  27.912  1.00  0.00     0.251 C 
ATOM     31  H   UNL A   1      32.915  31.195  27.670  1.00  0.00     0.163 HD
ATOM     32  O   UNL A   1      33.817  28.953  27.642  1.00  0.00    -0.269 OA
BRANCH  30  33
ATOM     33  C   UNL A   1      35.899  29.831  28.268  1.00  0.00     0.039 A 
ATOM     34  C   UNL A   1      36.240  29.474  29.575  1.00  0.00     0.014 A 
ATOM     35  C   UNL A   1      36.898  30.034  27.312  1.00  0.00     0.014 A 
ATOM     36  C   UNL A   1      37.576  29.230  29.900  1.00  0.00     0.010 A 
ATOM     37  C   UNL A   1      38.219  29.717  27.618  1.00  0.00     0.010 A 
ATOM     38  C   UNL A   1      38.570  29.300  28.910  1.00  0.00    -0.014 A 
BRANCH  38  39
ATOM     39  C   UNL A   1      39.974  28.905  29.195  1.00  0.00     0.031 A 
ATOM     40  C   UNL A   1      40.922  29.881  29.833  1.00  0.00     0.074 A 
ATOM     41  C   UNL A   1      40.417  27.696  28.800  1.00  0.00     0.049 A 
ATOM     42  N   UNL A   1      42.204  29.753  30.069  1.00  0.00    -0.248 NA
ATOM     43  C   UNL A   1      40.363  31.182  30.230  1.00  0.00     0.031 C 
ATOM     44  C   UNL A   1      39.611  26.676  28.125  1.00  0.00     0.029 A 
ATOM     45  N   UNL A   1      41.663  27.125  28.892  1.00  0.00    -0.354 N 
ATOM     46  C   UNL A   1      42.606  30.961  30.628  1.00  0.00     0.074 A 
ATOM     47  C   UNL A   1      41.444  31.824  30.649  1.00  0.00     0.031 C 
ATOM     48  C   UNL A   1      40.376  25.602  27.878  1.00  0.00     0.029 A 
ATOM     49  C   UNL A   1      41.735  25.870  28.337  1.00  0.00     0.049 A 
ATOM     50  H   UNL A   1      42.431  27.572  29.315  1.00  0.00     0.167 HD
ATOM     51  C   UNL A   1      43.826  31.309  31.099  1.00  0.00     0.037 A 
ATOM     52  C   UNL A   1      42.782  25.034  28.198  1.00  0.00     0.037 A 
ATOM     53  C   UNL A   1      44.975  30.442  31.097  1.00  0.00     0.049 A 
ATOM     54  C   UNL A   1      44.131  25.449  28.717  1.00  0.00     0.074 A 
ATOM     55  C   UNL A   1      46.236  30.679  31.614  1.00  0.00     0.029 A 
ATOM     56  N   UNL A   1      45.004  29.170  30.542  1.00  0.00    -0.354 N 
ATOM     57  N   UNL A   1      44.479  26.564  29.312  1.00  0.00    -0.248 NA
ATOM     58  C   UNL A   1      45.231  24.490  28.548  1.00  0.00     0.031 C 
ATOM     59  C   UNL A   1      47.042  29.572  31.330  1.00  0.00     0.029 A 
ATOM     60  C   UNL A   1      46.269  28.623  30.681  1.00  0.00     0.049 A 
ATOM     61  H   UNL A   1      44.239  28.722  30.114  1.00  0.00     0.167 HD
ATOM     62  C   UNL A   1      45.829  26.432  29.610  1.00  0.00     0.074 A 
ATOM     63  C   UNL A   1      46.233  25.122  29.144  1.00  0.00     0.031 C 
ATOM     64  C   UNL A   1      46.658  27.316  30.215  1.00  0.00     0.037 A 
BRANCH  51  65
ATOM     65  C   UNL A   1      43.982  32.693  31.660  1.00  0.00     0.057 A 
ATOM     66  C   UNL A   1      44.317  33.787  30.849  1.00  0.00     0.134 A 
ATOM     67  C   UNL A   1      43.763  32.943  33.021  1.00  0.00     0.134 A 
ATOM     68  F   UNL A   1      44.550  33.615  29.539  1.00  0.00    -0.206 F 
ATOM     69  C   UNL A   1      44.455  35.071  31.376  1.00  0.00     0.040 A 
ATOM     70  C   UNL A   1      43.871  34.228  33.554  1.00  0.00     0.040 A 
ATOM     71  F   UNL A   1      43.433  31.943  33.853  1.00  0.00    -0.206 F 
ATOM     72  C   UNL A   1      44.225  35.296  32.732  1.00  0.00     0.006 A 
ENDBRANCH  51  65
BRANCH  52  73
ATOM     73  C   UNL A   1      42.596  23.713  27.545  1.00  0.00     0.057 A 
ATOM     74  C   UNL A   1      42.349  22.562  28.301  1.00  0.00     0.134 A 
ATOM     75  C   UNL A   1      42.665  23.568  26.155  1.00  0.00     0.134 A 
ATOM     76  F   UNL A   1      42.290  22.634  29.640  1.00  0.00    -0.206 F 
ATOM     77  C   UNL A   1      42.195  21.311  27.702  1.00  0.00     0.040 A 
ATOM     78  C   UNL A   1      42.487  22.327  25.539  1.00  0.00     0.040 A 
ATOM     79  F   UNL A   1      42.892  24.633  25.372  1.00  0.00    -0.206 F 
ATOM     80  C   UNL A   1      42.259  21.193  26.315  1.00  0.00     0.006 A 
ENDBRANCH  52  73
BRANCH  64  81
ATOM     81  C   UNL A   1      48.079  26.888  30.436  1.00  0.00     0.057 A 
ATOM     82  C   UNL A   1      48.462  26.144  31.559  1.00  0.00     0.134 A 
ATOM     83  C   UNL A   1      49.069  27.186  29.490  1.00  0.00     0.134 A 
ATOM     84  F   UNL A   1      47.565  25.838  32.510  1.00  0.00    -0.206 F 
ATOM     85  C   UNL A   1      49.781  25.727  31.743  1.00  0.00     0.040 A 
ATOM     86  C   UNL A   1      50.385  26.751  29.649  1.00  0.00     0.040 A 
ATOM     87  F   UNL A   1      48.768  27.889  28.388  1.00  0.00    -0.206 F 
ATOM     88  C   UNL A   1      50.745  26.023  30.782  1.00  0.00     0.006 A 
ENDBRANCH  64  81
ENDBRANCH  38  39
ENDBRANCH  30  33
ENDBRANCH  28  29
ENDBRANCH  27  28
ENDBRANCH   1  27
TORSDOF 14
ENDMDL
MODEL 2
REMARK VINA RESULT:      -9.9      3.424      9.750
REMARK SMILES O=C(NCCCCNC(=O)c1ccc(-c2c3nc(c(-c4c(F)cccc4F)c4ccc([nH]4)c(-c4c(F)cccc4F)c4nc(c(-c5c(F)cccc5F)c5ccc2[nH]5)C=C4)C=C3)cc1)c1ccc(/C=C/c2ccc3cccc(O)c3n2)cc1
REMARK SMILES IDX 5 1 4 2 3 3 1 4 2 5 65 7 66 8 83 9 67 10 82 11 68 12 69 13
REMARK SMILES IDX 70 14 71 15 72 16 81 17 73 18 80 19 74 20 78 21 75 22 77 23
REMARK SMILES IDX 76 24 79 25 6 27 7 28 8 29 9 30 10 32 11 33 12 34 64 35
REMARK SMILES IDX 13 36 63 37 14 38 15 39 16 40 57 41 17 42 62 43 56 44 58 45
REMARK SMILES IDX 18 46 61 47 55 48 54 49 19 51 45 52 28 53 44 54 29 55 32 56
REMARK SMILES IDX 43 57 59 58 30 59 31 60 42 62 60 63 33 64 20 65 21 66 26 67
REMARK SMILES IDX 22 68 23 69 25 70 27 71 24 72 46 73 47 74 52 75 48 76 49 77
REMARK SMILES IDX 51 78 53 79 50 80 34 81 35 82 40 83 36 84 37 85 39 86 41 87
REMARK SMILES IDX 38 88
REMARK H PARENT 3 6 79 26 8 31 58 50 32 61
REMARK Flexibility Score: inf
ROOT
ATOM      1  C   UNL A   1      42.628  23.221  28.808  1.00  0.00     0.023 C 
ENDROOT
BRANCH   1   2
ATOM      2  C   UNL A   1      44.081  23.228  29.279  1.00  0.00     0.116 C 
BRANCH   2   3
ATOM      3  N   UNL A   1      44.999  22.786  28.247  1.00  0.00    -0.352 N 
ATOM      4  O   UNL A   1      46.298  22.958  26.418  1.00  0.00    -0.269 OA
ATOM      5  C   UNL A   1      45.692  23.523  27.320  1.00  0.00     0.251 C 
ATOM      6  H   UNL A   1      45.146  21.814  28.204  1.00  0.00     0.163 HD
BRANCH   5   7
ATOM      7  C   UNL A   1      45.682  25.000  27.378  1.00  0.00     0.039 A 
ATOM      8  C   UNL A   1      46.637  25.727  28.102  1.00  0.00     0.014 A 
ATOM      9  C   UNL A   1      44.711  25.668  26.637  1.00  0.00     0.014 A 
ATOM     10  C   UNL A   1      46.586  27.129  28.130  1.00  0.00     0.009 A 
ATOM     11  C   UNL A   1      44.670  27.060  26.660  1.00  0.00     0.009 A 
ATOM     12  C   UNL A   1      45.598  27.807  27.415  1.00  0.00    -0.026 A 
BRANCH  12  13
ATOM     13  C   UNL A   1      45.386  29.259  27.448  1.00  0.00     0.010 C 
ATOM     14  C   UNL A   1      44.862  30.092  26.525  1.00  0.00     0.029 C 
BRANCH  14  15
ATOM     15  C   UNL A   1      45.340  31.491  26.665  1.00  0.00     0.064 A 
ATOM     16  C   UNL A   1      45.652  31.805  27.986  1.00  0.00     0.029 A 
ATOM     17  N   UNL A   1      44.802  32.389  25.802  1.00  0.00    -0.245 NA
ATOM     18  C   UNL A   1      45.038  32.921  28.537  1.00  0.00     0.013 A 
ATOM     19  C   UNL A   1      44.263  33.508  26.339  1.00  0.00     0.113 A 
ATOM     20  C   UNL A   1      44.248  33.742  27.727  1.00  0.00     0.004 A 
ATOM     21  C   UNL A   1      43.614  34.437  25.528  1.00  0.00     0.141 A 
ATOM     22  C   UNL A   1      43.426  34.746  28.267  1.00  0.00     0.010 A 
ATOM     23  C   UNL A   1      42.833  35.466  26.048  1.00  0.00     0.048 A 
ATOM     24  C   UNL A   1      42.695  35.584  27.428  1.00  0.00     0.005 A 
BRANCH  21  25
ATOM     25  O   UNL A   1      43.725  34.343  24.162  1.00  0.00    -0.506 OA
ATOM     26  H   UNL A   1      44.423  33.848  23.781  1.00  0.00     0.293 HD
ENDBRANCH  21  25
ENDBRANCH  14  15
ENDBRANCH  12  13
ENDBRANCH   5   7
ENDBRANCH   2   3
ENDBRANCH   1   2
BRANCH   1  27
ATOM     27  C   UNL A   1      42.243  22.080  27.866  1.00  0.00     0.023 C 
BRANCH  27  28
ATOM     28  C   UNL A   1      41.974  22.480  26.418  1.00  0.00     0.116 C 
BRANCH  28  29
ATOM     29  N   UNL A   1      40.597  22.255  26.006  1.00  0.00    -0.352 N 
ATOM     30  C   UNL A   1      39.481  23.031  26.212  1.00  0.00     0.251 C 
ATOM     31  H   UNL A   1      40.440  21.422  25.505  1.00  0.00     0.163 HD
ATOM     32  O   UNL A   1      38.373  22.617  25.887  1.00  0.00    -0.269 OA
BRANCH  30  33
ATOM     33  C   UNL A   1      39.610  24.351  26.867  1.00  0.00     0.039 A 
ATOM     34  C   UNL A   1      39.094  24.518  28.154  1.00  0.00     0.014 A 
ATOM     35  C   UNL A   1      40.261  25.409  26.228  1.00  0.00     0.014 A 
ATOM     36  C   UNL A   1      39.313  25.716  28.838  1.00  0.00     0.010 A 
ATOM     37  C   UNL A   1      40.544  26.573  26.938  1.00  0.00     0.010 A 
ATOM     38  C   UNL A   1      40.084  26.734  28.254  1.00  0.00    -0.014 A 
BRANCH  38  39
ATOM     39  C   UNL A   1      40.453  27.957  29.013  1.00  0.00     0.031 A 
ATOM     40  C   UNL A   1      41.777  28.043  29.718  1.00  0.00     0.074 A 
ATOM     41  C   UNL A   1      39.557  28.955  29.139  1.00  0.00     0.049 A 
ATOM     42  N   UNL A   1      42.234  28.983  30.507  1.00  0.00    -0.248 NA
ATOM     43  C   UNL A   1      42.697  26.909  29.537  1.00  0.00     0.031 C 
ATOM     44  C   UNL A   1      38.218  28.973  28.547  1.00  0.00     0.029 A 
ATOM     45  N   UNL A   1      39.631  30.143  29.825  1.00  0.00    -0.354 N 
ATOM     46  C   UNL A   1      43.485  28.548  30.926  1.00  0.00     0.074 A 
ATOM     47  C   UNL A   1      43.694  27.238  30.345  1.00  0.00     0.031 C 
ATOM     48  C   UNL A   1      37.604  30.118  28.881  1.00  0.00     0.029 A 
ATOM     49  C   UNL A   1      38.485  30.898  29.744  1.00  0.00     0.049 A 
ATOM     50  H   UNL A   1      40.429  30.428  30.326  1.00  0.00     0.167 HD
ATOM     51  C   UNL A   1      44.386  29.191  31.706  1.00  0.00     0.037 A 
ATOM     52  C   UNL A   1      38.172  32.077  30.314  1.00  0.00     0.037 A 
ATOM     53  C   UNL A   1      44.186  30.501  32.266  1.00  0.00     0.049 A 
ATOM     54  C   UNL A   1      39.184  32.765  31.187  1.00  0.00     0.074 A 
ATOM     55  C   UNL A   1      45.067  31.264  33.012  1.00  0.00     0.029 A 
ATOM     56  N   UNL A   1      43.018  31.242  32.146  1.00  0.00    -0.354 N 
ATOM     57  N   UNL A   1      40.393  32.377  31.513  1.00  0.00    -0.248 NA
ATOM     58  C   UNL A   1      38.791  34.054  31.771  1.00  0.00     0.031 C 
ATOM     59  C   UNL A   1      44.416  32.445  33.385  1.00  0.00     0.029 A 
ATOM     60  C   UNL A   1      43.147  32.440  32.829  1.00  0.00     0.049 A 
ATOM     61  H   UNL A   1      42.217  30.958  31.650  1.00  0.00     0.167 HD
ATOM     62  C   UNL A   1      40.913  33.383  32.318  1.00  0.00     0.074 A 
ATOM     63  C   UNL A   1      39.893  34.406  32.417  1.00  0.00     0.031 C 
ATOM     64  C   UNL A   1      42.125  33.452  32.918  1.00  0.00     0.037 A 
BRANCH  51  65
ATOM     65  C   UNL A   1      45.677  28.482  32.001  1.00  0.00     0.057 A 
ATOM     66  C   UNL A   1      46.857  28.771  31.302  1.00  0.00     0.134 A 
ATOM     67  C   UNL A   1      45.749  27.521  33.018  1.00  0.00     0.134 A 
ATOM     68  F   UNL A   1      46.854  29.673  30.309  1.00  0.00    -0.206 F 
ATOM     69  C   UNL A   1      48.054  28.112  31.585  1.00  0.00     0.040 A 
ATOM     70  C   UNL A   1      46.947  26.876  33.329  1.00  0.00     0.040 A 
ATOM     71  F   UNL A   1      44.659  27.201  33.732  1.00  0.00    -0.206 F 
ATOM     72  C   UNL A   1      48.103  27.165  32.606  1.00  0.00     0.006 A 
ENDBRANCH  51  65
BRANCH  52  73
ATOM     73  C   UNL A   1      36.841  32.690  30.070  1.00  0.00     0.057 A 
ATOM     74  C   UNL A   1      36.644  33.590  29.017  1.00  0.00     0.134 A 
ATOM     75  C   UNL A   1      35.740  32.396  30.881  1.00  0.00     0.134 A 
ATOM     76  F   UNL A   1      37.666  33.928  28.215  1.00  0.00    -0.206 F 
ATOM     77  C   UNL A   1      35.404  34.192  28.790  1.00  0.00     0.040 A 
ATOM     78  C   UNL A   1      34.488  32.969  30.651  1.00  0.00     0.040 A 
ATOM     79  F   UNL A   1      35.861  31.534  31.902  1.00  0.00    -0.206 F 
ATOM     80  C   UNL A   1      34.320  33.875  29.607  1.00  0.00     0.006 A 
ENDBRANCH  52  73
BRANCH  64  81
ATOM     81  C   UNL A   1      42.430  34.687  33.714  1.00  0.00     0.057 A 
ATOM     82  C   UNL A   1      42.963  35.838  33.119  1.00  0.00     0.134 A 
ATOM     83  C   UNL A   1      42.145  34.741  35.085  1.00  0.00     0.134 A 
ATOM     84  F   UNL A   1      43.273  35.847  31.814  1.00  0.00    -0.206 F 
ATOM     85  C   UNL A   1      43.219  36.991  33.862  1.00  0.00     0.040 A 
ATOM     86  C   UNL A   1      42.370  35.897  35.833  1.00  0.00     0.040 A 
ATOM     87  F   UNL A   1      41.627  33.676  35.714  1.00  0.00    -0.206 F 
ATOM     88  C   UNL A   1      42.913  37.026  35.221  1.00  0.00     0.006 A 
ENDBRANCH  64  81
ENDBRANCH  38  39
ENDBRANCH  30  33
ENDBRANCH  28  29
ENDBRANCH  27  28
ENDBRANCH   1  27
TORSDOF 14
ENDMDL
MODEL 3
REMARK VINA RESULT:      -9.7      5.149     10.740
REMARK SMILES O=C(NCCCCNC(=O)c1ccc(-c2c3nc(c(-c4c(F)cccc4F)c4ccc([nH]4)c(-c4c(F)cccc4F)c4nc(c(-c5c(F)cccc5F)c5ccc2[nH]5)C=C4)C=C3)cc1)c1ccc(/C=C/c2ccc3cccc(O)c3n2)cc1
REMARK SMILES IDX 5 1 4 2 3 3 1 4 2 5 65 7 66 8 83 9 67 10 82 11 68 12 69 13
REMARK SMILES IDX 70 14 71 15 72 16 81 17 73 18 80 19 74 20 78 21 75 22 77 23
REMARK SMILES IDX 76 24 79 25 6 27 7 28 8 29 9 30 10 32 11 33 12 34 64 35
REMARK SMILES IDX 13 36 63 37 14 38 15 39 16 40 57 41 17 42 62 43 56 44 58 45
REMARK SMILES IDX 18 46 61 47 55 48 54 49 19 51 45 52 28 53 44 54 29 55 32 56
REMARK SMILES IDX 43 57 59 58 30 59 31 60 42 62 60 63 33 64 20 65 21 66 26 67
REMARK SMILES IDX 22 68 23 69 25 70 27 71 24 72 46 73 47 74 52 75 48 76 49 77
REMARK SMILES IDX 51 78 53 79 50 80 34 81 35 82 40 83 36 84 37 85 39 86 41 87
REMARK SMILES IDX 38 88
REMARK H PARENT 3 6 79 26 8 31 58 50 32 61
REMARK Flexibility Score: inf
ROOT
ATOM      1  C   UNL A   1      31.804  30.387  26.719  1.00  0.00     0.023 C 
ENDROOT
BRANCH   1   2
ATOM      2  C   UNL A   1      32.310  29.882  25.369  1.00  0.00     0.116 C 
BRANCH   2   3
ATOM      3  N   UNL A   1      31.284  29.919  24.345  1.00  0.00    -0.352 N 
ATOM      4  O   UNL A   1      30.078  29.186  22.594  1.00  0.00    -0.269 OA
ATOM      5  C   UNL A   1      30.844  28.922  23.511  1.00  0.00     0.251 C 
ATOM      6  H   UNL A   1      30.838  30.789  24.229  1.00  0.00     0.163 HD
BRANCH   5   7
ATOM      7  C   UNL A   1      31.320  27.533  23.689  1.00  0.00     0.039 A 
ATOM      8  C   UNL A   1      32.464  27.046  23.043  1.00  0.00     0.014 A 
ATOM      9  C   UNL A   1      30.616  26.720  24.573  1.00  0.00     0.014 A 
ATOM     10  C   UNL A   1      32.874  25.719  23.239  1.00  0.00     0.009 A 
ATOM     11  C   UNL A   1      31.034  25.406  24.772  1.00  0.00     0.009 A 
ATOM     12  C   UNL A   1      32.159  24.885  24.101  1.00  0.00    -0.026 A 
BRANCH  12  13
ATOM     13  C   UNL A   1      32.434  23.459  24.308  1.00  0.00     0.010 C 
ATOM     14  C   UNL A   1      32.357  22.416  23.457  1.00  0.00     0.029 C 
BRANCH  14  15
ATOM     15  C   UNL A   1      32.139  21.117  24.144  1.00  0.00     0.064 A 
ATOM     16  C   UNL A   1      32.787  21.064  25.377  1.00  0.00     0.029 A 
ATOM     17  N   UNL A   1      32.004  20.035  23.337  1.00  0.00    -0.245 NA
ATOM     18  C   UNL A   1      33.650  20.001  25.597  1.00  0.00     0.013 A 
ATOM     19  C   UNL A   1      32.801  18.973  23.596  1.00  0.00     0.113 A 
ATOM     20  C   UNL A   1      33.737  18.977  24.648  1.00  0.00     0.004 A 
ATOM     21  C   UNL A   1      32.784  17.858  22.761  1.00  0.00     0.141 A 
ATOM     22  C   UNL A   1      34.744  17.998  24.703  1.00  0.00     0.010 A 
ATOM     23  C   UNL A   1      33.749  16.857  22.832  1.00  0.00     0.048 A 
ATOM     24  C   UNL A   1      34.767  16.959  23.775  1.00  0.00     0.005 A 
BRANCH  21  25
ATOM     25  O   UNL A   1      31.795  17.732  21.815  1.00  0.00    -0.506 OA
ATOM     26  H   UNL A   1      31.103  18.362  21.773  1.00  0.00     0.293 HD
ENDBRANCH  21  25
ENDBRANCH  14  15
ENDBRANCH  12  13
ENDBRANCH   5   7
ENDBRANCH   2   3
ENDBRANCH   1   2
BRANCH   1  27
ATOM     27  C   UNL A   1      31.566  31.894  26.816  1.00  0.00     0.023 C 
BRANCH  27  28
ATOM     28  C   UNL A   1      32.745  32.718  27.323  1.00  0.00     0.116 C 
BRANCH  28  29
ATOM     29  N   UNL A   1      32.394  34.098  27.626  1.00  0.00    -0.352 N 
ATOM     30  C   UNL A   1      32.956  34.968  28.529  1.00  0.00     0.251 C 
ATOM     31  H   UNL A   1      31.642  34.463  27.105  1.00  0.00     0.163 HD
ATOM     32  O   UNL A   1      32.444  36.066  28.727  1.00  0.00    -0.269 OA
BRANCH  30  33
ATOM     33  C   UNL A   1      34.153  34.565  29.297  1.00  0.00     0.039 A 
ATOM     34  C   UNL A   1      33.987  34.053  30.586  1.00  0.00     0.014 A 
ATOM     35  C   UNL A   1      35.431  34.664  28.739  1.00  0.00     0.014 A 
ATOM     36  C   UNL A   1      35.091  33.553  31.280  1.00  0.00     0.010 A 
ATOM     37  C   UNL A   1      36.517  34.096  29.401  1.00  0.00     0.010 A 
ATOM     38  C   UNL A   1      36.356  33.524  30.672  1.00  0.00    -0.014 A 
BRANCH  38  39
ATOM     39  C   UNL A   1      37.516  32.867  31.330  1.00  0.00     0.031 A 
ATOM     40  C   UNL A   1      38.185  31.685  30.686  1.00  0.00     0.074 A 
ATOM     41  C   UNL A   1      37.910  33.283  32.549  1.00  0.00     0.049 A 
ATOM     42  N   UNL A   1      39.143  30.924  31.152  1.00  0.00    -0.248 NA
ATOM     43  C   UNL A   1      37.693  31.289  29.358  1.00  0.00     0.031 C 
ATOM     44  C   UNL A   1      37.310  34.386  33.304  1.00  0.00     0.029 A 
ATOM     45  N   UNL A   1      38.898  32.813  33.379  1.00  0.00    -0.354 N 
ATOM     46  C   UNL A   1      39.357  29.952  30.182  1.00  0.00     0.074 A 
ATOM     47  C   UNL A   1      38.396  30.191  29.126  1.00  0.00     0.031 C 
ATOM     48  C   UNL A   1      37.952  34.517  34.476  1.00  0.00     0.029 A 
ATOM     49  C   UNL A   1      38.978  33.484  34.576  1.00  0.00     0.049 A 
ATOM     50  H   UNL A   1      39.494  32.067  33.140  1.00  0.00     0.167 HD
ATOM     51  C   UNL A   1      40.284  28.966  30.164  1.00  0.00     0.037 A 
ATOM     52  C   UNL A   1      39.776  33.281  35.641  1.00  0.00     0.037 A 
ATOM     53  C   UNL A   1      41.252  28.743  31.205  1.00  0.00     0.049 A 
ATOM     54  C   UNL A   1      40.788  32.170  35.603  1.00  0.00     0.074 A 
ATOM     55  C   UNL A   1      42.276  27.813  31.246  1.00  0.00     0.029 A 
ATOM     56  N   UNL A   1      41.313  29.456  32.394  1.00  0.00    -0.354 N 
ATOM     57  N   UNL A   1      41.030  31.307  34.647  1.00  0.00    -0.248 NA
ATOM     58  C   UNL A   1      41.639  32.006  36.789  1.00  0.00     0.031 C 
ATOM     59  C   UNL A   1      42.925  27.929  32.479  1.00  0.00     0.029 A 
ATOM     60  C   UNL A   1      42.338  28.967  33.186  1.00  0.00     0.049 A 
ATOM     61  H   UNL A   1      40.716  30.199  32.638  1.00  0.00     0.167 HD
ATOM     62  C   UNL A   1      42.075  30.514  35.104  1.00  0.00     0.074 A 
ATOM     63  C   UNL A   1      42.430  31.010  36.418  1.00  0.00     0.031 C 
ATOM     64  C   UNL A   1      42.684  29.471  34.491  1.00  0.00     0.037 A 
BRANCH  51  65
ATOM     65  C   UNL A   1      40.295  28.048  28.975  1.00  0.00     0.057 A 
ATOM     66  C   UNL A   1      41.030  28.344  27.819  1.00  0.00     0.134 A 
ATOM     67  C   UNL A   1      39.588  26.839  28.998  1.00  0.00     0.134 A 
ATOM     68  F   UNL A   1      41.720  29.491  27.727  1.00  0.00    -0.206 F 
ATOM     69  C   UNL A   1      41.039  27.484  26.719  1.00  0.00     0.040 A 
ATOM     70  C   UNL A   1      39.614  25.958  27.916  1.00  0.00     0.040 A 
ATOM     71  F   UNL A   1      38.870  26.489  30.076  1.00  0.00    -0.206 F 
ATOM     72  C   UNL A   1      40.335  26.283  26.769  1.00  0.00     0.006 A 
ENDBRANCH  51  65
BRANCH  52  73
ATOM     73  C   UNL A   1      39.657  34.157  36.836  1.00  0.00     0.057 A 
ATOM     74  C   UNL A   1      38.850  33.794  37.919  1.00  0.00     0.134 A 
ATOM     75  C   UNL A   1      40.341  35.374  36.921  1.00  0.00     0.134 A 
ATOM     76  F   UNL A   1      38.154  32.647  37.889  1.00  0.00    -0.206 F 
ATOM     77  C   UNL A   1      38.712  34.618  39.038  1.00  0.00     0.040 A 
ATOM     78  C   UNL A   1      40.233  36.197  38.044  1.00  0.00     0.040 A 
ATOM     79  F   UNL A   1      41.137  35.776  35.919  1.00  0.00    -0.206 F 
ATOM     80  C   UNL A   1      39.411  35.822  39.103  1.00  0.00     0.006 A 
ENDBRANCH  52  73
BRANCH  64  81
ATOM     81  C   UNL A   1      43.818  28.810  35.219  1.00  0.00     0.057 A 
ATOM     82  C   UNL A   1      45.149  29.203  35.028  1.00  0.00     0.134 A 
ATOM     83  C   UNL A   1      43.571  27.800  36.157  1.00  0.00     0.134 A 
ATOM     84  F   UNL A   1      45.455  30.155  34.133  1.00  0.00    -0.206 F 
ATOM     85  C   UNL A   1      46.195  28.602  35.729  1.00  0.00     0.040 A 
ATOM     86  C   UNL A   1      44.605  27.209  36.885  1.00  0.00     0.040 A 
ATOM     87  F   UNL A   1      42.319  27.381  36.394  1.00  0.00    -0.206 F 
ATOM     88  C   UNL A   1      45.923  27.608  36.667  1.00  0.00     0.006 A 
ENDBRANCH  64  81
ENDBRANCH  38  39
ENDBRANCH  30  33
ENDBRANCH  28  29
ENDBRANCH  27  28
ENDBRANCH   1  27
TORSDOF 14
ENDMDL
