MODEL 1
REMARK VINA RESULT:     -13.0      0.000      0.000
REMARK SMILES CC[C@H](C)[C@H](NC(=O)[C@H](C)Oc1ccc2c(C)c(C)c(=O)oc2c1C)C(=O)NCCCCNC(=O)c1ccc(-c2c3nc(c(-c4c(F)cccc4F)c4ccc([nH]4)c(-c4c(F)cccc4F)c4nc(c(-c5c(F)cccc5F)c5ccc2[nH]5)C=C4)C=C3)cc1
REMARK SMILES IDX 29 1 28 2 26 3 27 4 5 6 3 7 4 8 2 9 1 10 6 11 7 12 8 14 9 15
REMARK SMILES IDX 10 16 11 17 12 18 13 19 24 20 14 21 23 22 25 23 15 24 22 25
REMARK SMILES IDX 16 26 20 27 17 28 18 29 21 30 19 31 30 32 31 33 32 34 33 35
REMARK SMILES IDX 34 36 35 38 36 39 37 40 89 41 38 42 88 43 39 44 40 45 41 46
REMARK SMILES IDX 82 47 42 48 87 49 81 50 83 51 43 52 86 53 80 54 79 55 44 57
REMARK SMILES IDX 70 58 53 59 69 60 54 61 57 62 68 63 84 64 55 65 56 66 67 68
REMARK SMILES IDX 85 69 58 70 45 71 46 72 51 73 47 74 48 75 50 76 52 77 49 78
REMARK SMILES IDX 71 79 72 80 77 81 73 82 74 83 76 84 78 85 75 86 59 87 60 88
REMARK SMILES IDX 65 89 61 90 62 91 64 92 66 93 63 94
REMARK H PARENT 28 5 6 13 33 37 83 56 57 67
REMARK Flexibility Score: inf
ROOT
ATOM      1  C   UNL A   1      31.800  29.975  25.928  1.00  0.00     0.116 C 
ENDROOT
BRANCH   1   2
ATOM      2  N   UNL A   1      32.273  29.605  24.610  1.00  0.00    -0.354 N 
ATOM      3  C   UNL A   1      31.723  28.933  23.570  1.00  0.00     0.242 C 
ATOM      4  O   UNL A   1      32.527  28.619  22.680  1.00  0.00    -0.273 OA
ATOM      5  H   UNL A   1      33.194  29.907  24.430  1.00  0.00     0.163 HD
BRANCH   3   6
ATOM      6  C   UNL A   1      30.243  28.456  23.453  1.00  0.00     0.174 C 
BRANCH   6   7
ATOM      7  C   UNL A   1      29.086  29.304  22.850  1.00  0.00     0.018 C 
ATOM      8  C   UNL A   1      27.701  28.682  22.839  1.00  0.00     0.010 C 
BRANCH   7   9
ATOM      9  C   UNL A   1      29.039  30.785  23.279  1.00  0.00     0.002 C 
ATOM     10  C   UNL A   1      27.670  31.380  23.564  1.00  0.00     0.004 C 
ENDBRANCH   7   9
ENDBRANCH   6   7
BRANCH   6  11
ATOM     11  N   UNL A   1      29.771  27.414  24.397  1.00  0.00    -0.341 N 
ATOM     12  C   UNL A   1      30.320  26.315  24.985  1.00  0.00     0.261 C 
ATOM     13  H   UNL A   1      28.833  27.548  24.663  1.00  0.00     0.164 HD
ATOM     14  O   UNL A   1      29.692  25.796  25.913  1.00  0.00    -0.271 OA
BRANCH  12  15
ATOM     15  C   UNL A   1      31.615  25.700  24.460  1.00  0.00     0.258 C 
ATOM     16  C   UNL A   1      31.379  25.140  23.064  1.00  0.00     0.064 C 
BRANCH  15  17
ATOM     17  O   UNL A   1      32.226  24.936  25.497  1.00  0.00    -0.480 OA
BRANCH  17  18
ATOM     18  C   UNL A   1      33.004  23.822  25.450  1.00  0.00     0.127 A 
ATOM     19  C   UNL A   1      34.382  23.757  25.288  1.00  0.00     0.047 A 
ATOM     20  C   UNL A   1      32.304  22.602  25.577  1.00  0.00     0.035 A 
ATOM     21  C   UNL A   1      35.050  22.524  25.169  1.00  0.00     0.016 A 
ATOM     22  C   UNL A   1      32.982  21.387  25.360  1.00  0.00     0.145 A 
ATOM     23  C   UNL A   1      30.836  22.572  25.899  1.00  0.00     0.052 C 
ATOM     24  C   UNL A   1      34.353  21.317  25.158  1.00  0.00     0.021 A 
ATOM     25  O   UNL A   1      32.197  20.221  25.293  1.00  0.00    -0.422 OA
ATOM     26  C   UNL A   1      34.977  20.009  24.886  1.00  0.00    -0.030 A 
ATOM     27  C   UNL A   1      32.705  19.029  24.815  1.00  0.00     0.339 A 
ATOM     28  C   UNL A   1      36.481  19.939  24.861  1.00  0.00     0.045 C 
ATOM     29  C   UNL A   1      34.181  18.944  24.651  1.00  0.00     0.038 A 
ATOM     30  O   UNL A   1      31.963  18.081  24.576  1.00  0.00    -0.246 OA
ATOM     31  C   UNL A   1      34.694  17.606  24.192  1.00  0.00     0.052 C 
ENDBRANCH  17  18
ENDBRANCH  15  17
ENDBRANCH  12  15
ENDBRANCH   6  11
ENDBRANCH   3   6
ENDBRANCH   1   2
BRANCH   1  32
ATOM     32  C   UNL A   1      32.195  28.920  26.974  1.00  0.00     0.023 C 
BRANCH  32  33
ATOM     33  C   UNL A   1      33.649  28.940  27.402  1.00  0.00     0.023 C 
BRANCH  33  34
ATOM     34  C   UNL A   1      34.304  30.308  27.278  1.00  0.00     0.116 C 
BRANCH  34  35
ATOM     35  N   UNL A   1      34.460  31.018  28.545  1.00  0.00    -0.352 N 
ATOM     36  C   UNL A   1      35.492  30.973  29.459  1.00  0.00     0.251 C 
ATOM     37  H   UNL A   1      33.717  31.618  28.782  1.00  0.00     0.163 HD
ATOM     38  O   UNL A   1      35.446  31.617  30.502  1.00  0.00    -0.269 OA
BRANCH  36  39
ATOM     39  C   UNL A   1      36.628  30.066  29.202  1.00  0.00     0.039 A 
ATOM     40  C   UNL A   1      37.288  30.148  27.975  1.00  0.00     0.014 A 
ATOM     41  C   UNL A   1      37.128  29.265  30.226  1.00  0.00     0.014 A 
ATOM     42  C   UNL A   1      38.542  29.551  27.831  1.00  0.00     0.010 A 
ATOM     43  C   UNL A   1      38.426  28.784  30.125  1.00  0.00     0.010 A 
ATOM     44  C   UNL A   1      39.158  28.941  28.935  1.00  0.00    -0.014 A 
BRANCH  44  45
ATOM     45  C   UNL A   1      40.565  28.465  28.898  1.00  0.00     0.031 A 
ATOM     46  C   UNL A   1      41.679  29.452  29.114  1.00  0.00     0.074 A 
ATOM     47  C   UNL A   1      40.849  27.196  28.537  1.00  0.00     0.049 A 
ATOM     48  N   UNL A   1      42.959  29.322  28.887  1.00  0.00    -0.248 NA
ATOM     49  C   UNL A   1      41.285  30.788  29.594  1.00  0.00     0.031 C 
ATOM     50  C   UNL A   1      39.868  26.149  28.235  1.00  0.00     0.029 A 
ATOM     51  N   UNL A   1      42.058  26.576  28.336  1.00  0.00    -0.354 N 
ATOM     52  C   UNL A   1      43.511  30.572  29.133  1.00  0.00     0.074 A 
ATOM     53  C   UNL A   1      42.423  31.457  29.487  1.00  0.00     0.031 C 
ATOM     54  C   UNL A   1      40.514  25.017  27.912  1.00  0.00     0.029 A 
ATOM     55  C   UNL A   1      41.950  25.266  27.933  1.00  0.00     0.049 A 
ATOM     56  H   UNL A   1      42.923  27.028  28.469  1.00  0.00     0.167 HD
ATOM     57  C   UNL A   1      44.811  30.946  29.091  1.00  0.00     0.037 A 
ATOM     58  C   UNL A   1      42.903  24.376  27.599  1.00  0.00     0.037 A 
ATOM     59  C   UNL A   1      45.899  30.044  28.836  1.00  0.00     0.049 A 
ATOM     60  C   UNL A   1      44.345  24.802  27.618  1.00  0.00     0.074 A 
ATOM     61  C   UNL A   1      47.259  30.293  28.901  1.00  0.00     0.029 A 
ATOM     62  N   UNL A   1      45.748  28.711  28.487  1.00  0.00    -0.354 N 
ATOM     63  N   UNL A   1      44.858  25.972  27.912  1.00  0.00    -0.248 NA
ATOM     64  C   UNL A   1      45.341  23.785  27.246  1.00  0.00     0.031 C 
ATOM     65  C   UNL A   1      47.932  29.111  28.570  1.00  0.00     0.029 A 
ATOM     66  C   UNL A   1      46.990  28.127  28.318  1.00  0.00     0.049 A 
ATOM     67  H   UNL A   1      44.886  28.250  28.374  1.00  0.00     0.167 HD
ATOM     68  C   UNL A   1      46.232  25.829  27.773  1.00  0.00     0.074 A 
ATOM     69  C   UNL A   1      46.476  24.455  27.388  1.00  0.00     0.031 C 
ATOM     70  C   UNL A   1      47.206  26.756  27.940  1.00  0.00     0.037 A 
BRANCH  57  71
ATOM     71  C   UNL A   1      45.119  32.389  29.347  1.00  0.00     0.057 A 
ATOM     72  C   UNL A   1      45.465  32.827  30.632  1.00  0.00     0.134 A 
ATOM     73  C   UNL A   1      45.073  33.347  28.326  1.00  0.00     0.134 A 
ATOM     74  F   UNL A   1      45.525  31.959  31.653  1.00  0.00    -0.206 F 
ATOM     75  C   UNL A   1      45.758  34.167  30.889  1.00  0.00     0.040 A 
ATOM     76  C   UNL A   1      45.390  34.684  28.566  1.00  0.00     0.040 A 
ATOM     77  F   UNL A   1      44.768  32.986  27.071  1.00  0.00    -0.206 F 
ATOM     78  C   UNL A   1      45.729  35.097  29.854  1.00  0.00     0.006 A 
ENDBRANCH  57  71
BRANCH  58  79
ATOM     79  C   UNL A   1      42.543  22.989  27.209  1.00  0.00     0.057 A 
ATOM     80  C   UNL A   1      42.172  22.031  28.158  1.00  0.00     0.134 A 
ATOM     81  C   UNL A   1      42.510  22.610  25.861  1.00  0.00     0.134 A 
ATOM     82  F   UNL A   1      42.186  22.331  29.465  1.00  0.00    -0.206 F 
ATOM     83  C   UNL A   1      41.774  20.746  27.781  1.00  0.00     0.040 A 
ATOM     84  C   UNL A   1      42.095  21.337  25.469  1.00  0.00     0.040 A 
ATOM     85  F   UNL A   1      42.832  23.494  24.905  1.00  0.00    -0.206 F 
ATOM     86  C   UNL A   1      41.726  20.399  26.432  1.00  0.00     0.006 A 
ENDBRANCH  58  79
BRANCH  70  87
ATOM     87  C   UNL A   1      48.617  26.306  27.717  1.00  0.00     0.057 A 
ATOM     88  C   UNL A   1      49.365  25.754  28.764  1.00  0.00     0.134 A 
ATOM     89  C   UNL A   1      49.242  26.455  26.475  1.00  0.00     0.134 A 
ATOM     90  F   UNL A   1      48.820  25.590  29.978  1.00  0.00    -0.206 F 
ATOM     91  C   UNL A   1      50.694  25.372  28.583  1.00  0.00     0.040 A 
ATOM     92  C   UNL A   1      50.565  26.059  26.276  1.00  0.00     0.040 A 
ATOM     93  F   UNL A   1      48.569  26.961  25.431  1.00  0.00    -0.206 F 
ATOM     94  C   UNL A   1      51.296  25.522  27.334  1.00  0.00     0.006 A 
ENDBRANCH  70  87
ENDBRANCH  44  45
ENDBRANCH  36  39
ENDBRANCH  34  35
ENDBRANCH  33  34
ENDBRANCH  32  33
ENDBRANCH   1  32
TORSDOF 17
ENDMDL
MODEL 2
REMARK VINA RESULT:     -12.3      2.539      8.344
REMARK SMILES CC[C@H](C)[C@H](NC(=O)[C@H](C)Oc1ccc2c(C)c(C)c(=O)oc2c1C)C(=O)NCCCCNC(=O)c1ccc(-c2c3nc(c(-c4c(F)cccc4F)c4ccc([nH]4)c(-c4c(F)cccc4F)c4nc(c(-c5c(F)cccc5F)c5ccc2[nH]5)C=C4)C=C3)cc1
REMARK SMILES IDX 29 1 28 2 26 3 27 4 5 6 3 7 4 8 2 9 1 10 6 11 7 12 8 14 9 15
REMARK SMILES IDX 10 16 11 17 12 18 13 19 24 20 14 21 23 22 25 23 15 24 22 25
REMARK SMILES IDX 16 26 20 27 17 28 18 29 21 30 19 31 30 32 31 33 32 34 33 35
REMARK SMILES IDX 34 36 35 38 36 39 37 40 89 41 38 42 88 43 39 44 40 45 41 46
REMARK SMILES IDX 82 47 42 48 87 49 81 50 83 51 43 52 86 53 80 54 79 55 44 57
REMARK SMILES IDX 70 58 53 59 69 60 54 61 57 62 68 63 84 64 55 65 56 66 67 68
REMARK SMILES IDX 85 69 58 70 45 71 46 72 51 73 47 74 48 75 50 76 52 77 49 78
REMARK SMILES IDX 71 79 72 80 77 81 73 82 74 83 76 84 78 85 75 86 59 87 60 88
REMARK SMILES IDX 65 89 61 90 62 91 64 92 66 93 63 94
REMARK H PARENT 28 5 6 13 33 37 83 56 57 67
REMARK Flexibility Score: inf
ROOT
ATOM      1  C   UNL A   1      35.839  21.147  24.613  1.00  0.00     0.116 C 
ENDROOT
BRANCH   1   2
ATOM      2  N   UNL A   1      34.906  20.953  25.703  1.00  0.00    -0.354 N 
ATOM      3  C   UNL A   1      33.617  20.543  25.773  1.00  0.00     0.242 C 
ATOM      4  O   UNL A   1      33.082  20.718  26.878  1.00  0.00    -0.273 OA
ATOM      5  H   UNL A   1      35.292  21.164  26.584  1.00  0.00     0.163 HD
BRANCH   3   6
ATOM      6  C   UNL A   1      32.756  19.984  24.598  1.00  0.00     0.174 C 
BRANCH   6   7
ATOM      7  C   UNL A   1      32.550  18.472  24.295  1.00  0.00     0.018 C 
ATOM      8  C   UNL A   1      32.564  18.047  22.838  1.00  0.00     0.010 C 
BRANCH   7   9
ATOM      9  C   UNL A   1      33.346  17.491  25.180  1.00  0.00     0.002 C 
ATOM     10  C   UNL A   1      34.640  16.938  24.608  1.00  0.00     0.004 C 
ENDBRANCH   7   9
ENDBRANCH   6   7
BRANCH   6  11
ATOM     11  N   UNL A   1      32.554  20.850  23.410  1.00  0.00    -0.341 N 
ATOM     12  C   UNL A   1      32.556  22.191  23.174  1.00  0.00     0.261 C 
ATOM     13  H   UNL A   1      32.373  20.328  22.595  1.00  0.00     0.164 HD
ATOM     14  O   UNL A   1      32.577  22.558  21.995  1.00  0.00    -0.271 OA
BRANCH  12  15
ATOM     15  C   UNL A   1      32.449  23.197  24.318  1.00  0.00     0.258 C 
ATOM     16  C   UNL A   1      31.048  23.142  24.909  1.00  0.00     0.064 C 
BRANCH  15  17
ATOM     17  O   UNL A   1      33.065  24.421  23.924  1.00  0.00    -0.480 OA
BRANCH  17  18
ATOM     18  C   UNL A   1      32.707  25.715  24.139  1.00  0.00     0.127 A 
ATOM     19  C   UNL A   1      32.940  26.481  25.274  1.00  0.00     0.047 A 
ATOM     20  C   UNL A   1      32.011  26.324  23.072  1.00  0.00     0.035 A 
ATOM     21  C   UNL A   1      32.432  27.788  25.395  1.00  0.00     0.016 A 
ATOM     22  C   UNL A   1      31.435  27.596  23.256  1.00  0.00     0.145 A 
ATOM     23  C   UNL A   1      31.838  25.626  21.752  1.00  0.00     0.052 C 
ATOM     24  C   UNL A   1      31.629  28.351  24.403  1.00  0.00     0.021 A 
ATOM     25  O   UNL A   1      30.582  28.062  22.238  1.00  0.00    -0.422 OA
ATOM     26  C   UNL A   1      30.947  29.650  24.537  1.00  0.00    -0.030 A 
ATOM     27  C   UNL A   1      29.752  29.150  22.427  1.00  0.00     0.339 A 
ATOM     28  C   UNL A   1      31.326  30.528  25.700  1.00  0.00     0.045 C 
ATOM     29  C   UNL A   1      30.002  29.986  23.632  1.00  0.00     0.038 A 
ATOM     30  O   UNL A   1      28.877  29.423  21.611  1.00  0.00    -0.246 OA
ATOM     31  C   UNL A   1      29.118  31.196  23.761  1.00  0.00     0.052 C 
ENDBRANCH  17  18
ENDBRANCH  15  17
ENDBRANCH  12  15
ENDBRANCH   6  11
ENDBRANCH   3   6
ENDBRANCH   1   2
BRANCH   1  32
ATOM     32  C   UNL A   1      37.250  20.674  25.000  1.00  0.00     0.023 C 
BRANCH  32  33
ATOM     33  C   UNL A   1      38.242  21.776  25.318  1.00  0.00     0.023 C 
BRANCH  33  34
ATOM     34  C   UNL A   1      39.300  21.372  26.336  1.00  0.00     0.116 C 
BRANCH  34  35
ATOM     35  N   UNL A   1      39.987  20.121  26.025  1.00  0.00    -0.352 N 
ATOM     36  C   UNL A   1      41.331  19.815  26.088  1.00  0.00     0.251 C 
ATOM     37  H   UNL A   1      39.404  19.387  25.726  1.00  0.00     0.163 HD
ATOM     38  O   UNL A   1      41.747  18.710  25.755  1.00  0.00    -0.269 OA
BRANCH  36  39
ATOM     39  C   UNL A   1      42.280  20.871  26.488  1.00  0.00     0.039 A 
ATOM     40  C   UNL A   1      42.828  21.691  25.500  1.00  0.00     0.014 A 
ATOM     41  C   UNL A   1      42.492  21.146  27.837  1.00  0.00     0.014 A 
ATOM     42  C   UNL A   1      43.457  22.882  25.869  1.00  0.00     0.010 A 
ATOM     43  C   UNL A   1      42.999  22.387  28.195  1.00  0.00     0.010 A 
ATOM     44  C   UNL A   1      43.467  23.280  27.215  1.00  0.00    -0.014 A 
BRANCH  44  45
ATOM     45  C   UNL A   1      43.941  24.622  27.644  1.00  0.00     0.031 A 
ATOM     46  C   UNL A   1      42.933  25.659  28.055  1.00  0.00     0.074 A 
ATOM     47  C   UNL A   1      45.245  24.954  27.532  1.00  0.00     0.049 A 
ATOM     48  N   UNL A   1      43.088  26.945  28.225  1.00  0.00    -0.248 NA
ATOM     49  C   UNL A   1      41.549  25.190  28.239  1.00  0.00     0.031 C 
ATOM     50  C   UNL A   1      46.322  24.066  27.085  1.00  0.00     0.029 A 
ATOM     51  N   UNL A   1      45.882  26.148  27.765  1.00  0.00    -0.354 N 
ATOM     52  C   UNL A   1      41.817  27.445  28.472  1.00  0.00     0.074 A 
ATOM     53  C   UNL A   1      40.897  26.332  28.389  1.00  0.00     0.031 C 
ATOM     54  C   UNL A   1      47.484  24.739  27.098  1.00  0.00     0.029 A 
ATOM     55  C   UNL A   1      47.232  26.116  27.505  1.00  0.00     0.049 A 
ATOM     56  H   UNL A   1      45.416  26.953  28.088  1.00  0.00     0.167 HD
ATOM     57  C   UNL A   1      41.449  28.714  28.764  1.00  0.00     0.037 A 
ATOM     58  C   UNL A   1      48.155  27.094  27.568  1.00  0.00     0.037 A 
ATOM     59  C   UNL A   1      42.373  29.798  28.944  1.00  0.00     0.049 A 
ATOM     60  C   UNL A   1      47.728  28.483  27.954  1.00  0.00     0.074 A 
ATOM     61  C   UNL A   1      42.116  31.089  29.370  1.00  0.00     0.029 A 
ATOM     62  N   UNL A   1      43.739  29.709  28.725  1.00  0.00    -0.354 N 
ATOM     63  N   UNL A   1      46.529  28.929  28.244  1.00  0.00    -0.248 NA
ATOM     64  C   UNL A   1      48.780  29.509  28.009  1.00  0.00     0.031 C 
ATOM     65  C   UNL A   1      43.328  31.789  29.389  1.00  0.00     0.029 A 
ATOM     66  C   UNL A   1      44.338  30.927  28.993  1.00  0.00     0.049 A 
ATOM     67  H   UNL A   1      44.212  28.900  28.423  1.00  0.00     0.167 HD
ATOM     68  C   UNL A   1      46.686  30.279  28.527  1.00  0.00     0.074 A 
ATOM     69  C   UNL A   1      48.096  30.577  28.393  1.00  0.00     0.031 C 
ATOM     70  C   UNL A   1      45.745  31.195  28.858  1.00  0.00     0.037 A 
BRANCH  57  71
ATOM     71  C   UNL A   1      39.984  28.984  28.927  1.00  0.00     0.057 A 
ATOM     72  C   UNL A   1      39.386  28.928  30.192  1.00  0.00     0.134 A 
ATOM     73  C   UNL A   1      39.165  29.298  27.835  1.00  0.00     0.134 A 
ATOM     74  F   UNL A   1      40.115  28.632  31.278  1.00  0.00    -0.206 F 
ATOM     75  C   UNL A   1      38.024  29.181  30.364  1.00  0.00     0.040 A 
ATOM     76  C   UNL A   1      37.808  29.577  27.998  1.00  0.00     0.040 A 
ATOM     77  F   UNL A   1      39.684  29.386  26.601  1.00  0.00    -0.206 F 
ATOM     78  C   UNL A   1      37.233  29.513  29.266  1.00  0.00     0.006 A 
ENDBRANCH  57  71
BRANCH  58  79
ATOM     79  C   UNL A   1      49.580  26.814  27.257  1.00  0.00     0.057 A 
ATOM     80  C   UNL A   1      50.462  26.325  28.226  1.00  0.00     0.134 A 
ATOM     81  C   UNL A   1      50.074  26.981  25.957  1.00  0.00     0.134 A 
ATOM     82  F   UNL A   1      50.050  26.148  29.489  1.00  0.00    -0.206 F 
ATOM     83  C   UNL A   1      51.785  26.005  27.913  1.00  0.00     0.040 A 
ATOM     84  C   UNL A   1      51.388  26.645  25.626  1.00  0.00     0.040 A 
ATOM     85  F   UNL A   1      49.268  27.422  24.981  1.00  0.00    -0.206 F 
ATOM     86  C   UNL A   1      52.248  26.156  26.607  1.00  0.00     0.006 A 
ENDBRANCH  58  79
BRANCH  70  87
ATOM     87  C   UNL A   1      46.216  32.594  29.109  1.00  0.00     0.057 A 
ATOM     88  C   UNL A   1      46.602  33.000  30.391  1.00  0.00     0.134 A 
ATOM     89  C   UNL A   1      46.251  33.546  28.084  1.00  0.00     0.134 A 
ATOM     90  F   UNL A   1      46.587  32.132  31.414  1.00  0.00    -0.206 F 
ATOM     91  C   UNL A   1      47.001  34.311  30.648  1.00  0.00     0.040 A 
ATOM     92  C   UNL A   1      46.665  34.856  28.325  1.00  0.00     0.040 A 
ATOM     93  F   UNL A   1      45.908  33.210  26.831  1.00  0.00    -0.206 F 
ATOM     94  C   UNL A   1      47.036  35.243  29.611  1.00  0.00     0.006 A 
ENDBRANCH  70  87
ENDBRANCH  44  45
ENDBRANCH  36  39
ENDBRANCH  34  35
ENDBRANCH  33  34
ENDBRANCH  32  33
ENDBRANCH   1  32
TORSDOF 17
ENDMDL
MODEL 3
REMARK VINA RESULT:     -12.0      4.445      9.853
REMARK SMILES CC[C@H](C)[C@H](NC(=O)[C@H](C)Oc1ccc2c(C)c(C)c(=O)oc2c1C)C(=O)NCCCCNC(=O)c1ccc(-c2c3nc(c(-c4c(F)cccc4F)c4ccc([nH]4)c(-c4c(F)cccc4F)c4nc(c(-c5c(F)cccc5F)c5ccc2[nH]5)C=C4)C=C3)cc1
REMARK SMILES IDX 29 1 28 2 26 3 27 4 5 6 3 7 4 8 2 9 1 10 6 11 7 12 8 14 9 15
REMARK SMILES IDX 10 16 11 17 12 18 13 19 24 20 14 21 23 22 25 23 15 24 22 25
REMARK SMILES IDX 16 26 20 27 17 28 18 29 21 30 19 31 30 32 31 33 32 34 33 35
REMARK SMILES IDX 34 36 35 38 36 39 37 40 89 41 38 42 88 43 39 44 40 45 41 46
REMARK SMILES IDX 82 47 42 48 87 49 81 50 83 51 43 52 86 53 80 54 79 55 44 57
REMARK SMILES IDX 70 58 53 59 69 60 54 61 57 62 68 63 84 64 55 65 56 66 67 68
REMARK SMILES IDX 85 69 58 70 45 71 46 72 51 73 47 74 48 75 50 76 52 77 49 78
REMARK SMILES IDX 71 79 72 80 77 81 73 82 74 83 76 84 78 85 75 86 59 87 60 88
REMARK SMILES IDX 65 89 61 90 62 91 64 92 66 93 63 94
REMARK H PARENT 28 5 6 13 33 37 83 56 57 67
REMARK Flexibility Score: inf
ROOT
ATOM      1  C   UNL A   1      37.909  21.320  25.346  1.00  0.00     0.116 C 
ENDROOT
BRANCH   1   2
ATOM      2  N   UNL A   1      37.400  22.169  24.290  1.00  0.00    -0.354 N 
ATOM      3  C   UNL A   1      36.156  22.465  23.842  1.00  0.00     0.242 C 
ATOM      4  O   UNL A   1      36.132  23.070  22.760  1.00  0.00    -0.273 OA
ATOM      5  H   UNL A   1      38.111  22.631  23.789  1.00  0.00     0.163 HD
BRANCH   3   6
ATOM      6  C   UNL A   1      34.808  22.038  24.498  1.00  0.00     0.174 C 
BRANCH   6   7
ATOM      7  C   UNL A   1      34.654  20.892  25.539  1.00  0.00     0.018 C 
ATOM      8  C   UNL A   1      34.109  21.262  26.906  1.00  0.00     0.010 C 
BRANCH   7   9
ATOM      9  C   UNL A   1      34.029  19.582  25.015  1.00  0.00     0.002 C 
ATOM     10  C   UNL A   1      34.984  18.469  24.620  1.00  0.00     0.004 C 
ENDBRANCH   7   9
ENDBRANCH   6   7
BRANCH   6  11
ATOM     11  N   UNL A   1      33.552  22.328  23.762  1.00  0.00    -0.341 N 
ATOM     12  C   UNL A   1      32.720  23.400  23.646  1.00  0.00     0.261 C 
ATOM     13  H   UNL A   1      33.246  21.559  23.230  1.00  0.00     0.164 HD
ATOM     14  O   UNL A   1      31.872  23.364  22.748  1.00  0.00    -0.271 OA
BRANCH  12  15
ATOM     15  C   UNL A   1      32.778  24.559  24.638  1.00  0.00     0.258 C 
ATOM     16  C   UNL A   1      31.654  24.411  25.653  1.00  0.00     0.064 C 
BRANCH  15  17
ATOM     17  O   UNL A   1      33.011  25.773  23.928  1.00  0.00    -0.480 OA
BRANCH  17  18
ATOM     18  C   UNL A   1      32.443  27.003  24.044  1.00  0.00     0.127 A 
ATOM     19  C   UNL A   1      32.545  27.887  25.112  1.00  0.00     0.047 A 
ATOM     20  C   UNL A   1      31.656  27.401  22.941  1.00  0.00     0.035 A 
ATOM     21  C   UNL A   1      31.828  29.096  25.135  1.00  0.00     0.016 A 
ATOM     22  C   UNL A   1      30.876  28.570  23.031  1.00  0.00     0.145 A 
ATOM     23  C   UNL A   1      31.601  26.579  21.683  1.00  0.00     0.052 C 
ATOM     24  C   UNL A   1      30.943  29.437  24.112  1.00  0.00     0.021 A 
ATOM     25  O   UNL A   1      29.958  28.805  21.991  1.00  0.00    -0.422 OA
ATOM     26  C   UNL A   1      30.054  30.612  24.151  1.00  0.00    -0.030 A 
ATOM     27  C   UNL A   1      28.959  29.753  22.104  1.00  0.00     0.339 A 
ATOM     28  C   UNL A   1      30.282  31.632  25.235  1.00  0.00     0.045 C 
ATOM     29  C   UNL A   1      29.066  30.713  23.235  1.00  0.00     0.038 A 
ATOM     30  O   UNL A   1      28.051  29.810  21.280  1.00  0.00    -0.246 OA
ATOM     31  C   UNL A   1      27.994  31.766  23.279  1.00  0.00     0.052 C 
ENDBRANCH  17  18
ENDBRANCH  15  17
ENDBRANCH  12  15
ENDBRANCH   6  11
ENDBRANCH   3   6
ENDBRANCH   1   2
BRANCH   1  32
ATOM     32  C   UNL A   1      39.130  21.958  26.030  1.00  0.00     0.023 C 
BRANCH  32  33
ATOM     33  C   UNL A   1      40.315  21.036  26.239  1.00  0.00     0.023 C 
BRANCH  33  34
ATOM     34  C   UNL A   1      41.542  21.735  26.807  1.00  0.00     0.116 C 
BRANCH  34  35
ATOM     35  N   UNL A   1      42.465  22.246  25.797  1.00  0.00    -0.352 N 
ATOM     36  C   UNL A   1      42.795  23.548  25.483  1.00  0.00     0.251 C 
ATOM     37  H   UNL A   1      42.920  21.558  25.260  1.00  0.00     0.163 HD
ATOM     38  O   UNL A   1      43.574  23.804  24.570  1.00  0.00    -0.269 OA
BRANCH  36  39
ATOM     39  C   UNL A   1      42.127  24.644  26.211  1.00  0.00     0.039 A 
ATOM     40  C   UNL A   1      41.317  24.329  27.304  1.00  0.00     0.014 A 
ATOM     41  C   UNL A   1      42.435  25.970  25.914  1.00  0.00     0.014 A 
ATOM     42  C   UNL A   1      40.947  25.338  28.195  1.00  0.00     0.010 A 
ATOM     43  C   UNL A   1      42.177  26.946  26.866  1.00  0.00     0.010 A 
ATOM     44  C   UNL A   1      41.449  26.638  28.030  1.00  0.00    -0.014 A 
BRANCH  44  45
ATOM     45  C   UNL A   1      41.255  27.702  29.049  1.00  0.00     0.031 A 
ATOM     46  C   UNL A   1      42.089  27.681  30.299  1.00  0.00     0.074 A 
ATOM     47  C   UNL A   1      40.247  28.592  28.923  1.00  0.00     0.049 A 
ATOM     48  N   UNL A   1      41.930  28.344  31.414  1.00  0.00    -0.248 NA
ATOM     49  C   UNL A   1      43.221  26.740  30.315  1.00  0.00     0.031 C 
ATOM     50  C   UNL A   1      39.319  28.685  27.793  1.00  0.00     0.029 A 
ATOM     51  N   UNL A   1      39.821  29.579  29.777  1.00  0.00    -0.354 N 
ATOM     52  C   UNL A   1      42.897  27.854  32.281  1.00  0.00     0.074 A 
ATOM     53  C   UNL A   1      43.612  26.812  31.578  1.00  0.00     0.031 C 
ATOM     54  C   UNL A   1      38.451  29.686  28.013  1.00  0.00     0.029 A 
ATOM     55  C   UNL A   1      38.726  30.273  29.319  1.00  0.00     0.049 A 
ATOM     56  H   UNL A   1      40.258  29.772  30.638  1.00  0.00     0.167 HD
ATOM     57  C   UNL A   1      43.182  28.252  33.543  1.00  0.00     0.037 A 
ATOM     58  C   UNL A   1      38.013  31.258  29.899  1.00  0.00     0.037 A 
ATOM     59  C   UNL A   1      42.537  29.352  34.204  1.00  0.00     0.049 A 
ATOM     60  C   UNL A   1      38.388  31.721  31.279  1.00  0.00     0.074 A 
ATOM     61  C   UNL A   1      42.841  29.920  35.429  1.00  0.00     0.029 A 
ATOM     62  N   UNL A   1      41.470  30.064  33.681  1.00  0.00    -0.354 N 
ATOM     63  N   UNL A   1      39.345  31.290  32.065  1.00  0.00    -0.248 NA
ATOM     64  C   UNL A   1      37.576  32.801  31.860  1.00  0.00     0.031 C 
ATOM     65  C   UNL A   1      41.940  30.966  35.657  1.00  0.00     0.029 A 
ATOM     66  C   UNL A   1      41.091  31.059  34.566  1.00  0.00     0.049 A 
ATOM     67  H   UNL A   1      41.043  29.889  32.812  1.00  0.00     0.167 HD
ATOM     68  C   UNL A   1      39.258  32.051  33.222  1.00  0.00     0.074 A 
ATOM     69  C   UNL A   1      38.168  32.984  33.031  1.00  0.00     0.031 C 
ATOM     70  C   UNL A   1      40.006  31.978  34.349  1.00  0.00     0.037 A 
BRANCH  57  71
ATOM     71  C   UNL A   1      44.251  27.500  34.276  1.00  0.00     0.057 A 
ATOM     72  C   UNL A   1      45.579  27.941  34.246  1.00  0.00     0.134 A 
ATOM     73  C   UNL A   1      43.967  26.340  35.008  1.00  0.00     0.134 A 
ATOM     74  F   UNL A   1      45.916  29.044  33.562  1.00  0.00    -0.206 F 
ATOM     75  C   UNL A   1      46.588  27.256  34.925  1.00  0.00     0.040 A 
ATOM     76  C   UNL A   1      44.963  25.661  35.711  1.00  0.00     0.040 A 
ATOM     77  F   UNL A   1      42.711  25.879  35.090  1.00  0.00    -0.206 F 
ATOM     78  C   UNL A   1      46.280  26.117  35.666  1.00  0.00     0.006 A 
ENDBRANCH  57  71
BRANCH  58  79
ATOM     79  C   UNL A   1      36.864  31.880  29.193  1.00  0.00     0.057 A 
ATOM     80  C   UNL A   1      35.631  31.228  29.078  1.00  0.00     0.134 A 
ATOM     81  C   UNL A   1      36.965  33.172  28.663  1.00  0.00     0.134 A 
ATOM     82  F   UNL A   1      35.473  29.988  29.562  1.00  0.00    -0.206 F 
ATOM     83  C   UNL A   1      34.536  31.843  28.467  1.00  0.00     0.040 A 
ATOM     84  C   UNL A   1      35.872  33.806  28.069  1.00  0.00     0.040 A 
ATOM     85  F   UNL A   1      38.114  33.854  28.765  1.00  0.00    -0.206 F 
ATOM     86  C   UNL A   1      34.652  33.139  27.969  1.00  0.00     0.006 A 
ENDBRANCH  58  79
BRANCH  70  87
ATOM     87  C   UNL A   1      39.676  32.940  35.447  1.00  0.00     0.057 A 
ATOM     88  C   UNL A   1      40.306  34.188  35.520  1.00  0.00     0.134 A 
ATOM     89  C   UNL A   1      38.760  32.612  36.453  1.00  0.00     0.134 A 
ATOM     90  F   UNL A   1      41.196  34.557  34.586  1.00  0.00    -0.206 F 
ATOM     91  C   UNL A   1      40.041  35.075  36.562  1.00  0.00     0.040 A 
ATOM     92  C   UNL A   1      38.473  33.498  37.491  1.00  0.00     0.040 A 
ATOM     93  F   UNL A   1      38.113  31.437  36.426  1.00  0.00    -0.206 F 
ATOM     94  C   UNL A   1      39.119  34.732  37.550  1.00  0.00     0.006 A 
ENDBRANCH  70  87
ENDBRANCH  44  45
ENDBRANCH  36  39
ENDBRANCH  34  35
ENDBRANCH  33  34
ENDBRANCH  32  33
ENDBRANCH   1  32
TORSDOF 17
ENDMDL
