MODEL 1
REMARK VINA RESULT:     -11.7      0.000      0.000
REMARK SMILES CCc1cc(OC(F)(F)F)cc2c1O[C@@H](C(F)(F)F)C(C(=O)NCCCCNC(=O)c1ccc(-c3c4nc(c(-c5c(F)cccc5F)c5ccc([nH]5)c(-c5c(F)cccc5F)c5nc(c(-c6c(F)cccc6F)c6ccc3[nH]6)C=C5)C=C4)cc1)=C2
REMARK SMILES IDX 25 1 24 2 23 3 21 4 22 5 20 7 3 8 4 9 13 10 5 11 12 12 14 13
REMARK SMILES IDX 11 14 85 15 15 16 2 17 1 18 6 19 7 20 8 21 9 22 10 23 16 24
REMARK SMILES IDX 17 25 18 26 19 27 26 28 27 29 28 30 29 31 30 33 31 34 32 35
REMARK SMILES IDX 84 36 33 37 83 38 34 39 35 40 36 41 77 42 37 43 82 44 76 45
REMARK SMILES IDX 78 46 38 47 81 48 75 49 74 50 39 52 65 53 48 54 64 55 49 56
REMARK SMILES IDX 52 57 63 58 79 59 50 60 51 61 62 63 80 64 53 65 40 66 41 67
REMARK SMILES IDX 46 68 42 69 43 70 45 71 47 72 44 73 66 74 67 75 72 76 68 77
REMARK SMILES IDX 69 78 71 79 73 80 70 81 54 82 55 83 60 84 56 85 57 86 59 87
REMARK SMILES IDX 61 88 58 89
REMARK H PARENT 23 6 28 32 78 51 52 62
REMARK Flexibility Score: inf
ROOT
ATOM      1  C   UNL A   1      37.043  21.592  24.274  1.00  0.00     0.023 C 
ENDROOT
BRANCH   1   2
ATOM      2  C   UNL A   1      36.483  22.489  25.385  1.00  0.00     0.116 C 
BRANCH   2   3
ATOM      3  N   UNL A   1      35.368  21.829  26.039  1.00  0.00    -0.352 N 
ATOM      4  C   UNL A   1      34.117  22.252  26.359  1.00  0.00     0.251 C 
ATOM      5  O   UNL A   1      33.432  21.529  27.079  1.00  0.00    -0.270 OA
ATOM      6  H   UNL A   1      35.553  20.898  26.301  1.00  0.00     0.163 HD
BRANCH   4   7
ATOM      7  C   UNL A   1      33.526  23.505  25.820  1.00  0.00     0.067 C 
ATOM      8  C   UNL A   1      31.870  26.887  23.946  1.00  0.00    -0.002 A 
ATOM      9  C   UNL A   1      32.187  28.166  24.442  1.00  0.00     0.054 A 
ATOM     10  C   UNL A   1      32.424  25.759  24.568  1.00  0.00     0.131 A 
ATOM     11  C   UNL A   1      33.037  28.315  25.539  1.00  0.00     0.130 A 
ATOM     12  C   UNL A   1      33.243  25.899  25.684  1.00  0.00     0.021 A 
ATOM     13  O   UNL A   1      32.205  24.543  23.986  1.00  0.00    -0.475 OA
ATOM     14  C   UNL A   1      33.547  27.176  26.166  1.00  0.00     0.058 A 
ATOM     15  C   UNL A   1      33.842  24.721  26.290  1.00  0.00     0.025 C 
ATOM     16  C   UNL A   1      32.401  23.351  24.802  1.00  0.00     0.314 C 
BRANCH   8  17
ATOM     17  C   UNL A   1      30.949  26.753  22.754  1.00  0.00     0.036 C 
ATOM     18  C   UNL A   1      30.176  28.034  22.463  1.00  0.00     0.009 C 
ENDBRANCH   8  17
BRANCH  11  19
ATOM     19  O   UNL A   1      33.459  29.491  26.093  1.00  0.00    -0.406 OA
BRANCH  19  20
ATOM     20  C   UNL A   1      32.507  30.279  26.787  1.00  0.00     0.573 C 
ATOM     21  F   UNL A   1      31.826  31.082  25.942  1.00  0.00    -0.132 F 
ATOM     22  F   UNL A   1      31.640  29.499  27.467  1.00  0.00    -0.132 F 
ATOM     23  F   UNL A   1      33.158  31.061  27.675  1.00  0.00    -0.132 F 
ENDBRANCH  19  20
ENDBRANCH  11  19
BRANCH  16  24
ATOM     24  C   UNL A   1      32.495  22.156  23.825  1.00  0.00     0.429 C 
ATOM     25  F   UNL A   1      31.794  22.352  22.686  1.00  0.00    -0.167 F 
ATOM     26  F   UNL A   1      33.782  21.961  23.425  1.00  0.00    -0.167 F 
ATOM     27  F   UNL A   1      32.083  20.996  24.387  1.00  0.00    -0.167 F 
ENDBRANCH  16  24
ENDBRANCH   4   7
ENDBRANCH   2   3
ENDBRANCH   1   2
BRANCH   1  28
ATOM     28  C   UNL A   1      37.739  20.326  24.780  1.00  0.00     0.023 C 
BRANCH  28  29
ATOM     29  C   UNL A   1      38.882  20.574  25.757  1.00  0.00     0.116 C 
BRANCH  29  30
ATOM     30  N   UNL A   1      39.888  19.524  25.740  1.00  0.00    -0.352 N 
ATOM     31  C   UNL A   1      41.216  19.604  26.087  1.00  0.00     0.251 C 
ATOM     32  H   UNL A   1      39.577  18.640  25.439  1.00  0.00     0.163 HD
ATOM     33  O   UNL A   1      41.961  18.650  25.919  1.00  0.00    -0.269 OA
BRANCH  31  34
ATOM     34  C   UNL A   1      41.741  20.877  26.620  1.00  0.00     0.039 A 
ATOM     35  C   UNL A   1      42.266  21.810  25.725  1.00  0.00     0.014 A 
ATOM     36  C   UNL A   1      41.669  21.163  27.986  1.00  0.00     0.014 A 
ATOM     37  C   UNL A   1      42.651  23.067  26.190  1.00  0.00     0.010 A 
ATOM     38  C   UNL A   1      41.994  22.437  28.439  1.00  0.00     0.010 A 
ATOM     39  C   UNL A   1      42.478  23.403  27.543  1.00  0.00    -0.014 A 
BRANCH  39  40
ATOM     40  C   UNL A   1      42.763  24.773  28.033  1.00  0.00     0.031 A 
ATOM     41  C   UNL A   1      44.156  25.160  28.435  1.00  0.00     0.074 A 
ATOM     42  C   UNL A   1      41.745  25.642  28.186  1.00  0.00     0.049 A 
ATOM     43  N   UNL A   1      44.584  26.286  28.946  1.00  0.00    -0.248 NA
ATOM     44  C   UNL A   1      45.201  24.139  28.263  1.00  0.00     0.031 C 
ATOM     45  C   UNL A   1      40.339  25.362  27.883  1.00  0.00     0.029 A 
ATOM     46  N   UNL A   1      41.735  26.934  28.648  1.00  0.00    -0.354 N 
ATOM     47  C   UNL A   1      45.943  26.106  29.167  1.00  0.00     0.074 A 
ATOM     48  C   UNL A   1      46.259  24.747  28.780  1.00  0.00     0.031 C 
ATOM     49  C   UNL A   1      39.607  26.455  28.149  1.00  0.00     0.029 A 
ATOM     50  C   UNL A   1      40.482  27.499  28.671  1.00  0.00     0.049 A 
ATOM     51  H   UNL A   1      42.547  27.410  28.935  1.00  0.00     0.167 HD
ATOM     52  C   UNL A   1      46.848  27.000  29.631  1.00  0.00     0.037 A 
ATOM     53  C   UNL A   1      40.085  28.719  29.076  1.00  0.00     0.037 A 
ATOM     54  C   UNL A   1      46.533  28.357  29.993  1.00  0.00     0.049 A 
ATOM     55  C   UNL A   1      41.109  29.691  29.591  1.00  0.00     0.074 A 
ATOM     56  C   UNL A   1      47.393  29.362  30.401  1.00  0.00     0.029 A 
ATOM     57  N   UNL A   1      45.257  28.897  29.993  1.00  0.00    -0.354 N 
ATOM     58  N   UNL A   1      42.404  29.534  29.722  1.00  0.00    -0.248 NA
ATOM     59  C   UNL A   1      40.617  31.010  30.012  1.00  0.00     0.031 C 
ATOM     60  C   UNL A   1      46.630  30.499  30.689  1.00  0.00     0.029 A 
ATOM     61  C   UNL A   1      45.301  30.214  30.421  1.00  0.00     0.049 A 
ATOM     62  H   UNL A   1      44.438  28.416  29.730  1.00  0.00     0.167 HD
ATOM     63  C   UNL A   1      42.883  30.735  30.225  1.00  0.00     0.074 A 
ATOM     64  C   UNL A   1      41.743  31.620  30.356  1.00  0.00     0.031 C 
ATOM     65  C   UNL A   1      44.154  31.076  30.551  1.00  0.00     0.037 A 
BRANCH  52  66
ATOM     66  C   UNL A   1      48.267  26.536  29.767  1.00  0.00     0.057 A 
ATOM     67  C   UNL A   1      48.724  25.893  30.925  1.00  0.00     0.134 A 
ATOM     68  C   UNL A   1      49.180  26.705  28.719  1.00  0.00     0.134 A 
ATOM     69  F   UNL A   1      47.902  25.711  31.971  1.00  0.00    -0.206 F 
ATOM     70  C   UNL A   1      50.044  25.456  31.046  1.00  0.00     0.040 A 
ATOM     71  C   UNL A   1      50.496  26.251  28.818  1.00  0.00     0.040 A 
ATOM     72  F   UNL A   1      48.807  27.309  27.581  1.00  0.00    -0.206 F 
ATOM     73  C   UNL A   1      50.933  25.629  29.987  1.00  0.00     0.006 A 
ENDBRANCH  52  66
BRANCH  53  74
ATOM     74  C   UNL A   1      38.653  29.098  28.993  1.00  0.00     0.057 A 
ATOM     75  C   UNL A   1      38.099  29.558  27.793  1.00  0.00     0.134 A 
ATOM     76  C   UNL A   1      37.808  29.012  30.105  1.00  0.00     0.134 A 
ATOM     77  F   UNL A   1      38.866  29.678  26.699  1.00  0.00    -0.206 F 
ATOM     78  C   UNL A   1      36.759  29.933  27.704  1.00  0.00     0.040 A 
ATOM     79  C   UNL A   1      36.459  29.363  30.024  1.00  0.00     0.040 A 
ATOM     80  F   UNL A   1      38.277  28.572  31.281  1.00  0.00    -0.206 F 
ATOM     81  C   UNL A   1      35.933  29.831  28.822  1.00  0.00     0.006 A 
ENDBRANCH  53  74
BRANCH  65  82
ATOM     82  C   UNL A   1      44.376  32.466  31.069  1.00  0.00     0.057 A 
ATOM     83  C   UNL A   1      44.609  33.543  30.204  1.00  0.00     0.134 A 
ATOM     84  C   UNL A   1      44.323  32.736  32.442  1.00  0.00     0.134 A 
ATOM     85  F   UNL A   1      44.686  33.346  28.879  1.00  0.00    -0.206 F 
ATOM     86  C   UNL A   1      44.800  34.838  30.688  1.00  0.00     0.040 A 
ATOM     87  C   UNL A   1      44.489  34.030  32.936  1.00  0.00     0.040 A 
ATOM     88  F   UNL A   1      44.096  31.749  33.322  1.00  0.00    -0.206 F 
ATOM     89  C   UNL A   1      44.734  35.085  32.058  1.00  0.00     0.006 A 
ENDBRANCH  65  82
ENDBRANCH  39  40
ENDBRANCH  31  34
ENDBRANCH  29  30
ENDBRANCH  28  29
ENDBRANCH   1  28
TORSDOF 15
ENDMDL
MODEL 2
REMARK VINA RESULT:     -11.7      1.667      6.219
REMARK SMILES CCc1cc(OC(F)(F)F)cc2c1O[C@@H](C(F)(F)F)C(C(=O)NCCCCNC(=O)c1ccc(-c3c4nc(c(-c5c(F)cccc5F)c5ccc([nH]5)c(-c5c(F)cccc5F)c5nc(c(-c6c(F)cccc6F)c6ccc3[nH]6)C=C5)C=C4)cc1)=C2
REMARK SMILES IDX 25 1 24 2 23 3 21 4 22 5 20 7 3 8 4 9 13 10 5 11 12 12 14 13
REMARK SMILES IDX 11 14 85 15 15 16 2 17 1 18 6 19 7 20 8 21 9 22 10 23 16 24
REMARK SMILES IDX 17 25 18 26 19 27 26 28 27 29 28 30 29 31 30 33 31 34 32 35
REMARK SMILES IDX 84 36 33 37 83 38 34 39 35 40 36 41 77 42 37 43 82 44 76 45
REMARK SMILES IDX 78 46 38 47 81 48 75 49 74 50 39 52 65 53 48 54 64 55 49 56
REMARK SMILES IDX 52 57 63 58 79 59 50 60 51 61 62 63 80 64 53 65 40 66 41 67
REMARK SMILES IDX 46 68 42 69 43 70 45 71 47 72 44 73 66 74 67 75 72 76 68 77
REMARK SMILES IDX 69 78 71 79 73 80 70 81 54 82 55 83 60 84 56 85 57 86 59 87
REMARK SMILES IDX 61 88 58 89
REMARK H PARENT 23 6 28 32 78 51 52 62
REMARK Flexibility Score: inf
ROOT
ATOM      1  C   UNL A   1      37.147  21.419  24.580  1.00  0.00     0.023 C 
ENDROOT
BRANCH   1   2
ATOM      2  C   UNL A   1      36.711  22.305  25.754  1.00  0.00     0.116 C 
BRANCH   2   3
ATOM      3  N   UNL A   1      35.596  21.692  26.450  1.00  0.00    -0.352 N 
ATOM      4  C   UNL A   1      34.326  22.113  26.688  1.00  0.00     0.251 C 
ATOM      5  O   UNL A   1      33.640  21.458  27.469  1.00  0.00    -0.270 OA
ATOM      6  H   UNL A   1      35.797  20.802  26.822  1.00  0.00     0.163 HD
BRANCH   4   7
ATOM      7  C   UNL A   1      33.719  23.280  25.995  1.00  0.00     0.067 C 
ATOM      8  C   UNL A   1      32.061  26.392  23.702  1.00  0.00    -0.002 A 
ATOM      9  C   UNL A   1      32.255  27.724  24.117  1.00  0.00     0.054 A 
ATOM     10  C   UNL A   1      32.616  25.353  24.464  1.00  0.00     0.131 A 
ATOM     11  C   UNL A   1      32.987  28.012  25.270  1.00  0.00     0.130 A 
ATOM     12  C   UNL A   1      33.315  25.633  25.635  1.00  0.00     0.021 A 
ATOM     13  O   UNL A   1      32.523  24.084  23.968  1.00  0.00    -0.475 OA
ATOM     14  C   UNL A   1      33.498  26.960  26.034  1.00  0.00     0.058 A 
ATOM     15  C   UNL A   1      33.919  24.547  26.389  1.00  0.00     0.025 C 
ATOM     16  C   UNL A   1      32.707  22.975  24.895  1.00  0.00     0.314 C 
BRANCH   8  17
ATOM     17  C   UNL A   1      31.267  26.106  22.447  1.00  0.00     0.036 C 
ATOM     18  C   UNL A   1      32.153  25.953  21.216  1.00  0.00     0.009 C 
ENDBRANCH   8  17
BRANCH  11  19
ATOM     19  O   UNL A   1      33.285  29.252  25.760  1.00  0.00    -0.406 OA
BRANCH  19  20
ATOM     20  C   UNL A   1      32.292  29.928  26.512  1.00  0.00     0.573 C 
ATOM     21  F   UNL A   1      31.628  30.824  25.752  1.00  0.00    -0.132 F 
ATOM     22  F   UNL A   1      31.416  29.052  27.049  1.00  0.00    -0.132 F 
ATOM     23  F   UNL A   1      32.893  30.596  27.520  1.00  0.00    -0.132 F 
ENDBRANCH  19  20
ENDBRANCH  11  19
BRANCH  16  24
ATOM     24  C   UNL A   1      32.963  21.716  24.034  1.00  0.00     0.429 C 
ATOM     25  F   UNL A   1      32.749  20.566  24.711  1.00  0.00    -0.167 F 
ATOM     26  F   UNL A   1      32.108  21.675  22.976  1.00  0.00    -0.167 F 
ATOM     27  F   UNL A   1      34.216  21.685  23.524  1.00  0.00    -0.167 F 
ENDBRANCH  16  24
ENDBRANCH   4   7
ENDBRANCH   2   3
ENDBRANCH   1   2
BRANCH   1  28
ATOM     28  C   UNL A   1      37.908  20.157  24.995  1.00  0.00     0.023 C 
BRANCH  28  29
ATOM     29  C   UNL A   1      39.181  20.414  25.791  1.00  0.00     0.116 C 
BRANCH  29  30
ATOM     30  N   UNL A   1      40.070  19.264  25.838  1.00  0.00    -0.352 N 
ATOM     31  C   UNL A   1      41.422  19.235  26.083  1.00  0.00     0.251 C 
ATOM     32  H   UNL A   1      39.647  18.390  25.672  1.00  0.00     0.163 HD
ATOM     33  O   UNL A   1      42.049  18.190  25.986  1.00  0.00    -0.269 OA
BRANCH  31  34
ATOM     34  C   UNL A   1      42.116  20.494  26.417  1.00  0.00     0.039 A 
ATOM     35  C   UNL A   1      42.633  21.268  25.376  1.00  0.00     0.014 A 
ATOM     36  C   UNL A   1      42.211  20.928  27.741  1.00  0.00     0.014 A 
ATOM     37  C   UNL A   1      43.181  22.520  25.657  1.00  0.00     0.010 A 
ATOM     38  C   UNL A   1      42.698  22.202  28.014  1.00  0.00     0.010 A 
ATOM     39  C   UNL A   1      43.177  23.012  26.973  1.00  0.00    -0.014 A 
BRANCH  39  40
ATOM     40  C   UNL A   1      43.638  24.389  27.274  1.00  0.00     0.031 A 
ATOM     41  C   UNL A   1      42.654  25.445  27.683  1.00  0.00     0.074 A 
ATOM     42  C   UNL A   1      44.937  24.700  27.102  1.00  0.00     0.049 A 
ATOM     43  N   UNL A   1      42.860  26.715  27.922  1.00  0.00    -0.248 NA
ATOM     44  C   UNL A   1      41.250  25.025  27.817  1.00  0.00     0.031 C 
ATOM     45  C   UNL A   1      45.978  23.773  26.653  1.00  0.00     0.029 A 
ATOM     46  N   UNL A   1      45.601  25.889  27.272  1.00  0.00    -0.354 N 
ATOM     47  C   UNL A   1      41.613  27.248  28.224  1.00  0.00     0.074 A 
ATOM     48  C   UNL A   1      40.650  26.175  28.089  1.00  0.00     0.031 C 
ATOM     49  C   UNL A   1      47.152  24.422  26.601  1.00  0.00     0.029 A 
ATOM     50  C   UNL A   1      46.942  25.815  26.980  1.00  0.00     0.049 A 
ATOM     51  H   UNL A   1      45.160  26.715  27.574  1.00  0.00     0.167 HD
ATOM     52  C   UNL A   1      41.303  28.511  28.598  1.00  0.00     0.037 A 
ATOM     53  C   UNL A   1      47.893  26.768  27.007  1.00  0.00     0.037 A 
ATOM     54  C   UNL A   1      42.267  29.570  28.752  1.00  0.00     0.049 A 
ATOM     55  C   UNL A   1      47.522  28.163  27.422  1.00  0.00     0.074 A 
ATOM     56  C   UNL A   1      42.063  30.864  29.199  1.00  0.00     0.029 A 
ATOM     57  N   UNL A   1      43.617  29.456  28.458  1.00  0.00    -0.354 N 
ATOM     58  N   UNL A   1      46.352  28.635  27.779  1.00  0.00    -0.248 NA
ATOM     59  C   UNL A   1      48.603  29.158  27.439  1.00  0.00     0.031 C 
ATOM     60  C   UNL A   1      43.283  31.545  29.136  1.00  0.00     0.029 A 
ATOM     61  C   UNL A   1      44.254  30.664  28.688  1.00  0.00     0.049 A 
ATOM     62  H   UNL A   1      44.058  28.637  28.132  1.00  0.00     0.167 HD
ATOM     63  C   UNL A   1      46.558  29.975  28.078  1.00  0.00     0.074 A 
ATOM     64  C   UNL A   1      47.969  30.236  27.880  1.00  0.00     0.031 C 
ATOM     65  C   UNL A   1      45.659  30.906  28.479  1.00  0.00     0.037 A 
BRANCH  52  66
ATOM     66  C   UNL A   1      39.860  28.815  28.872  1.00  0.00     0.057 A 
ATOM     67  C   UNL A   1      39.322  28.732  30.163  1.00  0.00     0.134 A 
ATOM     68  C   UNL A   1      39.006  29.226  27.841  1.00  0.00     0.134 A 
ATOM     69  F   UNL A   1      40.085  28.333  31.192  1.00  0.00    -0.206 F 
ATOM     70  C   UNL A   1      37.981  29.023  30.415  1.00  0.00     0.040 A 
ATOM     71  C   UNL A   1      37.669  29.543  28.085  1.00  0.00     0.040 A 
ATOM     72  F   UNL A   1      39.458  29.330  26.582  1.00  0.00    -0.206 F 
ATOM     73  C   UNL A   1      37.151  29.436  29.374  1.00  0.00     0.006 A 
ENDBRANCH  52  66
BRANCH  53  74
ATOM     74  C   UNL A   1      49.292  26.429  26.649  1.00  0.00     0.057 A 
ATOM     75  C   UNL A   1      49.771  26.628  25.349  1.00  0.00     0.134 A 
ATOM     76  C   UNL A   1      50.180  25.899  27.591  1.00  0.00     0.134 A 
ATOM     77  F   UNL A   1      48.958  27.117  24.399  1.00  0.00    -0.206 F 
ATOM     78  C   UNL A   1      51.079  26.300  24.994  1.00  0.00     0.040 A 
ATOM     79  C   UNL A   1      51.499  25.585  27.255  1.00  0.00     0.040 A 
ATOM     80  F   UNL A   1      49.784  25.692  28.855  1.00  0.00    -0.206 F 
ATOM     81  C   UNL A   1      51.949  25.780  25.950  1.00  0.00     0.006 A 
ENDBRANCH  53  74
BRANCH  65  82
ATOM     82  C   UNL A   1      46.179  32.288  28.740  1.00  0.00     0.057 A 
ATOM     83  C   UNL A   1      46.684  32.658  29.993  1.00  0.00     0.134 A 
ATOM     84  C   UNL A   1      46.206  33.248  27.721  1.00  0.00     0.134 A 
ATOM     85  F   UNL A   1      46.672  31.787  31.014  1.00  0.00    -0.206 F 
ATOM     86  C   UNL A   1      47.181  33.940  30.229  1.00  0.00     0.040 A 
ATOM     87  C   UNL A   1      46.722  34.526  27.937  1.00  0.00     0.040 A 
ATOM     88  F   UNL A   1      45.743  32.954  26.496  1.00  0.00    -0.206 F 
ATOM     89  C   UNL A   1      47.207  34.876  29.197  1.00  0.00     0.006 A 
ENDBRANCH  65  82
ENDBRANCH  39  40
ENDBRANCH  31  34
ENDBRANCH  29  30
ENDBRANCH  28  29
ENDBRANCH   1  28
TORSDOF 15
ENDMDL
MODEL 3
REMARK VINA RESULT:     -11.7      4.312      9.142
REMARK SMILES CCc1cc(OC(F)(F)F)cc2c1O[C@@H](C(F)(F)F)C(C(=O)NCCCCNC(=O)c1ccc(-c3c4nc(c(-c5c(F)cccc5F)c5ccc([nH]5)c(-c5c(F)cccc5F)c5nc(c(-c6c(F)cccc6F)c6ccc3[nH]6)C=C5)C=C4)cc1)=C2
REMARK SMILES IDX 25 1 24 2 23 3 21 4 22 5 20 7 3 8 4 9 13 10 5 11 12 12 14 13
REMARK SMILES IDX 11 14 85 15 15 16 2 17 1 18 6 19 7 20 8 21 9 22 10 23 16 24
REMARK SMILES IDX 17 25 18 26 19 27 26 28 27 29 28 30 29 31 30 33 31 34 32 35
REMARK SMILES IDX 84 36 33 37 83 38 34 39 35 40 36 41 77 42 37 43 82 44 76 45
REMARK SMILES IDX 78 46 38 47 81 48 75 49 74 50 39 52 65 53 48 54 64 55 49 56
REMARK SMILES IDX 52 57 63 58 79 59 50 60 51 61 62 63 80 64 53 65 40 66 41 67
REMARK SMILES IDX 46 68 42 69 43 70 45 71 47 72 44 73 66 74 67 75 72 76 68 77
REMARK SMILES IDX 69 78 71 79 73 80 70 81 54 82 55 83 60 84 56 85 57 86 59 87
REMARK SMILES IDX 61 88 58 89
REMARK H PARENT 23 6 28 32 78 51 52 62
REMARK Flexibility Score: inf
ROOT
ATOM      1  C   UNL A   1      31.990  30.137  26.734  1.00  0.00     0.023 C 
ENDROOT
BRANCH   1   2
ATOM      2  C   UNL A   1      33.272  29.688  26.022  1.00  0.00     0.116 C 
BRANCH   2   3
ATOM      3  N   UNL A   1      33.071  29.701  24.585  1.00  0.00    -0.352 N 
ATOM      4  C   UNL A   1      33.049  28.709  23.657  1.00  0.00     0.251 C 
ATOM      5  O   UNL A   1      33.036  29.031  22.472  1.00  0.00    -0.270 OA
ATOM      6  H   UNL A   1      32.923  30.600  24.211  1.00  0.00     0.163 HD
BRANCH   4   7
ATOM      7  C   UNL A   1      32.970  27.268  24.017  1.00  0.00     0.067 C 
ATOM      8  C   UNL A   1      32.396  23.268  25.182  1.00  0.00    -0.002 A 
ATOM      9  C   UNL A   1      33.504  22.520  25.624  1.00  0.00     0.054 A 
ATOM     10  C   UNL A   1      32.586  24.603  24.797  1.00  0.00     0.131 A 
ATOM     11  C   UNL A   1      34.777  23.093  25.677  1.00  0.00     0.130 A 
ATOM     12  C   UNL A   1      33.857  25.169  24.812  1.00  0.00     0.021 A 
ATOM     13  O   UNL A   1      31.475  25.340  24.498  1.00  0.00    -0.475 OA
ATOM     14  C   UNL A   1      34.948  24.412  25.252  1.00  0.00     0.058 A 
ATOM     15  C   UNL A   1      34.028  26.566  24.449  1.00  0.00     0.025 C 
ATOM     16  C   UNL A   1      31.654  26.558  23.718  1.00  0.00     0.314 C 
BRANCH   8  17
ATOM     17  C   UNL A   1      31.028  22.625  25.137  1.00  0.00     0.036 C 
ATOM     18  C   UNL A   1      30.347  22.600  26.501  1.00  0.00     0.009 C 
ENDBRANCH   8  17
BRANCH  11  19
ATOM     19  O   UNL A   1      35.923  22.498  26.122  1.00  0.00    -0.406 OA
BRANCH  19  20
ATOM     20  C   UNL A   1      36.558  21.558  25.273  1.00  0.00     0.573 C 
ATOM     21  F   UNL A   1      37.874  21.451  25.557  1.00  0.00    -0.132 F 
ATOM     22  F   UNL A   1      35.973  20.345  25.376  1.00  0.00    -0.132 F 
ATOM     23  F   UNL A   1      36.437  21.978  23.995  1.00  0.00    -0.132 F 
ENDBRANCH  19  20
ENDBRANCH  11  19
BRANCH  16  24
ATOM     24  C   UNL A   1      30.357  27.383  23.880  1.00  0.00     0.429 C 
ATOM     25  F   UNL A   1      30.081  28.145  22.798  1.00  0.00    -0.167 F 
ATOM     26  F   UNL A   1      29.280  26.564  24.026  1.00  0.00    -0.167 F 
ATOM     27  F   UNL A   1      30.387  28.184  24.971  1.00  0.00    -0.167 F 
ENDBRANCH  16  24
ENDBRANCH   4   7
ENDBRANCH   2   3
ENDBRANCH   1   2
BRANCH   1  28
ATOM     28  C   UNL A   1      31.755  31.650  26.707  1.00  0.00     0.023 C 
BRANCH  28  29
ATOM     29  C   UNL A   1      32.907  32.485  27.251  1.00  0.00     0.116 C 
BRANCH  29  30
ATOM     30  N   UNL A   1      32.522  33.848  27.580  1.00  0.00    -0.352 N 
ATOM     31  C   UNL A   1      33.064  34.688  28.523  1.00  0.00     0.251 C 
ATOM     32  H   UNL A   1      31.773  34.218  27.058  1.00  0.00     0.163 HD
ATOM     33  O   UNL A   1      32.557  35.776  28.751  1.00  0.00    -0.269 OA
BRANCH  31  34
ATOM     34  C   UNL A   1      34.238  34.234  29.294  1.00  0.00     0.039 A 
ATOM     35  C   UNL A   1      34.028  33.564  30.501  1.00  0.00     0.014 A 
ATOM     36  C   UNL A   1      35.532  34.428  28.805  1.00  0.00     0.014 A 
ATOM     37  C   UNL A   1      35.116  33.017  31.182  1.00  0.00     0.010 A 
ATOM     38  C   UNL A   1      36.609  33.829  29.451  1.00  0.00     0.010 A 
ATOM     39  C   UNL A   1      36.407  33.110  30.639  1.00  0.00    -0.014 A 
BRANCH  39  40
ATOM     40  C   UNL A   1      37.557  32.429  31.282  1.00  0.00     0.031 A 
ATOM     41  C   UNL A   1      38.228  31.272  30.602  1.00  0.00     0.074 A 
ATOM     42  C   UNL A   1      37.941  32.809  32.515  1.00  0.00     0.049 A 
ATOM     43  N   UNL A   1      39.202  30.512  31.037  1.00  0.00    -0.248 NA
ATOM     44  C   UNL A   1      37.724  30.903  29.271  1.00  0.00     0.031 C 
ATOM     45  C   UNL A   1      37.328  33.884  33.300  1.00  0.00     0.029 A 
ATOM     46  N   UNL A   1      38.933  32.327  33.331  1.00  0.00    -0.354 N 
ATOM     47  C   UNL A   1      39.419  29.571  30.039  1.00  0.00     0.074 A 
ATOM     48  C   UNL A   1      38.444  29.824  28.999  1.00  0.00     0.031 C 
ATOM     49  C   UNL A   1      37.969  33.990  34.474  1.00  0.00     0.029 A 
ATOM     50  C   UNL A   1      39.014  32.974  34.540  1.00  0.00     0.049 A 
ATOM     51  H   UNL A   1      39.530  31.587  33.074  1.00  0.00     0.167 HD
ATOM     52  C   UNL A   1      40.359  28.599  29.987  1.00  0.00     0.037 A 
ATOM     53  C   UNL A   1      39.832  32.764  35.587  1.00  0.00     0.037 A 
ATOM     54  C   UNL A   1      41.341  28.365  31.014  1.00  0.00     0.049 A 
ATOM     55  C   UNL A   1      40.864  31.675  35.506  1.00  0.00     0.074 A 
ATOM     56  C   UNL A   1      42.382  27.454  31.020  1.00  0.00     0.029 A 
ATOM     57  N   UNL A   1      41.398  29.047  32.219  1.00  0.00    -0.354 N 
ATOM     58  N   UNL A   1      41.109  30.842  34.524  1.00  0.00    -0.248 NA
ATOM     59  C   UNL A   1      41.734  31.498  36.677  1.00  0.00     0.031 C 
ATOM     60  C   UNL A   1      43.045  27.556  32.247  1.00  0.00     0.029 A 
ATOM     61  C   UNL A   1      42.441  28.558  32.989  1.00  0.00     0.049 A 
ATOM     62  H   UNL A   1      40.787  29.771  32.489  1.00  0.00     0.167 HD
ATOM     63  C   UNL A   1      42.169  30.054  34.950  1.00  0.00     0.074 A 
ATOM     64  C   UNL A   1      42.534  30.521  36.272  1.00  0.00     0.031 C 
ATOM     65  C   UNL A   1      42.785  29.033  34.306  1.00  0.00     0.037 A 
BRANCH  52  66
ATOM     66  C   UNL A   1      40.372  27.717  28.774  1.00  0.00     0.057 A 
ATOM     67  C   UNL A   1      41.128  28.036  27.639  1.00  0.00     0.134 A 
ATOM     68  C   UNL A   1      39.646  26.520  28.751  1.00  0.00     0.134 A 
ATOM     69  F   UNL A   1      41.836  29.175  27.593  1.00  0.00    -0.206 F 
ATOM     70  C   UNL A   1      41.144  27.208  26.515  1.00  0.00     0.040 A 
ATOM     71  C   UNL A   1      39.672  25.672  27.642  1.00  0.00     0.040 A 
ATOM     72  F   UNL A   1      38.904  26.152  29.806  1.00  0.00    -0.206 F 
ATOM     73  C   UNL A   1      40.418  26.019  26.517  1.00  0.00     0.006 A 
ENDBRANCH  52  66
BRANCH  53  74
ATOM     74  C   UNL A   1      39.723  33.617  36.796  1.00  0.00     0.057 A 
ATOM     75  C   UNL A   1      38.905  33.243  37.869  1.00  0.00     0.134 A 
ATOM     76  C   UNL A   1      40.428  34.820  36.909  1.00  0.00     0.134 A 
ATOM     77  F   UNL A   1      38.192  32.108  37.809  1.00  0.00    -0.206 F 
ATOM     78  C   UNL A   1      38.780  34.043  39.005  1.00  0.00     0.040 A 
ATOM     79  C   UNL A   1      40.329  35.620  38.050  1.00  0.00     0.040 A 
ATOM     80  F   UNL A   1      41.234  35.229  35.919  1.00  0.00    -0.206 F 
ATOM     81  C   UNL A   1      39.498  35.234  39.100  1.00  0.00     0.006 A 
ENDBRANCH  53  74
BRANCH  65  82
ATOM     82  C   UNL A   1      43.922  28.363  35.018  1.00  0.00     0.057 A 
ATOM     83  C   UNL A   1      43.720  27.236  35.825  1.00  0.00     0.134 A 
ATOM     84  C   UNL A   1      45.234  28.829  34.870  1.00  0.00     0.134 A 
ATOM     85  F   UNL A   1      42.484  26.750  36.018  1.00  0.00    -0.206 F 
ATOM     86  C   UNL A   1      44.783  26.606  36.474  1.00  0.00     0.040 A 
ATOM     87  C   UNL A   1      46.307  28.194  35.495  1.00  0.00     0.040 A 
ATOM     88  F   UNL A   1      45.494  29.901  34.105  1.00  0.00    -0.206 F 
ATOM     89  C   UNL A   1      46.082  27.082  36.305  1.00  0.00     0.006 A 
ENDBRANCH  65  82
ENDBRANCH  39  40
ENDBRANCH  31  34
ENDBRANCH  29  30
ENDBRANCH  28  29
ENDBRANCH   1  28
TORSDOF 15
ENDMDL
