MODEL 1
REMARK VINA RESULT:     -11.9      0.000      0.000
REMARK SMILES Cc1ccc(C)n1-c1ccccc1S[C@H](C)C(=O)NCCCCNC(=O)c1ccc(-c2c3nc(c(-c4c(F)cccc4F)c4ccc([nH]4)c(-c4c(F)cccc4F)c4nc(c(-c5c(F)cccc5F)c5ccc2[nH]5)C=C4)C=C3)cc1
REMARK SMILES IDX 21 1 20 2 19 3 17 4 18 5 15 7 16 8 14 9 13 10 8 11 9 12
REMARK SMILES IDX 10 13 12 14 11 15 7 16 1 17 2 18 3 19 4 20 5 21 6 22 22 23
REMARK SMILES IDX 23 24 24 25 25 26 26 28 27 29 28 30 80 31 29 32 79 33 30 34
REMARK SMILES IDX 31 35 32 36 73 37 33 38 78 39 72 40 74 41 34 42 77 43 71 44
REMARK SMILES IDX 70 45 35 47 61 48 44 49 60 50 45 51 48 52 59 53 75 54 46 55
REMARK SMILES IDX 47 56 58 58 76 59 49 60 36 61 37 62 42 63 38 64 39 65 41 66
REMARK SMILES IDX 43 67 40 68 62 69 63 70 68 71 64 72 65 73 67 74 69 75 66 76
REMARK SMILES IDX 50 77 51 78 56 79 52 80 53 81 55 82 57 83 54 84
REMARK H PARENT 19 6 24 27 74 46 48 57
REMARK Flexibility Score: inf
ROOT
ATOM      1  C   UNL A   1      32.447  27.214  26.131  1.00  0.00     0.023 C 
ENDROOT
BRANCH   1   2
ATOM      2  C   UNL A   1      32.750  25.725  26.052  1.00  0.00     0.116 C 
BRANCH   2   3
ATOM      3  N   UNL A   1      31.666  24.852  26.434  1.00  0.00    -0.355 N 
ATOM      4  C   UNL A   1      31.079  23.837  25.745  1.00  0.00     0.233 C 
ATOM      5  O   UNL A   1      30.365  23.078  26.415  1.00  0.00    -0.274 OA
ATOM      6  H   UNL A   1      31.294  25.016  27.331  1.00  0.00     0.163 HD
BRANCH   4   7
ATOM      7  C   UNL A   1      31.125  23.687  24.221  1.00  0.00     0.137 C 
ATOM      8  C   UNL A   1      30.284  24.738  23.525  1.00  0.00     0.030 C 
BRANCH   7   9
ATOM      9  S   UNL A   1      32.739  23.149  23.516  1.00  0.00    -0.111 SA
BRANCH   9  10
ATOM     10  C   UNL A   1      33.174  21.464  24.002  1.00  0.00     0.032 A 
ATOM     11  C   UNL A   1      34.390  21.197  24.682  1.00  0.00     0.059 A 
ATOM     12  C   UNL A   1      34.827  19.876  24.904  1.00  0.00     0.028 A 
ATOM     13  C   UNL A   1      34.065  18.799  24.465  1.00  0.00     0.002 A 
ATOM     14  C   UNL A   1      32.391  20.350  23.659  1.00  0.00     0.017 A 
ATOM     15  C   UNL A   1      32.842  19.037  23.854  1.00  0.00     0.001 A 
BRANCH  11  16
ATOM     16  N   UNL A   1      35.241  22.238  25.156  1.00  0.00    -0.317 N 
ATOM     17  C   UNL A   1      36.503  22.672  22.970  1.00  0.00     0.065 C 
ATOM     18  C   UNL A   1      36.235  22.884  24.422  1.00  0.00     0.020 A 
ATOM     19  C   UNL A   1      36.848  23.801  25.254  1.00  0.00     0.023 A 
ATOM     20  C   UNL A   1      36.156  23.806  26.477  1.00  0.00     0.023 A 
ATOM     21  C   UNL A   1      35.143  22.869  26.397  1.00  0.00     0.020 A 
ATOM     22  C   UNL A   1      34.159  22.531  27.465  1.00  0.00     0.065 C 
ENDBRANCH  11  16
ENDBRANCH   9  10
ENDBRANCH   7   9
ENDBRANCH   4   7
ENDBRANCH   2   3
ENDBRANCH   1   2
BRANCH   1  23
ATOM     23  C   UNL A   1      33.191  28.022  27.194  1.00  0.00     0.023 C 
BRANCH  23  24
ATOM     24  C   UNL A   1      34.376  28.877  26.743  1.00  0.00     0.116 C 
BRANCH  24  25
ATOM     25  N   UNL A   1      34.278  30.289  27.033  1.00  0.00    -0.352 N 
ATOM     26  C   UNL A   1      35.261  31.029  27.651  1.00  0.00     0.251 C 
ATOM     27  H   UNL A   1      33.451  30.754  26.771  1.00  0.00     0.163 HD
ATOM     28  O   UNL A   1      35.085  32.249  27.835  1.00  0.00    -0.269 OA
BRANCH  26  29
ATOM     29  C   UNL A   1      36.499  30.359  28.160  1.00  0.00     0.039 A 
ATOM     30  C   UNL A   1      37.601  30.291  27.324  1.00  0.00     0.014 A 
ATOM     31  C   UNL A   1      36.587  29.723  29.409  1.00  0.00     0.014 A 
ATOM     32  C   UNL A   1      38.775  29.626  27.752  1.00  0.00     0.010 A 
ATOM     33  C   UNL A   1      37.755  28.968  29.801  1.00  0.00     0.010 A 
ATOM     34  C   UNL A   1      38.886  28.871  28.972  1.00  0.00    -0.014 A 
BRANCH  34  35
ATOM     35  C   UNL A   1      39.925  27.678  28.936  1.00  0.00     0.031 A 
ATOM     36  C   UNL A   1      40.897  28.060  30.004  1.00  0.00     0.074 A 
ATOM     37  C   UNL A   1      40.275  26.557  28.196  1.00  0.00     0.049 A 
ATOM     38  N   UNL A   1      41.510  29.212  29.937  1.00  0.00    -0.248 NA
ATOM     39  C   UNL A   1      40.901  27.439  31.331  1.00  0.00     0.031 C 
ATOM     40  C   UNL A   1      39.701  26.099  26.923  1.00  0.00     0.029 A 
ATOM     41  N   UNL A   1      41.243  25.534  28.413  1.00  0.00    -0.354 N 
ATOM     42  C   UNL A   1      42.229  29.323  31.100  1.00  0.00     0.074 A 
ATOM     43  C   UNL A   1      41.613  28.355  31.997  1.00  0.00     0.031 C 
ATOM     44  C   UNL A   1      40.197  24.880  26.558  1.00  0.00     0.029 A 
ATOM     45  C   UNL A   1      41.191  24.408  27.519  1.00  0.00     0.049 A 
ATOM     46  H   UNL A   1      41.911  25.595  29.134  1.00  0.00     0.167 HD
ATOM     47  C   UNL A   1      43.559  29.584  30.946  1.00  0.00     0.037 A 
ATOM     48  C   UNL A   1      41.919  23.223  27.501  1.00  0.00     0.037 A 
ATOM     49  C   UNL A   1      44.356  28.399  31.107  1.00  0.00     0.049 A 
ATOM     50  C   UNL A   1      43.164  23.497  28.225  1.00  0.00     0.074 A 
ATOM     51  C   UNL A   1      44.350  27.372  32.031  1.00  0.00     0.029 A 
ATOM     52  N   UNL A   1      44.979  27.914  29.980  1.00  0.00    -0.354 N 
ATOM     53  N   UNL A   1      44.153  24.118  27.664  1.00  0.00    -0.248 NA
ATOM     54  C   UNL A   1      43.404  23.006  29.577  1.00  0.00     0.031 C 
ATOM     55  C   UNL A   1      44.501  26.194  31.266  1.00  0.00     0.029 A 
ATOM     56  C   UNL A   1      44.961  26.536  30.003  1.00  0.00     0.049 A 
ATOM     57  H   UNL A   1      45.375  28.465  29.268  1.00  0.00     0.167 HD
ATOM     58  C   UNL A   1      44.896  24.525  28.721  1.00  0.00     0.074 A 
ATOM     59  C   UNL A   1      44.571  23.614  29.801  1.00  0.00     0.031 C 
ATOM     60  C   UNL A   1      45.196  25.843  28.763  1.00  0.00     0.037 A 
BRANCH  47  61
ATOM     61  C   UNL A   1      43.861  30.684  29.968  1.00  0.00     0.057 A 
ATOM     62  C   UNL A   1      44.094  31.974  30.449  1.00  0.00     0.134 A 
ATOM     63  C   UNL A   1      43.798  30.529  28.570  1.00  0.00     0.134 A 
ATOM     64  F   UNL A   1      44.232  32.190  31.766  1.00  0.00    -0.206 F 
ATOM     65  C   UNL A   1      44.179  33.071  29.587  1.00  0.00     0.040 A 
ATOM     66  C   UNL A   1      43.821  31.621  27.704  1.00  0.00     0.040 A 
ATOM     67  F   UNL A   1      43.720  29.309  28.013  1.00  0.00    -0.206 F 
ATOM     68  C   UNL A   1      44.002  32.902  28.215  1.00  0.00     0.006 A 
ENDBRANCH  47  61
BRANCH  48  69
ATOM     69  C   UNL A   1      41.999  21.811  26.880  1.00  0.00     0.057 A 
ATOM     70  C   UNL A   1      42.887  21.527  25.787  1.00  0.00     0.134 A 
ATOM     71  C   UNL A   1      41.556  20.661  27.538  1.00  0.00     0.134 A 
ATOM     72  F   UNL A   1      43.380  22.497  25.005  1.00  0.00    -0.206 F 
ATOM     73  C   UNL A   1      43.384  20.250  25.470  1.00  0.00     0.040 A 
ATOM     74  C   UNL A   1      42.022  19.361  27.200  1.00  0.00     0.040 A 
ATOM     75  F   UNL A   1      40.724  20.759  28.584  1.00  0.00    -0.206 F 
ATOM     76  C   UNL A   1      42.966  19.154  26.195  1.00  0.00     0.006 A 
ENDBRANCH  48  69
BRANCH  60  77
ATOM     77  C   UNL A   1      45.588  26.513  27.459  1.00  0.00     0.057 A 
ATOM     78  C   UNL A   1      44.738  26.916  26.407  1.00  0.00     0.134 A 
ATOM     79  C   UNL A   1      46.958  26.722  27.248  1.00  0.00     0.134 A 
ATOM     80  F   UNL A   1      43.402  26.880  26.505  1.00  0.00    -0.206 F 
ATOM     81  C   UNL A   1      45.239  27.418  25.198  1.00  0.00     0.040 A 
ATOM     82  C   UNL A   1      47.463  27.275  26.068  1.00  0.00     0.040 A 
ATOM     83  F   UNL A   1      47.842  26.405  28.207  1.00  0.00    -0.206 F 
ATOM     84  C   UNL A   1      46.605  27.603  25.027  1.00  0.00     0.006 A 
ENDBRANCH  60  77
ENDBRANCH  34  35
ENDBRANCH  26  29
ENDBRANCH  24  25
ENDBRANCH  23  24
ENDBRANCH   1  23
TORSDOF 14
ENDMDL
MODEL 2
REMARK VINA RESULT:     -11.7      1.268      2.165
REMARK SMILES Cc1ccc(C)n1-c1ccccc1S[C@H](C)C(=O)NCCCCNC(=O)c1ccc(-c2c3nc(c(-c4c(F)cccc4F)c4ccc([nH]4)c(-c4c(F)cccc4F)c4nc(c(-c5c(F)cccc5F)c5ccc2[nH]5)C=C4)C=C3)cc1
REMARK SMILES IDX 21 1 20 2 19 3 17 4 18 5 15 7 16 8 14 9 13 10 8 11 9 12
REMARK SMILES IDX 10 13 12 14 11 15 7 16 1 17 2 18 3 19 4 20 5 21 6 22 22 23
REMARK SMILES IDX 23 24 24 25 25 26 26 28 27 29 28 30 80 31 29 32 79 33 30 34
REMARK SMILES IDX 31 35 32 36 73 37 33 38 78 39 72 40 74 41 34 42 77 43 71 44
REMARK SMILES IDX 70 45 35 47 61 48 44 49 60 50 45 51 48 52 59 53 75 54 46 55
REMARK SMILES IDX 47 56 58 58 76 59 49 60 36 61 37 62 42 63 38 64 39 65 41 66
REMARK SMILES IDX 43 67 40 68 62 69 63 70 68 71 64 72 65 73 67 74 69 75 66 76
REMARK SMILES IDX 50 77 51 78 56 79 52 80 53 81 55 82 57 83 54 84
REMARK H PARENT 19 6 24 27 74 46 48 57
REMARK Flexibility Score: inf
ROOT
ATOM      1  C   UNL A   1      33.409  28.970  24.738  1.00  0.00     0.023 C 
ENDROOT
BRANCH   1   2
ATOM      2  C   UNL A   1      32.499  28.058  23.930  1.00  0.00     0.116 C 
BRANCH   2   3
ATOM      3  N   UNL A   1      33.075  27.526  22.717  1.00  0.00    -0.355 N 
ATOM      4  C   UNL A   1      32.879  26.322  22.114  1.00  0.00     0.233 C 
ATOM      5  O   UNL A   1      33.281  26.238  20.945  1.00  0.00    -0.274 OA
ATOM      6  H   UNL A   1      33.706  28.125  22.257  1.00  0.00     0.163 HD
BRANCH   4   7
ATOM      7  C   UNL A   1      32.356  25.072  22.828  1.00  0.00     0.137 C 
ATOM      8  C   UNL A   1      30.840  25.033  22.859  1.00  0.00     0.030 C 
BRANCH   7   9
ATOM      9  S   UNL A   1      33.336  23.534  22.577  1.00  0.00    -0.111 SA
BRANCH   9  10
ATOM     10  C   UNL A   1      34.561  23.279  23.880  1.00  0.00     0.032 A 
ATOM     11  C   UNL A   1      34.159  23.138  25.234  1.00  0.00     0.059 A 
ATOM     12  C   UNL A   1      35.106  23.122  26.278  1.00  0.00     0.028 A 
ATOM     13  C   UNL A   1      36.464  23.235  25.999  1.00  0.00     0.002 A 
ATOM     14  C   UNL A   1      35.943  23.296  23.636  1.00  0.00     0.017 A 
ATOM     15  C   UNL A   1      36.881  23.310  24.678  1.00  0.00     0.001 A 
BRANCH  11  16
ATOM     16  N   UNL A   1      32.790  23.029  25.615  1.00  0.00    -0.317 N 
ATOM     17  C   UNL A   1      32.526  20.510  25.234  1.00  0.00     0.065 C 
ATOM     18  C   UNL A   1      32.016  21.870  25.576  1.00  0.00     0.020 A 
ATOM     19  C   UNL A   1      30.741  22.196  25.994  1.00  0.00     0.023 A 
ATOM     20  C   UNL A   1      30.751  23.541  26.404  1.00  0.00     0.023 A 
ATOM     21  C   UNL A   1      32.026  24.037  26.204  1.00  0.00     0.020 A 
ATOM     22  C   UNL A   1      32.495  25.422  26.495  1.00  0.00     0.065 C 
ENDBRANCH  11  16
ENDBRANCH   9  10
ENDBRANCH   7   9
ENDBRANCH   4   7
ENDBRANCH   2   3
ENDBRANCH   1   2
BRANCH   1  23
ATOM     23  C   UNL A   1      34.276  28.317  25.814  1.00  0.00     0.023 C 
BRANCH  23  24
ATOM     24  C   UNL A   1      34.110  28.799  27.256  1.00  0.00     0.116 C 
BRANCH  24  25
ATOM     25  N   UNL A   1      34.035  30.231  27.433  1.00  0.00    -0.352 N 
ATOM     26  C   UNL A   1      35.080  31.020  27.861  1.00  0.00     0.251 C 
ATOM     27  H   UNL A   1      33.179  30.674  27.234  1.00  0.00     0.163 HD
ATOM     28  O   UNL A   1      34.917  32.252  27.960  1.00  0.00    -0.269 OA
BRANCH  26  29
ATOM     29  C   UNL A   1      36.376  30.394  28.274  1.00  0.00     0.039 A 
ATOM     30  C   UNL A   1      37.363  30.236  27.315  1.00  0.00     0.014 A 
ATOM     31  C   UNL A   1      36.625  29.883  29.558  1.00  0.00     0.014 A 
ATOM     32  C   UNL A   1      38.585  29.607  27.654  1.00  0.00     0.010 A 
ATOM     33  C   UNL A   1      37.836  29.161  29.871  1.00  0.00     0.010 A 
ATOM     34  C   UNL A   1      38.854  28.975  28.919  1.00  0.00    -0.014 A 
BRANCH  34  35
ATOM     35  C   UNL A   1      39.886  27.776  28.869  1.00  0.00     0.031 A 
ATOM     36  C   UNL A   1      40.884  28.162  29.911  1.00  0.00     0.074 A 
ATOM     37  C   UNL A   1      40.212  26.647  28.132  1.00  0.00     0.049 A 
ATOM     38  N   UNL A   1      41.501  29.310  29.819  1.00  0.00    -0.248 NA
ATOM     39  C   UNL A   1      40.916  27.554  31.243  1.00  0.00     0.031 C 
ATOM     40  C   UNL A   1      39.606  26.181  26.876  1.00  0.00     0.029 A 
ATOM     41  N   UNL A   1      41.180  25.621  28.335  1.00  0.00    -0.354 N 
ATOM     42  C   UNL A   1      42.248  29.428  30.964  1.00  0.00     0.074 A 
ATOM     43  C   UNL A   1      41.648  28.471  31.884  1.00  0.00     0.031 C 
ATOM     44  C   UNL A   1      40.087  24.956  26.511  1.00  0.00     0.029 A 
ATOM     45  C   UNL A   1      41.101  24.487  27.453  1.00  0.00     0.049 A 
ATOM     46  H   UNL A   1      41.865  25.684  29.040  1.00  0.00     0.167 HD
ATOM     47  C   UNL A   1      43.575  29.681  30.777  1.00  0.00     0.037 A 
ATOM     48  C   UNL A   1      41.823  23.298  27.428  1.00  0.00     0.037 A 
ATOM     49  C   UNL A   1      44.369  28.494  30.930  1.00  0.00     0.049 A 
ATOM     50  C   UNL A   1      43.085  23.572  28.121  1.00  0.00     0.074 A 
ATOM     51  C   UNL A   1      44.380  27.474  31.863  1.00  0.00     0.029 A 
ATOM     52  N   UNL A   1      44.963  27.995  29.793  1.00  0.00    -0.354 N 
ATOM     53  N   UNL A   1      44.064  24.183  27.531  1.00  0.00    -0.248 NA
ATOM     54  C   UNL A   1      43.355  23.092  29.472  1.00  0.00     0.031 C 
ATOM     55  C   UNL A   1      44.507  26.289  31.105  1.00  0.00     0.029 A 
ATOM     56  C   UNL A   1      44.939  26.618  29.829  1.00  0.00     0.049 A 
ATOM     57  H   UNL A   1      45.345  28.538  29.067  1.00  0.00     0.167 HD
ATOM     58  C   UNL A   1      44.834  24.596  28.567  1.00  0.00     0.074 A 
ATOM     59  C   UNL A   1      44.530  23.696  29.662  1.00  0.00     0.031 C 
ATOM     60  C   UNL A   1      45.141  25.913  28.590  1.00  0.00     0.037 A 
BRANCH  47  61
ATOM     61  C   UNL A   1      43.860  30.771  29.782  1.00  0.00     0.057 A 
ATOM     62  C   UNL A   1      44.089  32.068  30.245  1.00  0.00     0.134 A 
ATOM     63  C   UNL A   1      43.783  30.598  28.387  1.00  0.00     0.134 A 
ATOM     64  F   UNL A   1      44.240  32.301  31.557  1.00  0.00    -0.206 F 
ATOM     65  C   UNL A   1      44.158  33.155  29.368  1.00  0.00     0.040 A 
ATOM     66  C   UNL A   1      43.790  31.679  27.507  1.00  0.00     0.040 A 
ATOM     67  F   UNL A   1      43.707  29.370  27.846  1.00  0.00    -0.206 F 
ATOM     68  C   UNL A   1      43.967  32.967  28.000  1.00  0.00     0.006 A 
ENDBRANCH  47  61
BRANCH  48  69
ATOM     69  C   UNL A   1      41.881  21.881  26.819  1.00  0.00     0.057 A 
ATOM     70  C   UNL A   1      42.784  21.567  25.746  1.00  0.00     0.134 A 
ATOM     71  C   UNL A   1      41.397  20.746  27.475  1.00  0.00     0.134 A 
ATOM     72  F   UNL A   1      43.316  22.520  24.968  1.00  0.00    -0.206 F 
ATOM     73  C   UNL A   1      43.257  20.276  25.448  1.00  0.00     0.040 A 
ATOM     74  C   UNL A   1      41.838  19.432  27.156  1.00  0.00     0.040 A 
ATOM     75  F   UNL A   1      40.547  20.871  28.503  1.00  0.00    -0.206 F 
ATOM     76  C   UNL A   1      42.797  19.196  26.171  1.00  0.00     0.006 A 
ENDBRANCH  48  69
BRANCH  60  77
ATOM     77  C   UNL A   1      45.507  26.568  27.271  1.00  0.00     0.057 A 
ATOM     78  C   UNL A   1      44.635  26.957  26.231  1.00  0.00     0.134 A 
ATOM     79  C   UNL A   1      46.871  26.779  27.031  1.00  0.00     0.134 A 
ATOM     80  F   UNL A   1      43.301  26.918  26.355  1.00  0.00    -0.206 F 
ATOM     81  C   UNL A   1      45.111  27.447  25.007  1.00  0.00     0.040 A 
ATOM     82  C   UNL A   1      47.352  27.320  25.836  1.00  0.00     0.040 A 
ATOM     83  F   UNL A   1      47.774  26.476  27.976  1.00  0.00    -0.206 F 
ATOM     84  C   UNL A   1      46.473  27.633  24.808  1.00  0.00     0.006 A 
ENDBRANCH  60  77
ENDBRANCH  34  35
ENDBRANCH  26  29
ENDBRANCH  24  25
ENDBRANCH  23  24
ENDBRANCH   1  23
TORSDOF 14
ENDMDL
MODEL 3
REMARK VINA RESULT:     -11.6      3.562      8.745
REMARK SMILES Cc1ccc(C)n1-c1ccccc1S[C@H](C)C(=O)NCCCCNC(=O)c1ccc(-c2c3nc(c(-c4c(F)cccc4F)c4ccc([nH]4)c(-c4c(F)cccc4F)c4nc(c(-c5c(F)cccc5F)c5ccc2[nH]5)C=C4)C=C3)cc1
REMARK SMILES IDX 21 1 20 2 19 3 17 4 18 5 15 7 16 8 14 9 13 10 8 11 9 12
REMARK SMILES IDX 10 13 12 14 11 15 7 16 1 17 2 18 3 19 4 20 5 21 6 22 22 23
REMARK SMILES IDX 23 24 24 25 25 26 26 28 27 29 28 30 80 31 29 32 79 33 30 34
REMARK SMILES IDX 31 35 32 36 73 37 33 38 78 39 72 40 74 41 34 42 77 43 71 44
REMARK SMILES IDX 70 45 35 47 61 48 44 49 60 50 45 51 48 52 59 53 75 54 46 55
REMARK SMILES IDX 47 56 58 58 76 59 49 60 36 61 37 62 42 63 38 64 39 65 41 66
REMARK SMILES IDX 43 67 40 68 62 69 63 70 68 71 64 72 65 73 67 74 69 75 66 76
REMARK SMILES IDX 50 77 51 78 56 79 52 80 53 81 55 82 57 83 54 84
REMARK H PARENT 19 6 24 27 74 46 48 57
REMARK Flexibility Score: inf
ROOT
ATOM      1  C   UNL A   1      35.561  23.206  24.015  1.00  0.00     0.023 C 
ENDROOT
BRANCH   1   2
ATOM      2  C   UNL A   1      34.224  22.557  23.690  1.00  0.00     0.116 C 
BRANCH   2   3
ATOM      3  N   UNL A   1      33.339  22.367  24.814  1.00  0.00    -0.355 N 
ATOM      4  C   UNL A   1      32.083  22.846  25.027  1.00  0.00     0.233 C 
ATOM      5  O   UNL A   1      31.451  22.301  25.942  1.00  0.00    -0.274 OA
ATOM      6  H   UNL A   1      33.698  21.803  25.537  1.00  0.00     0.163 HD
BRANCH   4   7
ATOM      7  C   UNL A   1      31.499  24.079  24.330  1.00  0.00     0.137 C 
ATOM      8  C   UNL A   1      30.656  23.701  23.128  1.00  0.00     0.030 C 
BRANCH   7   9
ATOM      9  S   UNL A   1      31.004  25.466  25.435  1.00  0.00    -0.111 SA
BRANCH   9  10
ATOM     10  C   UNL A   1      30.498  26.934  24.510  1.00  0.00     0.032 A 
ATOM     11  C   UNL A   1      31.183  28.166  24.675  1.00  0.00     0.059 A 
ATOM     12  C   UNL A   1      30.690  29.356  24.105  1.00  0.00     0.028 A 
ATOM     13  C   UNL A   1      29.518  29.346  23.356  1.00  0.00     0.002 A 
ATOM     14  C   UNL A   1      29.373  26.951  23.671  1.00  0.00     0.017 A 
ATOM     15  C   UNL A   1      28.868  28.141  23.130  1.00  0.00     0.001 A 
BRANCH  11  16
ATOM     16  N   UNL A   1      32.383  28.274  25.437  1.00  0.00    -0.317 N 
ATOM     17  C   UNL A   1      34.020  28.459  23.476  1.00  0.00     0.065 C 
ATOM     18  C   UNL A   1      33.677  28.355  24.924  1.00  0.00     0.020 A 
ATOM     19  C   UNL A   1      34.553  28.414  25.991  1.00  0.00     0.023 A 
ATOM     20  C   UNL A   1      33.793  28.485  27.171  1.00  0.00     0.023 A 
ATOM     21  C   UNL A   1      32.457  28.437  26.821  1.00  0.00     0.020 A 
ATOM     22  C   UNL A   1      31.293  28.479  27.752  1.00  0.00     0.065 C 
ENDBRANCH  11  16
ENDBRANCH   9  10
ENDBRANCH   7   9
ENDBRANCH   4   7
ENDBRANCH   2   3
ENDBRANCH   1   2
BRANCH   1  23
ATOM     23  C   UNL A   1      35.915  23.374  25.493  1.00  0.00     0.023 C 
BRANCH  23  24
ATOM     24  C   UNL A   1      37.295  23.935  25.838  1.00  0.00     0.116 C 
BRANCH  24  25
ATOM     25  N   UNL A   1      38.361  22.965  25.931  1.00  0.00    -0.352 N 
ATOM     26  C   UNL A   1      39.564  23.186  26.564  1.00  0.00     0.251 C 
ATOM     27  H   UNL A   1      38.218  22.085  25.513  1.00  0.00     0.163 HD
ATOM     28  O   UNL A   1      40.411  22.272  26.606  1.00  0.00    -0.269 OA
BRANCH  26  29
ATOM     29  C   UNL A   1      39.879  24.534  27.133  1.00  0.00     0.039 A 
ATOM     30  C   UNL A   1      39.353  24.864  28.371  1.00  0.00     0.014 A 
ATOM     31  C   UNL A   1      40.611  25.520  26.451  1.00  0.00     0.014 A 
ATOM     32  C   UNL A   1      39.590  26.146  28.922  1.00  0.00     0.010 A 
ATOM     33  C   UNL A   1      40.771  26.855  26.979  1.00  0.00     0.010 A 
ATOM     34  C   UNL A   1      40.242  27.225  28.228  1.00  0.00    -0.014 A 
BRANCH  34  35
ATOM     35  C   UNL A   1      39.793  28.678  28.665  1.00  0.00     0.031 A 
ATOM     36  C   UNL A   1      41.096  29.349  28.952  1.00  0.00     0.074 A 
ATOM     37  C   UNL A   1      38.666  29.425  28.978  1.00  0.00     0.049 A 
ATOM     38  N   UNL A   1      41.909  28.830  29.833  1.00  0.00    -0.248 NA
ATOM     39  C   UNL A   1      41.720  30.299  28.028  1.00  0.00     0.031 C 
ATOM     40  C   UNL A   1      37.275  28.960  29.086  1.00  0.00     0.029 A 
ATOM     41  N   UNL A   1      38.489  30.807  29.277  1.00  0.00    -0.354 N 
ATOM     42  C   UNL A   1      43.050  29.589  29.786  1.00  0.00     0.074 A 
ATOM     43  C   UNL A   1      42.969  30.281  28.507  1.00  0.00     0.031 C 
ATOM     44  C   UNL A   1      36.412  30.001  29.276  1.00  0.00     0.029 A 
ATOM     45  C   UNL A   1      37.129  31.271  29.364  1.00  0.00     0.049 A 
ATOM     46  H   UNL A   1      39.254  31.411  29.417  1.00  0.00     0.167 HD
ATOM     47  C   UNL A   1      43.466  30.099  30.981  1.00  0.00     0.037 A 
ATOM     48  C   UNL A   1      36.612  32.547  29.554  1.00  0.00     0.037 A 
ATOM     49  C   UNL A   1      43.102  31.481  31.126  1.00  0.00     0.049 A 
ATOM     50  C   UNL A   1      37.669  33.325  30.205  1.00  0.00     0.074 A 
ATOM     51  C   UNL A   1      43.177  32.574  30.283  1.00  0.00     0.029 A 
ATOM     52  N   UNL A   1      42.143  31.774  32.068  1.00  0.00    -0.354 N 
ATOM     53  N   UNL A   1      37.900  33.225  31.476  1.00  0.00    -0.248 NA
ATOM     54  C   UNL A   1      38.456  34.324  29.491  1.00  0.00     0.031 C 
ATOM     55  C   UNL A   1      41.941  33.239  30.440  1.00  0.00     0.029 A 
ATOM     56  C   UNL A   1      41.329  32.782  31.597  1.00  0.00     0.049 A 
ATOM     57  H   UNL A   1      42.051  31.331  32.942  1.00  0.00     0.167 HD
ATOM     58  C   UNL A   1      39.146  33.743  31.602  1.00  0.00     0.074 A 
ATOM     59  C   UNL A   1      39.317  34.626  30.465  1.00  0.00     0.031 C 
ATOM     60  C   UNL A   1      40.051  32.963  32.235  1.00  0.00     0.037 A 
BRANCH  47  61
ATOM     61  C   UNL A   1      43.478  29.102  32.105  1.00  0.00     0.057 A 
ATOM     62  C   UNL A   1      44.689  28.523  32.485  1.00  0.00     0.134 A 
ATOM     63  C   UNL A   1      42.314  28.607  32.726  1.00  0.00     0.134 A 
ATOM     64  F   UNL A   1      45.846  28.985  31.987  1.00  0.00    -0.206 F 
ATOM     65  C   UNL A   1      44.737  27.449  33.379  1.00  0.00     0.040 A 
ATOM     66  C   UNL A   1      42.343  27.499  33.571  1.00  0.00     0.040 A 
ATOM     67  F   UNL A   1      41.123  29.196  32.530  1.00  0.00    -0.206 F 
ATOM     68  C   UNL A   1      43.560  26.908  33.892  1.00  0.00     0.006 A 
ENDBRANCH  47  61
BRANCH  48  69
ATOM     69  C   UNL A   1      35.323  33.397  29.500  1.00  0.00     0.057 A 
ATOM     70  C   UNL A   1      34.606  33.740  30.697  1.00  0.00     0.134 A 
ATOM     71  C   UNL A   1      34.984  34.203  28.410  1.00  0.00     0.134 A 
ATOM     72  F   UNL A   1      34.760  33.049  31.836  1.00  0.00    -0.206 F 
ATOM     73  C   UNL A   1      33.747  34.846  30.828  1.00  0.00     0.040 A 
ATOM     74  C   UNL A   1      34.087  35.300  28.522  1.00  0.00     0.040 A 
ATOM     75  F   UNL A   1      35.570  34.012  27.221  1.00  0.00    -0.206 F 
ATOM     76  C   UNL A   1      33.498  35.651  29.737  1.00  0.00     0.006 A 
ENDBRANCH  48  69
BRANCH  60  77
ATOM     77  C   UNL A   1      39.586  32.212  33.469  1.00  0.00     0.057 A 
ATOM     78  C   UNL A   1      38.807  31.036  33.519  1.00  0.00     0.134 A 
ATOM     79  C   UNL A   1      39.931  32.766  34.709  1.00  0.00     0.134 A 
ATOM     80  F   UNL A   1      38.490  30.333  32.423  1.00  0.00    -0.206 F 
ATOM     81  C   UNL A   1      38.341  30.505  34.730  1.00  0.00     0.040 A 
ATOM     82  C   UNL A   1      39.519  32.212  35.923  1.00  0.00     0.040 A 
ATOM     83  F   UNL A   1      40.701  33.864  34.763  1.00  0.00    -0.206 F 
ATOM     84  C   UNL A   1      38.700  31.090  35.937  1.00  0.00     0.006 A 
ENDBRANCH  60  77
ENDBRANCH  34  35
ENDBRANCH  26  29
ENDBRANCH  24  25
ENDBRANCH  23  24
ENDBRANCH   1  23
TORSDOF 14
ENDMDL
