MODEL 1
REMARK VINA RESULT:      -9.5      0.000      0.000
REMARK SMILES CN(C)c1cccc(C(=O)CCCC(=O)NCCCCNC(=O)c2ccc(-c3c4nc(c(-c5c(F)cccc5F)c5ccc([nH]5)c(-c5c(F)cccc5F)c5nc(c(-c6c(F)cccc6F)c6ccc3[nH]6)C=C5)C=C4)cc2)c1
REMARK SMILES IDX 17 1 16 2 14 3 15 4 13 6 12 7 11 8 9 9 10 10 8 11 4 12 5 13
REMARK SMILES IDX 78 14 6 15 7 16 2 17 1 18 3 19 18 20 19 21 20 22 21 23 22 24
REMARK SMILES IDX 23 26 24 27 25 28 77 29 26 30 76 31 27 32 28 33 29 34 70 35
REMARK SMILES IDX 30 36 75 37 69 38 71 39 31 40 74 41 68 42 67 43 32 45 58 46
REMARK SMILES IDX 41 47 57 48 42 49 45 50 56 51 72 52 43 53 44 54 55 56 73 57
REMARK SMILES IDX 46 58 33 59 34 60 39 61 35 62 36 63 38 64 40 65 37 66 59 67
REMARK SMILES IDX 60 68 65 69 61 70 62 71 64 72 66 73 63 74 47 75 48 76 53 77
REMARK SMILES IDX 49 78 50 79 52 80 54 81 51 82
REMARK H PARENT 16 5 21 25 71 44 45 55
REMARK Flexibility Score: inf
ROOT
ATOM      1  C   UNL A   1      46.413  19.883  24.877  1.00  0.00     0.116 C 
ENDROOT
BRANCH   1   2
ATOM      2  N   UNL A   1      45.576  20.771  24.100  1.00  0.00    -0.356 N 
ATOM      3  C   UNL A   1      45.251  22.082  24.178  1.00  0.00     0.220 C 
ATOM      4  O   UNL A   1      44.504  22.488  23.278  1.00  0.00    -0.275 OA
ATOM      5  H   UNL A   1      45.145  20.318  23.342  1.00  0.00     0.163 HD
BRANCH   3   6
ATOM      6  C   UNL A   1      45.814  23.092  25.175  1.00  0.00     0.100 C 
BRANCH   6   7
ATOM      7  C   UNL A   1      45.662  24.604  25.016  1.00  0.00     0.018 C 
BRANCH   7   8
ATOM      8  C   UNL A   1      46.833  25.579  25.121  1.00  0.00     0.081 C 
BRANCH   8   9
ATOM      9  C   UNL A   1      46.698  27.048  24.702  1.00  0.00     0.162 C 
ATOM     10  O   UNL A   1      47.067  27.385  23.573  1.00  0.00    -0.294 OA
BRANCH   9  11
ATOM     11  C   UNL A   1      46.004  28.089  25.534  1.00  0.00     0.020 A 
ATOM     12  C   UNL A   1      45.896  30.330  26.582  1.00  0.00     0.037 A 
ATOM     13  C   UNL A   1      44.615  30.009  27.039  1.00  0.00     0.026 A 
ATOM     14  C   UNL A   1      46.550  29.339  25.832  1.00  0.00     0.037 A 
ATOM     15  C   UNL A   1      44.031  28.768  26.760  1.00  0.00     0.003 A 
ATOM     16  C   UNL A   1      44.722  27.813  26.012  1.00  0.00     0.012 A 
BRANCH  12  17
ATOM     17  N   UNL A   1      46.491  31.559  26.840  1.00  0.00    -0.378 N 
ATOM     18  C   UNL A   1      47.576  31.704  27.805  1.00  0.00     0.143 C 
ATOM     19  C   UNL A   1      45.863  32.784  26.359  1.00  0.00     0.143 C 
ENDBRANCH  12  17
ENDBRANCH   9  11
ENDBRANCH   8   9
ENDBRANCH   7   8
ENDBRANCH   6   7
ENDBRANCH   3   6
ENDBRANCH   1   2
BRANCH   1  20
ATOM     20  C   UNL A   1      45.636  18.652  25.352  1.00  0.00     0.023 C 
BRANCH  20  21
ATOM     21  C   UNL A   1      44.145  18.730  25.039  1.00  0.00     0.023 C 
BRANCH  21  22
ATOM     22  C   UNL A   1      43.251  18.457  26.246  1.00  0.00     0.116 C 
BRANCH  22  23
ATOM     23  N   UNL A   1      41.829  18.586  25.955  1.00  0.00    -0.352 N 
ATOM     24  C   UNL A   1      41.007  19.675  26.151  1.00  0.00     0.251 C 
ATOM     25  H   UNL A   1      41.398  17.790  25.568  1.00  0.00     0.163 HD
ATOM     26  O   UNL A   1      39.806  19.606  25.944  1.00  0.00    -0.269 OA
BRANCH  24  27
ATOM     27  C   UNL A   1      41.605  20.925  26.666  1.00  0.00     0.039 A 
ATOM     28  C   UNL A   1      41.993  21.910  25.757  1.00  0.00     0.014 A 
ATOM     29  C   UNL A   1      41.686  21.149  28.042  1.00  0.00     0.014 A 
ATOM     30  C   UNL A   1      42.378  23.166  26.233  1.00  0.00     0.010 A 
ATOM     31  C   UNL A   1      41.990  22.423  28.508  1.00  0.00     0.010 A 
ATOM     32  C   UNL A   1      42.329  23.446  27.607  1.00  0.00    -0.014 A 
BRANCH  32  33
ATOM     33  C   UNL A   1      42.616  24.806  28.130  1.00  0.00     0.031 A 
ATOM     34  C   UNL A   1      44.009  25.161  28.570  1.00  0.00     0.074 A 
ATOM     35  C   UNL A   1      41.611  25.690  28.287  1.00  0.00     0.049 A 
ATOM     36  N   UNL A   1      44.441  26.255  29.143  1.00  0.00    -0.248 NA
ATOM     37  C   UNL A   1      45.045  24.136  28.372  1.00  0.00     0.031 C 
ATOM     38  C   UNL A   1      40.206  25.447  27.953  1.00  0.00     0.029 A 
ATOM     39  N   UNL A   1      41.617  26.970  28.781  1.00  0.00    -0.354 N 
ATOM     40  C   UNL A   1      45.790  26.041  29.393  1.00  0.00     0.074 A 
ATOM     41  C   UNL A   1      46.093  24.694  28.959  1.00  0.00     0.031 C 
ATOM     42  C   UNL A   1      39.491  26.551  28.227  1.00  0.00     0.029 A 
ATOM     43  C   UNL A   1      40.379  27.565  28.789  1.00  0.00     0.049 A 
ATOM     44  H   UNL A   1      42.432  27.421  29.101  1.00  0.00     0.167 HD
ATOM     45  C   UNL A   1      46.701  26.897  29.912  1.00  0.00     0.037 A 
ATOM     46  C   UNL A   1      40.001  28.788  29.205  1.00  0.00     0.037 A 
ATOM     47  C   UNL A   1      46.408  28.248  30.304  1.00  0.00     0.049 A 
ATOM     48  C   UNL A   1      41.035  29.726  29.761  1.00  0.00     0.074 A 
ATOM     49  C   UNL A   1      47.276  29.218  30.776  1.00  0.00     0.029 A 
ATOM     50  N   UNL A   1      45.147  28.824  30.266  1.00  0.00    -0.354 N 
ATOM     51  N   UNL A   1      42.320  29.533  29.931  1.00  0.00    -0.248 NA
ATOM     52  C   UNL A   1      40.566  31.056  30.181  1.00  0.00     0.031 C 
ATOM     53  C   UNL A   1      46.535  30.371  31.054  1.00  0.00     0.029 A 
ATOM     54  C   UNL A   1      45.211  30.131  30.721  1.00  0.00     0.049 A 
ATOM     55  H   UNL A   1      44.328  28.372  29.962  1.00  0.00     0.167 HD
ATOM     56  C   UNL A   1      42.817  30.720  30.452  1.00  0.00     0.074 A 
ATOM     57  C   UNL A   1      41.699  31.633  30.557  1.00  0.00     0.031 C 
ATOM     58  C   UNL A   1      44.088  31.028  30.810  1.00  0.00     0.037 A 
BRANCH  45  59
ATOM     59  C   UNL A   1      48.105  26.393  30.070  1.00  0.00     0.057 A 
ATOM     60  C   UNL A   1      48.549  25.810  31.264  1.00  0.00     0.134 A 
ATOM     61  C   UNL A   1      49.018  26.474  29.011  1.00  0.00     0.134 A 
ATOM     62  F   UNL A   1      47.729  25.717  32.321  1.00  0.00    -0.206 F 
ATOM     63  C   UNL A   1      49.860  25.352  31.409  1.00  0.00     0.040 A 
ATOM     64  C   UNL A   1      50.323  25.995  29.135  1.00  0.00     0.040 A 
ATOM     65  F   UNL A   1      48.656  27.018  27.839  1.00  0.00    -0.206 F 
ATOM     66  C   UNL A   1      50.748  25.438  30.339  1.00  0.00     0.006 A 
ENDBRANCH  45  59
BRANCH  46  67
ATOM     67  C   UNL A   1      38.582  29.210  29.086  1.00  0.00     0.057 A 
ATOM     68  C   UNL A   1      37.722  29.160  30.189  1.00  0.00     0.134 A 
ATOM     69  C   UNL A   1      38.050  29.660  27.873  1.00  0.00     0.134 A 
ATOM     70  F   UNL A   1      38.171  28.718  31.374  1.00  0.00    -0.206 F 
ATOM     71  C   UNL A   1      36.380  29.525  30.088  1.00  0.00     0.040 A 
ATOM     72  C   UNL A   1      36.714  30.049  27.761  1.00  0.00     0.040 A 
ATOM     73  F   UNL A   1      38.824  29.737  26.780  1.00  0.00    -0.206 F 
ATOM     74  C   UNL A   1      35.873  29.975  28.870  1.00  0.00     0.006 A 
ENDBRANCH  46  67
BRANCH  58  75
ATOM     75  C   UNL A   1      44.339  32.414  31.322  1.00  0.00     0.057 A 
ATOM     76  C   UNL A   1      44.550  33.493  30.455  1.00  0.00     0.134 A 
ATOM     77  C   UNL A   1      44.328  32.677  32.698  1.00  0.00     0.134 A 
ATOM     78  F   UNL A   1      44.585  33.302  29.127  1.00  0.00    -0.206 F 
ATOM     79  C   UNL A   1      44.757  34.785  30.940  1.00  0.00     0.040 A 
ATOM     80  C   UNL A   1      44.511  33.969  33.193  1.00  0.00     0.040 A 
ATOM     81  F   UNL A   1      44.124  31.688  33.579  1.00  0.00    -0.206 F 
ATOM     82  C   UNL A   1      44.731  35.027  32.313  1.00  0.00     0.006 A 
ENDBRANCH  58  75
ENDBRANCH  32  33
ENDBRANCH  24  27
ENDBRANCH  22  23
ENDBRANCH  21  22
ENDBRANCH  20  21
ENDBRANCH   1  20
TORSDOF 16
ENDMDL
MODEL 2
REMARK VINA RESULT:      -9.0      1.583      2.516
REMARK SMILES CN(C)c1cccc(C(=O)CCCC(=O)NCCCCNC(=O)c2ccc(-c3c4nc(c(-c5c(F)cccc5F)c5ccc([nH]5)c(-c5c(F)cccc5F)c5nc(c(-c6c(F)cccc6F)c6ccc3[nH]6)C=C5)C=C4)cc2)c1
REMARK SMILES IDX 17 1 16 2 14 3 15 4 13 6 12 7 11 8 9 9 10 10 8 11 4 12 5 13
REMARK SMILES IDX 78 14 6 15 7 16 2 17 1 18 3 19 18 20 19 21 20 22 21 23 22 24
REMARK SMILES IDX 23 26 24 27 25 28 77 29 26 30 76 31 27 32 28 33 29 34 70 35
REMARK SMILES IDX 30 36 75 37 69 38 71 39 31 40 74 41 68 42 67 43 32 45 58 46
REMARK SMILES IDX 41 47 57 48 42 49 45 50 56 51 72 52 43 53 44 54 55 56 73 57
REMARK SMILES IDX 46 58 33 59 34 60 39 61 35 62 36 63 38 64 40 65 37 66 59 67
REMARK SMILES IDX 60 68 65 69 61 70 62 71 64 72 66 73 63 74 47 75 48 76 53 77
REMARK SMILES IDX 49 78 50 79 52 80 54 81 51 82
REMARK H PARENT 16 5 21 25 71 44 45 55
REMARK Flexibility Score: inf
ROOT
ATOM      1  C   UNL A   1      46.421  19.894  24.578  1.00  0.00     0.116 C 
ENDROOT
BRANCH   1   2
ATOM      2  N   UNL A   1      45.510  20.791  23.903  1.00  0.00    -0.356 N 
ATOM      3  C   UNL A   1      45.198  22.101  24.027  1.00  0.00     0.220 C 
ATOM      4  O   UNL A   1      44.361  22.517  23.214  1.00  0.00    -0.275 OA
ATOM      5  H   UNL A   1      45.001  20.346  23.188  1.00  0.00     0.163 HD
BRANCH   3   6
ATOM      6  C   UNL A   1      45.862  23.100  24.971  1.00  0.00     0.100 C 
BRANCH   6   7
ATOM      7  C   UNL A   1      45.571  24.600  24.949  1.00  0.00     0.018 C 
BRANCH   7   8
ATOM      8  C   UNL A   1      46.476  25.640  25.606  1.00  0.00     0.081 C 
BRANCH   8   9
ATOM      9  C   UNL A   1      47.949  25.344  25.917  1.00  0.00     0.162 C 
ATOM     10  O   UNL A   1      48.221  24.481  26.755  1.00  0.00    -0.294 OA
BRANCH   9  11
ATOM     11  C   UNL A   1      49.095  25.943  25.153  1.00  0.00     0.020 A 
ATOM     12  C   UNL A   1      50.020  27.176  23.214  1.00  0.00     0.037 A 
ATOM     13  C   UNL A   1      51.277  27.100  23.819  1.00  0.00     0.026 A 
ATOM     14  C   UNL A   1      48.959  26.584  23.920  1.00  0.00     0.037 A 
ATOM     15  C   UNL A   1      51.456  26.467  25.055  1.00  0.00     0.003 A 
ATOM     16  C   UNL A   1      50.370  25.892  25.718  1.00  0.00     0.012 A 
BRANCH  12  17
ATOM     17  N   UNL A   1      49.818  27.805  21.992  1.00  0.00    -0.378 N 
ATOM     18  C   UNL A   1      50.862  28.597  21.350  1.00  0.00     0.143 C 
ATOM     19  C   UNL A   1      48.469  27.924  21.453  1.00  0.00     0.143 C 
ENDBRANCH  12  17
ENDBRANCH   9  11
ENDBRANCH   8   9
ENDBRANCH   7   8
ENDBRANCH   6   7
ENDBRANCH   3   6
ENDBRANCH   1   2
BRANCH   1  20
ATOM     20  C   UNL A   1      45.670  18.877  25.442  1.00  0.00     0.023 C 
BRANCH  20  21
ATOM     21  C   UNL A   1      44.190  18.769  25.086  1.00  0.00     0.023 C 
BRANCH  21  22
ATOM     22  C   UNL A   1      43.291  18.485  26.286  1.00  0.00     0.116 C 
BRANCH  22  23
ATOM     23  N   UNL A   1      41.870  18.600  25.986  1.00  0.00    -0.352 N 
ATOM     24  C   UNL A   1      41.035  19.678  26.186  1.00  0.00     0.251 C 
ATOM     25  H   UNL A   1      41.451  17.803  25.589  1.00  0.00     0.163 HD
ATOM     26  O   UNL A   1      39.836  19.598  25.969  1.00  0.00    -0.269 OA
BRANCH  24  27
ATOM     27  C   UNL A   1      41.614  20.930  26.716  1.00  0.00     0.039 A 
ATOM     28  C   UNL A   1      42.030  21.914  25.817  1.00  0.00     0.014 A 
ATOM     29  C   UNL A   1      41.653  21.158  28.094  1.00  0.00     0.014 A 
ATOM     30  C   UNL A   1      42.398  23.171  26.303  1.00  0.00     0.010 A 
ATOM     31  C   UNL A   1      41.940  22.433  28.566  1.00  0.00     0.010 A 
ATOM     32  C   UNL A   1      42.307  23.454  27.674  1.00  0.00    -0.014 A 
BRANCH  32  33
ATOM     33  C   UNL A   1      42.575  24.815  28.203  1.00  0.00     0.031 A 
ATOM     34  C   UNL A   1      43.952  25.172  28.691  1.00  0.00     0.074 A 
ATOM     35  C   UNL A   1      41.566  25.701  28.321  1.00  0.00     0.049 A 
ATOM     36  N   UNL A   1      44.364  26.267  29.275  1.00  0.00    -0.248 NA
ATOM     37  C   UNL A   1      44.994  24.146  28.532  1.00  0.00     0.031 C 
ATOM     38  C   UNL A   1      40.174  25.457  27.938  1.00  0.00     0.029 A 
ATOM     39  N   UNL A   1      41.555  26.982  28.811  1.00  0.00    -0.354 N 
ATOM     40  C   UNL A   1      45.703  26.053  29.573  1.00  0.00     0.074 A 
ATOM     41  C   UNL A   1      46.021  24.705  29.154  1.00  0.00     0.031 C 
ATOM     42  C   UNL A   1      39.450  26.562  28.183  1.00  0.00     0.029 A 
ATOM     43  C   UNL A   1      40.317  27.577  28.773  1.00  0.00     0.049 A 
ATOM     44  H   UNL A   1      42.359  27.434  29.158  1.00  0.00     0.167 HD
ATOM     45  C   UNL A   1      46.596  26.910  30.122  1.00  0.00     0.037 A 
ATOM     46  C   UNL A   1      39.926  28.802  29.172  1.00  0.00     0.037 A 
ATOM     47  C   UNL A   1      46.290  28.263  30.499  1.00  0.00     0.049 A 
ATOM     48  C   UNL A   1      40.940  29.742  29.761  1.00  0.00     0.074 A 
ATOM     49  C   UNL A   1      47.141  29.233  30.998  1.00  0.00     0.029 A 
ATOM     50  N   UNL A   1      45.031  28.839  30.414  1.00  0.00    -0.354 N 
ATOM     51  N   UNL A   1      42.218  29.548  29.977  1.00  0.00    -0.248 NA
ATOM     52  C   UNL A   1      40.458  31.073  30.160  1.00  0.00     0.031 C 
ATOM     53  C   UNL A   1      46.392  30.388  31.246  1.00  0.00     0.029 A 
ATOM     54  C   UNL A   1      45.080  30.147  30.867  1.00  0.00     0.049 A 
ATOM     55  H   UNL A   1      44.223  28.386  30.083  1.00  0.00     0.167 HD
ATOM     56  C   UNL A   1      42.697  30.737  30.511  1.00  0.00     0.074 A 
ATOM     57  C   UNL A   1      41.576  31.651  30.574  1.00  0.00     0.031 C 
ATOM     58  C   UNL A   1      43.955  31.045  30.914  1.00  0.00     0.037 A 
BRANCH  45  59
ATOM     59  C   UNL A   1      47.993  26.406  30.331  1.00  0.00     0.057 A 
ATOM     60  C   UNL A   1      49.006  26.630  29.389  1.00  0.00     0.134 A 
ATOM     61  C   UNL A   1      48.335  25.707  31.495  1.00  0.00     0.134 A 
ATOM     62  F   UNL A   1      48.740  27.279  28.246  1.00  0.00    -0.206 F 
ATOM     63  C   UNL A   1      50.303  26.151  29.584  1.00  0.00     0.040 A 
ATOM     64  C   UNL A   1      49.635  25.246  31.713  1.00  0.00     0.040 A 
ATOM     65  F   UNL A   1      47.414  25.462  32.438  1.00  0.00    -0.206 F 
ATOM     66  C   UNL A   1      50.620  25.462  30.752  1.00  0.00     0.006 A 
ENDBRANCH  45  59
BRANCH  46  67
ATOM     67  C   UNL A   1      38.513  29.225  29.001  1.00  0.00     0.057 A 
ATOM     68  C   UNL A   1      37.615  29.183  30.074  1.00  0.00     0.134 A 
ATOM     69  C   UNL A   1      38.023  29.666  27.768  1.00  0.00     0.134 A 
ATOM     70  F   UNL A   1      38.022  28.749  31.277  1.00  0.00    -0.206 F 
ATOM     71  C   UNL A   1      36.278  29.548  29.924  1.00  0.00     0.040 A 
ATOM     72  C   UNL A   1      36.692  30.056  27.607  1.00  0.00     0.040 A 
ATOM     73  F   UNL A   1      38.834  29.735  26.701  1.00  0.00    -0.206 F 
ATOM     74  C   UNL A   1      35.813  29.990  28.687  1.00  0.00     0.006 A 
ENDBRANCH  46  67
BRANCH  58  75
ATOM     75  C   UNL A   1      44.188  32.433  31.430  1.00  0.00     0.057 A 
ATOM     76  C   UNL A   1      44.525  33.490  30.576  1.00  0.00     0.134 A 
ATOM     77  C   UNL A   1      44.033  32.721  32.792  1.00  0.00     0.134 A 
ATOM     78  F   UNL A   1      44.701  33.275  29.263  1.00  0.00    -0.206 F 
ATOM     79  C   UNL A   1      44.715  34.784  31.062  1.00  0.00     0.040 A 
ATOM     80  C   UNL A   1      44.199  34.015  33.285  1.00  0.00     0.040 A 
ATOM     81  F   UNL A   1      43.704  31.753  33.660  1.00  0.00    -0.206 F 
ATOM     82  C   UNL A   1      44.545  35.051  32.420  1.00  0.00     0.006 A 
ENDBRANCH  58  75
ENDBRANCH  32  33
ENDBRANCH  24  27
ENDBRANCH  22  23
ENDBRANCH  21  22
ENDBRANCH  20  21
ENDBRANCH   1  20
TORSDOF 16
ENDMDL
MODEL 3
REMARK VINA RESULT:      -8.9      5.218     11.367
REMARK SMILES CN(C)c1cccc(C(=O)CCCC(=O)NCCCCNC(=O)c2ccc(-c3c4nc(c(-c5c(F)cccc5F)c5ccc([nH]5)c(-c5c(F)cccc5F)c5nc(c(-c6c(F)cccc6F)c6ccc3[nH]6)C=C5)C=C4)cc2)c1
REMARK SMILES IDX 17 1 16 2 14 3 15 4 13 6 12 7 11 8 9 9 10 10 8 11 4 12 5 13
REMARK SMILES IDX 78 14 6 15 7 16 2 17 1 18 3 19 18 20 19 21 20 22 21 23 22 24
REMARK SMILES IDX 23 26 24 27 25 28 77 29 26 30 76 31 27 32 28 33 29 34 70 35
REMARK SMILES IDX 30 36 75 37 69 38 71 39 31 40 74 41 68 42 67 43 32 45 58 46
REMARK SMILES IDX 41 47 57 48 42 49 45 50 56 51 72 52 43 53 44 54 55 56 73 57
REMARK SMILES IDX 46 58 33 59 34 60 39 61 35 62 36 63 38 64 40 65 37 66 59 67
REMARK SMILES IDX 60 68 65 69 61 70 62 71 64 72 66 73 63 74 47 75 48 76 53 77
REMARK SMILES IDX 49 78 50 79 52 80 54 81 51 82
REMARK H PARENT 16 5 21 25 71 44 45 55
REMARK Flexibility Score: inf
ROOT
ATOM      1  C   UNL A   1      33.080  35.959  32.546  1.00  0.00     0.116 C 
ENDROOT
BRANCH   1   2
ATOM      2  N   UNL A   1      33.368  34.575  32.850  1.00  0.00    -0.356 N 
ATOM      3  C   UNL A   1      34.375  33.929  33.480  1.00  0.00     0.220 C 
ATOM      4  O   UNL A   1      34.235  32.701  33.564  1.00  0.00    -0.275 OA
ATOM      5  H   UNL A   1      32.671  33.963  32.522  1.00  0.00     0.163 HD
BRANCH   3   6
ATOM      6  C   UNL A   1      35.563  34.581  34.184  1.00  0.00     0.100 C 
BRANCH   6   7
ATOM      7  C   UNL A   1      36.326  33.921  35.332  1.00  0.00     0.018 C 
BRANCH   7   8
ATOM      8  C   UNL A   1      37.704  33.283  35.164  1.00  0.00     0.081 C 
BRANCH   8   9
ATOM      9  C   UNL A   1      38.057  31.943  35.821  1.00  0.00     0.162 C 
ATOM     10  O   UNL A   1      37.470  31.611  36.854  1.00  0.00    -0.294 OA
BRANCH   9  11
ATOM     11  C   UNL A   1      38.979  30.931  35.201  1.00  0.00     0.020 A 
ATOM     12  C   UNL A   1      40.909  29.383  35.307  1.00  0.00     0.037 A 
ATOM     13  C   UNL A   1      40.615  28.994  33.998  1.00  0.00     0.026 A 
ATOM     14  C   UNL A   1      40.061  30.354  35.867  1.00  0.00     0.037 A 
ATOM     15  C   UNL A   1      39.537  29.547  33.296  1.00  0.00     0.003 A 
ATOM     16  C   UNL A   1      38.724  30.511  33.895  1.00  0.00     0.012 A 
BRANCH  12  17
ATOM     17  N   UNL A   1      41.968  28.841  36.025  1.00  0.00    -0.378 N 
ATOM     18  C   UNL A   1      43.156  29.621  36.355  1.00  0.00     0.143 C 
ATOM     19  C   UNL A   1      42.042  27.399  36.228  1.00  0.00     0.143 C 
ENDBRANCH  12  17
ENDBRANCH   9  11
ENDBRANCH   8   9
ENDBRANCH   7   8
ENDBRANCH   6   7
ENDBRANCH   3   6
ENDBRANCH   1   2
BRANCH   1  20
ATOM     20  C   UNL A   1      32.329  36.099  31.219  1.00  0.00     0.023 C 
BRANCH  20  21
ATOM     21  C   UNL A   1      32.903  37.188  30.319  1.00  0.00     0.023 C 
BRANCH  21  22
ATOM     22  C   UNL A   1      33.603  36.648  29.076  1.00  0.00     0.116 C 
BRANCH  22  23
ATOM     23  N   UNL A   1      32.885  35.554  28.434  1.00  0.00    -0.352 N 
ATOM     24  C   UNL A   1      33.276  34.241  28.283  1.00  0.00     0.251 C 
ATOM     25  H   UNL A   1      32.004  35.784  28.059  1.00  0.00     0.163 HD
ATOM     26  O   UNL A   1      32.605  33.452  27.637  1.00  0.00    -0.269 OA
BRANCH  24  27
ATOM     27  C   UNL A   1      34.558  33.814  28.882  1.00  0.00     0.039 A 
ATOM     28  C   UNL A   1      34.534  32.961  29.987  1.00  0.00     0.014 A 
ATOM     29  C   UNL A   1      35.768  34.183  28.290  1.00  0.00     0.014 A 
ATOM     30  C   UNL A   1      35.729  32.399  30.442  1.00  0.00     0.010 A 
ATOM     31  C   UNL A   1      36.942  33.558  28.693  1.00  0.00     0.010 A 
ATOM     32  C   UNL A   1      36.932  32.653  29.767  1.00  0.00    -0.014 A 
BRANCH  32  33
ATOM     33  C   UNL A   1      38.195  31.975  30.154  1.00  0.00     0.031 A 
ATOM     34  C   UNL A   1      39.141  32.643  31.111  1.00  0.00     0.074 A 
ATOM     35  C   UNL A   1      38.529  30.800  29.583  1.00  0.00     0.049 A 
ATOM     36  N   UNL A   1      40.333  32.263  31.497  1.00  0.00    -0.248 NA
ATOM     37  C   UNL A   1      38.705  33.926  31.683  1.00  0.00     0.031 C 
ATOM     38  C   UNL A   1      37.724  30.078  28.595  1.00  0.00     0.029 A 
ATOM     39  N   UNL A   1      39.641  30.014  29.741  1.00  0.00    -0.354 N 
ATOM     40  C   UNL A   1      40.795  33.269  32.335  1.00  0.00     0.074 A 
ATOM     41  C   UNL A   1      39.780  34.300  32.361  1.00  0.00     0.031 C 
ATOM     42  C   UNL A   1      38.357  28.942  28.257  1.00  0.00     0.029 A 
ATOM     43  C   UNL A   1      39.627  28.874  28.974  1.00  0.00     0.049 A 
ATOM     44  H   UNL A   1      40.382  30.244  30.348  1.00  0.00     0.167 HD
ATOM     45  C   UNL A   1      41.948  33.319  33.042  1.00  0.00     0.037 A 
ATOM     46  C   UNL A   1      40.536  27.889  28.860  1.00  0.00     0.037 A 
ATOM     47  C   UNL A   1      42.937  32.275  33.048  1.00  0.00     0.049 A 
ATOM     48  C   UNL A   1      41.801  27.958  29.669  1.00  0.00     0.074 A 
ATOM     49  C   UNL A   1      44.107  32.199  33.785  1.00  0.00     0.029 A 
ATOM     50  N   UNL A   1      42.870  31.121  32.282  1.00  0.00    -0.354 N 
ATOM     51  N   UNL A   1      42.195  28.884  30.508  1.00  0.00    -0.248 NA
ATOM     52  C   UNL A   1      42.747  26.842  29.517  1.00  0.00     0.031 C 
ATOM     53  C   UNL A   1      44.764  31.013  33.440  1.00  0.00     0.029 A 
ATOM     54  C   UNL A   1      43.985  30.334  32.517  1.00  0.00     0.049 A 
ATOM     55  H   UNL A   1      42.139  30.895  31.663  1.00  0.00     0.167 HD
ATOM     56  C   UNL A   1      43.418  28.452  31.003  1.00  0.00     0.074 A 
ATOM     57  C   UNL A   1      43.696  27.175  30.381  1.00  0.00     0.031 C 
ATOM     58  C   UNL A   1      44.239  29.060  31.894  1.00  0.00     0.037 A 
BRANCH  45  59
ATOM     59  C   UNL A   1      42.190  34.540  33.878  1.00  0.00     0.057 A 
ATOM     60  C   UNL A   1      42.860  35.661  33.368  1.00  0.00     0.134 A 
ATOM     61  C   UNL A   1      41.733  34.605  35.200  1.00  0.00     0.134 A 
ATOM     62  F   UNL A   1      43.337  35.656  32.115  1.00  0.00    -0.206 F 
ATOM     63  C   UNL A   1      43.091  36.792  34.154  1.00  0.00     0.040 A 
ATOM     64  C   UNL A   1      41.935  35.741  35.986  1.00  0.00     0.040 A 
ATOM     65  F   UNL A   1      41.081  33.569  35.747  1.00  0.00    -0.206 F 
ATOM     66  C   UNL A   1      42.621  36.836  35.464  1.00  0.00     0.006 A 
ENDBRANCH  45  59
BRANCH  46  67
ATOM     67  C   UNL A   1      40.273  26.733  27.965  1.00  0.00     0.057 A 
ATOM     68  C   UNL A   1      39.458  25.673  28.381  1.00  0.00     0.134 A 
ATOM     69  C   UNL A   1      40.835  26.651  26.687  1.00  0.00     0.134 A 
ATOM     70  F   UNL A   1      38.908  25.686  29.604  1.00  0.00    -0.206 F 
ATOM     71  C   UNL A   1      39.224  24.566  27.565  1.00  0.00     0.040 A 
ATOM     72  C   UNL A   1      40.592  25.560  25.850  1.00  0.00     0.040 A 
ATOM     73  F   UNL A   1      41.620  27.637  26.227  1.00  0.00    -0.206 F 
ATOM     74  C   UNL A   1      39.790  24.510  26.292  1.00  0.00     0.006 A 
ENDBRANCH  46  67
BRANCH  58  75
ATOM     75  C   UNL A   1      45.499  28.338  32.269  1.00  0.00     0.057 A 
ATOM     76  C   UNL A   1      45.532  27.408  33.315  1.00  0.00     0.134 A 
ATOM     77  C   UNL A   1      46.680  28.545  31.545  1.00  0.00     0.134 A 
ATOM     78  F   UNL A   1      44.436  27.176  34.053  1.00  0.00    -0.206 F 
ATOM     79  C   UNL A   1      46.703  26.722  33.640  1.00  0.00     0.040 A 
ATOM     80  C   UNL A   1      47.850  27.848  31.846  1.00  0.00     0.040 A 
ATOM     81  F   UNL A   1      46.711  29.417  30.526  1.00  0.00    -0.206 F 
ATOM     82  C   UNL A   1      47.865  26.936  32.899  1.00  0.00     0.006 A 
ENDBRANCH  58  75
ENDBRANCH  32  33
ENDBRANCH  24  27
ENDBRANCH  22  23
ENDBRANCH  21  22
ENDBRANCH  20  21
ENDBRANCH   1  20
TORSDOF 16
ENDMDL
