MODEL 1
REMARK VINA RESULT:     -12.0      0.000      0.000
REMARK SMILES CCc1cccc(NC(=O)N2CCO[C@@H](CC(=O)NCCCCNC(=O)c3ccc(-c4c5nc(c(-c6c(F)cccc6F)c6ccc([nH]6)c(-c6c(F)cccc6F)c6nc(c(-c7c(F)cccc7F)c7ccc4[nH]7)C=C6)C=C5)cc3)C2)c1
REMARK SMILES IDX 20 1 19 2 17 3 18 4 16 6 15 7 11 8 12 9 81 10 13 11 14 12
REMARK SMILES IDX 9 13 8 14 10 16 7 17 3 18 4 19 82 20 5 21 6 22 2 23 1 24
REMARK SMILES IDX 21 25 22 26 23 27 24 28 25 29 26 31 27 32 28 33 80 34 29 35
REMARK SMILES IDX 79 36 30 37 31 38 32 39 73 40 33 41 78 42 72 43 74 44 34 45
REMARK SMILES IDX 77 46 71 47 70 48 35 50 61 51 44 52 60 53 45 54 48 55 59 56
REMARK SMILES IDX 75 57 46 58 47 59 58 61 76 62 49 63 36 64 37 65 42 66 38 67
REMARK SMILES IDX 39 68 41 69 43 70 40 71 62 72 63 73 68 74 64 75 65 76 67 77
REMARK SMILES IDX 69 78 66 79 50 80 51 81 56 82 52 83 53 84 55 85 57 86 54 87
REMARK H PARENT 19 5 8 15 24 30 74 49 48 60
REMARK Flexibility Score: inf
ROOT
ATOM      1  C   UNL A   1      37.399  22.312  25.579  1.00  0.00     0.116 C 
ENDROOT
BRANCH   1   2
ATOM      2  N   UNL A   1      36.248  22.239  26.466  1.00  0.00    -0.356 N 
ATOM      3  C   UNL A   1      34.914  22.361  26.196  1.00  0.00     0.222 C 
ATOM      4  O   UNL A   1      34.132  22.424  27.147  1.00  0.00    -0.275 OA
ATOM      5  H   UNL A   1      36.464  22.076  27.412  1.00  0.00     0.163 HD
BRANCH   3   6
ATOM      6  C   UNL A   1      34.409  22.437  24.768  1.00  0.00     0.133 C 
BRANCH   6   7
ATOM      7  C   UNL A   1      33.394  23.561  24.541  1.00  0.00     0.147 C 
ATOM      8  N   UNL A   1      32.434  25.025  22.777  1.00  0.00    -0.320 N 
ATOM      9  C   UNL A   1      31.092  24.577  23.126  1.00  0.00     0.150 C 
ATOM     10  C   UNL A   1      33.475  24.090  23.112  1.00  0.00     0.154 C 
ATOM     11  C   UNL A   1      31.058  24.042  24.564  1.00  0.00     0.182 C 
ATOM     12  O   UNL A   1      32.069  23.037  24.786  1.00  0.00    -0.374 OA
BRANCH   8  13
ATOM     13  C   UNL A   1      32.650  25.845  21.700  1.00  0.00     0.322 C 
ATOM     14  N   UNL A   1      32.328  27.163  21.814  1.00  0.00    -0.308 N 
ATOM     15  H   UNL A   1      32.254  27.643  20.958  1.00  0.00     0.171 HD
ATOM     16  O   UNL A   1      33.167  25.437  20.658  1.00  0.00    -0.248 OA
BRANCH  14  17
ATOM     17  C   UNL A   1      32.082  27.954  22.953  1.00  0.00     0.043 A 
ATOM     18  C   UNL A   1      32.874  28.705  25.134  1.00  0.00    -0.046 A 
ATOM     19  C   UNL A   1      31.768  29.564  25.219  1.00  0.00     0.004 A 
ATOM     20  C   UNL A   1      33.034  27.924  23.978  1.00  0.00     0.029 A 
ATOM     21  C   UNL A   1      30.791  29.558  24.234  1.00  0.00     0.002 A 
ATOM     22  C   UNL A   1      30.930  28.719  23.135  1.00  0.00     0.026 A 
BRANCH  18  23
ATOM     23  C   UNL A   1      33.827  28.677  26.303  1.00  0.00     0.032 C 
ATOM     24  C   UNL A   1      33.781  29.868  27.250  1.00  0.00     0.009 C 
ENDBRANCH  18  23
ENDBRANCH  14  17
ENDBRANCH   8  13
ENDBRANCH   6   7
ENDBRANCH   3   6
ENDBRANCH   1   2
BRANCH   1  25
ATOM     25  C   UNL A   1      37.377  21.170  24.558  1.00  0.00     0.023 C 
BRANCH  25  26
ATOM     26  C   UNL A   1      38.097  19.900  24.964  1.00  0.00     0.023 C 
BRANCH  26  27
ATOM     27  C   UNL A   1      39.353  20.138  25.770  1.00  0.00     0.116 C 
BRANCH  27  28
ATOM     28  N   UNL A   1      40.282  19.015  25.780  1.00  0.00    -0.352 N 
ATOM     29  C   UNL A   1      41.624  19.022  26.096  1.00  0.00     0.251 C 
ATOM     30  H   UNL A   1      39.905  18.141  25.530  1.00  0.00     0.163 HD
ATOM     31  O   UNL A   1      42.303  18.014  26.009  1.00  0.00    -0.269 OA
BRANCH  29  32
ATOM     32  C   UNL A   1      42.237  20.309  26.488  1.00  0.00     0.039 A 
ATOM     33  C   UNL A   1      42.727  21.153  25.491  1.00  0.00     0.014 A 
ATOM     34  C   UNL A   1      42.209  20.722  27.821  1.00  0.00     0.014 A 
ATOM     35  C   UNL A   1      43.115  22.449  25.827  1.00  0.00     0.010 A 
ATOM     36  C   UNL A   1      42.463  22.048  28.127  1.00  0.00     0.010 A 
ATOM     37  C   UNL A   1      42.942  22.919  27.140  1.00  0.00    -0.014 A 
BRANCH  37  38
ATOM     38  C   UNL A   1      43.293  24.311  27.512  1.00  0.00     0.031 A 
ATOM     39  C   UNL A   1      44.727  24.758  27.447  1.00  0.00     0.074 A 
ATOM     40  C   UNL A   1      42.337  25.147  27.958  1.00  0.00     0.049 A 
ATOM     41  N   UNL A   1      45.245  25.922  27.740  1.00  0.00    -0.248 NA
ATOM     42  C   UNL A   1      45.719  23.749  27.039  1.00  0.00     0.031 C 
ATOM     43  C   UNL A   1      40.923  24.808  28.136  1.00  0.00     0.029 A 
ATOM     44  N   UNL A   1      42.411  26.465  28.333  1.00  0.00    -0.354 N 
ATOM     45  C   UNL A   1      46.616  25.776  27.572  1.00  0.00     0.074 A 
ATOM     46  C   UNL A   1      46.857  24.391  27.236  1.00  0.00     0.031 C 
ATOM     47  C   UNL A   1      40.254  25.905  28.527  1.00  0.00     0.029 A 
ATOM     48  C   UNL A   1      41.194  27.013  28.654  1.00  0.00     0.049 A 
ATOM     49  H   UNL A   1      43.256  26.969  28.368  1.00  0.00     0.167 HD
ATOM     50  C   UNL A   1      47.586  26.716  27.646  1.00  0.00     0.037 A 
ATOM     51  C   UNL A   1      40.875  28.276  28.990  1.00  0.00     0.037 A 
ATOM     52  C   UNL A   1      47.335  28.100  27.942  1.00  0.00     0.049 A 
ATOM     53  C   UNL A   1      41.963  29.311  29.048  1.00  0.00     0.074 A 
ATOM     54  C   UNL A   1      48.230  29.154  27.977  1.00  0.00     0.029 A 
ATOM     55  N   UNL A   1      46.086  28.621  28.252  1.00  0.00    -0.354 N 
ATOM     56  N   UNL A   1      43.246  29.179  28.808  1.00  0.00    -0.248 NA
ATOM     57  C   UNL A   1      41.555  30.673  29.417  1.00  0.00     0.031 C 
ATOM     58  C   UNL A   1      47.527  30.307  28.346  1.00  0.00     0.029 A 
ATOM     59  C   UNL A   1      46.189  29.979  28.498  1.00  0.00     0.049 A 
ATOM     60  H   UNL A   1      45.251  28.101  28.292  1.00  0.00     0.167 HD
ATOM     61  C   UNL A   1      43.794  30.445  28.966  1.00  0.00     0.074 A 
ATOM     62  C   UNL A   1      42.700  31.332  29.309  1.00  0.00     0.031 C 
ATOM     63  C   UNL A   1      45.086  30.840  28.838  1.00  0.00     0.037 A 
BRANCH  50  64
ATOM     64  C   UNL A   1      48.995  26.261  27.393  1.00  0.00     0.057 A 
ATOM     65  C   UNL A   1      49.835  25.837  28.435  1.00  0.00     0.134 A 
ATOM     66  C   UNL A   1      49.531  26.276  26.100  1.00  0.00     0.134 A 
ATOM     67  F   UNL A   1      49.390  25.819  29.701  1.00  0.00    -0.206 F 
ATOM     68  C   UNL A   1      51.167  25.491  28.206  1.00  0.00     0.040 A 
ATOM     69  C   UNL A   1      50.853  25.900  25.855  1.00  0.00     0.040 A 
ATOM     70  F   UNL A   1      48.785  26.667  25.057  1.00  0.00    -0.206 F 
ATOM     71  C   UNL A   1      51.679  25.519  26.911  1.00  0.00     0.006 A 
ENDBRANCH  50  64
BRANCH  51  72
ATOM     72  C   UNL A   1      39.456  28.648  29.221  1.00  0.00     0.057 A 
ATOM     73  C   UNL A   1      38.878  28.500  30.487  1.00  0.00     0.134 A 
ATOM     74  C   UNL A   1      38.649  29.160  28.200  1.00  0.00     0.134 A 
ATOM     75  F   UNL A   1      39.597  27.998  31.503  1.00  0.00    -0.206 F 
ATOM     76  C   UNL A   1      37.545  28.836  30.728  1.00  0.00     0.040 A 
ATOM     77  C   UNL A   1      37.321  29.521  28.431  1.00  0.00     0.040 A 
ATOM     78  F   UNL A   1      39.147  29.333  26.967  1.00  0.00    -0.206 F 
ATOM     79  C   UNL A   1      36.764  29.353  29.697  1.00  0.00     0.006 A 
ENDBRANCH  51  72
BRANCH  63  80
ATOM     80  C   UNL A   1      45.370  32.299  29.042  1.00  0.00     0.057 A 
ATOM     81  C   UNL A   1      45.790  32.805  30.278  1.00  0.00     0.134 A 
ATOM     82  C   UNL A   1      45.236  33.204  27.982  1.00  0.00     0.134 A 
ATOM     83  F   UNL A   1      45.925  31.991  31.335  1.00  0.00    -0.206 F 
ATOM     84  C   UNL A   1      46.037  34.166  30.461  1.00  0.00     0.040 A 
ATOM     85  C   UNL A   1      45.507  34.563  28.145  1.00  0.00     0.040 A 
ATOM     86  F   UNL A   1      44.846  32.783  26.769  1.00  0.00    -0.206 F 
ATOM     87  C   UNL A   1      45.900  35.048  29.391  1.00  0.00     0.006 A 
ENDBRANCH  63  80
ENDBRANCH  37  38
ENDBRANCH  29  32
ENDBRANCH  27  28
ENDBRANCH  26  27
ENDBRANCH  25  26
ENDBRANCH   1  25
TORSDOF 15
ENDMDL
MODEL 2
REMARK VINA RESULT:     -11.9      1.447      2.354
REMARK SMILES CCc1cccc(NC(=O)N2CCO[C@@H](CC(=O)NCCCCNC(=O)c3ccc(-c4c5nc(c(-c6c(F)cccc6F)c6ccc([nH]6)c(-c6c(F)cccc6F)c6nc(c(-c7c(F)cccc7F)c7ccc4[nH]7)C=C6)C=C5)cc3)C2)c1
REMARK SMILES IDX 20 1 19 2 17 3 18 4 16 6 15 7 11 8 12 9 81 10 13 11 14 12
REMARK SMILES IDX 9 13 8 14 10 16 7 17 3 18 4 19 82 20 5 21 6 22 2 23 1 24
REMARK SMILES IDX 21 25 22 26 23 27 24 28 25 29 26 31 27 32 28 33 80 34 29 35
REMARK SMILES IDX 79 36 30 37 31 38 32 39 73 40 33 41 78 42 72 43 74 44 34 45
REMARK SMILES IDX 77 46 71 47 70 48 35 50 61 51 44 52 60 53 45 54 48 55 59 56
REMARK SMILES IDX 75 57 46 58 47 59 58 61 76 62 49 63 36 64 37 65 42 66 38 67
REMARK SMILES IDX 39 68 41 69 43 70 40 71 62 72 63 73 68 74 64 75 65 76 67 77
REMARK SMILES IDX 69 78 66 79 50 80 51 81 56 82 52 83 53 84 55 85 57 86 54 87
REMARK H PARENT 19 5 8 15 24 30 74 49 48 60
REMARK Flexibility Score: inf
ROOT
ATOM      1  C   UNL A   1      37.166  23.432  25.893  1.00  0.00     0.116 C 
ENDROOT
BRANCH   1   2
ATOM      2  N   UNL A   1      36.185  22.559  26.518  1.00  0.00    -0.356 N 
ATOM      3  C   UNL A   1      35.004  22.066  26.038  1.00  0.00     0.222 C 
ATOM      4  O   UNL A   1      34.261  21.472  26.820  1.00  0.00    -0.275 OA
ATOM      5  H   UNL A   1      36.407  22.277  27.435  1.00  0.00     0.163 HD
BRANCH   3   6
ATOM      6  C   UNL A   1      34.609  22.263  24.586  1.00  0.00     0.133 C 
BRANCH   6   7
ATOM      7  C   UNL A   1      33.603  23.398  24.379  1.00  0.00     0.147 C 
ATOM      8  N   UNL A   1      32.504  24.762  22.615  1.00  0.00    -0.320 N 
ATOM      9  C   UNL A   1      31.195  24.382  23.128  1.00  0.00     0.150 C 
ATOM     10  C   UNL A   1      33.552  23.821  22.913  1.00  0.00     0.154 C 
ATOM     11  C   UNL A   1      31.294  23.952  24.598  1.00  0.00     0.182 C 
ATOM     12  O   UNL A   1      32.298  22.935  24.793  1.00  0.00    -0.374 OA
BRANCH   8  13
ATOM     13  C   UNL A   1      32.629  25.495  21.463  1.00  0.00     0.322 C 
ATOM     14  N   UNL A   1      32.157  26.772  21.454  1.00  0.00    -0.308 N 
ATOM     15  H   UNL A   1      32.033  27.157  20.557  1.00  0.00     0.171 HD
ATOM     16  O   UNL A   1      33.194  25.052  20.462  1.00  0.00    -0.248 OA
BRANCH  14  17
ATOM     17  C   UNL A   1      31.818  27.634  22.515  1.00  0.00     0.043 A 
ATOM     18  C   UNL A   1      30.243  29.272  23.400  1.00  0.00    -0.046 A 
ATOM     19  C   UNL A   1      30.975  29.302  24.597  1.00  0.00     0.004 A 
ATOM     20  C   UNL A   1      30.662  28.409  22.375  1.00  0.00     0.029 A 
ATOM     21  C   UNL A   1      32.154  28.581  24.723  1.00  0.00     0.002 A 
ATOM     22  C   UNL A   1      32.591  27.792  23.666  1.00  0.00     0.026 A 
BRANCH  18  23
ATOM     23  C   UNL A   1      29.043  30.181  23.294  1.00  0.00     0.032 C 
ATOM     24  C   UNL A   1      27.699  29.511  23.050  1.00  0.00     0.009 C 
ENDBRANCH  18  23
ENDBRANCH  14  17
ENDBRANCH   8  13
ENDBRANCH   6   7
ENDBRANCH   3   6
ENDBRANCH   1   2
BRANCH   1  25
ATOM     25  C   UNL A   1      38.564  22.807  25.938  1.00  0.00     0.023 C 
BRANCH  25  26
ATOM     26  C   UNL A   1      38.681  21.397  25.394  1.00  0.00     0.023 C 
BRANCH  26  27
ATOM     27  C   UNL A   1      39.157  20.385  26.410  1.00  0.00     0.116 C 
BRANCH  27  28
ATOM     28  N   UNL A   1      40.207  19.496  25.928  1.00  0.00    -0.352 N 
ATOM     29  C   UNL A   1      41.569  19.703  25.938  1.00  0.00     0.251 C 
ATOM     30  H   UNL A   1      39.905  18.641  25.546  1.00  0.00     0.163 HD
ATOM     31  O   UNL A   1      42.338  18.894  25.448  1.00  0.00    -0.269 OA
BRANCH  29  32
ATOM     32  C   UNL A   1      42.074  20.969  26.509  1.00  0.00     0.039 A 
ATOM     33  C   UNL A   1      42.395  22.017  25.646  1.00  0.00     0.014 A 
ATOM     34  C   UNL A   1      42.107  21.150  27.893  1.00  0.00     0.014 A 
ATOM     35  C   UNL A   1      42.671  23.276  26.179  1.00  0.00     0.010 A 
ATOM     36  C   UNL A   1      42.246  22.428  28.409  1.00  0.00     0.010 A 
ATOM     37  C   UNL A   1      42.553  23.500  27.561  1.00  0.00    -0.014 A 
BRANCH  37  38
ATOM     38  C   UNL A   1      42.785  24.841  28.146  1.00  0.00     0.031 A 
ATOM     39  C   UNL A   1      44.177  25.247  28.544  1.00  0.00     0.074 A 
ATOM     40  C   UNL A   1      41.744  25.665  28.369  1.00  0.00     0.049 A 
ATOM     41  N   UNL A   1      44.592  26.365  29.082  1.00  0.00    -0.248 NA
ATOM     42  C   UNL A   1      45.240  24.248  28.351  1.00  0.00     0.031 C 
ATOM     43  C   UNL A   1      40.339  25.356  28.095  1.00  0.00     0.029 A 
ATOM     44  N   UNL A   1      41.711  26.942  28.870  1.00  0.00    -0.354 N 
ATOM     45  C   UNL A   1      45.951  26.191  29.308  1.00  0.00     0.074 A 
ATOM     46  C   UNL A   1      46.274  24.834  28.931  1.00  0.00     0.031 C 
ATOM     47  C   UNL A   1      39.589  26.435  28.373  1.00  0.00     0.029 A 
ATOM     48  C   UNL A   1      40.455  27.498  28.872  1.00  0.00     0.049 A 
ATOM     49  H   UNL A   1      42.510  27.414  29.197  1.00  0.00     0.167 HD
ATOM     50  C   UNL A   1      46.861  27.090  29.749  1.00  0.00     0.037 A 
ATOM     51  C   UNL A   1      40.057  28.737  29.216  1.00  0.00     0.037 A 
ATOM     52  C   UNL A   1      46.540  28.450  30.087  1.00  0.00     0.049 A 
ATOM     53  C   UNL A   1      41.085  29.728  29.684  1.00  0.00     0.074 A 
ATOM     54  C   UNL A   1      47.389  29.468  30.478  1.00  0.00     0.029 A 
ATOM     55  N   UNL A   1      45.257  28.981  30.066  1.00  0.00    -0.354 N 
ATOM     56  N   UNL A   1      42.381  29.578  29.818  1.00  0.00    -0.248 NA
ATOM     57  C   UNL A   1      40.592  31.065  30.043  1.00  0.00     0.031 C 
ATOM     58  C   UNL A   1      46.615  30.606  30.732  1.00  0.00     0.029 A 
ATOM     59  C   UNL A   1      45.289  30.308  30.456  1.00  0.00     0.049 A 
ATOM     60  H   UNL A   1      44.445  28.486  29.811  1.00  0.00     0.167 HD
ATOM     61  C   UNL A   1      42.865  30.806  30.245  1.00  0.00     0.074 A 
ATOM     62  C   UNL A   1      41.722  31.694  30.335  1.00  0.00     0.031 C 
ATOM     63  C   UNL A   1      44.138  31.171  30.537  1.00  0.00     0.037 A 
BRANCH  50  64
ATOM     64  C   UNL A   1      48.280  26.615  29.878  1.00  0.00     0.057 A 
ATOM     65  C   UNL A   1      49.205  26.755  28.832  1.00  0.00     0.134 A 
ATOM     66  C   UNL A   1      48.719  25.981  31.046  1.00  0.00     0.134 A 
ATOM     67  F   UNL A   1      48.843  27.334  27.678  1.00  0.00    -0.206 F 
ATOM     68  C   UNL A   1      50.499  26.241  28.926  1.00  0.00     0.040 A 
ATOM     69  C   UNL A   1      50.022  25.492  31.164  1.00  0.00     0.040 A 
ATOM     70  F   UNL A   1      47.889  25.814  32.086  1.00  0.00    -0.206 F 
ATOM     71  C   UNL A   1      50.912  25.610  30.097  1.00  0.00     0.006 A 
ENDBRANCH  50  64
BRANCH  51  72
ATOM     72  C   UNL A   1      38.635  29.131  29.056  1.00  0.00     0.057 A 
ATOM     73  C   UNL A   1      37.757  29.087  30.145  1.00  0.00     0.134 A 
ATOM     74  C   UNL A   1      38.120  29.564  27.830  1.00  0.00     0.134 A 
ATOM     75  F   UNL A   1      38.188  28.665  31.344  1.00  0.00    -0.206 F 
ATOM     76  C   UNL A   1      36.414  29.446  30.019  1.00  0.00     0.040 A 
ATOM     77  C   UNL A   1      36.784  29.947  27.693  1.00  0.00     0.040 A 
ATOM     78  F   UNL A   1      38.912  29.635  26.750  1.00  0.00    -0.206 F 
ATOM     79  C   UNL A   1      35.926  29.882  28.789  1.00  0.00     0.006 A 
ENDBRANCH  51  72
BRANCH  63  80
ATOM     80  C   UNL A   1      44.356  32.597  30.950  1.00  0.00     0.057 A 
ATOM     81  C   UNL A   1      44.601  33.608  30.014  1.00  0.00     0.134 A 
ATOM     82  C   UNL A   1      44.303  32.961  32.300  1.00  0.00     0.134 A 
ATOM     83  F   UNL A   1      44.676  33.321  28.706  1.00  0.00    -0.206 F 
ATOM     84  C   UNL A   1      44.818  34.929  30.409  1.00  0.00     0.040 A 
ATOM     85  C   UNL A   1      44.490  34.283  32.706  1.00  0.00     0.040 A 
ATOM     86  F   UNL A   1      44.063  32.041  33.248  1.00  0.00    -0.206 F 
ATOM     87  C   UNL A   1      44.758  35.269  31.759  1.00  0.00     0.006 A 
ENDBRANCH  63  80
ENDBRANCH  37  38
ENDBRANCH  29  32
ENDBRANCH  27  28
ENDBRANCH  26  27
ENDBRANCH  25  26
ENDBRANCH   1  25
TORSDOF 15
ENDMDL
MODEL 3
REMARK VINA RESULT:     -11.9      4.494      9.574
REMARK SMILES CCc1cccc(NC(=O)N2CCO[C@@H](CC(=O)NCCCCNC(=O)c3ccc(-c4c5nc(c(-c6c(F)cccc6F)c6ccc([nH]6)c(-c6c(F)cccc6F)c6nc(c(-c7c(F)cccc7F)c7ccc4[nH]7)C=C6)C=C5)cc3)C2)c1
REMARK SMILES IDX 20 1 19 2 17 3 18 4 16 6 15 7 11 8 12 9 81 10 13 11 14 12
REMARK SMILES IDX 9 13 8 14 10 16 7 17 3 18 4 19 82 20 5 21 6 22 2 23 1 24
REMARK SMILES IDX 21 25 22 26 23 27 24 28 25 29 26 31 27 32 28 33 80 34 29 35
REMARK SMILES IDX 79 36 30 37 31 38 32 39 73 40 33 41 78 42 72 43 74 44 34 45
REMARK SMILES IDX 77 46 71 47 70 48 35 50 61 51 44 52 60 53 45 54 48 55 59 56
REMARK SMILES IDX 75 57 46 58 47 59 58 61 76 62 49 63 36 64 37 65 42 66 38 67
REMARK SMILES IDX 39 68 41 69 43 70 40 71 62 72 63 73 68 74 64 75 65 76 67 77
REMARK SMILES IDX 69 78 66 79 50 80 51 81 56 82 52 83 53 84 55 85 57 86 54 87
REMARK H PARENT 19 5 8 15 24 30 74 49 48 60
REMARK Flexibility Score: inf
ROOT
ATOM      1  C   UNL A   1      34.282  29.353  27.160  1.00  0.00     0.116 C 
ENDROOT
BRANCH   1   2
ATOM      2  N   UNL A   1      33.117  28.765  27.805  1.00  0.00    -0.356 N 
ATOM      3  C   UNL A   1      31.968  28.258  27.266  1.00  0.00     0.222 C 
ATOM      4  O   UNL A   1      31.049  27.961  28.031  1.00  0.00    -0.275 OA
ATOM      5  H   UNL A   1      33.164  28.726  28.787  1.00  0.00     0.163 HD
BRANCH   3   6
ATOM      6  C   UNL A   1      31.820  28.084  25.766  1.00  0.00     0.133 C 
BRANCH   6   7
ATOM      7  C   UNL A   1      31.963  26.631  25.306  1.00  0.00     0.147 C 
ATOM      8  N   UNL A   1      31.010  24.357  25.627  1.00  0.00    -0.320 N 
ATOM      9  C   UNL A   1      30.766  24.251  24.195  1.00  0.00     0.150 C 
ATOM     10  C   UNL A   1      31.058  25.709  26.119  1.00  0.00     0.154 C 
ATOM     11  C   UNL A   1      31.685  25.202  23.417  1.00  0.00     0.182 C 
ATOM     12  O   UNL A   1      31.597  26.555  23.909  1.00  0.00    -0.374 OA
BRANCH   8  13
ATOM     13  C   UNL A   1      30.576  23.389  26.495  1.00  0.00     0.322 C 
ATOM     14  N   UNL A   1      31.203  22.180  26.482  1.00  0.00    -0.308 N 
ATOM     15  H   UNL A   1      30.702  21.454  26.920  1.00  0.00     0.171 HD
ATOM     16  O   UNL A   1      29.676  23.595  27.311  1.00  0.00    -0.248 OA
BRANCH  14  17
ATOM     17  C   UNL A   1      32.448  21.796  25.948  1.00  0.00     0.043 A 
ATOM     18  C   UNL A   1      34.846  22.222  25.832  1.00  0.00    -0.046 A 
ATOM     19  C   UNL A   1      34.994  21.070  25.044  1.00  0.00     0.004 A 
ATOM     20  C   UNL A   1      33.567  22.558  26.302  1.00  0.00     0.029 A 
ATOM     21  C   UNL A   1      33.883  20.342  24.641  1.00  0.00     0.002 A 
ATOM     22  C   UNL A   1      32.617  20.738  25.055  1.00  0.00     0.026 A 
BRANCH  18  23
ATOM     23  C   UNL A   1      36.086  23.032  26.122  1.00  0.00     0.032 C 
ATOM     24  C   UNL A   1      36.741  23.726  24.937  1.00  0.00     0.009 C 
ENDBRANCH  18  23
ENDBRANCH  14  17
ENDBRANCH   8  13
ENDBRANCH   6   7
ENDBRANCH   3   6
ENDBRANCH   1   2
BRANCH   1  25
ATOM     25  C   UNL A   1      34.488  30.801  27.616  1.00  0.00     0.023 C 
BRANCH  25  26
ATOM     26  C   UNL A   1      33.244  31.664  27.676  1.00  0.00     0.023 C 
BRANCH  26  27
ATOM     27  C   UNL A   1      33.450  33.074  27.170  1.00  0.00     0.116 C 
BRANCH  27  28
ATOM     28  N   UNL A   1      32.814  34.103  27.983  1.00  0.00    -0.352 N 
ATOM     29  C   UNL A   1      33.267  34.660  29.160  1.00  0.00     0.251 C 
ATOM     30  H   UNL A   1      31.952  34.443  27.651  1.00  0.00     0.163 HD
ATOM     31  O   UNL A   1      32.603  35.479  29.771  1.00  0.00    -0.269 OA
BRANCH  29  32
ATOM     32  C   UNL A   1      34.561  34.190  29.697  1.00  0.00     0.039 A 
ATOM     33  C   UNL A   1      34.561  33.288  30.761  1.00  0.00     0.014 A 
ATOM     34  C   UNL A   1      35.753  34.546  29.065  1.00  0.00     0.014 A 
ATOM     35  C   UNL A   1      35.758  32.680  31.137  1.00  0.00     0.010 A 
ATOM     36  C   UNL A   1      36.911  33.842  29.349  1.00  0.00     0.010 A 
ATOM     37  C   UNL A   1      36.932  32.919  30.403  1.00  0.00    -0.014 A 
BRANCH  37  38
ATOM     38  C   UNL A   1      38.206  32.243  30.747  1.00  0.00     0.031 A 
ATOM     39  C   UNL A   1      39.075  32.806  31.837  1.00  0.00     0.074 A 
ATOM     40  C   UNL A   1      38.603  31.164  30.046  1.00  0.00     0.049 A 
ATOM     41  N   UNL A   1      40.228  32.377  32.282  1.00  0.00    -0.248 NA
ATOM     42  C   UNL A   1      38.609  34.043  32.486  1.00  0.00     0.031 C 
ATOM     43  C   UNL A   1      37.883  30.569  28.918  1.00  0.00     0.029 A 
ATOM     44  N   UNL A   1      39.711  30.368  30.190  1.00  0.00    -0.354 N 
ATOM     45  C   UNL A   1      40.627  33.299  33.240  1.00  0.00     0.074 A 
ATOM     46  C   UNL A   1      39.640  34.354  33.253  1.00  0.00     0.031 C 
ATOM     47  C   UNL A   1      38.536  29.467  28.513  1.00  0.00     0.029 A 
ATOM     48  C   UNL A   1      39.731  29.297  29.331  1.00  0.00     0.049 A 
ATOM     49  H   UNL A   1      40.422  30.548  30.846  1.00  0.00     0.167 HD
ATOM     50  C   UNL A   1      41.695  33.254  34.070  1.00  0.00     0.037 A 
ATOM     51  C   UNL A   1      40.608  28.281  29.235  1.00  0.00     0.037 A 
ATOM     52  C   UNL A   1      42.653  32.182  34.079  1.00  0.00     0.049 A 
ATOM     53  C   UNL A   1      41.778  28.237  30.178  1.00  0.00     0.074 A 
ATOM     54  C   UNL A   1      43.735  31.996  34.919  1.00  0.00     0.029 A 
ATOM     55  N   UNL A   1      42.635  31.108  33.201  1.00  0.00    -0.354 N 
ATOM     56  N   UNL A   1      42.102  29.072  31.136  1.00  0.00    -0.248 NA
ATOM     57  C   UNL A   1      42.699  27.102  30.029  1.00  0.00     0.031 C 
ATOM     58  C   UNL A   1      44.396  30.827  34.524  1.00  0.00     0.029 A 
ATOM     59  C   UNL A   1      43.699  30.263  33.466  1.00  0.00     0.049 A 
ATOM     60  H   UNL A   1      41.965  30.967  32.493  1.00  0.00     0.167 HD
ATOM     61  C   UNL A   1      43.246  28.550  31.724  1.00  0.00     0.074 A 
ATOM     62  C   UNL A   1      43.549  27.319  31.023  1.00  0.00     0.031 C 
ATOM     63  C   UNL A   1      43.980  29.043  32.753  1.00  0.00     0.037 A 
BRANCH  50  64
ATOM     64  C   UNL A   1      41.862  34.399  35.028  1.00  0.00     0.057 A 
ATOM     65  C   UNL A   1      41.269  34.392  36.300  1.00  0.00     0.134 A 
ATOM     66  C   UNL A   1      42.594  35.535  34.665  1.00  0.00     0.134 A 
ATOM     67  F   UNL A   1      40.535  33.342  36.701  1.00  0.00    -0.206 F 
ATOM     68  C   UNL A   1      41.359  35.490  37.156  1.00  0.00     0.040 A 
ATOM     69  C   UNL A   1      42.720  36.626  35.527  1.00  0.00     0.040 A 
ATOM     70  F   UNL A   1      43.190  35.609  33.466  1.00  0.00    -0.206 F 
ATOM     71  C   UNL A   1      42.090  36.611  36.771  1.00  0.00     0.006 A 
ENDBRANCH  50  64
BRANCH  51  72
ATOM     72  C   UNL A   1      40.370  27.184  28.263  1.00  0.00     0.057 A 
ATOM     73  C   UNL A   1      39.544  26.104  28.596  1.00  0.00     0.134 A 
ATOM     74  C   UNL A   1      40.948  27.186  26.989  1.00  0.00     0.134 A 
ATOM     75  F   UNL A   1      38.976  26.038  29.810  1.00  0.00    -0.206 F 
ATOM     76  C   UNL A   1      39.311  25.058  27.703  1.00  0.00     0.040 A 
ATOM     77  C   UNL A   1      40.705  26.157  26.077  1.00  0.00     0.040 A 
ATOM     78  F   UNL A   1      41.742  28.196  26.607  1.00  0.00    -0.206 F 
ATOM     79  C   UNL A   1      39.890  25.086  26.436  1.00  0.00     0.006 A 
ENDBRANCH  51  72
BRANCH  63  80
ATOM     80  C   UNL A   1      45.161  28.228  33.193  1.00  0.00     0.057 A 
ATOM     81  C   UNL A   1      46.442  28.443  32.673  1.00  0.00     0.134 A 
ATOM     82  C   UNL A   1      45.012  27.228  34.161  1.00  0.00     0.134 A 
ATOM     83  F   UNL A   1      46.647  29.378  31.733  1.00  0.00    -0.206 F 
ATOM     84  C   UNL A   1      47.531  27.669  33.077  1.00  0.00     0.040 A 
ATOM     85  C   UNL A   1      46.098  26.467  34.595  1.00  0.00     0.040 A 
ATOM     86  F   UNL A   1      43.812  26.978  34.708  1.00  0.00    -0.206 F 
ATOM     87  C   UNL A   1      47.360  26.681  34.045  1.00  0.00     0.006 A 
ENDBRANCH  63  80
ENDBRANCH  37  38
ENDBRANCH  29  32
ENDBRANCH  27  28
ENDBRANCH  26  27
ENDBRANCH  25  26
ENDBRANCH   1  25
TORSDOF 15
ENDMDL
