MODEL 1
REMARK VINA RESULT:     -12.7      0.000      0.000
REMARK SMILES O=C(NCCCCNC(=O)[C@H]1[C@@H](C(=O)NNC(=O)c2ccccc2Cl)[C@H]2C=C[C@@H]1C2)c1ccc(-c2c3nc(c(-c4c(F)cccc4F)c4ccc([nH]4)c(-c4c(F)cccc4F)c4nc(c(-c5c(F)cccc5F)c5ccc2[nH]5)C=C4)C=C3)cc1
REMARK SMILES IDX 6 1 5 2 4 3 3 4 1 5 2 6 31 8 32 9 84 10 33 11 83 12 34 13
REMARK SMILES IDX 35 14 36 15 77 16 37 17 82 18 76 19 78 20 38 21 81 22 75 23
REMARK SMILES IDX 74 24 39 26 65 27 48 28 64 29 49 30 52 31 63 32 79 33 50 34
REMARK SMILES IDX 51 35 62 37 80 38 53 39 40 40 41 41 46 42 42 43 43 44 45 45
REMARK SMILES IDX 47 46 44 47 66 48 67 49 72 50 68 51 69 52 71 53 73 54 70 55
REMARK SMILES IDX 54 56 55 57 60 58 56 59 57 60 59 61 61 62 58 63 7 64 8 65
REMARK SMILES IDX 9 66 10 68 11 69 12 70 29 71 26 72 28 73 30 74 27 75 13 76
REMARK SMILES IDX 14 77 15 78 16 80 17 81 18 83 19 84 20 85 24 86 21 87 23 88
REMARK SMILES IDX 25 89 22 90
REMARK H PARENT 3 7 78 25 52 36 8 67 15 79 16 82
REMARK Flexibility Score: inf
ROOT
ATOM      1  C   UNL A   1      38.530  23.568  26.324  1.00  0.00     0.023 C 
ENDROOT
BRANCH   1   2
ATOM      2  C   UNL A   1      39.099  22.169  26.002  1.00  0.00     0.023 C 
BRANCH   2   3
ATOM      3  C   UNL A   1      40.512  21.844  26.507  1.00  0.00     0.116 C 
BRANCH   3   4
ATOM      4  N   UNL A   1      41.562  22.063  25.525  1.00  0.00    -0.352 N 
ATOM      5  O   UNL A   1      43.335  23.134  24.589  1.00  0.00    -0.269 OA
ATOM      6  C   UNL A   1      42.459  23.111  25.443  1.00  0.00     0.251 C 
ATOM      7  H   UNL A   1      41.644  21.374  24.826  1.00  0.00     0.163 HD
BRANCH   6   8
ATOM      8  C   UNL A   1      42.370  24.217  26.422  1.00  0.00     0.039 A 
ATOM      9  C   UNL A   1      42.544  23.940  27.769  1.00  0.00     0.014 A 
ATOM     10  C   UNL A   1      42.101  25.522  26.023  1.00  0.00     0.014 A 
ATOM     11  C   UNL A   1      42.270  24.921  28.727  1.00  0.00     0.010 A 
ATOM     12  C   UNL A   1      41.932  26.532  26.992  1.00  0.00     0.010 A 
ATOM     13  C   UNL A   1      41.950  26.243  28.371  1.00  0.00    -0.014 A 
BRANCH  13  14
ATOM     14  C   UNL A   1      41.586  27.271  29.422  1.00  0.00     0.031 A 
ATOM     15  C   UNL A   1      42.431  27.440  30.675  1.00  0.00     0.074 A 
ATOM     16  C   UNL A   1      40.537  28.114  29.271  1.00  0.00     0.049 A 
ATOM     17  N   UNL A   1      42.168  28.116  31.770  1.00  0.00    -0.248 NA
ATOM     18  C   UNL A   1      43.731  26.751  30.711  1.00  0.00     0.031 C 
ATOM     19  C   UNL A   1      39.617  28.140  28.133  1.00  0.00     0.029 A 
ATOM     20  N   UNL A   1      40.079  29.141  30.072  1.00  0.00    -0.354 N 
ATOM     21  C   UNL A   1      43.212  27.851  32.652  1.00  0.00     0.074 A 
ATOM     22  C   UNL A   1      44.128  26.970  31.959  1.00  0.00     0.031 C 
ATOM     23  C   UNL A   1      38.783  29.183  28.255  1.00  0.00     0.029 A 
ATOM     24  C   UNL A   1      38.997  29.816  29.551  1.00  0.00     0.049 A 
ATOM     25  H   UNL A   1      40.488  29.370  30.938  1.00  0.00     0.167 HD
ATOM     26  C   UNL A   1      43.396  28.292  33.921  1.00  0.00     0.037 A 
ATOM     27  C   UNL A   1      38.210  30.785  30.062  1.00  0.00     0.037 A 
ATOM     28  C   UNL A   1      42.561  29.260  34.587  1.00  0.00     0.049 A 
ATOM     29  C   UNL A   1      38.430  31.260  31.472  1.00  0.00     0.074 A 
ATOM     30  C   UNL A   1      42.703  29.786  35.863  1.00  0.00     0.029 A 
ATOM     31  N   UNL A   1      41.451  29.871  34.030  1.00  0.00    -0.354 N 
ATOM     32  N   UNL A   1      39.368  30.920  32.320  1.00  0.00    -0.248 NA
ATOM     33  C   UNL A   1      37.451  32.219  32.011  1.00  0.00     0.031 C 
ATOM     34  C   UNL A   1      41.659  30.689  36.088  1.00  0.00     0.029 A 
ATOM     35  C   UNL A   1      40.893  30.757  34.938  1.00  0.00     0.049 A 
ATOM     36  H   UNL A   1      41.110  29.703  33.121  1.00  0.00     0.167 HD
ATOM     37  C   UNL A   1      39.086  31.613  33.491  1.00  0.00     0.074 A 
ATOM     38  C   UNL A   1      37.917  32.424  33.234  1.00  0.00     0.031 C 
ATOM     39  C   UNL A   1      39.730  31.562  34.682  1.00  0.00     0.037 A 
BRANCH  26  40
ATOM     40  C   UNL A   1      44.534  27.714  34.716  1.00  0.00     0.057 A 
ATOM     41  C   UNL A   1      45.786  28.332  34.799  1.00  0.00     0.134 A 
ATOM     42  C   UNL A   1      44.329  26.564  35.493  1.00  0.00     0.134 A 
ATOM     43  F   UNL A   1      46.051  29.431  34.075  1.00  0.00    -0.206 F 
ATOM     44  C   UNL A   1      46.797  27.822  35.617  1.00  0.00     0.040 A 
ATOM     45  C   UNL A   1      45.322  26.060  36.333  1.00  0.00     0.040 A 
ATOM     46  F   UNL A   1      43.146  25.931  35.471  1.00  0.00    -0.206 F 
ATOM     47  C   UNL A   1      46.562  26.689  36.394  1.00  0.00     0.006 A 
ENDBRANCH  26  40
BRANCH  27  48
ATOM     48  C   UNL A   1      37.059  31.313  29.274  1.00  0.00     0.057 A 
ATOM     49  C   UNL A   1      37.087  32.593  28.709  1.00  0.00     0.134 A 
ATOM     50  C   UNL A   1      35.891  30.560  29.096  1.00  0.00     0.134 A 
ATOM     51  F   UNL A   1      38.158  33.384  28.877  1.00  0.00    -0.206 F 
ATOM     52  C   UNL A   1      35.996  33.106  28.001  1.00  0.00     0.040 A 
ATOM     53  C   UNL A   1      34.811  31.042  28.358  1.00  0.00     0.040 A 
ATOM     54  F   UNL A   1      35.793  29.329  29.621  1.00  0.00    -0.206 F 
ATOM     55  C   UNL A   1      34.858  32.324  27.815  1.00  0.00     0.006 A 
ENDBRANCH  27  48
BRANCH  39  56
ATOM     56  C   UNL A   1      39.193  32.420  35.789  1.00  0.00     0.057 A 
ATOM     57  C   UNL A   1      38.252  31.932  36.705  1.00  0.00     0.134 A 
ATOM     58  C   UNL A   1      39.631  33.740  35.952  1.00  0.00     0.134 A 
ATOM     59  F   UNL A   1      37.782  30.679  36.594  1.00  0.00    -0.206 F 
ATOM     60  C   UNL A   1      37.746  32.735  37.729  1.00  0.00     0.040 A 
ATOM     61  C   UNL A   1      39.149  34.545  36.985  1.00  0.00     0.040 A 
ATOM     62  F   UNL A   1      40.535  34.266  35.113  1.00  0.00    -0.206 F 
ATOM     63  C   UNL A   1      38.198  34.045  37.873  1.00  0.00     0.006 A 
ENDBRANCH  39  56
ENDBRANCH  13  14
ENDBRANCH   6   8
ENDBRANCH   3   4
ENDBRANCH   2   3
ENDBRANCH   1   2
BRANCH   1  64
ATOM     64  C   UNL A   1      37.013  23.640  26.191  1.00  0.00     0.116 C 
BRANCH  64  65
ATOM     65  N   UNL A   1      36.321  22.363  26.131  1.00  0.00    -0.356 N 
ATOM     66  C   UNL A   1      35.427  22.029  25.131  1.00  0.00     0.224 C 
ATOM     67  H   UNL A   1      36.499  21.702  26.839  1.00  0.00     0.163 HD
ATOM     68  O   UNL A   1      35.776  21.241  24.254  1.00  0.00    -0.275 OA
BRANCH  66  69
ATOM     69  C   UNL A   1      33.963  22.279  25.416  1.00  0.00     0.098 C 
ATOM     70  C   UNL A   1      33.280  23.660  25.443  1.00  0.00     0.100 C 
ATOM     71  C   UNL A   1      32.932  21.398  24.644  1.00  0.00     0.025 C 
ATOM     72  C   UNL A   1      31.836  23.332  24.940  1.00  0.00     0.025 C 
ATOM     73  C   UNL A   1      32.552  21.938  23.281  1.00  0.00    -0.027 C 
ATOM     74  C   UNL A   1      31.659  21.861  25.373  1.00  0.00     0.017 C 
ATOM     75  C   UNL A   1      31.853  23.071  23.464  1.00  0.00    -0.027 C 
BRANCH  70  76
ATOM     76  C   UNL A   1      33.931  24.923  24.869  1.00  0.00     0.242 C 
ATOM     77  O   UNL A   1      34.671  24.802  23.879  1.00  0.00    -0.273 OA
ATOM     78  N   UNL A   1      33.783  26.201  25.346  1.00  0.00    -0.267 N 
ATOM     79  H   UNL A   1      34.212  26.919  24.827  1.00  0.00     0.191 HD
BRANCH  78  80
ATOM     80  N   UNL A   1      33.096  26.582  26.479  1.00  0.00    -0.263 N 
ATOM     81  C   UNL A   1      31.852  27.163  26.584  1.00  0.00     0.271 C 
ATOM     82  H   UNL A   1      33.559  26.416  27.331  1.00  0.00     0.191 HD
ATOM     83  O   UNL A   1      31.410  27.459  27.692  1.00  0.00    -0.267 OA
BRANCH  81  84
ATOM     84  C   UNL A   1      31.092  27.592  25.402  1.00  0.00     0.060 A 
ATOM     85  C   UNL A   1      30.291  26.628  24.776  1.00  0.00     0.015 A 
ATOM     86  C   UNL A   1      31.347  28.809  24.753  1.00  0.00     0.053 A 
ATOM     87  C   UNL A   1      29.752  26.889  23.518  1.00  0.00     0.001 A 
ATOM     88  C   UNL A   1      30.719  29.099  23.541  1.00  0.00     0.021 A 
ATOM     89  Cl  UNL A   1      32.458  29.987  25.336  1.00  0.00    -0.083 Cl
ATOM     90  C   UNL A   1      29.940  28.132  22.915  1.00  0.00     0.002 A 
ENDBRANCH  81  84
ENDBRANCH  78  80
ENDBRANCH  70  76
ENDBRANCH  66  69
ENDBRANCH  64  65
ENDBRANCH   1  64
TORSDOF 14
ENDMDL
MODEL 2
REMARK VINA RESULT:     -12.6      4.536      9.205
REMARK SMILES O=C(NCCCCNC(=O)[C@H]1[C@@H](C(=O)NNC(=O)c2ccccc2Cl)[C@H]2C=C[C@@H]1C2)c1ccc(-c2c3nc(c(-c4c(F)cccc4F)c4ccc([nH]4)c(-c4c(F)cccc4F)c4nc(c(-c5c(F)cccc5F)c5ccc2[nH]5)C=C4)C=C3)cc1
REMARK SMILES IDX 6 1 5 2 4 3 3 4 1 5 2 6 31 8 32 9 84 10 33 11 83 12 34 13
REMARK SMILES IDX 35 14 36 15 77 16 37 17 82 18 76 19 78 20 38 21 81 22 75 23
REMARK SMILES IDX 74 24 39 26 65 27 48 28 64 29 49 30 52 31 63 32 79 33 50 34
REMARK SMILES IDX 51 35 62 37 80 38 53 39 40 40 41 41 46 42 42 43 43 44 45 45
REMARK SMILES IDX 47 46 44 47 66 48 67 49 72 50 68 51 69 52 71 53 73 54 70 55
REMARK SMILES IDX 54 56 55 57 60 58 56 59 57 60 59 61 61 62 58 63 7 64 8 65
REMARK SMILES IDX 9 66 10 68 11 69 12 70 29 71 26 72 28 73 30 74 27 75 13 76
REMARK SMILES IDX 14 77 15 78 16 80 17 81 18 83 19 84 20 85 24 86 21 87 23 88
REMARK SMILES IDX 25 89 22 90
REMARK H PARENT 3 7 78 25 52 36 8 67 15 79 16 82
REMARK Flexibility Score: inf
ROOT
ATOM      1  C   UNL A   1      34.797  29.894  27.571  1.00  0.00     0.023 C 
ENDROOT
BRANCH   1   2
ATOM      2  C   UNL A   1      33.852  31.109  27.711  1.00  0.00     0.023 C 
BRANCH   2   3
ATOM      3  C   UNL A   1      34.403  32.358  28.415  1.00  0.00     0.116 C 
BRANCH   3   4
ATOM      4  N   UNL A   1      34.074  32.441  29.828  1.00  0.00    -0.352 N 
ATOM      5  O   UNL A   1      34.481  32.330  32.062  1.00  0.00    -0.269 OA
ATOM      6  C   UNL A   1      34.876  32.156  30.917  1.00  0.00     0.251 C 
ATOM      7  H   UNL A   1      33.159  32.739  30.037  1.00  0.00     0.163 HD
BRANCH   6   8
ATOM      8  C   UNL A   1      36.248  31.649  30.692  1.00  0.00     0.039 A 
ATOM      9  C   UNL A   1      37.158  32.449  30.018  1.00  0.00     0.014 A 
ATOM     10  C   UNL A   1      36.637  30.387  31.126  1.00  0.00     0.014 A 
ATOM     11  C   UNL A   1      38.391  31.922  29.619  1.00  0.00     0.010 A 
ATOM     12  C   UNL A   1      37.924  29.902  30.812  1.00  0.00     0.010 A 
ATOM     13  C   UNL A   1      38.810  30.633  29.996  1.00  0.00    -0.014 A 
BRANCH  13  14
ATOM     14  C   UNL A   1      40.116  30.057  29.493  1.00  0.00     0.031 A 
ATOM     15  C   UNL A   1      41.392  30.882  29.507  1.00  0.00     0.074 A 
ATOM     16  C   UNL A   1      40.219  28.775  29.064  1.00  0.00     0.049 A 
ATOM     17  N   UNL A   1      42.549  30.635  28.936  1.00  0.00    -0.248 NA
ATOM     18  C   UNL A   1      41.364  32.157  30.243  1.00  0.00     0.031 C 
ATOM     19  C   UNL A   1      39.125  27.806  28.996  1.00  0.00     0.029 A 
ATOM     20  N   UNL A   1      41.310  28.053  28.625  1.00  0.00    -0.354 N 
ATOM     21  C   UNL A   1      43.342  31.758  29.157  1.00  0.00     0.074 A 
ATOM     22  C   UNL A   1      42.544  32.682  29.935  1.00  0.00     0.031 C 
ATOM     23  C   UNL A   1      39.612  26.605  28.650  1.00  0.00     0.029 A 
ATOM     24  C   UNL A   1      41.025  26.741  28.318  1.00  0.00     0.049 A 
ATOM     25  H   UNL A   1      42.212  28.440  28.541  1.00  0.00     0.167 HD
ATOM     26  C   UNL A   1      44.612  32.006  28.751  1.00  0.00     0.037 A 
ATOM     27  C   UNL A   1      41.773  25.762  27.767  1.00  0.00     0.037 A 
ATOM     28  C   UNL A   1      45.463  31.057  28.078  1.00  0.00     0.049 A 
ATOM     29  C   UNL A   1      43.179  26.058  27.323  1.00  0.00     0.074 A 
ATOM     30  C   UNL A   1      46.777  31.221  27.666  1.00  0.00     0.029 A 
ATOM     31  N   UNL A   1      45.104  29.761  27.748  1.00  0.00    -0.354 N 
ATOM     32  N   UNL A   1      43.872  27.161  27.457  1.00  0.00    -0.248 NA
ATOM     33  C   UNL A   1      43.890  24.985  26.609  1.00  0.00     0.031 C 
ATOM     34  C   UNL A   1      47.200  30.036  27.055  1.00  0.00     0.029 A 
ATOM     35  C   UNL A   1      46.165  29.121  27.125  1.00  0.00     0.049 A 
ATOM     36  H   UNL A   1      44.226  29.354  27.929  1.00  0.00     0.167 HD
ATOM     37  C   UNL A   1      45.091  26.918  26.835  1.00  0.00     0.074 A 
ATOM     38  C   UNL A   1      45.062  25.552  26.362  1.00  0.00     0.031 C 
ATOM     39  C   UNL A   1      46.134  27.763  26.654  1.00  0.00     0.037 A 
BRANCH  26  40
ATOM     40  C   UNL A   1      45.176  33.379  28.984  1.00  0.00     0.057 A 
ATOM     41  C   UNL A   1      45.968  33.690  30.095  1.00  0.00     0.134 A 
ATOM     42  C   UNL A   1      45.000  34.380  28.017  1.00  0.00     0.134 A 
ATOM     43  F   UNL A   1      46.169  32.781  31.062  1.00  0.00    -0.206 F 
ATOM     44  C   UNL A   1      46.555  34.950  30.242  1.00  0.00     0.040 A 
ATOM     45  C   UNL A   1      45.602  35.633  28.139  1.00  0.00     0.040 A 
ATOM     46  F   UNL A   1      44.265  34.144  26.920  1.00  0.00    -0.206 F 
ATOM     47  C   UNL A   1      46.381  35.921  29.257  1.00  0.00     0.006 A 
ENDBRANCH  26  40
BRANCH  27  48
ATOM     48  C   UNL A   1      41.180  24.420  27.503  1.00  0.00     0.057 A 
ATOM     49  C   UNL A   1      40.220  24.230  26.503  1.00  0.00     0.134 A 
ATOM     50  C   UNL A   1      41.536  23.303  28.270  1.00  0.00     0.134 A 
ATOM     51  F   UNL A   1      39.802  25.267  25.760  1.00  0.00    -0.206 F 
ATOM     52  C   UNL A   1      39.634  22.981  26.278  1.00  0.00     0.040 A 
ATOM     53  C   UNL A   1      40.990  22.042  28.029  1.00  0.00     0.040 A 
ATOM     54  F   UNL A   1      42.442  23.417  29.252  1.00  0.00    -0.206 F 
ATOM     55  C   UNL A   1      40.028  21.881  27.035  1.00  0.00     0.006 A 
ENDBRANCH  27  48
BRANCH  39  56
ATOM     56  C   UNL A   1      47.333  27.229  25.931  1.00  0.00     0.057 A 
ATOM     57  C   UNL A   1      48.371  26.578  26.611  1.00  0.00     0.134 A 
ATOM     58  C   UNL A   1      47.447  27.350  24.540  1.00  0.00     0.134 A 
ATOM     59  F   UNL A   1      48.330  26.442  27.945  1.00  0.00    -0.206 F 
ATOM     60  C   UNL A   1      49.492  26.090  25.935  1.00  0.00     0.040 A 
ATOM     61  C   UNL A   1      48.551  26.846  23.852  1.00  0.00     0.040 A 
ATOM     62  F   UNL A   1      46.485  27.956  23.829  1.00  0.00    -0.206 F 
ATOM     63  C   UNL A   1      49.582  26.220  24.552  1.00  0.00     0.006 A 
ENDBRANCH  39  56
ENDBRANCH  13  14
ENDBRANCH   6   8
ENDBRANCH   3   4
ENDBRANCH   2   3
ENDBRANCH   1   2
BRANCH   1  64
ATOM     64  C   UNL A   1      34.330  28.895  26.518  1.00  0.00     0.116 C 
BRANCH  64  65
ATOM     65  N   UNL A   1      33.594  29.455  25.396  1.00  0.00    -0.356 N 
ATOM     66  C   UNL A   1      32.252  29.209  25.169  1.00  0.00     0.224 C 
ATOM     67  H   UNL A   1      34.076  30.039  24.766  1.00  0.00     0.163 HD
ATOM     68  O   UNL A   1      31.431  30.090  25.418  1.00  0.00    -0.275 OA
BRANCH  66  69
ATOM     69  C   UNL A   1      31.919  28.079  24.221  1.00  0.00     0.098 C 
ATOM     70  C   UNL A   1      31.552  26.642  24.637  1.00  0.00     0.100 C 
ATOM     71  C   UNL A   1      30.889  28.387  23.090  1.00  0.00     0.025 C 
ATOM     72  C   UNL A   1      30.557  26.209  23.511  1.00  0.00     0.025 C 
ATOM     73  C   UNL A   1      29.443  28.201  23.501  1.00  0.00    -0.027 C 
ATOM     74  C   UNL A   1      31.017  27.065  22.312  1.00  0.00     0.017 C 
ATOM     75  C   UNL A   1      29.234  26.890  23.704  1.00  0.00    -0.027 C 
BRANCH  70  76
ATOM     76  C   UNL A   1      31.166  26.262  26.071  1.00  0.00     0.242 C 
ATOM     77  O   UNL A   1      31.236  27.138  26.947  1.00  0.00    -0.273 OA
ATOM     78  N   UNL A   1      30.746  25.028  26.498  1.00  0.00    -0.267 N 
ATOM     79  H   UNL A   1      30.468  24.957  27.439  1.00  0.00     0.191 HD
BRANCH  78  80
ATOM     80  N   UNL A   1      30.675  23.876  25.744  1.00  0.00    -0.263 N 
ATOM     81  C   UNL A   1      31.697  23.070  25.294  1.00  0.00     0.271 C 
ATOM     82  H   UNL A   1      29.768  23.589  25.493  1.00  0.00     0.191 HD
ATOM     83  O   UNL A   1      31.437  22.086  24.604  1.00  0.00    -0.267 OA
BRANCH  81  84
ATOM     84  C   UNL A   1      33.109  23.431  25.475  1.00  0.00     0.060 A 
ATOM     85  C   UNL A   1      33.780  23.950  24.360  1.00  0.00     0.015 A 
ATOM     86  C   UNL A   1      33.841  23.034  26.603  1.00  0.00     0.053 A 
ATOM     87  C   UNL A   1      35.169  24.071  24.385  1.00  0.00     0.001 A 
ATOM     88  C   UNL A   1      35.219  23.256  26.655  1.00  0.00     0.021 A 
ATOM     89  Cl  UNL A   1      33.151  22.217  27.950  1.00  0.00    -0.083 Cl
ATOM     90  C   UNL A   1      35.883  23.753  25.539  1.00  0.00     0.002 A 
ENDBRANCH  81  84
ENDBRANCH  78  80
ENDBRANCH  70  76
ENDBRANCH  66  69
ENDBRANCH  64  65
ENDBRANCH   1  64
TORSDOF 14
ENDMDL
MODEL 3
REMARK VINA RESULT:     -12.5      4.318      9.175
REMARK SMILES O=C(NCCCCNC(=O)[C@H]1[C@@H](C(=O)NNC(=O)c2ccccc2Cl)[C@H]2C=C[C@@H]1C2)c1ccc(-c2c3nc(c(-c4c(F)cccc4F)c4ccc([nH]4)c(-c4c(F)cccc4F)c4nc(c(-c5c(F)cccc5F)c5ccc2[nH]5)C=C4)C=C3)cc1
REMARK SMILES IDX 6 1 5 2 4 3 3 4 1 5 2 6 31 8 32 9 84 10 33 11 83 12 34 13
REMARK SMILES IDX 35 14 36 15 77 16 37 17 82 18 76 19 78 20 38 21 81 22 75 23
REMARK SMILES IDX 74 24 39 26 65 27 48 28 64 29 49 30 52 31 63 32 79 33 50 34
REMARK SMILES IDX 51 35 62 37 80 38 53 39 40 40 41 41 46 42 42 43 43 44 45 45
REMARK SMILES IDX 47 46 44 47 66 48 67 49 72 50 68 51 69 52 71 53 73 54 70 55
REMARK SMILES IDX 54 56 55 57 60 58 56 59 57 60 59 61 61 62 58 63 7 64 8 65
REMARK SMILES IDX 9 66 10 68 11 69 12 70 29 71 26 72 28 73 30 74 27 75 13 76
REMARK SMILES IDX 14 77 15 78 16 80 17 81 18 83 19 84 20 85 24 86 21 87 23 88
REMARK SMILES IDX 25 89 22 90
REMARK H PARENT 3 7 78 25 52 36 8 67 15 79 16 82
REMARK Flexibility Score: inf
ROOT
ATOM      1  C   UNL A   1      34.747  29.827  27.627  1.00  0.00     0.023 C 
ENDROOT
BRANCH   1   2
ATOM      2  C   UNL A   1      33.861  31.092  27.654  1.00  0.00     0.023 C 
BRANCH   2   3
ATOM      3  C   UNL A   1      34.417  32.333  28.368  1.00  0.00     0.116 C 
BRANCH   3   4
ATOM      4  N   UNL A   1      34.067  32.419  29.776  1.00  0.00    -0.352 N 
ATOM      5  O   UNL A   1      34.445  32.328  32.015  1.00  0.00    -0.269 OA
ATOM      6  C   UNL A   1      34.858  32.154  30.877  1.00  0.00     0.251 C 
ATOM      7  H   UNL A   1      33.144  32.702  29.970  1.00  0.00     0.163 HD
BRANCH   6   8
ATOM      8  C   UNL A   1      36.242  31.670  30.674  1.00  0.00     0.039 A 
ATOM      9  C   UNL A   1      37.113  32.425  29.904  1.00  0.00     0.014 A 
ATOM     10  C   UNL A   1      36.681  30.470  31.224  1.00  0.00     0.014 A 
ATOM     11  C   UNL A   1      38.355  31.899  29.533  1.00  0.00     0.010 A 
ATOM     12  C   UNL A   1      37.976  29.996  30.932  1.00  0.00     0.010 A 
ATOM     13  C   UNL A   1      38.823  30.668  30.028  1.00  0.00    -0.014 A 
BRANCH  13  14
ATOM     14  C   UNL A   1      40.137  30.084  29.557  1.00  0.00     0.031 A 
ATOM     15  C   UNL A   1      41.417  30.904  29.598  1.00  0.00     0.074 A 
ATOM     16  C   UNL A   1      40.244  28.802  29.133  1.00  0.00     0.049 A 
ATOM     17  N   UNL A   1      42.586  30.651  29.055  1.00  0.00    -0.248 NA
ATOM     18  C   UNL A   1      41.378  32.181  30.330  1.00  0.00     0.031 C 
ATOM     19  C   UNL A   1      39.148  27.837  29.042  1.00  0.00     0.029 A 
ATOM     20  N   UNL A   1      41.343  28.073  28.722  1.00  0.00    -0.354 N 
ATOM     21  C   UNL A   1      43.378  31.770  29.293  1.00  0.00     0.074 A 
ATOM     22  C   UNL A   1      42.566  32.700  30.049  1.00  0.00     0.031 C 
ATOM     23  C   UNL A   1      39.637  26.633  28.710  1.00  0.00     0.029 A 
ATOM     24  C   UNL A   1      41.058  26.762  28.411  1.00  0.00     0.049 A 
ATOM     25  H   UNL A   1      42.247  28.456  28.657  1.00  0.00     0.167 HD
ATOM     26  C   UNL A   1      44.658  32.011  28.916  1.00  0.00     0.037 A 
ATOM     27  C   UNL A   1      41.815  25.778  27.880  1.00  0.00     0.037 A 
ATOM     28  C   UNL A   1      45.520  31.056  28.265  1.00  0.00     0.049 A 
ATOM     29  C   UNL A   1      43.232  26.066  27.469  1.00  0.00     0.074 A 
ATOM     30  C   UNL A   1      46.844  31.213  27.883  1.00  0.00     0.029 A 
ATOM     31  N   UNL A   1      45.163  29.762  27.929  1.00  0.00    -0.354 N 
ATOM     32  N   UNL A   1      43.927  27.166  27.615  1.00  0.00    -0.248 NA
ATOM     33  C   UNL A   1      43.954  24.988  26.773  1.00  0.00     0.031 C 
ATOM     34  C   UNL A   1      47.277  30.025  27.285  1.00  0.00     0.029 A 
ATOM     35  C   UNL A   1      46.235  29.115  27.333  1.00  0.00     0.049 A 
ATOM     36  H   UNL A   1      44.279  29.359  28.091  1.00  0.00     0.167 HD
ATOM     37  C   UNL A   1      45.159  26.916  27.023  1.00  0.00     0.074 A 
ATOM     38  C   UNL A   1      45.134  25.549  26.553  1.00  0.00     0.031 C 
ATOM     39  C   UNL A   1      46.209  27.757  26.865  1.00  0.00     0.037 A 
BRANCH  26  40
ATOM     40  C   UNL A   1      45.224  33.383  29.159  1.00  0.00     0.057 A 
ATOM     41  C   UNL A   1      45.053  34.439  28.258  1.00  0.00     0.134 A 
ATOM     42  C   UNL A   1      45.866  33.668  30.373  1.00  0.00     0.134 A 
ATOM     43  F   UNL A   1      44.455  34.232  27.074  1.00  0.00    -0.206 F 
ATOM     44  C   UNL A   1      45.511  35.727  28.550  1.00  0.00     0.040 A 
ATOM     45  C   UNL A   1      46.305  34.955  30.687  1.00  0.00     0.040 A 
ATOM     46  F   UNL A   1      46.049  32.704  31.288  1.00  0.00    -0.206 F 
ATOM     47  C   UNL A   1      46.128  35.988  29.771  1.00  0.00     0.006 A 
ENDBRANCH  26  40
BRANCH  27  48
ATOM     48  C   UNL A   1      41.221  24.439  27.606  1.00  0.00     0.057 A 
ATOM     49  C   UNL A   1      40.280  24.251  26.587  1.00  0.00     0.134 A 
ATOM     50  C   UNL A   1      41.559  23.320  28.379  1.00  0.00     0.134 A 
ATOM     51  F   UNL A   1      39.880  25.289  25.836  1.00  0.00    -0.206 F 
ATOM     52  C   UNL A   1      39.693  23.005  26.351  1.00  0.00     0.040 A 
ATOM     53  C   UNL A   1      41.012  22.061  28.128  1.00  0.00     0.040 A 
ATOM     54  F   UNL A   1      42.446  23.431  29.379  1.00  0.00    -0.206 F 
ATOM     55  C   UNL A   1      40.069  21.903  27.116  1.00  0.00     0.006 A 
ENDBRANCH  27  48
BRANCH  39  56
ATOM     56  C   UNL A   1      47.422  27.215  26.170  1.00  0.00     0.057 A 
ATOM     57  C   UNL A   1      47.591  27.337  24.785  1.00  0.00     0.134 A 
ATOM     58  C   UNL A   1      48.439  26.577  26.892  1.00  0.00     0.134 A 
ATOM     59  F   UNL A   1      46.646  27.924  24.034  1.00  0.00    -0.206 F 
ATOM     60  C   UNL A   1      48.717  26.822  24.138  1.00  0.00     0.040 A 
ATOM     61  C   UNL A   1      49.580  26.079  26.260  1.00  0.00     0.040 A 
ATOM     62  F   UNL A   1      48.343  26.433  28.222  1.00  0.00    -0.206 F 
ATOM     63  C   UNL A   1      49.717  26.195  24.877  1.00  0.00     0.006 A 
ENDBRANCH  39  56
ENDBRANCH  13  14
ENDBRANCH   6   8
ENDBRANCH   3   4
ENDBRANCH   2   3
ENDBRANCH   1   2
BRANCH   1  64
ATOM     64  C   UNL A   1      34.471  28.932  26.423  1.00  0.00     0.116 C 
BRANCH  64  65
ATOM     65  N   UNL A   1      33.608  29.497  25.399  1.00  0.00    -0.356 N 
ATOM     66  C   UNL A   1      32.361  28.986  25.089  1.00  0.00     0.224 C 
ATOM     67  H   UNL A   1      33.929  30.283  24.900  1.00  0.00     0.163 HD
ATOM     68  O   UNL A   1      31.357  29.587  25.467  1.00  0.00    -0.275 OA
BRANCH  66  69
ATOM     69  C   UNL A   1      32.294  28.002  23.943  1.00  0.00     0.098 C 
ATOM     70  C   UNL A   1      32.814  26.552  23.978  1.00  0.00     0.100 C 
ATOM     71  C   UNL A   1      30.923  27.862  23.211  1.00  0.00     0.025 C 
ATOM     72  C   UNL A   1      31.820  25.814  23.022  1.00  0.00     0.025 C 
ATOM     73  C   UNL A   1      29.976  26.870  23.855  1.00  0.00    -0.027 C 
ATOM     74  C   UNL A   1      31.380  26.943  22.065  1.00  0.00     0.017 C 
ATOM     75  C   UNL A   1      30.492  25.640  23.696  1.00  0.00    -0.027 C 
BRANCH  70  76
ATOM     76  C   UNL A   1      33.172  25.826  25.280  1.00  0.00     0.242 C 
ATOM     77  O   UNL A   1      32.471  26.042  26.282  1.00  0.00    -0.273 OA
ATOM     78  N   UNL A   1      34.210  24.947  25.460  1.00  0.00    -0.267 N 
ATOM     79  H   UNL A   1      34.270  24.509  26.339  1.00  0.00     0.191 HD
BRANCH  78  80
ATOM     80  N   UNL A   1      35.178  24.617  24.536  1.00  0.00    -0.263 N 
ATOM     81  C   UNL A   1      35.278  23.489  23.751  1.00  0.00     0.271 C 
ATOM     82  H   UNL A   1      35.897  25.278  24.421  1.00  0.00     0.191 HD
ATOM     83  O   UNL A   1      36.239  23.358  22.995  1.00  0.00    -0.267 OA
BRANCH  81  84
ATOM     84  C   UNL A   1      34.357  22.355  23.898  1.00  0.00     0.060 A 
ATOM     85  C   UNL A   1      33.194  22.374  23.117  1.00  0.00     0.015 A 
ATOM     86  C   UNL A   1      34.471  21.434  24.950  1.00  0.00     0.053 A 
ATOM     87  C   UNL A   1      32.164  21.476  23.389  1.00  0.00     0.001 A 
ATOM     88  C   UNL A   1      33.477  20.472  25.146  1.00  0.00     0.021 A 
ATOM     89  Cl  UNL A   1      35.762  21.438  26.086  1.00  0.00    -0.083 Cl
ATOM     90  C   UNL A   1      32.317  20.508  24.381  1.00  0.00     0.002 A 
ENDBRANCH  81  84
ENDBRANCH  78  80
ENDBRANCH  70  76
ENDBRANCH  66  69
ENDBRANCH  64  65
ENDBRANCH   1  64
TORSDOF 14
ENDMDL
