MODEL 1
REMARK VINA RESULT:     -10.9      0.000      0.000
REMARK SMILES CC(C)[C@@H]([NH3+])C(=O)N[C@@H](Cc1ccccc1)C(=O)NCCCCNC(=O)c1ccc(-c2c3nc(c(-c4c(F)cccc4F)c4ccc([nH]4)c(-c4c(F)cccc4F)c4nc(c(-c5c(F)cccc5F)c5ccc2[nH]5)C=C4)C=C3)cc1
REMARK SMILES IDX 21 1 20 2 19 3 17 4 18 5 9 7 8 8 6 9 7 10 4 12 2 13 1 14
REMARK SMILES IDX 3 15 5 16 10 20 11 21 12 22 16 23 13 24 15 25 14 26 22 27
REMARK SMILES IDX 23 28 24 29 25 30 26 32 27 33 28 34 80 35 29 36 79 37 30 38
REMARK SMILES IDX 31 39 32 40 73 41 33 42 78 43 72 44 74 45 34 46 77 47 71 48
REMARK SMILES IDX 70 49 35 51 61 52 44 53 60 54 45 55 48 56 59 57 75 58 46 59
REMARK SMILES IDX 47 60 58 62 76 63 49 64 36 65 37 66 42 67 38 68 39 69 41 70
REMARK SMILES IDX 43 71 40 72 62 73 63 74 68 75 64 76 65 77 67 78 69 79 66 80
REMARK SMILES IDX 50 81 51 82 56 83 52 84 53 85 55 86 57 87 54 88
REMARK H PARENT 19 6 8 11 5 17 5 18 5 19 24 31 74 50 48 61
REMARK Flexibility Score: inf
ROOT
ATOM      1  C   UNL A   1      34.072  24.148  26.112  1.00  0.00     0.023 C 
ENDROOT
BRANCH   1   2
ATOM      2  C   UNL A   1      32.731  23.627  25.624  1.00  0.00     0.116 C 
BRANCH   2   3
ATOM      3  N   UNL A   1      31.594  24.207  26.307  1.00  0.00    -0.354 N 
ATOM      4  C   UNL A   1      30.974  25.406  26.101  1.00  0.00     0.242 C 
ATOM      5  O   UNL A   1      29.779  25.460  26.416  1.00  0.00    -0.273 OA
ATOM      6  H   UNL A   1      31.211  23.654  27.026  1.00  0.00     0.163 HD
BRANCH   4   7
ATOM      7  C   UNL A   1      31.648  26.603  25.387  1.00  0.00     0.175 C 
BRANCH   7   8
ATOM      8  N   UNL A   1      31.521  26.588  23.924  1.00  0.00    -0.339 N 
ATOM      9  C   UNL A   1      30.557  27.115  23.122  1.00  0.00     0.279 C 
ATOM     10  O   UNL A   1      30.805  27.193  21.914  1.00  0.00    -0.268 OA
ATOM     11  H   UNL A   1      32.248  26.123  23.449  1.00  0.00     0.164 HD
BRANCH   9  12
ATOM     12  C   UNL A   1      29.184  27.560  23.672  1.00  0.00     0.273 C 
BRANCH  12  13
ATOM     13  C   UNL A   1      28.580  28.732  22.859  1.00  0.00     0.051 C 
ATOM     14  C   UNL A   1      27.073  28.885  23.087  1.00  0.00     0.014 C 
ATOM     15  C   UNL A   1      29.278  30.056  23.201  1.00  0.00     0.014 C 
ENDBRANCH  12  13
BRANCH  12  16
ATOM     16  N   UNL A   1      28.296  26.385  23.771  1.00  0.00    -0.347 N 
ATOM     17  H   UNL A   1      28.825  25.540  23.555  1.00  0.00     0.345 HD
ATOM     18  H   UNL A   1      27.527  26.483  23.107  1.00  0.00     0.345 HD
ATOM     19  H   UNL A   1      27.922  26.320  24.717  1.00  0.00     0.345 HD
ENDBRANCH  12  16
ENDBRANCH   9  12
ENDBRANCH   7   8
BRANCH   7  20
ATOM     20  C   UNL A   1      31.309  27.971  26.020  1.00  0.00     0.070 C 
BRANCH  20  21
ATOM     21  C   UNL A   1      32.462  28.810  26.518  1.00  0.00    -0.045 A 
ATOM     22  C   UNL A   1      32.296  30.175  26.792  1.00  0.00     0.004 A 
ATOM     23  C   UNL A   1      33.716  28.220  26.740  1.00  0.00     0.004 A 
ATOM     24  C   UNL A   1      33.349  30.921  27.328  1.00  0.00     0.000 A 
ATOM     25  C   UNL A   1      34.769  28.971  27.266  1.00  0.00     0.000 A 
ATOM     26  C   UNL A   1      34.581  30.317  27.574  1.00  0.00     0.000 A 
ENDBRANCH  20  21
ENDBRANCH   7  20
ENDBRANCH   4   7
ENDBRANCH   2   3
ENDBRANCH   1   2
BRANCH   1  27
ATOM     27  C   UNL A   1      35.181  23.100  26.149  1.00  0.00     0.023 C 
BRANCH  27  28
ATOM     28  C   UNL A   1      36.606  23.644  26.090  1.00  0.00     0.116 C 
BRANCH  28  29
ATOM     29  N   UNL A   1      37.627  22.611  25.997  1.00  0.00    -0.352 N 
ATOM     30  C   UNL A   1      38.972  22.708  26.261  1.00  0.00     0.251 C 
ATOM     31  H   UNL A   1      37.313  21.724  25.706  1.00  0.00     0.163 HD
ATOM     32  O   UNL A   1      39.721  21.759  26.052  1.00  0.00    -0.269 OA
BRANCH  30  33
ATOM     33  C   UNL A   1      39.513  23.983  26.772  1.00  0.00     0.039 A 
ATOM     34  C   UNL A   1      40.065  24.897  25.873  1.00  0.00     0.014 A 
ATOM     35  C   UNL A   1      39.440  24.285  28.135  1.00  0.00     0.014 A 
ATOM     36  C   UNL A   1      40.490  26.143  26.336  1.00  0.00     0.010 A 
ATOM     37  C   UNL A   1      39.783  25.556  28.578  1.00  0.00     0.010 A 
ATOM     38  C   UNL A   1      40.328  26.494  27.687  1.00  0.00    -0.014 A 
BRANCH  38  39
ATOM     39  C   UNL A   1      40.760  27.820  28.192  1.00  0.00     0.031 A 
ATOM     40  C   UNL A   1      42.222  28.177  28.209  1.00  0.00     0.074 A 
ATOM     41  C   UNL A   1      39.850  28.687  28.678  1.00  0.00     0.049 A 
ATOM     42  N   UNL A   1      42.804  29.269  28.632  1.00  0.00    -0.248 NA
ATOM     43  C   UNL A   1      43.158  27.154  27.713  1.00  0.00     0.031 C 
ATOM     44  C   UNL A   1      38.410  28.439  28.775  1.00  0.00     0.029 A 
ATOM     45  N   UNL A   1      40.004  29.952  29.184  1.00  0.00    -0.354 N 
ATOM     46  C   UNL A   1      44.167  29.058  28.467  1.00  0.00     0.074 A 
ATOM     47  C   UNL A   1      44.331  27.711  27.970  1.00  0.00     0.031 C 
ATOM     48  C   UNL A   1      37.810  29.530  29.278  1.00  0.00     0.029 A 
ATOM     49  C   UNL A   1      38.822  30.543  29.562  1.00  0.00     0.049 A 
ATOM     50  H   UNL A   1      40.878  30.396  29.268  1.00  0.00     0.167 HD
ATOM     51  C   UNL A   1      45.192  29.918  28.680  1.00  0.00     0.037 A 
ATOM     52  C   UNL A   1      38.584  31.766  30.071  1.00  0.00     0.037 A 
ATOM     53  C   UNL A   1      45.026  31.270  29.144  1.00  0.00     0.049 A 
ATOM     54  C   UNL A   1      39.735  32.714  30.272  1.00  0.00     0.074 A 
ATOM     55  C   UNL A   1      45.993  32.240  29.343  1.00  0.00     0.029 A 
ATOM     56  N   UNL A   1      43.809  31.844  29.480  1.00  0.00    -0.354 N 
ATOM     57  N   UNL A   1      41.012  32.527  30.044  1.00  0.00    -0.248 NA
ATOM     58  C   UNL A   1      39.406  34.052  30.784  1.00  0.00     0.031 C 
ATOM     59  C   UNL A   1      45.365  33.390  29.830  1.00  0.00     0.029 A 
ATOM     60  C   UNL A   1      44.001  33.152  29.891  1.00  0.00     0.049 A 
ATOM     61  H   UNL A   1      42.937  31.389  29.432  1.00  0.00     0.167 HD
ATOM     62  C   UNL A   1      41.633  33.731  30.349  1.00  0.00     0.074 A 
ATOM     63  C   UNL A   1      40.591  34.645  30.766  1.00  0.00     0.031 C 
ATOM     64  C   UNL A   1      42.950  34.053  30.287  1.00  0.00     0.037 A 
BRANCH  51  65
ATOM     65  C   UNL A   1      46.579  29.419  28.397  1.00  0.00     0.057 A 
ATOM     66  C   UNL A   1      47.359  28.804  29.385  1.00  0.00     0.134 A 
ATOM     67  C   UNL A   1      47.138  29.543  27.119  1.00  0.00     0.134 A 
ATOM     68  F   UNL A   1      46.890  28.668  30.635  1.00  0.00    -0.206 F 
ATOM     69  C   UNL A   1      48.656  28.359  29.122  1.00  0.00     0.040 A 
ATOM     70  C   UNL A   1      48.422  29.075  26.836  1.00  0.00     0.040 A 
ATOM     71  F   UNL A   1      46.446  30.119  26.124  1.00  0.00    -0.206 F 
ATOM     72  C   UNL A   1      49.188  28.489  27.842  1.00  0.00     0.006 A 
ENDBRANCH  51  65
BRANCH  52  73
ATOM     73  C   UNL A   1      37.194  32.189  30.380  1.00  0.00     0.057 A 
ATOM     74  C   UNL A   1      36.436  32.908  29.450  1.00  0.00     0.134 A 
ATOM     75  C   UNL A   1      36.599  31.901  31.614  1.00  0.00     0.134 A 
ATOM     76  F   UNL A   1      36.959  33.229  28.258  1.00  0.00    -0.206 F 
ATOM     77  C   UNL A   1      35.145  33.350  29.743  1.00  0.00     0.040 A 
ATOM     78  C   UNL A   1      35.299  32.314  31.912  1.00  0.00     0.040 A 
ATOM     79  F   UNL A   1      37.269  31.207  32.545  1.00  0.00    -0.206 F 
ATOM     80  C   UNL A   1      34.571  33.049  30.977  1.00  0.00     0.006 A 
ENDBRANCH  52  73
BRANCH  64  81
ATOM     81  C   UNL A   1      43.325  35.466  30.628  1.00  0.00     0.057 A 
ATOM     82  C   UNL A   1      43.611  35.864  31.940  1.00  0.00     0.134 A 
ATOM     83  C   UNL A   1      43.421  36.435  29.621  1.00  0.00     0.134 A 
ATOM     84  F   UNL A   1      43.527  34.986  32.952  1.00  0.00    -0.206 F 
ATOM     85  C   UNL A   1      43.947  37.184  32.244  1.00  0.00     0.040 A 
ATOM     86  C   UNL A   1      43.784  37.752  29.909  1.00  0.00     0.040 A 
ATOM     87  F   UNL A   1      43.171  36.118  28.342  1.00  0.00    -0.206 F 
ATOM     88  C   UNL A   1      44.040  38.132  31.225  1.00  0.00     0.006 A 
ENDBRANCH  64  81
ENDBRANCH  38  39
ENDBRANCH  30  33
ENDBRANCH  28  29
ENDBRANCH  27  28
ENDBRANCH   1  27
TORSDOF 17
ENDMDL
MODEL 2
REMARK VINA RESULT:     -10.9      3.945      8.404
REMARK SMILES CC(C)[C@@H]([NH3+])C(=O)N[C@@H](Cc1ccccc1)C(=O)NCCCCNC(=O)c1ccc(-c2c3nc(c(-c4c(F)cccc4F)c4ccc([nH]4)c(-c4c(F)cccc4F)c4nc(c(-c5c(F)cccc5F)c5ccc2[nH]5)C=C4)C=C3)cc1
REMARK SMILES IDX 21 1 20 2 19 3 17 4 18 5 9 7 8 8 6 9 7 10 4 12 2 13 1 14
REMARK SMILES IDX 3 15 5 16 10 20 11 21 12 22 16 23 13 24 15 25 14 26 22 27
REMARK SMILES IDX 23 28 24 29 25 30 26 32 27 33 28 34 80 35 29 36 79 37 30 38
REMARK SMILES IDX 31 39 32 40 73 41 33 42 78 43 72 44 74 45 34 46 77 47 71 48
REMARK SMILES IDX 70 49 35 51 61 52 44 53 60 54 45 55 48 56 59 57 75 58 46 59
REMARK SMILES IDX 47 60 58 62 76 63 49 64 36 65 37 66 42 67 38 68 39 69 41 70
REMARK SMILES IDX 43 71 40 72 62 73 63 74 68 75 64 76 65 77 67 78 69 79 66 80
REMARK SMILES IDX 50 81 51 82 56 83 52 84 53 85 55 86 57 87 54 88
REMARK H PARENT 19 6 8 11 5 17 5 18 5 19 24 31 74 50 48 61
REMARK Flexibility Score: inf
ROOT
ATOM      1  C   UNL A   1      31.520  30.518  25.608  1.00  0.00     0.023 C 
ENDROOT
BRANCH   1   2
ATOM      2  C   UNL A   1      32.667  29.571  25.920  1.00  0.00     0.116 C 
BRANCH   2   3
ATOM      3  N   UNL A   1      33.677  29.513  24.886  1.00  0.00    -0.354 N 
ATOM      4  C   UNL A   1      33.948  28.520  23.989  1.00  0.00     0.242 C 
ATOM      5  O   UNL A   1      34.466  28.877  22.924  1.00  0.00    -0.273 OA
ATOM      6  H   UNL A   1      34.254  30.308  24.819  1.00  0.00     0.163 HD
BRANCH   4   7
ATOM      7  C   UNL A   1      33.516  27.047  24.191  1.00  0.00     0.175 C 
BRANCH   7   8
ATOM      8  N   UNL A   1      33.689  26.195  23.007  1.00  0.00    -0.339 N 
ATOM      9  C   UNL A   1      32.817  25.899  22.006  1.00  0.00     0.279 C 
ATOM     10  O   UNL A   1      33.280  25.365  20.992  1.00  0.00    -0.268 OA
ATOM     11  H   UNL A   1      34.574  25.772  22.926  1.00  0.00     0.164 HD
BRANCH   9  12
ATOM     12  C   UNL A   1      31.301  26.167  22.130  1.00  0.00     0.273 C 
BRANCH  12  13
ATOM     13  C   UNL A   1      30.708  25.581  23.435  1.00  0.00     0.051 C 
ATOM     14  C   UNL A   1      29.358  26.209  23.796  1.00  0.00     0.014 C 
ATOM     15  C   UNL A   1      30.543  24.058  23.329  1.00  0.00     0.014 C 
ENDBRANCH  12  13
BRANCH  12  16
ATOM     16  N   UNL A   1      31.048  27.611  21.957  1.00  0.00    -0.347 N 
ATOM     17  H   UNL A   1      30.339  27.915  22.625  1.00  0.00     0.345 HD
ATOM     18  H   UNL A   1      30.716  27.787  21.008  1.00  0.00     0.345 HD
ATOM     19  H   UNL A   1      31.911  28.130  22.117  1.00  0.00     0.345 HD
ENDBRANCH  12  16
ENDBRANCH   9  12
ENDBRANCH   7   8
BRANCH   7  20
ATOM     20  C   UNL A   1      34.065  26.415  25.490  1.00  0.00     0.070 C 
BRANCH  20  21
ATOM     21  C   UNL A   1      33.548  25.048  25.870  1.00  0.00    -0.045 A 
ATOM     22  C   UNL A   1      34.298  23.893  25.607  1.00  0.00     0.004 A 
ATOM     23  C   UNL A   1      32.311  24.922  26.520  1.00  0.00     0.004 A 
ATOM     24  C   UNL A   1      33.843  22.643  26.037  1.00  0.00     0.000 A 
ATOM     25  C   UNL A   1      31.854  23.670  26.939  1.00  0.00     0.000 A 
ATOM     26  C   UNL A   1      32.627  22.533  26.710  1.00  0.00     0.000 A 
ENDBRANCH  20  21
ENDBRANCH   7  20
ENDBRANCH   4   7
ENDBRANCH   2   3
ENDBRANCH   1   2
BRANCH   1  27
ATOM     27  C   UNL A   1      31.342  31.649  26.617  1.00  0.00     0.023 C 
BRANCH  27  28
ATOM     28  C   UNL A   1      32.613  32.405  26.992  1.00  0.00     0.116 C 
BRANCH  28  29
ATOM     29  N   UNL A   1      32.376  33.768  27.445  1.00  0.00    -0.352 N 
ATOM     30  C   UNL A   1      33.058  34.487  28.397  1.00  0.00     0.251 C 
ATOM     31  H   UNL A   1      31.627  34.238  27.012  1.00  0.00     0.163 HD
ATOM     32  O   UNL A   1      32.680  35.607  28.727  1.00  0.00    -0.269 OA
BRANCH  30  33
ATOM     33  C   UNL A   1      34.241  33.883  29.042  1.00  0.00     0.039 A 
ATOM     34  C   UNL A   1      34.057  32.878  29.993  1.00  0.00     0.014 A 
ATOM     35  C   UNL A   1      35.528  34.286  28.676  1.00  0.00     0.014 A 
ATOM     36  C   UNL A   1      35.171  32.235  30.536  1.00  0.00     0.010 A 
ATOM     37  C   UNL A   1      36.630  33.587  29.153  1.00  0.00     0.010 A 
ATOM     38  C   UNL A   1      36.465  32.565  30.101  1.00  0.00    -0.014 A 
BRANCH  38  39
ATOM     39  C   UNL A   1      37.659  31.881  30.656  1.00  0.00     0.031 A 
ATOM     40  C   UNL A   1      38.163  32.245  32.027  1.00  0.00     0.074 A 
ATOM     41  C   UNL A   1      38.318  30.967  29.917  1.00  0.00     0.049 A 
ATOM     42  N   UNL A   1      39.199  31.784  32.678  1.00  0.00    -0.248 NA
ATOM     43  C   UNL A   1      37.420  33.292  32.747  1.00  0.00     0.031 C 
ATOM     44  C   UNL A   1      37.969  30.569  28.551  1.00  0.00     0.029 A 
ATOM     45  N   UNL A   1      39.422  30.209  30.212  1.00  0.00    -0.354 N 
ATOM     46  C   UNL A   1      39.239  32.493  33.873  1.00  0.00     0.074 A 
ATOM     47  C   UNL A   1      38.167  33.460  33.827  1.00  0.00     0.031 C 
ATOM     48  C   UNL A   1      38.823  29.617  28.141  1.00  0.00     0.029 A 
ATOM     49  C   UNL A   1      39.793  29.357  29.199  1.00  0.00     0.049 A 
ATOM     50  H   UNL A   1      39.904  30.269  31.068  1.00  0.00     0.167 HD
ATOM     51  C   UNL A   1      40.074  32.333  34.927  1.00  0.00     0.037 A 
ATOM     52  C   UNL A   1      40.796  28.461  29.140  1.00  0.00     0.037 A 
ATOM     53  C   UNL A   1      41.121  31.348  34.984  1.00  0.00     0.049 A 
ATOM     54  C   UNL A   1      41.693  28.282  30.334  1.00  0.00     0.074 A 
ATOM     55  C   UNL A   1      41.988  31.069  36.026  1.00  0.00     0.029 A 
ATOM     56  N   UNL A   1      41.440  30.477  33.954  1.00  0.00    -0.354 N 
ATOM     57  N   UNL A   1      41.674  28.909  31.485  1.00  0.00    -0.248 NA
ATOM     58  C   UNL A   1      42.738  27.254  30.227  1.00  0.00     0.031 C 
ATOM     59  C   UNL A   1      42.854  30.051  35.614  1.00  0.00     0.029 A 
ATOM     60  C   UNL A   1      42.496  29.665  34.332  1.00  0.00     0.049 A 
ATOM     61  H   UNL A   1      40.983  30.441  33.082  1.00  0.00     0.167 HD
ATOM     62  C   UNL A   1      42.678  28.328  32.250  1.00  0.00     0.074 A 
ATOM     63  C   UNL A   1      43.277  27.291  31.437  1.00  0.00     0.031 C 
ATOM     64  C   UNL A   1      43.069  28.626  33.515  1.00  0.00     0.037 A 
BRANCH  51  65
ATOM     65  C   UNL A   1      39.872  33.240  36.107  1.00  0.00     0.057 A 
ATOM     66  C   UNL A   1      39.017  32.898  37.163  1.00  0.00     0.134 A 
ATOM     67  C   UNL A   1      40.549  34.462  36.196  1.00  0.00     0.134 A 
ATOM     68  F   UNL A   1      38.325  31.747  37.133  1.00  0.00    -0.206 F 
ATOM     69  C   UNL A   1      38.816  33.752  38.248  1.00  0.00     0.040 A 
ATOM     70  C   UNL A   1      40.380  35.312  37.290  1.00  0.00     0.040 A 
ATOM     71  F   UNL A   1      41.386  34.851  35.222  1.00  0.00    -0.206 F 
ATOM     72  C   UNL A   1      39.505  34.961  38.316  1.00  0.00     0.006 A 
ENDBRANCH  51  65
BRANCH  52  73
ATOM     73  C   UNL A   1      40.979  27.626  27.926  1.00  0.00     0.057 A 
ATOM     74  C   UNL A   1      41.808  28.046  26.879  1.00  0.00     0.134 A 
ATOM     75  C   UNL A   1      40.320  26.400  27.775  1.00  0.00     0.134 A 
ATOM     76  F   UNL A   1      42.452  29.219  26.958  1.00  0.00    -0.206 F 
ATOM     77  C   UNL A   1      41.956  27.292  25.714  1.00  0.00     0.040 A 
ATOM     78  C   UNL A   1      40.478  25.623  26.626  1.00  0.00     0.040 A 
ATOM     79  F   UNL A   1      39.519  25.937  28.745  1.00  0.00    -0.206 F 
ATOM     80  C   UNL A   1      41.291  26.073  25.587  1.00  0.00     0.006 A 
ENDBRANCH  52  73
BRANCH  64  81
ATOM     81  C   UNL A   1      44.158  27.783  34.111  1.00  0.00     0.057 A 
ATOM     82  C   UNL A   1      45.508  28.148  34.035  1.00  0.00     0.134 A 
ATOM     83  C   UNL A   1      43.845  26.598  34.789  1.00  0.00     0.134 A 
ATOM     84  F   UNL A   1      45.875  29.267  33.390  1.00  0.00    -0.206 F 
ATOM     85  C   UNL A   1      46.512  27.348  34.584  1.00  0.00     0.040 A 
ATOM     86  C   UNL A   1      44.837  25.804  35.366  1.00  0.00     0.040 A 
ATOM     87  F   UNL A   1      42.571  26.195  34.907  1.00  0.00    -0.206 F 
ATOM     88  C   UNL A   1      46.176  26.174  35.256  1.00  0.00     0.006 A 
ENDBRANCH  64  81
ENDBRANCH  38  39
ENDBRANCH  30  33
ENDBRANCH  28  29
ENDBRANCH  27  28
ENDBRANCH   1  27
TORSDOF 17
ENDMDL
MODEL 3
REMARK VINA RESULT:     -10.8      3.065      4.897
REMARK SMILES CC(C)[C@@H]([NH3+])C(=O)N[C@@H](Cc1ccccc1)C(=O)NCCCCNC(=O)c1ccc(-c2c3nc(c(-c4c(F)cccc4F)c4ccc([nH]4)c(-c4c(F)cccc4F)c4nc(c(-c5c(F)cccc5F)c5ccc2[nH]5)C=C4)C=C3)cc1
REMARK SMILES IDX 21 1 20 2 19 3 17 4 18 5 9 7 8 8 6 9 7 10 4 12 2 13 1 14
REMARK SMILES IDX 3 15 5 16 10 20 11 21 12 22 16 23 13 24 15 25 14 26 22 27
REMARK SMILES IDX 23 28 24 29 25 30 26 32 27 33 28 34 80 35 29 36 79 37 30 38
REMARK SMILES IDX 31 39 32 40 73 41 33 42 78 43 72 44 74 45 34 46 77 47 71 48
REMARK SMILES IDX 70 49 35 51 61 52 44 53 60 54 45 55 48 56 59 57 75 58 46 59
REMARK SMILES IDX 47 60 58 62 76 63 49 64 36 65 37 66 42 67 38 68 39 69 41 70
REMARK SMILES IDX 43 71 40 72 62 73 63 74 68 75 64 76 65 77 67 78 69 79 66 80
REMARK SMILES IDX 50 81 51 82 56 83 52 84 53 85 55 86 57 87 54 88
REMARK H PARENT 19 6 8 11 5 17 5 18 5 19 24 31 74 50 48 61
REMARK Flexibility Score: inf
ROOT
ATOM      1  C   UNL A   1      36.848  20.550  24.880  1.00  0.00     0.023 C 
ENDROOT
BRANCH   1   2
ATOM      2  C   UNL A   1      37.038  21.749  23.966  1.00  0.00     0.116 C 
BRANCH   2   3
ATOM      3  N   UNL A   1      37.502  22.937  24.648  1.00  0.00    -0.354 N 
ATOM      4  C   UNL A   1      36.849  23.739  25.540  1.00  0.00     0.242 C 
ATOM      5  O   UNL A   1      37.563  24.348  26.347  1.00  0.00    -0.273 OA
ATOM      6  H   UNL A   1      38.425  23.208  24.439  1.00  0.00     0.163 HD
BRANCH   4   7
ATOM      7  C   UNL A   1      35.307  23.799  25.663  1.00  0.00     0.175 C 
BRANCH   7   8
ATOM      8  N   UNL A   1      34.745  22.924  26.701  1.00  0.00    -0.339 N 
ATOM      9  C   UNL A   1      33.711  22.043  26.638  1.00  0.00     0.279 C 
ATOM     10  O   UNL A   1      33.594  21.240  27.571  1.00  0.00    -0.268 OA
ATOM     11  H   UNL A   1      35.187  22.985  27.579  1.00  0.00     0.164 HD
BRANCH   9  12
ATOM     12  C   UNL A   1      32.685  22.060  25.484  1.00  0.00     0.273 C 
BRANCH  12  13
ATOM     13  C   UNL A   1      33.067  21.081  24.347  1.00  0.00     0.051 C 
ATOM     14  C   UNL A   1      32.542  19.664  24.595  1.00  0.00     0.014 C 
ATOM     15  C   UNL A   1      32.546  21.581  22.992  1.00  0.00     0.014 C 
ENDBRANCH  12  13
BRANCH  12  16
ATOM     16  N   UNL A   1      31.333  21.836  26.033  1.00  0.00    -0.347 N 
ATOM     17  H   UNL A   1      30.722  21.481  25.297  1.00  0.00     0.345 HD
ATOM     18  H   UNL A   1      30.960  22.717  26.389  1.00  0.00     0.345 HD
ATOM     19  H   UNL A   1      31.381  21.156  26.791  1.00  0.00     0.345 HD
ENDBRANCH  12  16
ENDBRANCH   9  12
ENDBRANCH   7   8
BRANCH   7  20
ATOM     20  C   UNL A   1      34.745  25.238  25.701  1.00  0.00     0.070 C 
BRANCH  20  21
ATOM     21  C   UNL A   1      34.028  25.736  24.470  1.00  0.00    -0.045 A 
ATOM     22  C   UNL A   1      33.486  27.028  24.423  1.00  0.00     0.004 A 
ATOM     23  C   UNL A   1      33.920  24.913  23.338  1.00  0.00     0.004 A 
ATOM     24  C   UNL A   1      32.896  27.505  23.249  1.00  0.00     0.000 A 
ATOM     25  C   UNL A   1      33.321  25.388  22.170  1.00  0.00     0.000 A 
ATOM     26  C   UNL A   1      32.822  26.688  22.121  1.00  0.00     0.000 A 
ENDBRANCH  20  21
ENDBRANCH   7  20
ENDBRANCH   4   7
ENDBRANCH   2   3
ENDBRANCH   1   2
BRANCH   1  27
ATOM     27  C   UNL A   1      38.015  19.567  24.885  1.00  0.00     0.023 C 
BRANCH  27  28
ATOM     28  C   UNL A   1      39.161  19.908  25.833  1.00  0.00     0.116 C 
BRANCH  28  29
ATOM     29  N   UNL A   1      40.243  18.934  25.824  1.00  0.00    -0.352 N 
ATOM     30  C   UNL A   1      41.579  19.133  26.074  1.00  0.00     0.251 C 
ATOM     31  H   UNL A   1      39.982  18.008  25.612  1.00  0.00     0.163 HD
ATOM     32  O   UNL A   1      42.384  18.216  25.945  1.00  0.00    -0.269 OA
BRANCH  30  33
ATOM     33  C   UNL A   1      42.043  20.477  26.472  1.00  0.00     0.039 A 
ATOM     34  C   UNL A   1      42.374  21.403  25.482  1.00  0.00     0.014 A 
ATOM     35  C   UNL A   1      42.111  20.828  27.823  1.00  0.00     0.014 A 
ATOM     36  C   UNL A   1      42.720  22.705  25.848  1.00  0.00     0.010 A 
ATOM     37  C   UNL A   1      42.371  22.146  28.180  1.00  0.00     0.010 A 
ATOM     38  C   UNL A   1      42.695  23.095  27.197  1.00  0.00    -0.014 A 
BRANCH  38  39
ATOM     39  C   UNL A   1      43.045  24.479  27.602  1.00  0.00     0.031 A 
ATOM     40  C   UNL A   1      44.484  24.920  27.605  1.00  0.00     0.074 A 
ATOM     41  C   UNL A   1      42.080  25.327  28.011  1.00  0.00     0.049 A 
ATOM     42  N   UNL A   1      44.997  26.073  27.948  1.00  0.00    -0.248 NA
ATOM     43  C   UNL A   1      45.482  23.917  27.198  1.00  0.00     0.031 C 
ATOM     44  C   UNL A   1      40.655  25.005  28.115  1.00  0.00     0.029 A 
ATOM     45  N   UNL A   1      42.155  26.634  28.419  1.00  0.00    -0.354 N 
ATOM     46  C   UNL A   1      46.372  25.929  27.812  1.00  0.00     0.074 A 
ATOM     47  C   UNL A   1      46.618  24.559  27.422  1.00  0.00     0.031 C 
ATOM     48  C   UNL A   1      39.987  26.095  28.525  1.00  0.00     0.029 A 
ATOM     49  C   UNL A   1      40.936  27.183  28.740  1.00  0.00     0.049 A 
ATOM     50  H   UNL A   1      43.001  27.133  28.476  1.00  0.00     0.167 HD
ATOM     51  C   UNL A   1      47.343  26.861  27.967  1.00  0.00     0.037 A 
ATOM     52  C   UNL A   1      40.623  28.426  29.151  1.00  0.00     0.037 A 
ATOM     53  C   UNL A   1      47.094  28.232  28.323  1.00  0.00     0.049 A 
ATOM     54  C   UNL A   1      41.715  29.451  29.288  1.00  0.00     0.074 A 
ATOM     55  C   UNL A   1      48.002  29.268  28.455  1.00  0.00     0.029 A 
ATOM     56  N   UNL A   1      45.843  28.759  28.602  1.00  0.00    -0.354 N 
ATOM     57  N   UNL A   1      43.003  29.321  29.087  1.00  0.00    -0.248 NA
ATOM     58  C   UNL A   1      41.304  30.804  29.691  1.00  0.00     0.031 C 
ATOM     59  C   UNL A   1      47.303  30.415  28.846  1.00  0.00     0.029 A 
ATOM     60  C   UNL A   1      45.955  30.104  28.912  1.00  0.00     0.049 A 
ATOM     61  H   UNL A   1      44.999  28.252  28.582  1.00  0.00     0.167 HD
ATOM     62  C   UNL A   1      43.551  30.579  29.303  1.00  0.00     0.074 A 
ATOM     63  C   UNL A   1      42.454  31.461  29.638  1.00  0.00     0.031 C 
ATOM     64  C   UNL A   1      44.848  30.970  29.228  1.00  0.00     0.037 A 
BRANCH  51  65
ATOM     65  C   UNL A   1      48.760  26.422  27.735  1.00  0.00     0.057 A 
ATOM     66  C   UNL A   1      49.347  26.461  26.463  1.00  0.00     0.134 A 
ATOM     67  C   UNL A   1      49.551  25.966  28.797  1.00  0.00     0.134 A 
ATOM     68  F   UNL A   1      48.638  26.872  25.400  1.00  0.00    -0.206 F 
ATOM     69  C   UNL A   1      50.658  26.033  26.249  1.00  0.00     0.040 A 
ATOM     70  C   UNL A   1      50.873  25.564  28.600  1.00  0.00     0.040 A 
ATOM     71  F   UNL A   1      49.055  25.905  30.042  1.00  0.00    -0.206 F 
ATOM     72  C   UNL A   1      51.427  25.588  27.322  1.00  0.00     0.006 A 
ENDBRANCH  51  65
BRANCH  52  73
ATOM     73  C   UNL A   1      39.207  28.790  29.413  1.00  0.00     0.057 A 
ATOM     74  C   UNL A   1      38.412  29.359  28.413  1.00  0.00     0.134 A 
ATOM     75  C   UNL A   1      38.623  28.596  30.671  1.00  0.00     0.134 A 
ATOM     76  F   UNL A   1      38.921  29.586  27.193  1.00  0.00    -0.206 F 
ATOM     77  C   UNL A   1      37.093  29.747  28.657  1.00  0.00     0.040 A 
ATOM     78  C   UNL A   1      37.297  28.956  30.923  1.00  0.00     0.040 A 
ATOM     79  F   UNL A   1      39.329  28.047  31.669  1.00  0.00    -0.206 F 
ATOM     80  C   UNL A   1      36.531  29.541  29.916  1.00  0.00     0.006 A 
ENDBRANCH  52  73
BRANCH  64  81
ATOM     81  C   UNL A   1      45.138  32.424  29.462  1.00  0.00     0.057 A 
ATOM     82  C   UNL A   1      45.469  32.923  30.728  1.00  0.00     0.134 A 
ATOM     83  C   UNL A   1      45.106  33.333  28.396  1.00  0.00     0.134 A 
ATOM     84  F   UNL A   1      45.507  32.107  31.793  1.00  0.00    -0.206 F 
ATOM     85  C   UNL A   1      45.725  34.280  30.933  1.00  0.00     0.040 A 
ATOM     86  C   UNL A   1      45.388  34.687  28.583  1.00  0.00     0.040 A 
ATOM     87  F   UNL A   1      44.807  32.920  27.156  1.00  0.00    -0.206 F 
ATOM     88  C   UNL A   1      45.689  35.166  29.857  1.00  0.00     0.006 A 
ENDBRANCH  64  81
ENDBRANCH  38  39
ENDBRANCH  30  33
ENDBRANCH  28  29
ENDBRANCH  27  28
ENDBRANCH   1  27
TORSDOF 17
ENDMDL
