MODEL 1
REMARK VINA RESULT:     -11.9      0.000      0.000
REMARK SMILES CCn1cccc1C(=O)N1CC[C@H](C(=O)NCCCCNC(=O)c2ccc(-c3c4nc(c(-c5c(F)cccc5F)c5ccc([nH]5)c(-c5c(F)cccc5F)c5nc(c(-c6c(F)cccc6F)c6ccc3[nH]6)C=C5)C=C4)cc2)[C@H]1C
REMARK SMILES IDX 18 1 17 2 16 3 14 4 15 5 13 7 10 8 11 9 78 10 12 11 79 12
REMARK SMILES IDX 8 13 9 14 7 15 3 16 4 17 5 18 6 19 2 20 1 21 19 22 20 23
REMARK SMILES IDX 21 24 22 25 23 27 24 28 25 29 77 30 26 31 76 32 27 33 28 34
REMARK SMILES IDX 29 35 70 36 30 37 75 38 69 39 71 40 31 41 74 42 68 43 67 44
REMARK SMILES IDX 32 46 58 47 41 48 57 49 42 50 45 51 56 52 72 53 43 54 44 55
REMARK SMILES IDX 55 57 73 58 46 59 33 60 34 61 39 62 35 63 36 64 38 65 40 66
REMARK SMILES IDX 37 67 59 68 60 69 65 70 61 71 62 72 64 73 66 74 63 75 47 76
REMARK SMILES IDX 48 77 53 78 49 79 50 80 52 81 54 82 51 83
REMARK H PARENT 16 6 21 26 71 45 45 56
REMARK Flexibility Score: inf
ROOT
ATOM      1  C   UNL A   1      31.487  30.923  25.926  1.00  0.00     0.023 C 
ENDROOT
BRANCH   1   2
ATOM      2  C   UNL A   1      32.768  30.229  26.371  1.00  0.00     0.116 C 
BRANCH   2   3
ATOM      3  N   UNL A   1      33.432  29.540  25.283  1.00  0.00    -0.356 N 
ATOM      4  C   UNL A   1      33.315  28.324  24.709  1.00  0.00     0.225 C 
ATOM      5  O   UNL A   1      34.090  28.115  23.764  1.00  0.00    -0.275 OA
ATOM      6  H   UNL A   1      34.134  30.088  24.861  1.00  0.00     0.163 HD
BRANCH   4   7
ATOM      7  C   UNL A   1      32.390  27.186  25.134  1.00  0.00     0.102 C 
ATOM      8  N   UNL A   1      32.425  25.274  23.738  1.00  0.00    -0.334 N 
ATOM      9  C   UNL A   1      31.519  26.243  23.137  1.00  0.00     0.121 C 
ATOM     10  C   UNL A   1      32.839  25.716  25.094  1.00  0.00     0.094 C 
ATOM     11  C   UNL A   1      31.134  27.183  24.255  1.00  0.00     0.037 C 
ATOM     12  C   UNL A   1      32.165  24.958  26.243  1.00  0.00     0.032 C 
BRANCH   8  13
ATOM     13  C   UNL A   1      33.022  24.378  22.851  1.00  0.00     0.270 C 
ATOM     14  O   UNL A   1      33.448  24.794  21.770  1.00  0.00    -0.267 OA
BRANCH  13  15
ATOM     15  C   UNL A   1      33.146  22.972  23.169  1.00  0.00     0.107 A 
ATOM     16  N   UNL A   1      34.211  22.357  23.804  1.00  0.00    -0.344 N 
ATOM     17  C   UNL A   1      33.857  21.078  24.170  1.00  0.00     0.086 A 
ATOM     18  C   UNL A   1      32.538  20.880  23.840  1.00  0.00     0.020 A 
ATOM     19  C   UNL A   1      32.091  22.065  23.219  1.00  0.00     0.033 A 
BRANCH  16  20
ATOM     20  C   UNL A   1      35.415  23.023  24.274  1.00  0.00     0.119 C 
ATOM     21  C   UNL A   1      36.597  22.931  23.320  1.00  0.00     0.027 C 
ENDBRANCH  16  20
ENDBRANCH  13  15
ENDBRANCH   8  13
ENDBRANCH   4   7
ENDBRANCH   2   3
ENDBRANCH   1   2
BRANCH   1  22
ATOM     22  C   UNL A   1      31.281  32.312  26.533  1.00  0.00     0.023 C 
BRANCH  22  23
ATOM     23  C   UNL A   1      32.477  32.831  27.333  1.00  0.00     0.116 C 
BRANCH  23  24
ATOM     24  N   UNL A   1      32.373  34.257  27.598  1.00  0.00    -0.352 N 
ATOM     25  C   UNL A   1      32.987  34.988  28.588  1.00  0.00     0.251 C 
ATOM     26  H   UNL A   1      31.789  34.765  26.991  1.00  0.00     0.163 HD
ATOM     27  O   UNL A   1      32.550  36.076  28.921  1.00  0.00    -0.269 OA
BRANCH  25  28
ATOM     28  C   UNL A   1      34.183  34.447  29.258  1.00  0.00     0.039 A 
ATOM     29  C   UNL A   1      34.036  33.854  30.516  1.00  0.00     0.014 A 
ATOM     30  C   UNL A   1      35.445  34.590  28.671  1.00  0.00     0.014 A 
ATOM     31  C   UNL A   1      35.151  33.335  31.160  1.00  0.00     0.010 A 
ATOM     32  C   UNL A   1      36.560  34.061  29.305  1.00  0.00     0.010 A 
ATOM     33  C   UNL A   1      36.405  33.414  30.537  1.00  0.00    -0.014 A 
BRANCH  33  34
ATOM     34  C   UNL A   1      37.528  32.631  31.101  1.00  0.00     0.031 A 
ATOM     35  C   UNL A   1      37.747  31.320  30.274  1.00  0.00     0.074 A 
ATOM     36  C   UNL A   1      38.138  33.184  32.200  1.00  0.00     0.049 A 
ATOM     37  N   UNL A   1      38.223  30.159  30.614  1.00  0.00    -0.248 NA
ATOM     38  C   UNL A   1      37.297  31.293  28.848  1.00  0.00     0.031 C 
ATOM     39  C   UNL A   1      37.786  34.494  32.807  1.00  0.00     0.029 A 
ATOM     40  N   UNL A   1      39.161  32.786  33.032  1.00  0.00    -0.354 N 
ATOM     41  C   UNL A   1      38.318  29.358  29.440  1.00  0.00     0.074 A 
ATOM     42  C   UNL A   1      37.626  30.074  28.414  1.00  0.00     0.031 C 
ATOM     43  C   UNL A   1      38.503  34.726  33.932  1.00  0.00     0.029 A 
ATOM     44  C   UNL A   1      39.387  33.606  34.179  1.00  0.00     0.049 A 
ATOM     45  H   UNL A   1      39.703  31.986  32.848  1.00  0.00     0.167 HD
ATOM     46  C   UNL A   1      39.079  28.222  29.354  1.00  0.00     0.037 A 
ATOM     47  C   UNL A   1      40.172  33.349  35.276  1.00  0.00     0.037 A 
ATOM     48  C   UNL A   1      39.691  27.968  30.609  1.00  0.00     0.049 A 
ATOM     49  C   UNL A   1      40.801  32.062  34.961  1.00  0.00     0.074 A 
ATOM     50  C   UNL A   1      39.228  27.436  31.779  1.00  0.00     0.029 A 
ATOM     51  N   UNL A   1      40.888  28.595  30.839  1.00  0.00    -0.354 N 
ATOM     52  N   UNL A   1      41.750  31.888  34.092  1.00  0.00    -0.248 NA
ATOM     53  C   UNL A   1      40.205  30.852  35.537  1.00  0.00     0.031 C 
ATOM     54  C   UNL A   1      39.897  28.198  32.759  1.00  0.00     0.029 A 
ATOM     55  C   UNL A   1      40.888  28.981  32.155  1.00  0.00     0.049 A 
ATOM     56  H   UNL A   1      41.609  28.740  30.185  1.00  0.00     0.167 HD
ATOM     57  C   UNL A   1      41.635  30.552  33.794  1.00  0.00     0.074 A 
ATOM     58  C   UNL A   1      40.922  29.939  34.893  1.00  0.00     0.031 C 
ATOM     59  C   UNL A   1      41.694  30.124  32.510  1.00  0.00     0.037 A 
BRANCH  46  60
ATOM     60  C   UNL A   1      39.584  27.378  28.206  1.00  0.00     0.057 A 
ATOM     61  C   UNL A   1      39.607  25.968  28.374  1.00  0.00     0.134 A 
ATOM     62  C   UNL A   1      40.381  27.871  27.172  1.00  0.00     0.134 A 
ATOM     63  F   UNL A   1      38.826  25.365  29.284  1.00  0.00    -0.206 F 
ATOM     64  C   UNL A   1      40.492  25.136  27.683  1.00  0.00     0.040 A 
ATOM     65  C   UNL A   1      41.236  27.034  26.434  1.00  0.00     0.040 A 
ATOM     66  F   UNL A   1      40.436  29.181  26.899  1.00  0.00    -0.206 F 
ATOM     67  C   UNL A   1      41.333  25.675  26.724  1.00  0.00     0.006 A 
ENDBRANCH  46  60
BRANCH  47  68
ATOM     68  C   UNL A   1      40.406  33.894  36.673  1.00  0.00     0.057 A 
ATOM     69  C   UNL A   1      41.638  34.232  37.237  1.00  0.00     0.134 A 
ATOM     70  C   UNL A   1      39.300  34.160  37.534  1.00  0.00     0.134 A 
ATOM     71  F   UNL A   1      42.787  33.912  36.630  1.00  0.00    -0.206 F 
ATOM     72  C   UNL A   1      41.746  34.895  38.483  1.00  0.00     0.040 A 
ATOM     73  C   UNL A   1      39.386  34.860  38.743  1.00  0.00     0.040 A 
ATOM     74  F   UNL A   1      38.060  33.743  37.248  1.00  0.00    -0.206 F 
ATOM     75  C   UNL A   1      40.618  35.254  39.216  1.00  0.00     0.006 A 
ENDBRANCH  47  68
BRANCH  59  76
ATOM     76  C   UNL A   1      42.321  31.110  31.535  1.00  0.00     0.057 A 
ATOM     77  C   UNL A   1      43.694  31.369  31.582  1.00  0.00     0.134 A 
ATOM     78  C   UNL A   1      41.600  31.887  30.613  1.00  0.00     0.134 A 
ATOM     79  F   UNL A   1      44.479  30.676  32.420  1.00  0.00    -0.206 F 
ATOM     80  C   UNL A   1      44.303  32.340  30.771  1.00  0.00     0.040 A 
ATOM     81  C   UNL A   1      42.188  32.856  29.790  1.00  0.00     0.040 A 
ATOM     82  F   UNL A   1      40.287  31.739  30.476  1.00  0.00    -0.206 F 
ATOM     83  C   UNL A   1      43.551  33.091  29.872  1.00  0.00     0.006 A 
ENDBRANCH  59  76
ENDBRANCH  33  34
ENDBRANCH  25  28
ENDBRANCH  23  24
ENDBRANCH  22  23
ENDBRANCH   1  22
TORSDOF 14
ENDMDL
MODEL 2
REMARK VINA RESULT:     -11.8      4.605     10.197
REMARK SMILES CCn1cccc1C(=O)N1CC[C@H](C(=O)NCCCCNC(=O)c2ccc(-c3c4nc(c(-c5c(F)cccc5F)c5ccc([nH]5)c(-c5c(F)cccc5F)c5nc(c(-c6c(F)cccc6F)c6ccc3[nH]6)C=C5)C=C4)cc2)[C@H]1C
REMARK SMILES IDX 18 1 17 2 16 3 14 4 15 5 13 7 10 8 11 9 78 10 12 11 79 12
REMARK SMILES IDX 8 13 9 14 7 15 3 16 4 17 5 18 6 19 2 20 1 21 19 22 20 23
REMARK SMILES IDX 21 24 22 25 23 27 24 28 25 29 77 30 26 31 76 32 27 33 28 34
REMARK SMILES IDX 29 35 70 36 30 37 75 38 69 39 71 40 31 41 74 42 68 43 67 44
REMARK SMILES IDX 32 46 58 47 41 48 57 49 42 50 45 51 56 52 72 53 43 54 44 55
REMARK SMILES IDX 55 57 73 58 46 59 33 60 34 61 39 62 35 63 36 64 38 65 40 66
REMARK SMILES IDX 37 67 59 68 60 69 65 70 61 71 62 72 64 73 66 74 63 75 47 76
REMARK SMILES IDX 48 77 53 78 49 79 50 80 52 81 54 82 51 83
REMARK H PARENT 16 6 21 26 71 45 45 56
REMARK Flexibility Score: inf
ROOT
ATOM      1  C   UNL A   1      36.979  20.067  25.029  1.00  0.00     0.023 C 
ENDROOT
BRANCH   1   2
ATOM      2  C   UNL A   1      37.238  21.515  25.423  1.00  0.00     0.116 C 
BRANCH   2   3
ATOM      3  N   UNL A   1      37.244  22.409  24.282  1.00  0.00    -0.356 N 
ATOM      4  C   UNL A   1      36.298  23.076  23.588  1.00  0.00     0.225 C 
ATOM      5  O   UNL A   1      36.727  23.767  22.652  1.00  0.00    -0.275 OA
ATOM      6  H   UNL A   1      38.150  22.567  23.931  1.00  0.00     0.163 HD
BRANCH   4   7
ATOM      7  C   UNL A   1      34.787  23.023  23.796  1.00  0.00     0.102 C 
ATOM      8  N   UNL A   1      33.610  24.988  23.200  1.00  0.00    -0.334 N 
ATOM      9  C   UNL A   1      34.131  25.177  24.546  1.00  0.00     0.121 C 
ATOM     10  C   UNL A   1      33.803  23.585  22.756  1.00  0.00     0.094 C 
ATOM     11  C   UNL A   1      34.410  23.787  25.069  1.00  0.00     0.037 C 
ATOM     12  C   UNL A   1      32.529  22.734  22.763  1.00  0.00     0.032 C 
BRANCH   8  13
ATOM     13  C   UNL A   1      33.407  26.157  22.465  1.00  0.00     0.270 C 
ATOM     14  O   UNL A   1      33.622  26.148  21.249  1.00  0.00    -0.267 OA
BRANCH  13  15
ATOM     15  C   UNL A   1      32.958  27.377  23.097  1.00  0.00     0.107 A 
ATOM     16  N   UNL A   1      31.689  27.640  23.587  1.00  0.00    -0.344 N 
ATOM     17  C   UNL A   1      31.714  28.784  24.350  1.00  0.00     0.086 A 
ATOM     18  C   UNL A   1      33.010  29.234  24.420  1.00  0.00     0.020 A 
ATOM     19  C   UNL A   1      33.789  28.352  23.643  1.00  0.00     0.033 A 
BRANCH  16  20
ATOM     20  C   UNL A   1      30.563  26.720  23.554  1.00  0.00     0.119 C 
ATOM     21  C   UNL A   1      30.370  25.919  24.833  1.00  0.00     0.027 C 
ENDBRANCH  16  20
ENDBRANCH  13  15
ENDBRANCH   8  13
ENDBRANCH   4   7
ENDBRANCH   2   3
ENDBRANCH   1   2
BRANCH   1  22
ATOM     22  C   UNL A   1      38.229  19.185  25.014  1.00  0.00     0.023 C 
BRANCH  22  23
ATOM     23  C   UNL A   1      39.437  19.797  25.725  1.00  0.00     0.116 C 
BRANCH  23  24
ATOM     24  N   UNL A   1      40.484  18.815  25.956  1.00  0.00    -0.352 N 
ATOM     25  C   UNL A   1      41.834  19.026  26.101  1.00  0.00     0.251 C 
ATOM     26  H   UNL A   1      40.187  17.879  26.018  1.00  0.00     0.163 HD
ATOM     27  O   UNL A   1      42.628  18.116  25.931  1.00  0.00    -0.269 OA
BRANCH  25  28
ATOM     28  C   UNL A   1      42.329  20.367  26.458  1.00  0.00     0.039 A 
ATOM     29  C   UNL A   1      42.939  21.142  25.466  1.00  0.00     0.014 A 
ATOM     30  C   UNL A   1      42.246  20.820  27.780  1.00  0.00     0.014 A 
ATOM     31  C   UNL A   1      43.407  22.411  25.784  1.00  0.00     0.010 A 
ATOM     32  C   UNL A   1      42.700  22.092  28.098  1.00  0.00     0.010 A 
ATOM     33  C   UNL A   1      43.258  22.892  27.093  1.00  0.00    -0.014 A 
BRANCH  33  34
ATOM     34  C   UNL A   1      43.513  24.327  27.354  1.00  0.00     0.031 A 
ATOM     35  C   UNL A   1      42.160  25.099  27.516  1.00  0.00     0.074 A 
ATOM     36  C   UNL A   1      44.836  24.691  27.402  1.00  0.00     0.049 A 
ATOM     37  N   UNL A   1      41.844  26.338  27.279  1.00  0.00    -0.248 NA
ATOM     38  C   UNL A   1      40.951  24.336  27.955  1.00  0.00     0.031 C 
ATOM     39  C   UNL A   1      45.987  23.761  27.262  1.00  0.00     0.029 A 
ATOM     40  N   UNL A   1      45.497  25.887  27.575  1.00  0.00    -0.354 N 
ATOM     41  C   UNL A   1      40.506  26.546  27.718  1.00  0.00     0.074 A 
ATOM     42  C   UNL A   1      39.980  25.250  28.014  1.00  0.00     0.031 C 
ATOM     43  C   UNL A   1      47.164  24.428  27.263  1.00  0.00     0.029 A 
ATOM     44  C   UNL A   1      46.913  25.847  27.400  1.00  0.00     0.049 A 
ATOM     45  H   UNL A   1      45.023  26.718  27.805  1.00  0.00     0.167 HD
ATOM     46  C   UNL A   1      39.962  27.783  27.941  1.00  0.00     0.037 A 
ATOM     47  C   UNL A   1      47.794  26.895  27.297  1.00  0.00     0.037 A 
ATOM     48  C   UNL A   1      40.917  28.784  27.620  1.00  0.00     0.049 A 
ATOM     49  C   UNL A   1      46.952  28.080  27.493  1.00  0.00     0.074 A 
ATOM     50  C   UNL A   1      41.351  29.310  26.437  1.00  0.00     0.029 A 
ATOM     51  N   UNL A   1      41.790  29.131  28.618  1.00  0.00    -0.354 N 
ATOM     52  N   UNL A   1      46.450  28.458  28.630  1.00  0.00    -0.248 NA
ATOM     53  C   UNL A   1      46.495  28.799  26.299  1.00  0.00     0.031 C 
ATOM     54  C   UNL A   1      42.727  29.516  26.668  1.00  0.00     0.029 A 
ATOM     55  C   UNL A   1      43.011  29.329  28.026  1.00  0.00     0.049 A 
ATOM     56  H   UNL A   1      41.580  29.222  29.576  1.00  0.00     0.167 HD
ATOM     57  C   UNL A   1      45.390  29.240  28.238  1.00  0.00     0.074 A 
ATOM     58  C   UNL A   1      45.655  29.649  26.876  1.00  0.00     0.031 C 
ATOM     59  C   UNL A   1      44.183  29.119  28.841  1.00  0.00     0.037 A 
BRANCH  46  60
ATOM     60  C   UNL A   1      38.727  28.276  28.660  1.00  0.00     0.057 A 
ATOM     61  C   UNL A   1      38.014  29.366  28.093  1.00  0.00     0.134 A 
ATOM     62  C   UNL A   1      38.458  28.021  30.006  1.00  0.00     0.134 A 
ATOM     63  F   UNL A   1      38.129  29.665  26.789  1.00  0.00    -0.206 F 
ATOM     64  C   UNL A   1      37.233  30.240  28.853  1.00  0.00     0.040 A 
ATOM     65  C   UNL A   1      37.631  28.864  30.768  1.00  0.00     0.040 A 
ATOM     66  F   UNL A   1      39.053  27.012  30.655  1.00  0.00    -0.206 F 
ATOM     67  C   UNL A   1      37.061  30.004  30.207  1.00  0.00     0.006 A 
ENDBRANCH  46  60
BRANCH  47  68
ATOM     68  C   UNL A   1      49.235  27.148  26.893  1.00  0.00     0.057 A 
ATOM     69  C   UNL A   1      50.200  27.828  27.640  1.00  0.00     0.134 A 
ATOM     70  C   UNL A   1      49.739  26.626  25.665  1.00  0.00     0.134 A 
ATOM     71  F   UNL A   1      49.868  28.508  28.743  1.00  0.00    -0.206 F 
ATOM     72  C   UNL A   1      51.564  27.866  27.263  1.00  0.00     0.040 A 
ATOM     73  C   UNL A   1      51.091  26.610  25.303  1.00  0.00     0.040 A 
ATOM     74  F   UNL A   1      48.934  26.099  24.733  1.00  0.00    -0.206 F 
ATOM     75  C   UNL A   1      52.021  27.216  26.119  1.00  0.00     0.006 A 
ENDBRANCH  47  68
BRANCH  59  76
ATOM     76  C   UNL A   1      44.214  28.436  30.201  1.00  0.00     0.057 A 
ATOM     77  C   UNL A   1      44.787  29.082  31.300  1.00  0.00     0.134 A 
ATOM     78  C   UNL A   1      43.783  27.120  30.441  1.00  0.00     0.134 A 
ATOM     79  F   UNL A   1      45.223  30.344  31.184  1.00  0.00    -0.206 F 
ATOM     80  C   UNL A   1      44.927  28.455  32.549  1.00  0.00     0.040 A 
ATOM     81  C   UNL A   1      43.906  26.479  31.681  1.00  0.00     0.040 A 
ATOM     82  F   UNL A   1      43.224  26.399  29.476  1.00  0.00    -0.206 F 
ATOM     83  C   UNL A   1      44.488  27.149  32.744  1.00  0.00     0.006 A 
ENDBRANCH  59  76
ENDBRANCH  33  34
ENDBRANCH  25  28
ENDBRANCH  23  24
ENDBRANCH  22  23
ENDBRANCH   1  22
TORSDOF 14
ENDMDL
MODEL 3
REMARK VINA RESULT:     -11.7      4.012      6.141
REMARK SMILES CCn1cccc1C(=O)N1CC[C@H](C(=O)NCCCCNC(=O)c2ccc(-c3c4nc(c(-c5c(F)cccc5F)c5ccc([nH]5)c(-c5c(F)cccc5F)c5nc(c(-c6c(F)cccc6F)c6ccc3[nH]6)C=C5)C=C4)cc2)[C@H]1C
REMARK SMILES IDX 18 1 17 2 16 3 14 4 15 5 13 7 10 8 11 9 78 10 12 11 79 12
REMARK SMILES IDX 8 13 9 14 7 15 3 16 4 17 5 18 6 19 2 20 1 21 19 22 20 23
REMARK SMILES IDX 21 24 22 25 23 27 24 28 25 29 77 30 26 31 76 32 27 33 28 34
REMARK SMILES IDX 29 35 70 36 30 37 75 38 69 39 71 40 31 41 74 42 68 43 67 44
REMARK SMILES IDX 32 46 58 47 41 48 57 49 42 50 45 51 56 52 72 53 43 54 44 55
REMARK SMILES IDX 55 57 73 58 46 59 33 60 34 61 39 62 35 63 36 64 38 65 40 66
REMARK SMILES IDX 37 67 59 68 60 69 65 70 61 71 62 72 64 73 66 74 63 75 47 76
REMARK SMILES IDX 48 77 53 78 49 79 50 80 52 81 54 82 51 83
REMARK H PARENT 16 6 21 26 71 45 45 56
REMARK Flexibility Score: inf
ROOT
ATOM      1  C   UNL A   1      32.936  29.476  25.433  1.00  0.00     0.023 C 
ENDROOT
BRANCH   1   2
ATOM      2  C   UNL A   1      33.302  28.921  24.062  1.00  0.00     0.116 C 
BRANCH   2   3
ATOM      3  N   UNL A   1      32.136  28.541  23.289  1.00  0.00    -0.356 N 
ATOM      4  C   UNL A   1      31.196  27.578  23.388  1.00  0.00     0.225 C 
ATOM      5  O   UNL A   1      30.331  27.598  22.500  1.00  0.00    -0.275 OA
ATOM      6  H   UNL A   1      31.997  29.123  22.506  1.00  0.00     0.163 HD
BRANCH   4   7
ATOM      7  C   UNL A   1      31.124  26.459  24.424  1.00  0.00     0.102 C 
ATOM      8  N   UNL A   1      32.081  24.398  23.761  1.00  0.00    -0.334 N 
ATOM      9  C   UNL A   1      30.730  24.450  23.223  1.00  0.00     0.121 C 
ATOM     10  C   UNL A   1      32.316  25.526  24.697  1.00  0.00     0.094 C 
ATOM     11  C   UNL A   1      30.004  25.480  24.055  1.00  0.00     0.037 C 
ATOM     12  C   UNL A   1      32.315  25.134  26.178  1.00  0.00     0.032 C 
BRANCH   8  13
ATOM     13  C   UNL A   1      32.981  23.602  23.050  1.00  0.00     0.270 C 
ATOM     14  O   UNL A   1      33.464  24.030  21.998  1.00  0.00    -0.267 OA
BRANCH  13  15
ATOM     15  C   UNL A   1      33.353  22.284  23.517  1.00  0.00     0.107 A 
ATOM     16  N   UNL A   1      34.487  21.949  24.237  1.00  0.00    -0.344 N 
ATOM     17  C   UNL A   1      34.363  20.669  24.728  1.00  0.00     0.086 A 
ATOM     18  C   UNL A   1      33.121  20.191  24.391  1.00  0.00     0.020 A 
ATOM     19  C   UNL A   1      32.486  21.202  23.639  1.00  0.00     0.033 A 
BRANCH  16  20
ATOM     20  C   UNL A   1      35.524  22.876  24.662  1.00  0.00     0.119 C 
ATOM     21  C   UNL A   1      36.693  22.996  23.696  1.00  0.00     0.027 C 
ENDBRANCH  16  20
ENDBRANCH  13  15
ENDBRANCH   8  13
ENDBRANCH   4   7
ENDBRANCH   2   3
ENDBRANCH   1   2
BRANCH   1  22
ATOM     22  C   UNL A   1      33.486  28.665  26.608  1.00  0.00     0.023 C 
BRANCH  22  23
ATOM     23  C   UNL A   1      34.980  28.867  26.865  1.00  0.00     0.116 C 
BRANCH  23  24
ATOM     24  N   UNL A   1      35.276  30.225  27.294  1.00  0.00    -0.352 N 
ATOM     25  C   UNL A   1      36.325  30.666  28.066  1.00  0.00     0.251 C 
ATOM     26  H   UNL A   1      34.644  30.917  26.993  1.00  0.00     0.163 HD
ATOM     27  O   UNL A   1      36.265  31.738  28.643  1.00  0.00    -0.269 OA
BRANCH  25  28
ATOM     28  C   UNL A   1      37.532  29.832  28.202  1.00  0.00     0.039 A 
ATOM     29  C   UNL A   1      38.448  29.802  27.145  1.00  0.00     0.014 A 
ATOM     30  C   UNL A   1      37.716  29.038  29.340  1.00  0.00     0.014 A 
ATOM     31  C   UNL A   1      39.594  29.025  27.259  1.00  0.00     0.010 A 
ATOM     32  C   UNL A   1      38.866  28.272  29.462  1.00  0.00     0.010 A 
ATOM     33  C   UNL A   1      39.812  28.286  28.430  1.00  0.00    -0.014 A 
BRANCH  33  34
ATOM     34  C   UNL A   1      41.146  27.682  28.649  1.00  0.00     0.031 A 
ATOM     35  C   UNL A   1      41.135  26.174  28.227  1.00  0.00     0.074 A 
ATOM     36  C   UNL A   1      42.098  28.527  29.162  1.00  0.00     0.049 A 
ATOM     37  N   UNL A   1      41.833  25.159  28.646  1.00  0.00    -0.248 NA
ATOM     38  C   UNL A   1      40.132  25.723  27.214  1.00  0.00     0.031 C 
ATOM     39  C   UNL A   1      41.896  29.970  29.454  1.00  0.00     0.029 A 
ATOM     40  N   UNL A   1      43.414  28.374  29.542  1.00  0.00    -0.354 N 
ATOM     41  C   UNL A   1      41.510  24.035  27.835  1.00  0.00     0.074 A 
ATOM     42  C   UNL A   1      40.377  24.421  27.054  1.00  0.00     0.031 C 
ATOM     43  C   UNL A   1      42.991  30.514  30.035  1.00  0.00     0.029 A 
ATOM     44  C   UNL A   1      44.012  29.498  30.185  1.00  0.00     0.049 A 
ATOM     45  H   UNL A   1      43.910  27.540  29.381  1.00  0.00     0.167 HD
ATOM     46  C   UNL A   1      42.281  22.905  27.759  1.00  0.00     0.037 A 
ATOM     47  C   UNL A   1      45.209  29.568  30.854  1.00  0.00     0.037 A 
ATOM     48  C   UNL A   1      43.390  23.030  28.637  1.00  0.00     0.049 A 
ATOM     49  C   UNL A   1      45.782  28.228  30.684  1.00  0.00     0.074 A 
ATOM     50  C   UNL A   1      43.524  22.897  29.990  1.00  0.00     0.029 A 
ATOM     51  N   UNL A   1      44.496  23.662  28.132  1.00  0.00    -0.354 N 
ATOM     52  N   UNL A   1      46.288  27.768  29.581  1.00  0.00    -0.248 NA
ATOM     53  C   UNL A   1      45.619  27.271  31.784  1.00  0.00     0.031 C 
ATOM     54  C   UNL A   1      44.457  23.903  30.315  1.00  0.00     0.029 A 
ATOM     55  C   UNL A   1      45.010  24.433  29.143  1.00  0.00     0.049 A 
ATOM     56  H   UNL A   1      44.853  23.578  27.218  1.00  0.00     0.167 HD
ATOM     57  C   UNL A   1      46.204  26.409  29.762  1.00  0.00     0.074 A 
ATOM     58  C   UNL A   1      46.092  26.185  31.187  1.00  0.00     0.031 C 
ATOM     59  C   UNL A   1      45.761  25.605  28.765  1.00  0.00     0.037 A 
BRANCH  46  60
ATOM     60  C   UNL A   1      42.343  21.735  26.804  1.00  0.00     0.057 A 
ATOM     61  C   UNL A   1      41.724  20.518  27.197  1.00  0.00     0.134 A 
ATOM     62  C   UNL A   1      43.273  21.626  25.768  1.00  0.00     0.134 A 
ATOM     63  F   UNL A   1      40.758  20.502  28.130  1.00  0.00    -0.206 F 
ATOM     64  C   UNL A   1      42.131  19.270  26.719  1.00  0.00     0.040 A 
ATOM     65  C   UNL A   1      43.651  20.378  25.242  1.00  0.00     0.040 A 
ATOM     66  F   UNL A   1      43.914  22.701  25.294  1.00  0.00    -0.206 F 
ATOM     67  C   UNL A   1      43.121  19.196  25.753  1.00  0.00     0.006 A 
ENDBRANCH  46  60
BRANCH  47  68
ATOM     68  C   UNL A   1      45.950  30.508  31.787  1.00  0.00     0.057 A 
ATOM     69  C   UNL A   1      47.091  31.254  31.480  1.00  0.00     0.134 A 
ATOM     70  C   UNL A   1      45.463  30.742  33.107  1.00  0.00     0.134 A 
ATOM     71  F   UNL A   1      47.765  31.049  30.343  1.00  0.00    -0.206 F 
ATOM     72  C   UNL A   1      47.613  32.236  32.355  1.00  0.00     0.040 A 
ATOM     73  C   UNL A   1      45.936  31.743  33.963  1.00  0.00     0.040 A 
ATOM     74  F   UNL A   1      44.491  29.996  33.648  1.00  0.00    -0.206 F 
ATOM     75  C   UNL A   1      47.009  32.517  33.577  1.00  0.00     0.006 A 
ENDBRANCH  47  68
BRANCH  59  76
ATOM     76  C   UNL A   1      45.807  26.226  27.376  1.00  0.00     0.057 A 
ATOM     77  C   UNL A   1      47.036  26.471  26.756  1.00  0.00     0.134 A 
ATOM     78  C   UNL A   1      44.682  26.679  26.668  1.00  0.00     0.134 A 
ATOM     79  F   UNL A   1      48.174  26.070  27.340  1.00  0.00    -0.206 F 
ATOM     80  C   UNL A   1      47.135  27.129  25.520  1.00  0.00     0.040 A 
ATOM     81  C   UNL A   1      44.757  27.332  25.430  1.00  0.00     0.040 A 
ATOM     82  F   UNL A   1      43.457  26.509  27.153  1.00  0.00    -0.206 F 
ATOM     83  C   UNL A   1      45.993  27.565  24.851  1.00  0.00     0.006 A 
ENDBRANCH  59  76
ENDBRANCH  33  34
ENDBRANCH  25  28
ENDBRANCH  23  24
ENDBRANCH  22  23
ENDBRANCH   1  22
TORSDOF 14
ENDMDL
