MODEL 1
REMARK VINA RESULT:     -11.9      0.000      0.000
REMARK SMILES O=C(NCCCCNC(=O)c1cc(F)ccc1NS(=O)(=O)c1ccc(Cl)s1)c1ccc(-c2c3nc(c(-c4c(F)cccc4F)c4ccc([nH]4)c(-c4c(F)cccc4F)c4nc(c(-c5c(F)cccc5F)c5ccc2[nH]5)C=C4)C=C3)cc1
REMARK SMILES IDX 6 1 5 2 4 3 3 4 1 5 2 6 28 8 29 9 81 10 30 11 80 12 31 13
REMARK SMILES IDX 32 14 33 15 74 16 34 17 79 18 73 19 75 20 35 21 78 22 72 23
REMARK SMILES IDX 71 24 36 26 62 27 45 28 61 29 46 30 49 31 60 32 76 33 47 34
REMARK SMILES IDX 48 35 59 37 77 38 50 39 37 40 38 41 43 42 39 43 40 44 42 45
REMARK SMILES IDX 44 46 41 47 63 48 64 49 69 50 65 51 66 52 68 53 70 54 67 55
REMARK SMILES IDX 51 56 52 57 57 58 53 59 54 60 56 61 58 62 55 63 7 64 8 65
REMARK SMILES IDX 9 66 10 68 11 69 12 70 17 71 13 72 16 73 14 74 15 75 18 76
REMARK SMILES IDX 19 78 20 79 21 80 22 81 23 82 27 83 24 84 25 85 26 86
REMARK H PARENT 3 7 75 25 49 36 8 67 18 77
REMARK Flexibility Score: inf
ROOT
ATOM      1  C   UNL A   1      37.373  20.890  24.554  1.00  0.00     0.023 C 
ENDROOT
BRANCH   1   2
ATOM      2  C   UNL A   1      38.164  19.653  24.971  1.00  0.00     0.023 C 
BRANCH   2   3
ATOM      3  C   UNL A   1      39.208  19.887  26.056  1.00  0.00     0.116 C 
BRANCH   3   4
ATOM      4  N   UNL A   1      40.334  18.972  25.968  1.00  0.00    -0.352 N 
ATOM      5  O   UNL A   1      42.502  18.360  25.841  1.00  0.00    -0.269 OA
ATOM      6  C   UNL A   1      41.678  19.239  26.072  1.00  0.00     0.251 C 
ATOM      7  H   UNL A   1      40.101  18.028  25.813  1.00  0.00     0.163 HD
BRANCH   6   8
ATOM      8  C   UNL A   1      42.129  20.598  26.439  1.00  0.00     0.039 A 
ATOM      9  C   UNL A   1      42.261  20.969  27.780  1.00  0.00     0.014 A 
ATOM     10  C   UNL A   1      42.427  21.512  25.424  1.00  0.00     0.014 A 
ATOM     11  C   UNL A   1      42.562  22.287  28.105  1.00  0.00     0.010 A 
ATOM     12  C   UNL A   1      42.806  22.815  25.753  1.00  0.00     0.010 A 
ATOM     13  C   UNL A   1      42.853  23.219  27.096  1.00  0.00    -0.014 A 
BRANCH  13  14
ATOM     14  C   UNL A   1      43.283  24.588  27.472  1.00  0.00     0.031 A 
ATOM     15  C   UNL A   1      42.292  25.620  27.927  1.00  0.00     0.074 A 
ATOM     16  C   UNL A   1      44.595  24.887  27.412  1.00  0.00     0.049 A 
ATOM     17  N   UNL A   1      42.507  26.863  28.280  1.00  0.00    -0.248 NA
ATOM     18  C   UNL A   1      40.880  25.215  27.992  1.00  0.00     0.031 C 
ATOM     19  C   UNL A   1      45.647  23.964  26.976  1.00  0.00     0.029 A 
ATOM     20  N   UNL A   1      45.271  26.037  27.725  1.00  0.00    -0.354 N 
ATOM     21  C   UNL A   1      41.262  27.391  28.593  1.00  0.00     0.074 A 
ATOM     22  C   UNL A   1      40.290  26.341  28.371  1.00  0.00     0.031 C 
ATOM     23  C   UNL A   1      46.836  24.570  27.086  1.00  0.00     0.029 A 
ATOM     24  C   UNL A   1      46.628  25.942  27.541  1.00  0.00     0.049 A 
ATOM     25  H   UNL A   1      44.826  26.852  28.051  1.00  0.00     0.167 HD
ATOM     26  C   UNL A   1      40.963  28.637  29.031  1.00  0.00     0.037 A 
ATOM     27  C   UNL A   1      47.599  26.859  27.696  1.00  0.00     0.037 A 
ATOM     28  C   UNL A   1      41.939  29.669  29.272  1.00  0.00     0.049 A 
ATOM     29  C   UNL A   1      47.236  28.239  28.153  1.00  0.00     0.074 A 
ATOM     30  C   UNL A   1      41.734  30.945  29.767  1.00  0.00     0.029 A 
ATOM     31  N   UNL A   1      43.299  29.545  29.034  1.00  0.00    -0.354 N 
ATOM     32  N   UNL A   1      46.057  28.715  28.471  1.00  0.00    -0.248 NA
ATOM     33  C   UNL A   1      48.330  29.214  28.264  1.00  0.00     0.031 C 
ATOM     34  C   UNL A   1      42.964  31.609  29.787  1.00  0.00     0.029 A 
ATOM     35  C   UNL A   1      43.942  30.733  29.345  1.00  0.00     0.049 A 
ATOM     36  H   UNL A   1      43.742  28.735  28.695  1.00  0.00     0.167 HD
ATOM     37  C   UNL A   1      46.264  30.041  28.822  1.00  0.00     0.074 A 
ATOM     38  C   UNL A   1      47.687  30.290  28.698  1.00  0.00     0.031 C 
ATOM     39  C   UNL A   1      45.355  30.968  29.208  1.00  0.00     0.037 A 
BRANCH  26  40
ATOM     40  C   UNL A   1      39.523  28.972  29.279  1.00  0.00     0.057 A 
ATOM     41  C   UNL A   1      38.958  28.785  30.547  1.00  0.00     0.134 A 
ATOM     42  C   UNL A   1      38.673  29.384  28.245  1.00  0.00     0.134 A 
ATOM     43  F   UNL A   1      39.715  28.382  31.578  1.00  0.00    -0.206 F 
ATOM     44  C   UNL A   1      37.594  28.981  30.774  1.00  0.00     0.040 A 
ATOM     45  C   UNL A   1      37.312  29.602  28.465  1.00  0.00     0.040 A 
ATOM     46  F   UNL A   1      39.156  29.588  27.010  1.00  0.00    -0.206 F 
ATOM     47  C   UNL A   1      36.767  29.389  29.730  1.00  0.00     0.006 A 
ENDBRANCH  26  40
BRANCH  27  48
ATOM     48  C   UNL A   1      49.004  26.487  27.400  1.00  0.00     0.057 A 
ATOM     49  C   UNL A   1      49.498  26.501  26.089  1.00  0.00     0.134 A 
ATOM     50  C   UNL A   1      49.866  26.059  28.413  1.00  0.00     0.134 A 
ATOM     51  F   UNL A   1      48.714  26.894  25.074  1.00  0.00    -0.206 F 
ATOM     52  C   UNL A   1      50.794  26.078  25.792  1.00  0.00     0.040 A 
ATOM     53  C   UNL A   1      51.173  25.655  28.134  1.00  0.00     0.040 A 
ATOM     54  F   UNL A   1      49.453  26.038  29.688  1.00  0.00    -0.206 F 
ATOM     55  C   UNL A   1      51.636  25.656  26.818  1.00  0.00     0.006 A 
ENDBRANCH  27  48
BRANCH  39  56
ATOM     56  C   UNL A   1      45.864  32.340  29.526  1.00  0.00     0.057 A 
ATOM     57  C   UNL A   1      46.311  32.659  30.814  1.00  0.00     0.134 A 
ATOM     58  C   UNL A   1      45.844  33.365  28.572  1.00  0.00     0.134 A 
ATOM     59  F   UNL A   1      46.346  31.721  31.773  1.00  0.00    -0.206 F 
ATOM     60  C   UNL A   1      46.703  33.954  31.147  1.00  0.00     0.040 A 
ATOM     61  C   UNL A   1      46.254  34.660  28.888  1.00  0.00     0.040 A 
ATOM     62  F   UNL A   1      45.439  33.117  27.317  1.00  0.00    -0.206 F 
ATOM     63  C   UNL A   1      46.677  34.960  30.182  1.00  0.00     0.006 A 
ENDBRANCH  39  56
ENDBRANCH  13  14
ENDBRANCH   6   8
ENDBRANCH   3   4
ENDBRANCH   2   3
ENDBRANCH   1   2
BRANCH   1  64
ATOM     64  C   UNL A   1      37.043  21.854  25.691  1.00  0.00     0.116 C 
BRANCH  64  65
ATOM     65  N   UNL A   1      35.954  21.364  26.528  1.00  0.00    -0.352 N 
ATOM     66  C   UNL A   1      34.682  21.870  26.651  1.00  0.00     0.253 C 
ATOM     67  H   UNL A   1      36.156  20.570  27.074  1.00  0.00     0.163 HD
ATOM     68  O   UNL A   1      33.943  21.515  27.559  1.00  0.00    -0.269 OA
BRANCH  66  69
ATOM     69  C   UNL A   1      34.251  22.912  25.706  1.00  0.00     0.066 A 
ATOM     70  C   UNL A   1      34.179  24.233  26.172  1.00  0.00     0.055 A 
ATOM     71  C   UNL A   1      33.764  22.564  24.438  1.00  0.00     0.062 A 
ATOM     72  C   UNL A   1      33.524  25.184  25.406  1.00  0.00     0.124 A 
ATOM     73  C   UNL A   1      33.048  23.529  23.724  1.00  0.00     0.030 A 
ATOM     74  F   UNL A   1      33.398  26.433  25.868  1.00  0.00    -0.207 F 
ATOM     75  C   UNL A   1      32.935  24.838  24.198  1.00  0.00     0.041 A 
BRANCH  71  76
ATOM     76  N   UNL A   1      33.915  21.246  23.868  1.00  0.00    -0.278 N 
ATOM     77  H   UNL A   1      34.774  20.938  23.500  1.00  0.00     0.180 HD
BRANCH  76  78
ATOM     78  S   UNL A   1      32.521  20.244  23.865  1.00  0.00     0.271 S 
ATOM     79  O   UNL A   1      31.800  20.493  25.093  1.00  0.00    -0.200 OA
ATOM     80  O   UNL A   1      31.885  20.405  22.577  1.00  0.00    -0.200 OA
BRANCH  78  81
ATOM     81  C   UNL A   1      32.999  18.533  23.993  1.00  0.00     0.141 A 
ATOM     82  C   UNL A   1      33.656  17.707  23.093  1.00  0.00     0.036 A 
ATOM     83  S   UNL A   1      32.540  17.680  25.407  1.00  0.00    -0.110 S 
ATOM     84  C   UNL A   1      33.712  16.355  23.540  1.00  0.00     0.034 A 
ATOM     85  C   UNL A   1      33.135  16.226  24.775  1.00  0.00     0.094 A 
ATOM     86  Cl  UNL A   1      32.962  14.771  25.670  1.00  0.00    -0.072 Cl
ENDBRANCH  78  81
ENDBRANCH  76  78
ENDBRANCH  71  76
ENDBRANCH  66  69
ENDBRANCH  64  65
ENDBRANCH   1  64
TORSDOF 14
ENDMDL
MODEL 2
REMARK VINA RESULT:     -11.9      1.141      6.213
REMARK SMILES O=C(NCCCCNC(=O)c1cc(F)ccc1NS(=O)(=O)c1ccc(Cl)s1)c1ccc(-c2c3nc(c(-c4c(F)cccc4F)c4ccc([nH]4)c(-c4c(F)cccc4F)c4nc(c(-c5c(F)cccc5F)c5ccc2[nH]5)C=C4)C=C3)cc1
REMARK SMILES IDX 6 1 5 2 4 3 3 4 1 5 2 6 28 8 29 9 81 10 30 11 80 12 31 13
REMARK SMILES IDX 32 14 33 15 74 16 34 17 79 18 73 19 75 20 35 21 78 22 72 23
REMARK SMILES IDX 71 24 36 26 62 27 45 28 61 29 46 30 49 31 60 32 76 33 47 34
REMARK SMILES IDX 48 35 59 37 77 38 50 39 37 40 38 41 43 42 39 43 40 44 42 45
REMARK SMILES IDX 44 46 41 47 63 48 64 49 69 50 65 51 66 52 68 53 70 54 67 55
REMARK SMILES IDX 51 56 52 57 57 58 53 59 54 60 56 61 58 62 55 63 7 64 8 65
REMARK SMILES IDX 9 66 10 68 11 69 12 70 17 71 13 72 16 73 14 74 15 75 18 76
REMARK SMILES IDX 19 78 20 79 21 80 22 81 23 82 27 83 24 84 25 85 26 86
REMARK H PARENT 3 7 75 25 49 36 8 67 18 77
REMARK Flexibility Score: inf
ROOT
ATOM      1  C   UNL A   1      37.334  21.065  24.563  1.00  0.00     0.023 C 
ENDROOT
BRANCH   1   2
ATOM      2  C   UNL A   1      38.162  19.830  24.908  1.00  0.00     0.023 C 
BRANCH   2   3
ATOM      3  C   UNL A   1      39.184  20.026  26.020  1.00  0.00     0.116 C 
BRANCH   3   4
ATOM      4  N   UNL A   1      40.366  19.196  25.858  1.00  0.00    -0.352 N 
ATOM      5  O   UNL A   1      42.570  18.734  25.716  1.00  0.00    -0.269 OA
ATOM      6  C   UNL A   1      41.690  19.530  26.023  1.00  0.00     0.251 C 
ATOM      7  H   UNL A   1      40.196  18.263  25.594  1.00  0.00     0.163 HD
BRANCH   6   8
ATOM      8  C   UNL A   1      42.048  20.864  26.550  1.00  0.00     0.039 A 
ATOM      9  C   UNL A   1      42.053  21.111  27.925  1.00  0.00     0.014 A 
ATOM     10  C   UNL A   1      42.389  21.879  25.651  1.00  0.00     0.014 A 
ATOM     11  C   UNL A   1      42.268  22.403  28.393  1.00  0.00     0.010 A 
ATOM     12  C   UNL A   1      42.682  23.159  26.128  1.00  0.00     0.010 A 
ATOM     13  C   UNL A   1      42.600  23.436  27.502  1.00  0.00    -0.014 A 
BRANCH  13  14
ATOM     14  C   UNL A   1      42.936  24.778  28.035  1.00  0.00     0.031 A 
ATOM     15  C   UNL A   1      44.353  25.160  28.353  1.00  0.00     0.074 A 
ATOM     16  C   UNL A   1      41.938  25.664  28.216  1.00  0.00     0.049 A 
ATOM     17  N   UNL A   1      44.809  26.288  28.835  1.00  0.00    -0.248 NA
ATOM     18  C   UNL A   1      45.393  24.149  28.107  1.00  0.00     0.031 C 
ATOM     19  C   UNL A   1      40.522  25.400  27.949  1.00  0.00     0.029 A 
ATOM     20  N   UNL A   1      41.956  26.963  28.654  1.00  0.00    -0.354 N 
ATOM     21  C   UNL A   1      46.181  26.121  28.964  1.00  0.00     0.074 A 
ATOM     22  C   UNL A   1      46.485  24.775  28.527  1.00  0.00     0.031 C 
ATOM     23  C   UNL A   1      39.814  26.511  28.190  1.00  0.00     0.029 A 
ATOM     24  C   UNL A   1      40.714  27.546  28.688  1.00  0.00     0.049 A 
ATOM     25  H   UNL A   1      42.781  27.431  28.919  1.00  0.00     0.167 HD
ATOM     26  C   UNL A   1      47.100  27.015  29.401  1.00  0.00     0.037 A 
ATOM     27  C   UNL A   1      40.332  28.770  29.096  1.00  0.00     0.037 A 
ATOM     28  C   UNL A   1      46.793  28.361  29.811  1.00  0.00     0.049 A 
ATOM     29  C   UNL A   1      41.367  29.728  29.603  1.00  0.00     0.074 A 
ATOM     30  C   UNL A   1      47.666  29.355  30.218  1.00  0.00     0.029 A 
ATOM     31  N   UNL A   1      45.517  28.900  29.869  1.00  0.00    -0.354 N 
ATOM     32  N   UNL A   1      42.664  29.564  29.693  1.00  0.00    -0.248 NA
ATOM     33  C   UNL A   1      40.890  31.035  30.076  1.00  0.00     0.031 C 
ATOM     34  C   UNL A   1      46.915  30.481  30.565  1.00  0.00     0.029 A 
ATOM     35  C   UNL A   1      45.578  30.205  30.334  1.00  0.00     0.049 A 
ATOM     36  H   UNL A   1      44.691  28.428  29.618  1.00  0.00     0.167 HD
ATOM     37  C   UNL A   1      43.160  30.744  30.228  1.00  0.00     0.074 A 
ATOM     38  C   UNL A   1      42.026  31.625  30.424  1.00  0.00     0.031 C 
ATOM     39  C   UNL A   1      44.440  31.064  30.532  1.00  0.00     0.037 A 
BRANCH  26  40
ATOM     40  C   UNL A   1      48.534  26.579  29.468  1.00  0.00     0.057 A 
ATOM     41  C   UNL A   1      49.052  26.021  30.643  1.00  0.00     0.134 A 
ATOM     42  C   UNL A   1      49.422  26.801  28.409  1.00  0.00     0.134 A 
ATOM     43  F   UNL A   1      48.256  25.791  31.698  1.00  0.00    -0.206 F 
ATOM     44  C   UNL A   1      50.409  25.713  30.768  1.00  0.00     0.040 A 
ATOM     45  C   UNL A   1      50.777  26.480  28.515  1.00  0.00     0.040 A 
ATOM     46  F   UNL A   1      48.985  27.326  27.254  1.00  0.00    -0.206 F 
ATOM     47  C   UNL A   1      51.275  25.945  29.702  1.00  0.00     0.006 A 
ENDBRANCH  26  40
BRANCH  27  48
ATOM     48  C   UNL A   1      38.897  29.138  29.044  1.00  0.00     0.057 A 
ATOM     49  C   UNL A   1      38.078  29.026  30.176  1.00  0.00     0.134 A 
ATOM     50  C   UNL A   1      38.301  29.559  27.852  1.00  0.00     0.134 A 
ATOM     51  F   UNL A   1      38.591  28.618  31.345  1.00  0.00    -0.206 F 
ATOM     52  C   UNL A   1      36.710  29.295  30.116  1.00  0.00     0.040 A 
ATOM     53  C   UNL A   1      36.938  29.854  27.784  1.00  0.00     0.040 A 
ATOM     54  F   UNL A   1      39.038  29.698  26.741  1.00  0.00    -0.206 F 
ATOM     55  C   UNL A   1      36.138  29.713  28.917  1.00  0.00     0.006 A 
ENDBRANCH  27  48
BRANCH  39  56
ATOM     56  C   UNL A   1      44.691  32.423  31.111  1.00  0.00     0.057 A 
ATOM     57  C   UNL A   1      44.647  32.632  32.494  1.00  0.00     0.134 A 
ATOM     58  C   UNL A   1      44.904  33.537  30.290  1.00  0.00     0.134 A 
ATOM     59  F   UNL A   1      44.437  31.605  33.332  1.00  0.00    -0.206 F 
ATOM     60  C   UNL A   1      44.790  33.907  33.042  1.00  0.00     0.040 A 
ATOM     61  C   UNL A   1      45.070  34.814  30.828  1.00  0.00     0.040 A 
ATOM     62  F   UNL A   1      44.970  33.398  28.958  1.00  0.00    -0.206 F 
ATOM     63  C   UNL A   1      45.003  35.003  32.207  1.00  0.00     0.006 A 
ENDBRANCH  39  56
ENDBRANCH  13  14
ENDBRANCH   6   8
ENDBRANCH   3   4
ENDBRANCH   2   3
ENDBRANCH   1   2
BRANCH   1  64
ATOM     64  C   UNL A   1      37.008  21.970  25.748  1.00  0.00     0.116 C 
BRANCH  64  65
ATOM     65  N   UNL A   1      35.928  21.435  26.568  1.00  0.00    -0.352 N 
ATOM     66  C   UNL A   1      34.636  21.890  26.677  1.00  0.00     0.253 C 
ATOM     67  H   UNL A   1      36.153  20.646  27.113  1.00  0.00     0.163 HD
ATOM     68  O   UNL A   1      33.900  21.501  27.574  1.00  0.00    -0.269 OA
BRANCH  66  69
ATOM     69  C   UNL A   1      34.177  22.919  25.732  1.00  0.00     0.066 A 
ATOM     70  C   UNL A   1      34.073  24.239  26.196  1.00  0.00     0.055 A 
ATOM     71  C   UNL A   1      33.696  22.557  24.466  1.00  0.00     0.062 A 
ATOM     72  C   UNL A   1      33.392  25.171  25.429  1.00  0.00     0.124 A 
ATOM     73  C   UNL A   1      32.955  23.503  23.752  1.00  0.00     0.030 A 
ATOM     74  F   UNL A   1      33.236  26.418  25.890  1.00  0.00    -0.207 F 
ATOM     75  C   UNL A   1      32.809  24.809  24.224  1.00  0.00     0.041 A 
BRANCH  71  76
ATOM     76  N   UNL A   1      33.879  21.242  23.897  1.00  0.00    -0.278 N 
ATOM     77  H   UNL A   1      34.750  20.946  23.550  1.00  0.00     0.180 HD
BRANCH  76  78
ATOM     78  S   UNL A   1      32.499  20.221  23.859  1.00  0.00     0.271 S 
ATOM     79  O   UNL A   1      31.751  20.449  25.075  1.00  0.00    -0.200 OA
ATOM     80  O   UNL A   1      31.885  20.385  22.560  1.00  0.00    -0.200 OA
BRANCH  78  81
ATOM     81  C   UNL A   1      32.998  18.516  23.981  1.00  0.00     0.141 A 
ATOM     82  C   UNL A   1      33.697  17.712  23.094  1.00  0.00     0.036 A 
ATOM     83  S   UNL A   1      32.503  17.638  25.367  1.00  0.00    -0.110 S 
ATOM     84  C   UNL A   1      33.758  16.355  23.525  1.00  0.00     0.034 A 
ATOM     85  C   UNL A   1      33.141  16.201  24.738  1.00  0.00     0.094 A 
ATOM     86  Cl  UNL A   1      32.960  14.732  25.608  1.00  0.00    -0.072 Cl
ENDBRANCH  78  81
ENDBRANCH  76  78
ENDBRANCH  71  76
ENDBRANCH  66  69
ENDBRANCH  64  65
ENDBRANCH   1  64
TORSDOF 14
ENDMDL
MODEL 3
REMARK VINA RESULT:     -11.9      6.108      9.939
REMARK SMILES O=C(NCCCCNC(=O)c1cc(F)ccc1NS(=O)(=O)c1ccc(Cl)s1)c1ccc(-c2c3nc(c(-c4c(F)cccc4F)c4ccc([nH]4)c(-c4c(F)cccc4F)c4nc(c(-c5c(F)cccc5F)c5ccc2[nH]5)C=C4)C=C3)cc1
REMARK SMILES IDX 6 1 5 2 4 3 3 4 1 5 2 6 28 8 29 9 81 10 30 11 80 12 31 13
REMARK SMILES IDX 32 14 33 15 74 16 34 17 79 18 73 19 75 20 35 21 78 22 72 23
REMARK SMILES IDX 71 24 36 26 62 27 45 28 61 29 46 30 49 31 60 32 76 33 47 34
REMARK SMILES IDX 48 35 59 37 77 38 50 39 37 40 38 41 43 42 39 43 40 44 42 45
REMARK SMILES IDX 44 46 41 47 63 48 64 49 69 50 65 51 66 52 68 53 70 54 67 55
REMARK SMILES IDX 51 56 52 57 57 58 53 59 54 60 56 61 58 62 55 63 7 64 8 65
REMARK SMILES IDX 9 66 10 68 11 69 12 70 17 71 13 72 16 73 14 74 15 75 18 76
REMARK SMILES IDX 19 78 20 79 21 80 22 81 23 82 27 83 24 84 25 85 26 86
REMARK H PARENT 3 7 75 25 49 36 8 67 18 77
REMARK Flexibility Score: inf
ROOT
ATOM      1  C   UNL A   1      31.794  30.354  26.885  1.00  0.00     0.023 C 
ENDROOT
BRANCH   1   2
ATOM      2  C   UNL A   1      31.518  31.856  26.887  1.00  0.00     0.023 C 
BRANCH   2   3
ATOM      3  C   UNL A   1      32.758  32.741  26.926  1.00  0.00     0.116 C 
BRANCH   3   4
ATOM      4  N   UNL A   1      32.516  34.028  27.557  1.00  0.00    -0.352 N 
ATOM      5  O   UNL A   1      32.727  35.640  29.122  1.00  0.00    -0.269 OA
ATOM      6  C   UNL A   1      33.149  34.596  28.638  1.00  0.00     0.251 C 
ATOM      7  H   UNL A   1      31.800  34.570  27.155  1.00  0.00     0.163 HD
BRANCH   6   8
ATOM      8  C   UNL A   1      34.327  33.928  29.231  1.00  0.00     0.039 A 
ATOM      9  C   UNL A   1      35.622  34.315  28.875  1.00  0.00     0.014 A 
ATOM     10  C   UNL A   1      34.130  32.902  30.160  1.00  0.00     0.014 A 
ATOM     11  C   UNL A   1      36.712  33.591  29.346  1.00  0.00     0.010 A 
ATOM     12  C   UNL A   1      35.231  32.227  30.693  1.00  0.00     0.010 A 
ATOM     13  C   UNL A   1      36.529  32.551  30.271  1.00  0.00    -0.014 A 
BRANCH  13  14
ATOM     14  C   UNL A   1      37.716  31.870  30.844  1.00  0.00     0.031 A 
ATOM     15  C   UNL A   1      38.223  32.209  32.216  1.00  0.00     0.074 A 
ATOM     16  C   UNL A   1      38.326  30.920  30.110  1.00  0.00     0.049 A 
ATOM     17  N   UNL A   1      39.252  31.712  32.855  1.00  0.00    -0.248 NA
ATOM     18  C   UNL A   1      37.491  33.239  32.968  1.00  0.00     0.031 C 
ATOM     19  C   UNL A   1      37.924  30.513  28.761  1.00  0.00     0.029 A 
ATOM     20  N   UNL A   1      39.400  30.117  30.392  1.00  0.00    -0.354 N 
ATOM     21  C   UNL A   1      39.302  32.375  34.073  1.00  0.00     0.074 A 
ATOM     22  C   UNL A   1      38.210  33.326  34.080  1.00  0.00     0.031 C 
ATOM     23  C   UNL A   1      38.715  29.514  28.349  1.00  0.00     0.029 A 
ATOM     24  C   UNL A   1      39.717  29.250  29.376  1.00  0.00     0.049 A 
ATOM     25  H   UNL A   1      39.897  30.159  31.241  1.00  0.00     0.167 HD
ATOM     26  C   UNL A   1      40.176  32.199  35.092  1.00  0.00     0.037 A 
ATOM     27  C   UNL A   1      40.716  28.355  29.268  1.00  0.00     0.037 A 
ATOM     28  C   UNL A   1      41.245  31.234  35.086  1.00  0.00     0.049 A 
ATOM     29  C   UNL A   1      41.687  28.202  30.399  1.00  0.00     0.074 A 
ATOM     30  C   UNL A   1      42.149  30.947  36.095  1.00  0.00     0.029 A 
ATOM     31  N   UNL A   1      41.557  30.403  34.022  1.00  0.00    -0.354 N 
ATOM     32  N   UNL A   1      41.704  28.818  31.556  1.00  0.00    -0.248 NA
ATOM     33  C   UNL A   1      42.783  27.243  30.211  1.00  0.00     0.031 C 
ATOM     34  C   UNL A   1      43.035  29.974  35.626  1.00  0.00     0.029 A 
ATOM     35  C   UNL A   1      42.659  29.623  34.340  1.00  0.00     0.049 A 
ATOM     36  H   UNL A   1      41.070  30.370  33.168  1.00  0.00     0.167 HD
ATOM     37  C   UNL A   1      42.806  28.321  32.235  1.00  0.00     0.074 A 
ATOM     38  C   UNL A   1      43.423  27.336  31.369  1.00  0.00     0.031 C 
ATOM     39  C   UNL A   1      43.266  28.655  33.464  1.00  0.00     0.037 A 
BRANCH  26  40
ATOM     40  C   UNL A   1      40.029  33.065  36.307  1.00  0.00     0.057 A 
ATOM     41  C   UNL A   1      39.099  32.741  37.303  1.00  0.00     0.134 A 
ATOM     42  C   UNL A   1      40.734  34.267  36.445  1.00  0.00     0.134 A 
ATOM     43  F   UNL A   1      38.384  31.609  37.225  1.00  0.00    -0.206 F 
ATOM     44  C   UNL A   1      38.863  33.591  38.385  1.00  0.00     0.040 A 
ATOM     45  C   UNL A   1      40.521  35.116  37.533  1.00  0.00     0.040 A 
ATOM     46  F   UNL A   1      41.644  34.629  35.528  1.00  0.00    -0.206 F 
ATOM     47  C   UNL A   1      39.574  34.783  38.501  1.00  0.00     0.006 A 
ENDBRANCH  26  40
BRANCH  27  48
ATOM     48  C   UNL A   1      40.839  27.550  28.029  1.00  0.00     0.057 A 
ATOM     49  C   UNL A   1      40.246  26.285  27.924  1.00  0.00     0.134 A 
ATOM     50  C   UNL A   1      41.596  28.003  26.945  1.00  0.00     0.134 A 
ATOM     51  F   UNL A   1      39.515  25.794  28.935  1.00  0.00    -0.206 F 
ATOM     52  C   UNL A   1      40.422  25.488  26.792  1.00  0.00     0.040 A 
ATOM     53  C   UNL A   1      41.762  27.226  25.798  1.00  0.00     0.040 A 
ATOM     54  F   UNL A   1      42.175  29.211  26.984  1.00  0.00    -0.206 F 
ATOM     55  C   UNL A   1      41.181  25.960  25.724  1.00  0.00     0.006 A 
ENDBRANCH  27  48
BRANCH  39  56
ATOM     56  C   UNL A   1      44.497  27.954  33.953  1.00  0.00     0.057 A 
ATOM     57  C   UNL A   1      45.768  28.488  33.712  1.00  0.00     0.134 A 
ATOM     58  C   UNL A   1      44.422  26.714  34.599  1.00  0.00     0.134 A 
ATOM     59  F   UNL A   1      45.904  29.669  33.089  1.00  0.00    -0.206 F 
ATOM     60  C   UNL A   1      46.926  27.803  34.082  1.00  0.00     0.040 A 
ATOM     61  C   UNL A   1      45.573  26.031  34.993  1.00  0.00     0.040 A 
ATOM     62  F   UNL A   1      43.231  26.159  34.869  1.00  0.00    -0.206 F 
ATOM     63  C   UNL A   1      46.829  26.571  34.726  1.00  0.00     0.006 A 
ENDBRANCH  39  56
ENDBRANCH  13  14
ENDBRANCH   6   8
ENDBRANCH   3   4
ENDBRANCH   2   3
ENDBRANCH   1   2
BRANCH   1  64
ATOM     64  C   UNL A   1      33.167  29.955  26.351  1.00  0.00     0.116 C 
BRANCH  64  65
ATOM     65  N   UNL A   1      33.209  29.950  24.894  1.00  0.00    -0.352 N 
ATOM     66  C   UNL A   1      33.198  28.868  24.046  1.00  0.00     0.253 C 
ATOM     67  H   UNL A   1      33.251  30.834  24.462  1.00  0.00     0.163 HD
ATOM     68  O   UNL A   1      33.478  28.989  22.860  1.00  0.00    -0.269 OA
BRANCH  66  69
ATOM     69  C   UNL A   1      32.916  27.541  24.611  1.00  0.00     0.066 A 
ATOM     70  C   UNL A   1      33.998  26.676  24.833  1.00  0.00     0.055 A 
ATOM     71  C   UNL A   1      31.594  27.098  24.759  1.00  0.00     0.062 A 
ATOM     72  C   UNL A   1      33.750  25.339  25.100  1.00  0.00     0.124 A 
ATOM     73  C   UNL A   1      31.380  25.730  24.960  1.00  0.00     0.030 A 
ATOM     74  F   UNL A   1      34.776  24.494  25.254  1.00  0.00    -0.207 F 
ATOM     75  C   UNL A   1      32.451  24.853  25.139  1.00  0.00     0.041 A 
BRANCH  71  76
ATOM     76  N   UNL A   1      30.450  27.973  24.653  1.00  0.00    -0.278 N 
ATOM     77  H   UNL A   1      30.195  28.579  25.385  1.00  0.00     0.180 HD
BRANCH  76  78
ATOM     78  S   UNL A   1      29.560  27.904  23.187  1.00  0.00     0.271 S 
ATOM     79  O   UNL A   1      30.486  27.572  22.127  1.00  0.00    -0.200 OA
ATOM     80  O   UNL A   1      28.389  27.094  23.439  1.00  0.00    -0.200 OA
BRANCH  78  81
ATOM     81  C   UNL A   1      28.978  29.529  22.748  1.00  0.00     0.141 A 
ATOM     82  C   UNL A   1      28.231  29.960  21.664  1.00  0.00     0.036 A 
ATOM     83  S   UNL A   1      29.443  30.839  23.750  1.00  0.00    -0.110 S 
ATOM     84  C   UNL A   1      28.106  31.379  21.620  1.00  0.00     0.034 A 
ATOM     85  C   UNL A   1      28.728  31.955  22.696  1.00  0.00     0.094 A 
ATOM     86  Cl  UNL A   1      28.845  33.637  23.023  1.00  0.00    -0.072 Cl
ENDBRANCH  78  81
ENDBRANCH  76  78
ENDBRANCH  71  76
ENDBRANCH  66  69
ENDBRANCH  64  65
ENDBRANCH   1  64
TORSDOF 14
ENDMDL
