MODEL 1
REMARK VINA RESULT:     -10.3      0.000      0.000
REMARK SMILES COc1ccc(NCc2ccc(C(=O)NCCCCNC(=O)c3ccc(-c4c5nc(c(-c6c(F)cccc6F)c6ccc([nH]6)c(-c6c(F)cccc6F)c6nc(c(-c7c(F)cccc7F)c7ccc4[nH]7)C=C6)C=C5)cc3)o2)cc1
REMARK SMILES IDX 16 1 15 2 13 3 14 4 12 6 9 7 10 8 77 9 11 10 8 11 7 12 6 14
REMARK SMILES IDX 3 15 4 16 79 17 5 18 78 19 2 20 1 21 17 22 18 23 19 24 20 25
REMARK SMILES IDX 21 26 22 28 23 29 24 30 76 31 25 32 75 33 26 34 27 35 28 36
REMARK SMILES IDX 69 37 29 38 74 39 68 40 70 41 30 42 73 43 67 44 66 45 31 47
REMARK SMILES IDX 57 48 40 49 56 50 41 51 44 52 55 53 71 54 42 55 43 56 54 58
REMARK SMILES IDX 72 59 45 60 32 61 33 62 38 63 34 64 35 65 37 66 39 67 36 68
REMARK SMILES IDX 58 69 59 70 64 71 60 72 61 73 63 74 65 75 62 76 46 77 47 78
REMARK SMILES IDX 52 79 48 80 49 81 51 82 53 83 50 84
REMARK H PARENT 15 5 7 13 20 27 70 46 44 57
REMARK Flexibility Score: inf
ROOT
ATOM      1  C   UNL A   1      33.614  35.805  29.254  1.00  0.00     0.116 C 
ENDROOT
BRANCH   1   2
ATOM      2  N   UNL A   1      32.570  36.118  30.204  1.00  0.00    -0.349 N 
ATOM      3  C   UNL A   1      32.534  35.997  31.576  1.00  0.00     0.286 C 
ATOM      4  O   UNL A   1      31.523  36.450  32.118  1.00  0.00    -0.266 OA
ATOM      5  H   UNL A   1      31.746  36.479  29.803  1.00  0.00     0.163 HD
BRANCH   3   6
ATOM      6  C   UNL A   1      33.628  35.388  32.315  1.00  0.00     0.191 A 
ATOM      7  C   UNL A   1      34.974  33.684  32.778  1.00  0.00     0.124 A 
ATOM      8  C   UNL A   1      35.361  34.717  33.602  1.00  0.00     0.048 A 
ATOM      9  O   UNL A   1      33.926  34.083  32.004  1.00  0.00    -0.454 OA
ATOM     10  C   UNL A   1      34.521  35.812  33.285  1.00  0.00     0.056 A 
BRANCH   7  11
ATOM     11  C   UNL A   1      35.508  32.305  32.563  1.00  0.00     0.188 C 
BRANCH  11  12
ATOM     12  N   UNL A   1      36.943  32.217  32.363  1.00  0.00    -0.378 N 
ATOM     13  H   UNL A   1      37.421  31.527  32.877  1.00  0.00     0.161 HD
BRANCH  12  14
ATOM     14  C   UNL A   1      37.705  33.004  31.522  1.00  0.00     0.035 A 
ATOM     15  C   UNL A   1      39.228  34.515  29.669  1.00  0.00     0.119 A 
ATOM     16  C   UNL A   1      39.502  34.579  31.031  1.00  0.00     0.048 A 
ATOM     17  C   UNL A   1      38.226  33.664  29.218  1.00  0.00     0.048 A 
ATOM     18  C   UNL A   1      38.749  33.832  31.944  1.00  0.00     0.029 A 
ATOM     19  C   UNL A   1      37.478  32.918  30.140  1.00  0.00     0.029 A 
BRANCH  15  20
ATOM     20  O   UNL A   1      40.026  35.282  28.865  1.00  0.00    -0.497 OA
ATOM     21  C   UNL A   1      41.417  35.192  29.153  1.00  0.00     0.278 C 
ENDBRANCH  15  20
ENDBRANCH  12  14
ENDBRANCH  11  12
ENDBRANCH   7  11
ENDBRANCH   3   6
ENDBRANCH   1   2
BRANCH   1  22
ATOM     22  C   UNL A   1      33.263  34.566  28.429  1.00  0.00     0.023 C 
BRANCH  22  23
ATOM     23  C   UNL A   1      34.465  33.683  28.079  1.00  0.00     0.023 C 
BRANCH  23  24
ATOM     24  C   UNL A   1      34.626  32.432  28.940  1.00  0.00     0.116 C 
BRANCH  24  25
ATOM     25  N   UNL A   1      34.010  31.246  28.364  1.00  0.00    -0.352 N 
ATOM     26  C   UNL A   1      34.602  30.048  28.036  1.00  0.00     0.251 C 
ATOM     27  H   UNL A   1      33.044  31.310  28.187  1.00  0.00     0.163 HD
ATOM     28  O   UNL A   1      33.963  29.171  27.472  1.00  0.00    -0.269 OA
BRANCH  26  29
ATOM     29  C   UNL A   1      36.036  29.850  28.333  1.00  0.00     0.039 A 
ATOM     30  C   UNL A   1      36.402  29.386  29.599  1.00  0.00     0.014 A 
ATOM     31  C   UNL A   1      37.004  30.077  27.353  1.00  0.00     0.014 A 
ATOM     32  C   UNL A   1      37.737  29.073  29.858  1.00  0.00     0.010 A 
ATOM     33  C   UNL A   1      38.323  29.706  27.591  1.00  0.00     0.010 A 
ATOM     34  C   UNL A   1      38.700  29.192  28.842  1.00  0.00    -0.014 A 
BRANCH  34  35
ATOM     35  C   UNL A   1      40.104  28.765  29.058  1.00  0.00     0.031 A 
ATOM     36  C   UNL A   1      41.101  29.723  29.644  1.00  0.00     0.074 A 
ATOM     37  C   UNL A   1      40.500  27.545  28.646  1.00  0.00     0.049 A 
ATOM     38  N   UNL A   1      42.390  29.575  29.814  1.00  0.00    -0.248 NA
ATOM     39  C   UNL A   1      40.585  31.034  30.069  1.00  0.00     0.031 C 
ATOM     40  C   UNL A   1      39.637  26.543  28.017  1.00  0.00     0.029 A 
ATOM     41  N   UNL A   1      41.734  26.947  28.678  1.00  0.00    -0.354 N 
ATOM     42  C   UNL A   1      42.841  30.775  30.347  1.00  0.00     0.074 A 
ATOM     43  C   UNL A   1      41.698  31.658  30.429  1.00  0.00     0.031 C 
ATOM     44  C   UNL A   1      40.365  25.450  27.738  1.00  0.00     0.029 A 
ATOM     45  C   UNL A   1      41.750  25.686  28.133  1.00  0.00     0.049 A 
ATOM     46  H   UNL A   1      42.533  27.382  29.056  1.00  0.00     0.167 HD
ATOM     47  C   UNL A   1      44.092  31.104  30.749  1.00  0.00     0.037 A 
ATOM     48  C   UNL A   1      42.769  24.823  27.963  1.00  0.00     0.037 A 
ATOM     49  C   UNL A   1      45.221  30.214  30.693  1.00  0.00     0.049 A 
ATOM     50  C   UNL A   1      44.147  25.211  28.420  1.00  0.00     0.074 A 
ATOM     51  C   UNL A   1      46.514  30.432  31.136  1.00  0.00     0.029 A 
ATOM     52  N   UNL A   1      45.191  28.934  30.160  1.00  0.00    -0.354 N 
ATOM     53  N   UNL A   1      44.547  26.327  28.982  1.00  0.00    -0.248 NA
ATOM     54  C   UNL A   1      45.215  24.221  28.224  1.00  0.00     0.031 C 
ATOM     55  C   UNL A   1      47.275  29.297  30.838  1.00  0.00     0.029 A 
ATOM     56  C   UNL A   1      46.447  28.357  30.247  1.00  0.00     0.049 A 
ATOM     57  H   UNL A   1      44.395  28.501  29.777  1.00  0.00     0.167 HD
ATOM     58  C   UNL A   1      45.903  26.162  29.230  1.00  0.00     0.074 A 
ATOM     59  C   UNL A   1      46.256  24.835  28.767  1.00  0.00     0.031 C 
ATOM     60  C   UNL A   1      46.778  27.031  29.791  1.00  0.00     0.037 A 
BRANCH  47  61
ATOM     61  C   UNL A   1      44.300  32.487  31.291  1.00  0.00     0.057 A 
ATOM     62  C   UNL A   1      44.166  32.770  32.657  1.00  0.00     0.134 A 
ATOM     63  C   UNL A   1      44.666  33.541  30.445  1.00  0.00     0.134 A 
ATOM     64  F   UNL A   1      43.804  31.808  33.519  1.00  0.00    -0.206 F 
ATOM     65  C   UNL A   1      44.364  34.058  33.158  1.00  0.00     0.040 A 
ATOM     66  C   UNL A   1      44.892  34.826  30.937  1.00  0.00     0.040 A 
ATOM     67  F   UNL A   1      44.816  33.335  29.127  1.00  0.00    -0.206 F 
ATOM     68  C   UNL A   1      44.734  35.090  32.297  1.00  0.00     0.006 A 
ENDBRANCH  47  61
BRANCH  48  69
ATOM     69  C   UNL A   1      42.522  23.494  27.349  1.00  0.00     0.057 A 
ATOM     70  C   UNL A   1      42.678  23.299  25.972  1.00  0.00     0.134 A 
ATOM     71  C   UNL A   1      42.124  22.394  28.117  1.00  0.00     0.134 A 
ATOM     72  F   UNL A   1      43.040  24.321  25.183  1.00  0.00    -0.206 F 
ATOM     73  C   UNL A   1      42.428  22.062  25.376  1.00  0.00     0.040 A 
ATOM     74  C   UNL A   1      41.891  21.145  27.537  1.00  0.00     0.040 A 
ATOM     75  F   UNL A   1      41.965  22.515  29.443  1.00  0.00    -0.206 F 
ATOM     76  C   UNL A   1      42.037  20.980  26.162  1.00  0.00     0.006 A 
ENDBRANCH  48  69
BRANCH  60  77
ATOM     77  C   UNL A   1      48.191  26.564  29.969  1.00  0.00     0.057 A 
ATOM     78  C   UNL A   1      48.634  25.995  31.169  1.00  0.00     0.134 A 
ATOM     79  C   UNL A   1      49.105  26.642  28.911  1.00  0.00     0.134 A 
ATOM     80  F   UNL A   1      47.810  25.905  32.224  1.00  0.00    -0.206 F 
ATOM     81  C   UNL A   1      49.944  25.536  31.317  1.00  0.00     0.040 A 
ATOM     82  C   UNL A   1      50.410  26.165  29.038  1.00  0.00     0.040 A 
ATOM     83  F   UNL A   1      48.740  27.169  27.733  1.00  0.00    -0.206 F 
ATOM     84  C   UNL A   1      50.834  25.613  30.246  1.00  0.00     0.006 A 
ENDBRANCH  60  77
ENDBRANCH  34  35
ENDBRANCH  26  29
ENDBRANCH  24  25
ENDBRANCH  23  24
ENDBRANCH  22  23
ENDBRANCH   1  22
TORSDOF 15
ENDMDL
MODEL 2
REMARK VINA RESULT:     -10.0      3.941     11.255
REMARK SMILES COc1ccc(NCc2ccc(C(=O)NCCCCNC(=O)c3ccc(-c4c5nc(c(-c6c(F)cccc6F)c6ccc([nH]6)c(-c6c(F)cccc6F)c6nc(c(-c7c(F)cccc7F)c7ccc4[nH]7)C=C6)C=C5)cc3)o2)cc1
REMARK SMILES IDX 16 1 15 2 13 3 14 4 12 6 9 7 10 8 77 9 11 10 8 11 7 12 6 14
REMARK SMILES IDX 3 15 4 16 79 17 5 18 78 19 2 20 1 21 17 22 18 23 19 24 20 25
REMARK SMILES IDX 21 26 22 28 23 29 24 30 76 31 25 32 75 33 26 34 27 35 28 36
REMARK SMILES IDX 69 37 29 38 74 39 68 40 70 41 30 42 73 43 67 44 66 45 31 47
REMARK SMILES IDX 57 48 40 49 56 50 41 51 44 52 55 53 71 54 42 55 43 56 54 58
REMARK SMILES IDX 72 59 45 60 32 61 33 62 38 63 34 64 35 65 37 66 39 67 36 68
REMARK SMILES IDX 58 69 59 70 64 71 60 72 61 73 63 74 65 75 62 76 46 77 47 78
REMARK SMILES IDX 52 79 48 80 49 81 51 82 53 83 50 84
REMARK H PARENT 15 5 7 13 20 27 70 46 44 57
REMARK Flexibility Score: inf
ROOT
ATOM      1  C   UNL A   1      42.021  19.595  25.756  1.00  0.00     0.116 C 
ENDROOT
BRANCH   1   2
ATOM      2  N   UNL A   1      43.173  18.737  25.594  1.00  0.00    -0.349 N 
ATOM      3  C   UNL A   1      44.486  19.036  25.303  1.00  0.00     0.286 C 
ATOM      4  O   UNL A   1      45.263  18.078  25.333  1.00  0.00    -0.266 OA
ATOM      5  H   UNL A   1      42.989  17.777  25.713  1.00  0.00     0.163 HD
BRANCH   3   6
ATOM      6  C   UNL A   1      44.908  20.393  24.998  1.00  0.00     0.191 A 
ATOM      7  C   UNL A   1      44.516  22.567  24.776  1.00  0.00     0.124 A 
ATOM      8  C   UNL A   1      45.849  22.384  24.488  1.00  0.00     0.048 A 
ATOM      9  O   UNL A   1      43.943  21.369  25.080  1.00  0.00    -0.454 OA
ATOM     10  C   UNL A   1      46.106  21.002  24.660  1.00  0.00     0.056 A 
BRANCH   7  11
ATOM     11  C   UNL A   1      43.655  23.786  24.860  1.00  0.00     0.188 C 
BRANCH  11  12
ATOM     12  N   UNL A   1      43.954  24.684  25.961  1.00  0.00    -0.378 N 
ATOM     13  H   UNL A   1      44.167  25.616  25.727  1.00  0.00     0.161 HD
BRANCH  12  14
ATOM     14  C   UNL A   1      43.967  24.363  27.303  1.00  0.00     0.035 A 
ATOM     15  C   UNL A   1      44.166  23.690  30.051  1.00  0.00     0.119 A 
ATOM     16  C   UNL A   1      42.979  23.486  29.354  1.00  0.00     0.048 A 
ATOM     17  C   UNL A   1      45.273  24.185  29.372  1.00  0.00     0.048 A 
ATOM     18  C   UNL A   1      42.884  23.819  27.998  1.00  0.00     0.029 A 
ATOM     19  C   UNL A   1      45.169  24.514  28.013  1.00  0.00     0.029 A 
BRANCH  15  20
ATOM     20  O   UNL A   1      44.151  23.328  31.369  1.00  0.00    -0.497 OA
ATOM     21  C   UNL A   1      44.529  24.364  32.271  1.00  0.00     0.278 C 
ENDBRANCH  15  20
ENDBRANCH  12  14
ENDBRANCH  11  12
ENDBRANCH   7  11
ENDBRANCH   3   6
ENDBRANCH   1   2
BRANCH   1  22
ATOM     22  C   UNL A   1      41.640  19.745  27.228  1.00  0.00     0.023 C 
BRANCH  22  23
ATOM     23  C   UNL A   1      40.773  20.971  27.532  1.00  0.00     0.023 C 
BRANCH  23  24
ATOM     24  C   UNL A   1      40.800  22.067  26.469  1.00  0.00     0.116 C 
BRANCH  24  25
ATOM     25  N   UNL A   1      39.488  22.381  25.923  1.00  0.00    -0.352 N 
ATOM     26  C   UNL A   1      38.723  23.506  26.127  1.00  0.00     0.251 C 
ATOM     27  H   UNL A   1      39.098  21.699  25.330  1.00  0.00     0.163 HD
ATOM     28  O   UNL A   1      37.594  23.584  25.666  1.00  0.00    -0.269 OA
BRANCH  26  29
ATOM     29  C   UNL A   1      39.269  24.605  26.951  1.00  0.00     0.039 A 
ATOM     30  C   UNL A   1      40.064  25.575  26.337  1.00  0.00     0.014 A 
ATOM     31  C   UNL A   1      38.956  24.699  28.309  1.00  0.00     0.014 A 
ATOM     32  C   UNL A   1      40.483  26.686  27.069  1.00  0.00     0.010 A 
ATOM     33  C   UNL A   1      39.321  25.837  29.021  1.00  0.00     0.010 A 
ATOM     34  C   UNL A   1      40.079  26.845  28.405  1.00  0.00    -0.014 A 
BRANCH  34  35
ATOM     35  C   UNL A   1      40.420  28.068  29.174  1.00  0.00     0.031 A 
ATOM     36  C   UNL A   1      41.745  28.172  29.874  1.00  0.00     0.074 A 
ATOM     37  C   UNL A   1      39.503  29.045  29.311  1.00  0.00     0.049 A 
ATOM     38  N   UNL A   1      42.185  29.108  30.675  1.00  0.00    -0.248 NA
ATOM     39  C   UNL A   1      42.688  27.061  29.670  1.00  0.00     0.031 C 
ATOM     40  C   UNL A   1      38.164  29.038  28.720  1.00  0.00     0.029 A 
ATOM     41  N   UNL A   1      39.554  30.227  30.006  1.00  0.00    -0.354 N 
ATOM     42  C   UNL A   1      43.445  28.692  31.084  1.00  0.00     0.074 A 
ATOM     43  C   UNL A   1      43.681  27.399  30.480  1.00  0.00     0.031 C 
ATOM     44  C   UNL A   1      37.525  30.168  29.065  1.00  0.00     0.029 A 
ATOM     45  C   UNL A   1      38.395  30.961  29.930  1.00  0.00     0.049 A 
ATOM     46  H   UNL A   1      40.345  30.520  30.514  1.00  0.00     0.167 HD
ATOM     47  C   UNL A   1      44.333  29.340  31.875  1.00  0.00     0.037 A 
ATOM     48  C   UNL A   1      38.067  32.136  30.499  1.00  0.00     0.037 A 
ATOM     49  C   UNL A   1      44.108  30.639  32.451  1.00  0.00     0.049 A 
ATOM     50  C   UNL A   1      39.072  32.836  31.371  1.00  0.00     0.074 A 
ATOM     51  C   UNL A   1      44.971  31.407  33.212  1.00  0.00     0.029 A 
ATOM     52  N   UNL A   1      42.932  31.364  32.326  1.00  0.00    -0.354 N 
ATOM     53  N   UNL A   1      40.286  32.461  31.698  1.00  0.00    -0.248 NA
ATOM     54  C   UNL A   1      38.664  34.123  31.951  1.00  0.00     0.031 C 
ATOM     55  C   UNL A   1      44.305  32.581  33.580  1.00  0.00     0.029 A 
ATOM     56  C   UNL A   1      43.041  32.563  33.012  1.00  0.00     0.049 A 
ATOM     57  H   UNL A   1      42.138  31.070  31.825  1.00  0.00     0.167 HD
ATOM     58  C   UNL A   1      40.794  33.476  32.497  1.00  0.00     0.074 A 
ATOM     59  C   UNL A   1      39.763  34.487  32.598  1.00  0.00     0.031 C 
ATOM     60  C   UNL A   1      42.008  33.562  33.093  1.00  0.00     0.037 A 
BRANCH  47  61
ATOM     61  C   UNL A   1      45.634  28.650  32.159  1.00  0.00     0.057 A 
ATOM     62  C   UNL A   1      46.758  28.833  31.343  1.00  0.00     0.134 A 
ATOM     63  C   UNL A   1      45.775  27.817  33.276  1.00  0.00     0.134 A 
ATOM     64  F   UNL A   1      46.686  29.608  30.250  1.00  0.00    -0.206 F 
ATOM     65  C   UNL A   1      47.969  28.192  31.612  1.00  0.00     0.040 A 
ATOM     66  C   UNL A   1      46.987  27.192  33.571  1.00  0.00     0.040 A 
ATOM     67  F   UNL A   1      44.739  27.605  34.102  1.00  0.00    -0.206 F 
ATOM     68  C   UNL A   1      48.087  27.373  32.733  1.00  0.00     0.006 A 
ENDBRANCH  47  61
BRANCH  48  69
ATOM     69  C   UNL A   1      36.735  32.738  30.248  1.00  0.00     0.057 A 
ATOM     70  C   UNL A   1      36.514  33.554  29.132  1.00  0.00     0.134 A 
ATOM     71  C   UNL A   1      35.656  32.518  31.112  1.00  0.00     0.134 A 
ATOM     72  F   UNL A   1      37.516  33.815  28.279  1.00  0.00    -0.206 F 
ATOM     73  C   UNL A   1      35.273  34.146  28.894  1.00  0.00     0.040 A 
ATOM     74  C   UNL A   1      34.403  33.087  30.874  1.00  0.00     0.040 A 
ATOM     75  F   UNL A   1      35.801  31.740  32.193  1.00  0.00    -0.206 F 
ATOM     76  C   UNL A   1      34.212  33.909  29.765  1.00  0.00     0.006 A 
ENDBRANCH  48  69
BRANCH  60  77
ATOM     77  C   UNL A   1      42.300  34.806  33.877  1.00  0.00     0.057 A 
ATOM     78  C   UNL A   1      42.045  34.889  35.252  1.00  0.00     0.134 A 
ATOM     79  C   UNL A   1      42.886  35.917  33.258  1.00  0.00     0.134 A 
ATOM     80  F   UNL A   1      41.471  33.864  35.900  1.00  0.00    -0.206 F 
ATOM     81  C   UNL A   1      42.347  36.041  35.980  1.00  0.00     0.040 A 
ATOM     82  C   UNL A   1      43.214  37.065  33.979  1.00  0.00     0.040 A 
ATOM     83  F   UNL A   1      43.163  35.898  31.946  1.00  0.00    -0.206 F 
ATOM     84  C   UNL A   1      42.941  37.131  35.344  1.00  0.00     0.006 A 
ENDBRANCH  60  77
ENDBRANCH  34  35
ENDBRANCH  26  29
ENDBRANCH  24  25
ENDBRANCH  23  24
ENDBRANCH  22  23
ENDBRANCH   1  22
TORSDOF 15
ENDMDL
MODEL 3
REMARK VINA RESULT:     -10.0      0.409      6.384
REMARK SMILES COc1ccc(NCc2ccc(C(=O)NCCCCNC(=O)c3ccc(-c4c5nc(c(-c6c(F)cccc6F)c6ccc([nH]6)c(-c6c(F)cccc6F)c6nc(c(-c7c(F)cccc7F)c7ccc4[nH]7)C=C6)C=C5)cc3)o2)cc1
REMARK SMILES IDX 16 1 15 2 13 3 14 4 12 6 9 7 10 8 77 9 11 10 8 11 7 12 6 14
REMARK SMILES IDX 3 15 4 16 79 17 5 18 78 19 2 20 1 21 17 22 18 23 19 24 20 25
REMARK SMILES IDX 21 26 22 28 23 29 24 30 76 31 25 32 75 33 26 34 27 35 28 36
REMARK SMILES IDX 69 37 29 38 74 39 68 40 70 41 30 42 73 43 67 44 66 45 31 47
REMARK SMILES IDX 57 48 40 49 56 50 41 51 44 52 55 53 71 54 42 55 43 56 54 58
REMARK SMILES IDX 72 59 45 60 32 61 33 62 38 63 34 64 35 65 37 66 39 67 36 68
REMARK SMILES IDX 58 69 59 70 64 71 60 72 61 73 63 74 65 75 62 76 46 77 47 78
REMARK SMILES IDX 52 79 48 80 49 81 51 82 53 83 50 84
REMARK H PARENT 15 5 7 13 20 27 70 46 44 57
REMARK Flexibility Score: inf
ROOT
ATOM      1  C   UNL A   1      33.609  35.647  29.237  1.00  0.00     0.116 C 
ENDROOT
BRANCH   1   2
ATOM      2  N   UNL A   1      32.579  36.033  30.176  1.00  0.00    -0.349 N 
ATOM      3  C   UNL A   1      32.544  35.969  31.552  1.00  0.00     0.286 C 
ATOM      4  O   UNL A   1      31.551  36.476  32.078  1.00  0.00    -0.266 OA
ATOM      5  H   UNL A   1      31.766  36.404  29.763  1.00  0.00     0.163 HD
BRANCH   3   6
ATOM      6  C   UNL A   1      33.620  35.353  32.313  1.00  0.00     0.191 A 
ATOM      7  C   UNL A   1      34.961  33.649  32.789  1.00  0.00     0.124 A 
ATOM      8  C   UNL A   1      35.320  34.672  33.637  1.00  0.00     0.048 A 
ATOM      9  O   UNL A   1      33.933  34.054  31.992  1.00  0.00    -0.454 OA
ATOM     10  C   UNL A   1      34.485  35.768  33.312  1.00  0.00     0.056 A 
BRANCH   7  11
ATOM     11  C   UNL A   1      35.507  32.276  32.570  1.00  0.00     0.188 C 
BRANCH  11  12
ATOM     12  N   UNL A   1      36.944  32.200  32.378  1.00  0.00    -0.378 N 
ATOM     13  H   UNL A   1      37.427  31.523  32.905  1.00  0.00     0.161 HD
BRANCH  12  14
ATOM     14  C   UNL A   1      37.702  32.982  31.529  1.00  0.00     0.035 A 
ATOM     15  C   UNL A   1      39.217  34.480  29.659  1.00  0.00     0.119 A 
ATOM     16  C   UNL A   1      39.488  34.564  31.021  1.00  0.00     0.048 A 
ATOM     17  C   UNL A   1      38.223  33.615  29.218  1.00  0.00     0.048 A 
ATOM     18  C   UNL A   1      38.738  33.823  31.942  1.00  0.00     0.029 A 
ATOM     19  C   UNL A   1      37.479  32.876  30.147  1.00  0.00     0.029 A 
BRANCH  15  20
ATOM     20  O   UNL A   1      40.011  35.243  28.847  1.00  0.00    -0.497 OA
ATOM     21  C   UNL A   1      41.398  35.202  29.168  1.00  0.00     0.278 C 
ENDBRANCH  15  20
ENDBRANCH  12  14
ENDBRANCH  11  12
ENDBRANCH   7  11
ENDBRANCH   3   6
ENDBRANCH   1   2
BRANCH   1  22
ATOM     22  C   UNL A   1      33.197  34.412  28.436  1.00  0.00     0.023 C 
BRANCH  22  23
ATOM     23  C   UNL A   1      34.367  33.513  28.021  1.00  0.00     0.023 C 
BRANCH  23  24
ATOM     24  C   UNL A   1      34.619  32.313  28.931  1.00  0.00     0.116 C 
BRANCH  24  25
ATOM     25  N   UNL A   1      34.065  31.069  28.419  1.00  0.00    -0.352 N 
ATOM     26  C   UNL A   1      34.723  29.898  28.121  1.00  0.00     0.251 C 
ATOM     27  H   UNL A   1      33.093  31.064  28.268  1.00  0.00     0.163 HD
ATOM     28  O   UNL A   1      34.126  28.960  27.610  1.00  0.00    -0.269 OA
BRANCH  26  29
ATOM     29  C   UNL A   1      36.174  29.802  28.384  1.00  0.00     0.039 A 
ATOM     30  C   UNL A   1      36.602  29.357  29.637  1.00  0.00     0.014 A 
ATOM     31  C   UNL A   1      37.100  30.105  27.384  1.00  0.00     0.014 A 
ATOM     32  C   UNL A   1      37.962  29.140  29.863  1.00  0.00     0.010 A 
ATOM     33  C   UNL A   1      38.448  29.829  27.589  1.00  0.00     0.010 A 
ATOM     34  C   UNL A   1      38.890  29.335  28.826  1.00  0.00    -0.014 A 
BRANCH  34  35
ATOM     35  C   UNL A   1      40.326  29.009  29.007  1.00  0.00     0.031 A 
ATOM     36  C   UNL A   1      40.857  27.675  28.566  1.00  0.00     0.074 A 
ATOM     37  C   UNL A   1      41.130  29.881  29.646  1.00  0.00     0.049 A 
ATOM     38  N   UNL A   1      42.051  27.166  28.730  1.00  0.00    -0.248 NA
ATOM     39  C   UNL A   1      39.912  26.784  27.875  1.00  0.00     0.031 C 
ATOM     40  C   UNL A   1      40.721  31.187  30.165  1.00  0.00     0.029 A 
ATOM     41  N   UNL A   1      42.457  29.790  29.982  1.00  0.00    -0.354 N 
ATOM     42  C   UNL A   1      41.996  25.892  28.180  1.00  0.00     0.074 A 
ATOM     43  C   UNL A   1      40.639  25.688  27.720  1.00  0.00     0.031 C 
ATOM     44  C   UNL A   1      41.778  31.782  30.741  1.00  0.00     0.029 A 
ATOM     45  C   UNL A   1      42.929  30.886  30.664  1.00  0.00     0.049 A 
ATOM     46  H   UNL A   1      43.018  29.013  29.758  1.00  0.00     0.167 HD
ATOM     47  C   UNL A   1      42.991  24.983  28.053  1.00  0.00     0.037 A 
ATOM     48  C   UNL A   1      44.148  31.137  31.176  1.00  0.00     0.037 A 
ATOM     49  C   UNL A   1      44.346  25.199  28.485  1.00  0.00     0.049 A 
ATOM     50  C   UNL A   1      45.237  30.112  31.019  1.00  0.00     0.074 A 
ATOM     51  C   UNL A   1      45.442  24.366  28.342  1.00  0.00     0.029 A 
ATOM     52  N   UNL A   1      44.792  26.335  29.145  1.00  0.00    -0.354 N 
ATOM     53  N   UNL A   1      45.187  28.937  30.439  1.00  0.00    -0.248 NA
ATOM     54  C   UNL A   1      46.551  30.449  31.583  1.00  0.00     0.031 C 
ATOM     55  C   UNL A   1      46.542  24.981  28.948  1.00  0.00     0.029 A 
ATOM     56  C   UNL A   1      46.142  26.215  29.432  1.00  0.00     0.049 A 
ATOM     57  H   UNL A   1      44.232  27.110  29.376  1.00  0.00     0.167 HD
ATOM     58  C   UNL A   1      46.466  28.407  30.546  1.00  0.00     0.074 A 
ATOM     59  C   UNL A   1      47.272  29.393  31.235  1.00  0.00     0.031 C 
ATOM     60  C   UNL A   1      46.931  27.211  30.110  1.00  0.00     0.037 A 
BRANCH  47  61
ATOM     61  C   UNL A   1      42.648  23.670  27.414  1.00  0.00     0.057 A 
ATOM     62  C   UNL A   1      42.747  23.476  26.030  1.00  0.00     0.134 A 
ATOM     63  C   UNL A   1      42.243  22.578  28.192  1.00  0.00     0.134 A 
ATOM     64  F   UNL A   1      43.116  24.485  25.226  1.00  0.00    -0.206 F 
ATOM     65  C   UNL A   1      42.429  22.251  25.439  1.00  0.00     0.040 A 
ATOM     66  C   UNL A   1      41.949  21.342  27.617  1.00  0.00     0.040 A 
ATOM     67  F   UNL A   1      42.134  22.695  29.525  1.00  0.00    -0.206 F 
ATOM     68  C   UNL A   1      42.035  21.178  26.235  1.00  0.00     0.006 A 
ENDBRANCH  47  61
BRANCH  48  69
ATOM     69  C   UNL A   1      44.414  32.423  31.868  1.00  0.00     0.057 A 
ATOM     70  C   UNL A   1      44.167  32.565  33.238  1.00  0.00     0.134 A 
ATOM     71  C   UNL A   1      44.915  33.535  31.182  1.00  0.00     0.134 A 
ATOM     72  F   UNL A   1      43.669  31.539  33.944  1.00  0.00    -0.206 F 
ATOM     73  C   UNL A   1      44.389  33.774  33.898  1.00  0.00     0.040 A 
ATOM     74  C   UNL A   1      45.163  34.744  31.834  1.00  0.00     0.040 A 
ATOM     75  F   UNL A   1      45.179  33.459  29.870  1.00  0.00    -0.206 F 
ATOM     76  C   UNL A   1      44.893  34.867  33.196  1.00  0.00     0.006 A 
ENDBRANCH  48  69
BRANCH  60  77
ATOM     77  C   UNL A   1      48.384  26.917  30.334  1.00  0.00     0.057 A 
ATOM     78  C   UNL A   1      49.368  27.330  29.428  1.00  0.00     0.134 A 
ATOM     79  C   UNL A   1      48.806  26.254  31.493  1.00  0.00     0.134 A 
ATOM     80  F   UNL A   1      49.027  27.958  28.292  1.00  0.00    -0.206 F 
ATOM     81  C   UNL A   1      50.722  27.078  29.659  1.00  0.00     0.040 A 
ATOM     82  C   UNL A   1      50.157  26.017  31.746  1.00  0.00     0.040 A 
ATOM     83  F   UNL A   1      47.913  25.839  32.404  1.00  0.00    -0.206 F 
ATOM     84  C   UNL A   1      51.119  26.426  30.825  1.00  0.00     0.006 A 
ENDBRANCH  60  77
ENDBRANCH  34  35
ENDBRANCH  26  29
ENDBRANCH  24  25
ENDBRANCH  23  24
ENDBRANCH  22  23
ENDBRANCH   1  22
TORSDOF 15
ENDMDL
