MODEL 1
REMARK VINA RESULT:     -12.5      0.000      0.000
REMARK SMILES O=C(NCCCCNC(=O)c1ccc(-n2cc(CSc3nc4ccccc4c(=O)n3-c3ccc(Br)cc3)nn2)cc1)c1ccc(-c2c3nc(c(-c4c(F)cccc4F)c4ccc([nH]4)c(-c4c(F)cccc4F)c4nc(c(-c5c(F)cccc5F)c5ccc2[nH]5)C=C4)C=C3)cc1
REMARK SMILES IDX 7 1 6 2 5 3 4 4 3 5 1 6 2 7 42 9 43 10 95 11 44 12 94 13
REMARK SMILES IDX 45 14 46 15 47 16 88 17 48 18 93 19 87 20 89 21 49 22 92 23
REMARK SMILES IDX 86 24 85 25 50 27 76 28 59 29 75 30 60 31 63 32 74 33 90 34
REMARK SMILES IDX 61 35 62 36 73 38 91 39 64 40 51 41 52 42 57 43 53 44 54 45
REMARK SMILES IDX 56 46 58 47 55 48 77 49 78 50 83 51 79 52 80 53 82 54 84 55
REMARK SMILES IDX 81 56 65 57 66 58 71 59 67 60 68 61 70 62 72 63 69 64 8 65
REMARK SMILES IDX 9 66 10 68 11 69 12 70 41 71 13 72 40 73 14 74 15 75 16 76
REMARK SMILES IDX 39 77 17 78 38 79 18 80 19 81 20 82 21 83 30 84 22 85 28 86
REMARK SMILES IDX 23 87 27 88 29 89 24 90 26 91 25 92 31 93 32 94 37 95 33 96
REMARK SMILES IDX 36 97 34 98 35 99
REMARK H PARENT 3 8 89 26 63 37 8 67
REMARK Flexibility Score: inf
ROOT
ATOM      1  C   UNL A   1      34.430  31.188  27.438  1.00  0.00     0.116 C 
ENDROOT
BRANCH   1   2
ATOM      2  C   UNL A   1      35.180  31.468  28.740  1.00  0.00     0.023 C 
BRANCH   2   3
ATOM      3  C   UNL A   1      36.189  32.623  28.709  1.00  0.00     0.023 C 
BRANCH   3   4
ATOM      4  C   UNL A   1      36.069  33.647  29.837  1.00  0.00     0.116 C 
BRANCH   4   5
ATOM      5  N   UNL A   1      35.708  33.090  31.126  1.00  0.00    -0.352 N 
ATOM      6  O   UNL A   1      35.735  32.145  33.114  1.00  0.00    -0.269 OA
ATOM      7  C   UNL A   1      36.288  32.226  32.013  1.00  0.00     0.251 C 
ATOM      8  H   UNL A   1      34.831  33.411  31.438  1.00  0.00     0.163 HD
BRANCH   7   9
ATOM      9  C   UNL A   1      37.475  31.360  31.752  1.00  0.00     0.039 A 
ATOM     10  C   UNL A   1      38.799  31.784  31.667  1.00  0.00     0.014 A 
ATOM     11  C   UNL A   1      37.204  29.987  31.563  1.00  0.00     0.014 A 
ATOM     12  C   UNL A   1      39.814  30.871  31.357  1.00  0.00     0.010 A 
ATOM     13  C   UNL A   1      38.211  29.073  31.255  1.00  0.00     0.010 A 
ATOM     14  C   UNL A   1      39.522  29.520  31.136  1.00  0.00    -0.014 A 
BRANCH  14  15
ATOM     15  C   UNL A   1      40.641  28.588  30.964  1.00  0.00     0.031 A 
ATOM     16  C   UNL A   1      41.441  28.347  32.200  1.00  0.00     0.074 A 
ATOM     17  C   UNL A   1      40.907  27.856  29.862  1.00  0.00     0.049 A 
ATOM     18  N   UNL A   1      42.683  28.636  32.413  1.00  0.00    -0.248 NA
ATOM     19  C   UNL A   1      40.749  27.783  33.367  1.00  0.00     0.031 C 
ATOM     20  C   UNL A   1      40.080  27.685  28.668  1.00  0.00     0.029 A 
ATOM     21  N   UNL A   1      41.971  27.029  29.623  1.00  0.00    -0.354 N 
ATOM     22  C   UNL A   1      42.987  28.136  33.679  1.00  0.00     0.074 A 
ATOM     23  C   UNL A   1      41.733  27.740  34.266  1.00  0.00     0.031 C 
ATOM     24  C   UNL A   1      40.574  26.666  27.925  1.00  0.00     0.029 A 
ATOM     25  C   UNL A   1      41.822  26.204  28.516  1.00  0.00     0.049 A 
ATOM     26  H   UNL A   1      42.777  27.021  30.189  1.00  0.00     0.167 HD
ATOM     27  C   UNL A   1      44.272  27.904  34.064  1.00  0.00     0.037 A 
ATOM     28  C   UNL A   1      42.640  25.189  28.133  1.00  0.00     0.037 A 
ATOM     29  C   UNL A   1      45.207  28.620  33.232  1.00  0.00     0.049 A 
ATOM     30  C   UNL A   1      43.953  25.383  28.787  1.00  0.00     0.074 A 
ATOM     31  C   UNL A   1      45.412  29.946  32.903  1.00  0.00     0.029 A 
ATOM     32  N   UNL A   1      45.943  27.901  32.324  1.00  0.00    -0.354 N 
ATOM     33  N   UNL A   1      44.812  26.305  28.459  1.00  0.00    -0.248 NA
ATOM     34  C   UNL A   1      44.175  24.752  30.078  1.00  0.00     0.031 C 
ATOM     35  C   UNL A   1      45.835  29.928  31.541  1.00  0.00     0.029 A 
ATOM     36  C   UNL A   1      45.907  28.593  31.145  1.00  0.00     0.049 A 
ATOM     37  H   UNL A   1      46.409  27.050  32.490  1.00  0.00     0.167 HD
ATOM     38  C   UNL A   1      45.387  26.683  29.661  1.00  0.00     0.074 A 
ATOM     39  C   UNL A   1      45.052  25.614  30.596  1.00  0.00     0.031 C 
ATOM     40  C   UNL A   1      45.836  27.957  29.852  1.00  0.00     0.037 A 
BRANCH  27  41
ATOM     41  C   UNL A   1      44.712  26.749  34.939  1.00  0.00     0.057 A 
ATOM     42  C   UNL A   1      44.292  25.444  34.611  1.00  0.00     0.134 A 
ATOM     43  C   UNL A   1      45.241  26.892  36.237  1.00  0.00     0.134 A 
ATOM     44  F   UNL A   1      43.774  25.168  33.404  1.00  0.00    -0.206 F 
ATOM     45  C   UNL A   1      44.292  24.395  35.540  1.00  0.00     0.040 A 
ATOM     46  C   UNL A   1      45.295  25.838  37.154  1.00  0.00     0.040 A 
ATOM     47  F   UNL A   1      45.643  28.071  36.725  1.00  0.00    -0.206 F 
ATOM     48  C   UNL A   1      44.781  24.595  36.823  1.00  0.00     0.006 A 
ENDBRANCH  27  41
BRANCH  28  49
ATOM     49  C   UNL A   1      42.332  23.933  27.410  1.00  0.00     0.057 A 
ATOM     50  C   UNL A   1      42.560  23.814  26.029  1.00  0.00     0.134 A 
ATOM     51  C   UNL A   1      42.094  22.735  28.100  1.00  0.00     0.134 A 
ATOM     52  F   UNL A   1      42.831  24.896  25.284  1.00  0.00    -0.206 F 
ATOM     53  C   UNL A   1      42.585  22.572  25.381  1.00  0.00     0.040 A 
ATOM     54  C   UNL A   1      42.109  21.489  27.463  1.00  0.00     0.040 A 
ATOM     55  F   UNL A   1      41.932  22.724  29.431  1.00  0.00    -0.206 F 
ATOM     56  C   UNL A   1      42.373  21.403  26.101  1.00  0.00     0.006 A 
ENDBRANCH  28  49
BRANCH  40  57
ATOM     57  C   UNL A   1      46.014  28.835  28.647  1.00  0.00     0.057 A 
ATOM     58  C   UNL A   1      44.980  29.547  28.020  1.00  0.00     0.134 A 
ATOM     59  C   UNL A   1      47.315  29.063  28.179  1.00  0.00     0.134 A 
ATOM     60  F   UNL A   1      43.717  29.478  28.463  1.00  0.00    -0.206 F 
ATOM     61  C   UNL A   1      45.228  30.400  26.941  1.00  0.00     0.040 A 
ATOM     62  C   UNL A   1      47.578  29.943  27.128  1.00  0.00     0.040 A 
ATOM     63  F   UNL A   1      48.361  28.457  28.765  1.00  0.00    -0.206 F 
ATOM     64  C   UNL A   1      46.531  30.605  26.496  1.00  0.00     0.006 A 
ENDBRANCH  40  57
ENDBRANCH  14  15
ENDBRANCH   7   9
ENDBRANCH   4   5
ENDBRANCH   3   4
ENDBRANCH   2   3
ENDBRANCH   1   2
BRANCH   1  65
ATOM     65  N   UNL A   1      33.140  31.852  27.370  1.00  0.00    -0.352 N 
ATOM     66  C   UNL A   1      31.938  31.404  26.872  1.00  0.00     0.251 C 
ATOM     67  H   UNL A   1      33.124  32.765  27.737  1.00  0.00     0.163 HD
ATOM     68  O   UNL A   1      30.978  32.153  26.822  1.00  0.00    -0.269 OA
BRANCH  66  69
ATOM     69  C   UNL A   1      31.807  30.016  26.376  1.00  0.00     0.039 A 
ATOM     70  C   UNL A   1      31.630  29.813  25.004  1.00  0.00     0.016 A 
ATOM     71  C   UNL A   1      31.790  28.929  27.254  1.00  0.00     0.016 A 
ATOM     72  C   UNL A   1      31.498  28.518  24.496  1.00  0.00     0.029 A 
ATOM     73  C   UNL A   1      31.638  27.633  26.753  1.00  0.00     0.029 A 
ATOM     74  C   UNL A   1      31.489  27.423  25.371  1.00  0.00     0.066 A 
BRANCH  74  75
ATOM     75  N   UNL A   1      31.272  26.122  24.855  1.00  0.00    -0.220 N 
ATOM     76  C   UNL A   1      32.039  25.002  25.054  1.00  0.00     0.141 A 
ATOM     77  N   UNL A   1      30.220  25.799  24.065  1.00  0.00    -0.062 NA
ATOM     78  C   UNL A   1      31.360  23.974  24.437  1.00  0.00     0.093 A 
ATOM     79  N   UNL A   1      30.278  24.500  23.791  1.00  0.00    -0.134 NA
BRANCH  78  80
ATOM     80  C   UNL A   1      31.777  22.564  24.271  1.00  0.00     0.138 C 
BRANCH  80  81
ATOM     81  S   UNL A   1      33.183  22.094  23.260  1.00  0.00    -0.081 SA
BRANCH  81  82
ATOM     82  C   UNL A   1      34.619  21.824  24.215  1.00  0.00     0.176 A 
ATOM     83  N   UNL A   1      35.120  22.941  24.655  1.00  0.00    -0.223 NA
ATOM     84  N   UNL A   1      35.182  20.591  24.527  1.00  0.00    -0.255 N 
ATOM     85  C   UNL A   1      36.318  22.906  25.371  1.00  0.00     0.079 A 
ATOM     86  C   UNL A   1      36.582  20.613  24.639  1.00  0.00     0.266 A 
ATOM     87  C   UNL A   1      36.736  24.004  26.125  1.00  0.00     0.029 A 
ATOM     88  C   UNL A   1      37.161  21.812  25.263  1.00  0.00     0.066 A 
ATOM     89  O   UNL A   1      37.354  19.735  24.255  1.00  0.00    -0.268 OA
ATOM     90  C   UNL A   1      38.010  24.020  26.704  1.00  0.00     0.002 A 
ATOM     91  C   UNL A   1      38.456  21.831  25.791  1.00  0.00     0.016 A 
ATOM     92  C   UNL A   1      38.883  22.948  26.508  1.00  0.00     0.001 A 
BRANCH  84  93
ATOM     93  C   UNL A   1      34.495  19.323  24.711  1.00  0.00     0.051 A 
ATOM     94  C   UNL A   1      33.238  19.280  25.354  1.00  0.00     0.028 A 
ATOM     95  C   UNL A   1      34.969  18.087  24.251  1.00  0.00     0.028 A 
ATOM     96  C   UNL A   1      32.618  18.080  25.722  1.00  0.00     0.018 A 
ATOM     97  C   UNL A   1      34.391  16.874  24.661  1.00  0.00     0.018 A 
ATOM     98  C   UNL A   1      33.238  16.878  25.432  1.00  0.00     0.018 A 
ATOM     99  Br  UNL A   1      32.529  15.263  26.096  1.00  0.00    -0.051 Br
ENDBRANCH  84  93
ENDBRANCH  81  82
ENDBRANCH  80  81
ENDBRANCH  78  80
ENDBRANCH  74  75
ENDBRANCH  66  69
ENDBRANCH   1  65
TORSDOF 16
ENDMDL
MODEL 2
REMARK VINA RESULT:     -12.2      1.820      3.162
REMARK SMILES O=C(NCCCCNC(=O)c1ccc(-n2cc(CSc3nc4ccccc4c(=O)n3-c3ccc(Br)cc3)nn2)cc1)c1ccc(-c2c3nc(c(-c4c(F)cccc4F)c4ccc([nH]4)c(-c4c(F)cccc4F)c4nc(c(-c5c(F)cccc5F)c5ccc2[nH]5)C=C4)C=C3)cc1
REMARK SMILES IDX 7 1 6 2 5 3 4 4 3 5 1 6 2 7 42 9 43 10 95 11 44 12 94 13
REMARK SMILES IDX 45 14 46 15 47 16 88 17 48 18 93 19 87 20 89 21 49 22 92 23
REMARK SMILES IDX 86 24 85 25 50 27 76 28 59 29 75 30 60 31 63 32 74 33 90 34
REMARK SMILES IDX 61 35 62 36 73 38 91 39 64 40 51 41 52 42 57 43 53 44 54 45
REMARK SMILES IDX 56 46 58 47 55 48 77 49 78 50 83 51 79 52 80 53 82 54 84 55
REMARK SMILES IDX 81 56 65 57 66 58 71 59 67 60 68 61 70 62 72 63 69 64 8 65
REMARK SMILES IDX 9 66 10 68 11 69 12 70 41 71 13 72 40 73 14 74 15 75 16 76
REMARK SMILES IDX 39 77 17 78 38 79 18 80 19 81 20 82 21 83 30 84 22 85 28 86
REMARK SMILES IDX 23 87 27 88 29 89 24 90 26 91 25 92 31 93 32 94 37 95 33 96
REMARK SMILES IDX 36 97 34 98 35 99
REMARK H PARENT 3 8 89 26 63 37 8 67
REMARK Flexibility Score: inf
ROOT
ATOM      1  C   UNL A   1      34.957  31.210  27.579  1.00  0.00     0.116 C 
ENDROOT
BRANCH   1   2
ATOM      2  C   UNL A   1      35.517  31.077  28.995  1.00  0.00     0.023 C 
BRANCH   2   3
ATOM      3  C   UNL A   1      35.980  32.375  29.668  1.00  0.00     0.023 C 
BRANCH   3   4
ATOM      4  C   UNL A   1      34.943  33.085  30.536  1.00  0.00     0.116 C 
BRANCH   4   5
ATOM      5  N   UNL A   1      35.038  32.799  31.954  1.00  0.00    -0.352 N 
ATOM      6  O   UNL A   1      35.756  32.350  33.985  1.00  0.00    -0.269 OA
ATOM      7  C   UNL A   1      35.982  32.247  32.776  1.00  0.00     0.251 C 
ATOM      8  H   UNL A   1      34.226  33.065  32.443  1.00  0.00     0.163 HD
BRANCH   7   9
ATOM      9  C   UNL A   1      37.204  31.509  32.344  1.00  0.00     0.039 A 
ATOM     10  C   UNL A   1      38.440  32.073  32.039  1.00  0.00     0.014 A 
ATOM     11  C   UNL A   1      37.066  30.108  32.227  1.00  0.00     0.014 A 
ATOM     12  C   UNL A   1      39.492  31.267  31.587  1.00  0.00     0.010 A 
ATOM     13  C   UNL A   1      38.111  29.300  31.779  1.00  0.00     0.010 A 
ATOM     14  C   UNL A   1      39.326  29.884  31.442  1.00  0.00    -0.014 A 
BRANCH  14  15
ATOM     15  C   UNL A   1      40.504  29.076  31.110  1.00  0.00     0.031 A 
ATOM     16  C   UNL A   1      41.394  28.773  32.269  1.00  0.00     0.074 A 
ATOM     17  C   UNL A   1      40.761  28.494  29.920  1.00  0.00     0.049 A 
ATOM     18  N   UNL A   1      42.619  29.143  32.450  1.00  0.00    -0.248 NA
ATOM     19  C   UNL A   1      40.819  28.028  33.398  1.00  0.00     0.031 C 
ATOM     20  C   UNL A   1      39.881  28.382  28.758  1.00  0.00     0.029 A 
ATOM     21  N   UNL A   1      41.873  27.792  29.537  1.00  0.00    -0.354 N 
ATOM     22  C   UNL A   1      43.036  28.538  33.635  1.00  0.00     0.074 A 
ATOM     23  C   UNL A   1      41.855  27.974  34.236  1.00  0.00     0.031 C 
ATOM     24  C   UNL A   1      40.410  27.496  27.881  1.00  0.00     0.029 A 
ATOM     25  C   UNL A   1      41.724  27.081  28.352  1.00  0.00     0.049 A 
ATOM     26  H   UNL A   1      42.709  27.792  30.056  1.00  0.00     0.167 HD
ATOM     27  C   UNL A   1      44.357  28.376  33.926  1.00  0.00     0.037 A 
ATOM     28  C   UNL A   1      42.596  26.188  27.817  1.00  0.00     0.037 A 
ATOM     29  C   UNL A   1      45.180  29.256  33.134  1.00  0.00     0.049 A 
ATOM     30  C   UNL A   1      43.926  26.423  28.421  1.00  0.00     0.074 A 
ATOM     31  C   UNL A   1      45.258  30.623  32.946  1.00  0.00     0.029 A 
ATOM     32  N   UNL A   1      45.916  28.706  32.115  1.00  0.00    -0.354 N 
ATOM     33  N   UNL A   1      44.688  27.445  28.157  1.00  0.00    -0.248 NA
ATOM     34  C   UNL A   1      44.275  25.677  29.620  1.00  0.00     0.031 C 
ATOM     35  C   UNL A   1      45.599  30.788  31.572  1.00  0.00     0.029 A 
ATOM     36  C   UNL A   1      45.755  29.515  31.024  1.00  0.00     0.049 A 
ATOM     37  H   UNL A   1      46.457  27.884  32.160  1.00  0.00     0.167 HD
ATOM     38  C   UNL A   1      45.301  27.739  29.362  1.00  0.00     0.074 A 
ATOM     39  C   UNL A   1      45.109  26.551  30.187  1.00  0.00     0.031 C 
ATOM     40  C   UNL A   1      45.657  29.019  29.673  1.00  0.00     0.037 A 
BRANCH  27  41
ATOM     41  C   UNL A   1      44.939  27.176  34.642  1.00  0.00     0.057 A 
ATOM     42  C   UNL A   1      45.867  27.384  35.683  1.00  0.00     0.134 A 
ATOM     43  C   UNL A   1      44.883  25.855  34.154  1.00  0.00     0.134 A 
ATOM     44  F   UNL A   1      46.017  28.595  36.242  1.00  0.00    -0.206 F 
ATOM     45  C   UNL A   1      46.747  26.386  36.120  1.00  0.00     0.040 A 
ATOM     46  C   UNL A   1      45.721  24.838  34.622  1.00  0.00     0.040 A 
ATOM     47  F   UNL A   1      44.091  25.496  33.138  1.00  0.00    -0.206 F 
ATOM     48  C   UNL A   1      46.685  25.110  35.579  1.00  0.00     0.006 A 
ENDBRANCH  27  41
BRANCH  28  49
ATOM     49  C   UNL A   1      42.347  24.996  26.973  1.00  0.00     0.057 A 
ATOM     50  C   UNL A   1      42.931  24.869  25.702  1.00  0.00     0.134 A 
ATOM     51  C   UNL A   1      41.780  23.829  27.509  1.00  0.00     0.134 A 
ATOM     52  F   UNL A   1      43.530  25.916  25.117  1.00  0.00    -0.206 F 
ATOM     53  C   UNL A   1      42.981  23.645  25.022  1.00  0.00     0.040 A 
ATOM     54  C   UNL A   1      41.816  22.603  26.837  1.00  0.00     0.040 A 
ATOM     55  F   UNL A   1      41.256  23.820  28.743  1.00  0.00    -0.206 F 
ATOM     56  C   UNL A   1      42.434  22.503  25.596  1.00  0.00     0.006 A 
ENDBRANCH  28  49
BRANCH  40  57
ATOM     57  C   UNL A   1      45.693  30.034  28.568  1.00  0.00     0.057 A 
ATOM     58  C   UNL A   1      46.815  30.302  27.769  1.00  0.00     0.134 A 
ATOM     59  C   UNL A   1      44.500  30.682  28.222  1.00  0.00     0.134 A 
ATOM     60  F   UNL A   1      47.974  29.654  27.953  1.00  0.00    -0.206 F 
ATOM     61  C   UNL A   1      46.760  31.215  26.711  1.00  0.00     0.040 A 
ATOM     62  C   UNL A   1      44.424  31.564  27.144  1.00  0.00     0.040 A 
ATOM     63  F   UNL A   1      43.372  30.434  28.909  1.00  0.00    -0.206 F 
ATOM     64  C   UNL A   1      45.561  31.845  26.392  1.00  0.00     0.006 A 
ENDBRANCH  40  57
ENDBRANCH  14  15
ENDBRANCH   7   9
ENDBRANCH   4   5
ENDBRANCH   3   4
ENDBRANCH   2   3
ENDBRANCH   1   2
BRANCH   1  65
ATOM     65  N   UNL A   1      33.765  32.038  27.514  1.00  0.00    -0.352 N 
ATOM     66  C   UNL A   1      32.497  31.733  27.075  1.00  0.00     0.251 C 
ATOM     67  H   UNL A   1      33.884  32.962  27.834  1.00  0.00     0.163 HD
ATOM     68  O   UNL A   1      31.645  32.601  27.013  1.00  0.00    -0.269 OA
BRANCH  66  69
ATOM     69  C   UNL A   1      32.165  30.354  26.655  1.00  0.00     0.039 A 
ATOM     70  C   UNL A   1      31.925  30.109  25.299  1.00  0.00     0.016 A 
ATOM     71  C   UNL A   1      32.024  29.324  27.589  1.00  0.00     0.016 A 
ATOM     72  C   UNL A   1      31.604  28.821  24.863  1.00  0.00     0.029 A 
ATOM     73  C   UNL A   1      31.682  28.038  27.161  1.00  0.00     0.029 A 
ATOM     74  C   UNL A   1      31.469  27.783  25.795  1.00  0.00     0.066 A 
BRANCH  74  75
ATOM     75  N   UNL A   1      31.063  26.500  25.352  1.00  0.00    -0.220 N 
ATOM     76  C   UNL A   1      31.087  25.323  26.056  1.00  0.00     0.141 A 
ATOM     77  N   UNL A   1      30.564  26.262  24.115  1.00  0.00    -0.062 NA
ATOM     78  C   UNL A   1      30.496  24.388  25.236  1.00  0.00     0.093 A 
ATOM     79  N   UNL A   1      30.236  24.977  24.031  1.00  0.00    -0.134 NA
BRANCH  78  80
ATOM     80  C   UNL A   1      30.336  22.934  25.461  1.00  0.00     0.138 C 
BRANCH  80  81
ATOM     81  S   UNL A   1      31.458  21.998  26.503  1.00  0.00    -0.081 SA
BRANCH  81  82
ATOM     82  C   UNL A   1      32.514  20.967  25.572  1.00  0.00     0.176 A 
ATOM     83  N   UNL A   1      32.166  19.716  25.663  1.00  0.00    -0.223 NA
ATOM     84  N   UNL A   1      33.586  21.377  24.787  1.00  0.00    -0.255 N 
ATOM     85  C   UNL A   1      32.958  18.749  25.041  1.00  0.00     0.079 A 
ATOM     86  C   UNL A   1      34.648  20.458  24.742  1.00  0.00     0.266 A 
ATOM     87  C   UNL A   1      32.481  17.454  24.837  1.00  0.00     0.029 A 
ATOM     88  C   UNL A   1      34.271  19.037  24.704  1.00  0.00     0.066 A 
ATOM     89  O   UNL A   1      35.846  20.735  24.744  1.00  0.00    -0.268 OA
ATOM     90  C   UNL A   1      33.336  16.452  24.362  1.00  0.00     0.002 A 
ATOM     91  C   UNL A   1      35.153  18.039  24.277  1.00  0.00     0.016 A 
ATOM     92  C   UNL A   1      34.681  16.737  24.116  1.00  0.00     0.001 A 
BRANCH  84  93
ATOM     93  C   UNL A   1      33.726  22.629  24.060  1.00  0.00     0.051 A 
ATOM     94  C   UNL A   1      34.312  23.753  24.683  1.00  0.00     0.028 A 
ATOM     95  C   UNL A   1      33.351  22.818  22.724  1.00  0.00     0.028 A 
ATOM     96  C   UNL A   1      34.305  25.026  24.102  1.00  0.00     0.018 A 
ATOM     97  C   UNL A   1      33.284  24.098  22.148  1.00  0.00     0.018 A 
ATOM     98  C   UNL A   1      33.724  25.205  22.860  1.00  0.00     0.018 A 
ATOM     99  Br  UNL A   1      33.520  26.938  22.151  1.00  0.00    -0.051 Br
ENDBRANCH  84  93
ENDBRANCH  81  82
ENDBRANCH  80  81
ENDBRANCH  78  80
ENDBRANCH  74  75
ENDBRANCH  66  69
ENDBRANCH   1  65
TORSDOF 16
ENDMDL
MODEL 3
REMARK VINA RESULT:     -12.2      4.067      9.549
REMARK SMILES O=C(NCCCCNC(=O)c1ccc(-n2cc(CSc3nc4ccccc4c(=O)n3-c3ccc(Br)cc3)nn2)cc1)c1ccc(-c2c3nc(c(-c4c(F)cccc4F)c4ccc([nH]4)c(-c4c(F)cccc4F)c4nc(c(-c5c(F)cccc5F)c5ccc2[nH]5)C=C4)C=C3)cc1
REMARK SMILES IDX 7 1 6 2 5 3 4 4 3 5 1 6 2 7 42 9 43 10 95 11 44 12 94 13
REMARK SMILES IDX 45 14 46 15 47 16 88 17 48 18 93 19 87 20 89 21 49 22 92 23
REMARK SMILES IDX 86 24 85 25 50 27 76 28 59 29 75 30 60 31 63 32 74 33 90 34
REMARK SMILES IDX 61 35 62 36 73 38 91 39 64 40 51 41 52 42 57 43 53 44 54 45
REMARK SMILES IDX 56 46 58 47 55 48 77 49 78 50 83 51 79 52 80 53 82 54 84 55
REMARK SMILES IDX 81 56 65 57 66 58 71 59 67 60 68 61 70 62 72 63 69 64 8 65
REMARK SMILES IDX 9 66 10 68 11 69 12 70 41 71 13 72 40 73 14 74 15 75 16 76
REMARK SMILES IDX 39 77 17 78 38 79 18 80 19 81 20 82 21 83 30 84 22 85 28 86
REMARK SMILES IDX 23 87 27 88 29 89 24 90 26 91 25 92 31 93 32 94 37 95 33 96
REMARK SMILES IDX 36 97 34 98 35 99
REMARK H PARENT 3 8 89 26 63 37 8 67
REMARK Flexibility Score: inf
ROOT
ATOM      1  C   UNL A   1      40.459  23.969  26.733  1.00  0.00     0.116 C 
ENDROOT
BRANCH   1   2
ATOM      2  C   UNL A   1      41.209  24.691  27.851  1.00  0.00     0.023 C 
BRANCH   2   3
ATOM      3  C   UNL A   1      42.231  23.857  28.634  1.00  0.00     0.023 C 
BRANCH   3   4
ATOM      4  C   UNL A   1      43.576  23.629  27.946  1.00  0.00     0.116 C 
BRANCH   4   5
ATOM      5  N   UNL A   1      44.725  24.126  28.677  1.00  0.00    -0.352 N 
ATOM      6  O   UNL A   1      46.064  25.229  30.031  1.00  0.00    -0.269 OA
ATOM      7  C   UNL A   1      45.016  25.263  29.380  1.00  0.00     0.251 C 
ATOM      8  H   UNL A   1      45.478  23.492  28.664  1.00  0.00     0.163 HD
BRANCH   7   9
ATOM      9  C   UNL A   1      44.218  26.523  29.388  1.00  0.00     0.039 A 
ATOM     10  C   UNL A   1      43.770  27.220  28.269  1.00  0.00     0.014 A 
ATOM     11  C   UNL A   1      43.912  27.048  30.663  1.00  0.00     0.014 A 
ATOM     12  C   UNL A   1      43.077  28.426  28.418  1.00  0.00     0.010 A 
ATOM     13  C   UNL A   1      43.221  28.249  30.818  1.00  0.00     0.010 A 
ATOM     14  C   UNL A   1      42.815  28.952  29.690  1.00  0.00    -0.014 A 
BRANCH  14  15
ATOM     15  C   UNL A   1      41.958  30.137  29.787  1.00  0.00     0.031 A 
ATOM     16  C   UNL A   1      42.683  31.436  29.681  1.00  0.00     0.074 A 
ATOM     17  C   UNL A   1      40.609  30.143  29.822  1.00  0.00     0.049 A 
ATOM     18  N   UNL A   1      42.796  32.360  30.579  1.00  0.00    -0.248 NA
ATOM     19  C   UNL A   1      43.436  31.703  28.448  1.00  0.00     0.031 C 
ATOM     20  C   UNL A   1      39.692  29.025  29.606  1.00  0.00     0.029 A 
ATOM     21  N   UNL A   1      39.765  31.209  29.982  1.00  0.00    -0.354 N 
ATOM     22  C   UNL A   1      43.490  33.407  29.972  1.00  0.00     0.074 A 
ATOM     23  C   UNL A   1      43.967  32.898  28.713  1.00  0.00     0.031 C 
ATOM     24  C   UNL A   1      38.433  29.502  29.456  1.00  0.00     0.029 A 
ATOM     25  C   UNL A   1      38.433  30.937  29.696  1.00  0.00     0.049 A 
ATOM     26  H   UNL A   1      40.075  32.096  30.278  1.00  0.00     0.167 HD
ATOM     27  C   UNL A   1      43.444  34.674  30.470  1.00  0.00     0.037 A 
ATOM     28  C   UNL A   1      37.411  31.829  29.622  1.00  0.00     0.037 A 
ATOM     29  C   UNL A   1      43.004  34.683  31.843  1.00  0.00     0.049 A 
ATOM     30  C   UNL A   1      37.816  33.057  30.343  1.00  0.00     0.074 A 
ATOM     31  C   UNL A   1      43.442  34.102  33.018  1.00  0.00     0.029 A 
ATOM     32  N   UNL A   1      41.736  35.136  32.110  1.00  0.00    -0.354 N 
ATOM     33  N   UNL A   1      37.913  33.155  31.637  1.00  0.00    -0.248 NA
ATOM     34  C   UNL A   1      38.471  34.111  29.585  1.00  0.00     0.031 C 
ATOM     35  C   UNL A   1      42.253  33.794  33.742  1.00  0.00     0.029 A 
ATOM     36  C   UNL A   1      41.173  34.250  32.987  1.00  0.00     0.049 A 
ATOM     37  H   UNL A   1      41.313  35.944  31.741  1.00  0.00     0.167 HD
ATOM     38  C   UNL A   1      38.996  33.993  31.840  1.00  0.00     0.074 A 
ATOM     39  C   UNL A   1      39.217  34.647  30.554  1.00  0.00     0.031 C 
ATOM     40  C   UNL A   1      39.783  33.866  32.947  1.00  0.00     0.037 A 
BRANCH  27  41
ATOM     41  C   UNL A   1      43.430  35.930  29.624  1.00  0.00     0.057 A 
ATOM     42  C   UNL A   1      44.263  37.008  29.987  1.00  0.00     0.134 A 
ATOM     43  C   UNL A   1      42.427  36.246  28.687  1.00  0.00     0.134 A 
ATOM     44  F   UNL A   1      45.263  36.843  30.867  1.00  0.00    -0.206 F 
ATOM     45  C   UNL A   1      44.040  38.317  29.542  1.00  0.00     0.040 A 
ATOM     46  C   UNL A   1      42.230  37.540  28.195  1.00  0.00     0.040 A 
ATOM     47  F   UNL A   1      41.524  35.352  28.270  1.00  0.00    -0.206 F 
ATOM     48  C   UNL A   1      43.010  38.589  28.653  1.00  0.00     0.006 A 
ENDBRANCH  27  41
BRANCH  28  49
ATOM     49  C   UNL A   1      36.178  31.806  28.801  1.00  0.00     0.057 A 
ATOM     50  C   UNL A   1      36.024  30.893  27.744  1.00  0.00     0.134 A 
ATOM     51  C   UNL A   1      35.012  32.466  29.218  1.00  0.00     0.134 A 
ATOM     52  F   UNL A   1      37.070  30.185  27.294  1.00  0.00    -0.206 F 
ATOM     53  C   UNL A   1      34.777  30.627  27.163  1.00  0.00     0.040 A 
ATOM     54  C   UNL A   1      33.763  32.215  28.641  1.00  0.00     0.040 A 
ATOM     55  F   UNL A   1      35.031  33.307  30.263  1.00  0.00    -0.206 F 
ATOM     56  C   UNL A   1      33.638  31.279  27.622  1.00  0.00     0.006 A 
ENDBRANCH  28  49
BRANCH  40  57
ATOM     57  C   UNL A   1      39.265  33.050  34.096  1.00  0.00     0.057 A 
ATOM     58  C   UNL A   1      39.363  31.654  34.188  1.00  0.00     0.134 A 
ATOM     59  C   UNL A   1      38.755  33.726  35.212  1.00  0.00     0.134 A 
ATOM     60  F   UNL A   1      39.933  30.928  33.217  1.00  0.00    -0.206 F 
ATOM     61  C   UNL A   1      38.919  30.962  35.319  1.00  0.00     0.040 A 
ATOM     62  C   UNL A   1      38.346  33.049  36.362  1.00  0.00     0.040 A 
ATOM     63  F   UNL A   1      38.682  35.067  35.216  1.00  0.00    -0.206 F 
ATOM     64  C   UNL A   1      38.413  31.660  36.413  1.00  0.00     0.006 A 
ENDBRANCH  40  57
ENDBRANCH  14  15
ENDBRANCH   7   9
ENDBRANCH   4   5
ENDBRANCH   3   4
ENDBRANCH   2   3
ENDBRANCH   1   2
BRANCH   1  65
ATOM     65  N   UNL A   1      40.537  22.522  26.836  1.00  0.00    -0.352 N 
ATOM     66  C   UNL A   1      39.635  21.556  26.454  1.00  0.00     0.251 C 
ATOM     67  H   UNL A   1      41.365  22.180  27.245  1.00  0.00     0.163 HD
ATOM     68  O   UNL A   1      39.846  20.384  26.712  1.00  0.00    -0.269 OA
BRANCH  66  69
ATOM     69  C   UNL A   1      38.393  21.934  25.745  1.00  0.00     0.039 A 
ATOM     70  C   UNL A   1      37.855  23.204  25.976  1.00  0.00     0.016 A 
ATOM     71  C   UNL A   1      37.726  21.031  24.914  1.00  0.00     0.016 A 
ATOM     72  C   UNL A   1      36.680  23.598  25.329  1.00  0.00     0.029 A 
ATOM     73  C   UNL A   1      36.540  21.413  24.281  1.00  0.00     0.029 A 
ATOM     74  C   UNL A   1      36.011  22.699  24.489  1.00  0.00     0.066 A 
BRANCH  74  75
ATOM     75  N   UNL A   1      34.779  23.079  23.903  1.00  0.00    -0.220 N 
ATOM     76  C   UNL A   1      34.521  24.189  23.138  1.00  0.00     0.141 A 
ATOM     77  N   UNL A   1      33.641  22.354  24.022  1.00  0.00    -0.062 NA
ATOM     78  C   UNL A   1      33.215  24.056  22.721  1.00  0.00     0.093 A 
ATOM     79  N   UNL A   1      32.682  22.951  23.323  1.00  0.00    -0.134 NA
BRANCH  78  80
ATOM     80  C   UNL A   1      32.396  25.009  21.940  1.00  0.00     0.138 C 
BRANCH  80  81
ATOM     81  S   UNL A   1      32.801  26.753  21.830  1.00  0.00    -0.081 SA
BRANCH  81  82
ATOM     82  C   UNL A   1      31.648  27.751  22.679  1.00  0.00     0.176 A 
ATOM     83  N   UNL A   1      30.933  28.463  21.857  1.00  0.00    -0.223 NA
ATOM     84  N   UNL A   1      31.450  27.795  24.055  1.00  0.00    -0.255 N 
ATOM     85  C   UNL A   1      30.016  29.377  22.380  1.00  0.00     0.079 A 
ATOM     86  C   UNL A   1      31.068  29.058  24.538  1.00  0.00     0.266 A 
ATOM     87  C   UNL A   1      29.018  29.931  21.577  1.00  0.00     0.029 A 
ATOM     88  C   UNL A   1      30.147  29.823  23.685  1.00  0.00     0.066 A 
ATOM     89  O   UNL A   1      31.440  29.574  25.590  1.00  0.00    -0.268 OA
ATOM     90  C   UNL A   1      28.210  30.964  22.066  1.00  0.00     0.002 A 
ATOM     91  C   UNL A   1      29.383  30.888  24.174  1.00  0.00     0.016 A 
ATOM     92  C   UNL A   1      28.415  31.466  23.353  1.00  0.00     0.001 A 
BRANCH  84  93
ATOM     93  C   UNL A   1      31.623  26.714  25.011  1.00  0.00     0.051 A 
ATOM     94  C   UNL A   1      32.890  26.465  25.584  1.00  0.00     0.028 A 
ATOM     95  C   UNL A   1      30.592  25.883  25.468  1.00  0.00     0.028 A 
ATOM     96  C   UNL A   1      33.158  25.333  26.363  1.00  0.00     0.018 A 
ATOM     97  C   UNL A   1      30.854  24.712  26.199  1.00  0.00     0.018 A 
ATOM     98  C   UNL A   1      32.147  24.422  26.608  1.00  0.00     0.018 A 
ATOM     99  Br  UNL A   1      32.531  22.793  27.475  1.00  0.00    -0.051 Br
ENDBRANCH  84  93
ENDBRANCH  81  82
ENDBRANCH  80  81
ENDBRANCH  78  80
ENDBRANCH  74  75
ENDBRANCH  66  69
ENDBRANCH   1  65
TORSDOF 16
ENDMDL
