MODEL 1
REMARK VINA RESULT:     -12.1      0.000      0.000
REMARK SMILES Nc1c(N2CCCC2)ncnc1N1CCC(C(=O)NCCCCNC(=O)c2ccc(-c3c4nc(c(-c5c(F)cccc5F)c5ccc([nH]5)c(-c5c(F)cccc5F)c5nc(c(-c6c(F)cccc6F)c6ccc3[nH]6)C=C5)C=C4)cc2)CC1
REMARK SMILES IDX 21 1 20 2 19 3 17 4 18 5 16 7 13 8 14 9 82 10 15 11 81 12
REMARK SMILES IDX 12 13 2 14 3 15 9 16 11 17 10 18 1 19 4 22 5 23 8 24 6 25
REMARK SMILES IDX 7 26 22 27 23 28 24 29 25 30 26 32 27 33 28 34 80 35 29 36
REMARK SMILES IDX 79 37 30 38 31 39 32 40 73 41 33 42 78 43 72 44 74 45 34 46
REMARK SMILES IDX 77 47 71 48 70 49 35 51 61 52 44 53 60 54 45 55 48 56 59 57
REMARK SMILES IDX 75 58 46 59 47 60 58 62 76 63 49 64 36 65 37 66 42 67 38 68
REMARK SMILES IDX 39 69 41 70 43 71 40 72 62 73 63 74 68 75 64 76 65 77 67 78
REMARK SMILES IDX 69 79 66 80 50 81 51 82 56 83 52 84 53 85 55 86 57 87 54 88
REMARK H PARENT 19 6 1 20 1 21 24 31 74 50 48 61
REMARK Flexibility Score: inf
ROOT
ATOM      1  C   UNL A   1      37.018  21.953  24.138  1.00  0.00     0.023 C 
ENDROOT
BRANCH   1   2
ATOM      2  C   UNL A   1      36.826  23.110  25.116  1.00  0.00     0.116 C 
BRANCH   2   3
ATOM      3  N   UNL A   1      35.596  22.977  25.881  1.00  0.00    -0.356 N 
ATOM      4  C   UNL A   1      34.470  23.744  25.887  1.00  0.00     0.223 C 
ATOM      5  O   UNL A   1      33.551  23.416  26.642  1.00  0.00    -0.275 OA
ATOM      6  H   UNL A   1      35.572  22.207  26.494  1.00  0.00     0.163 HD
BRANCH   4   7
ATOM      7  C   UNL A   1      34.325  24.955  24.977  1.00  0.00     0.082 C 
ATOM      8  N   UNL A   1      32.459  26.727  23.800  1.00  0.00    -0.355 N 
ATOM      9  C   UNL A   1      33.075  25.781  22.898  1.00  0.00     0.119 C 
ATOM     10  C   UNL A   1      33.250  27.270  24.887  1.00  0.00     0.119 C 
ATOM     11  C   UNL A   1      33.607  24.586  23.670  1.00  0.00     0.035 C 
ATOM     12  C   UNL A   1      33.749  26.139  25.770  1.00  0.00     0.035 C 
BRANCH   8  13
ATOM     13  C   UNL A   1      31.142  27.110  23.606  1.00  0.00     0.157 A 
ATOM     14  C   UNL A   1      30.826  28.394  23.132  1.00  0.00     0.118 A 
ATOM     15  C   UNL A   1      29.463  28.729  23.068  1.00  0.00     0.157 A 
ATOM     16  N   UNL A   1      28.502  27.862  23.428  1.00  0.00    -0.217 NA
ATOM     17  N   UNL A   1      30.184  26.211  23.900  1.00  0.00    -0.217 NA
ATOM     18  C   UNL A   1      28.917  26.645  23.806  1.00  0.00     0.226 A 
BRANCH  14  19
ATOM     19  N   UNL A   1      31.822  29.347  22.840  1.00  0.00    -0.393 N 
ATOM     20  H   UNL A   1      31.568  30.243  22.523  1.00  0.00     0.156 HD
ATOM     21  H   UNL A   1      32.772  29.115  22.952  1.00  0.00     0.156 HD
ENDBRANCH  14  19
BRANCH  15  22
ATOM     22  N   UNL A   1      29.098  29.986  22.616  1.00  0.00    -0.355 N 
ATOM     23  C   UNL A   1      28.237  30.120  21.456  1.00  0.00     0.118 C 
ATOM     24  C   UNL A   1      28.864  31.074  23.549  1.00  0.00     0.118 C 
ATOM     25  C   UNL A   1      28.282  31.628  21.244  1.00  0.00     0.023 C 
ATOM     26  C   UNL A   1      28.265  32.183  22.668  1.00  0.00     0.023 C 
ENDBRANCH  15  22
ENDBRANCH   8  13
ENDBRANCH   4   7
ENDBRANCH   2   3
ENDBRANCH   1   2
BRANCH   1  27
ATOM     27  C   UNL A   1      37.520  20.658  24.772  1.00  0.00     0.023 C 
BRANCH  27  28
ATOM     28  C   UNL A   1      38.648  20.830  25.781  1.00  0.00     0.116 C 
BRANCH  28  29
ATOM     29  N   UNL A   1      39.621  19.748  25.739  1.00  0.00    -0.352 N 
ATOM     30  C   UNL A   1      40.958  19.777  26.050  1.00  0.00     0.251 C 
ATOM     31  H   UNL A   1      39.273  18.875  25.444  1.00  0.00     0.163 HD
ATOM     32  O   UNL A   1      41.672  18.802  25.844  1.00  0.00    -0.269 OA
BRANCH  30  33
ATOM     33  C   UNL A   1      41.539  21.015  26.607  1.00  0.00     0.039 A 
ATOM     34  C   UNL A   1      42.029  21.983  25.728  1.00  0.00     0.014 A 
ATOM     35  C   UNL A   1      41.556  21.234  27.987  1.00  0.00     0.014 A 
ATOM     36  C   UNL A   1      42.468  23.207  26.231  1.00  0.00     0.010 A 
ATOM     37  C   UNL A   1      41.930  22.479  28.481  1.00  0.00     0.010 A 
ATOM     38  C   UNL A   1      42.386  23.477  27.607  1.00  0.00    -0.014 A 
BRANCH  38  39
ATOM     39  C   UNL A   1      42.775  24.802  28.149  1.00  0.00     0.031 A 
ATOM     40  C   UNL A   1      41.733  25.863  28.353  1.00  0.00     0.074 A 
ATOM     41  C   UNL A   1      44.071  25.062  28.407  1.00  0.00     0.049 A 
ATOM     42  N   UNL A   1      41.882  27.094  28.768  1.00  0.00    -0.248 NA
ATOM     43  C   UNL A   1      40.344  25.502  28.029  1.00  0.00     0.031 C 
ATOM     44  C   UNL A   1      45.180  24.127  28.206  1.00  0.00     0.029 A 
ATOM     45  N   UNL A   1      44.676  26.195  28.891  1.00  0.00    -0.354 N 
ATOM     46  C   UNL A   1      40.612  27.655  28.746  1.00  0.00     0.074 A 
ATOM     47  C   UNL A   1      39.711  26.648  28.229  1.00  0.00     0.031 C 
ATOM     48  C   UNL A   1      46.324  24.713  28.593  1.00  0.00     0.029 A 
ATOM     49  C   UNL A   1      46.036  26.074  29.037  1.00  0.00     0.049 A 
ATOM     50  H   UNL A   1      44.181  27.017  29.111  1.00  0.00     0.167 HD
ATOM     51  C   UNL A   1      40.227  28.888  29.148  1.00  0.00     0.037 A 
ATOM     52  C   UNL A   1      46.947  26.961  29.482  1.00  0.00     0.037 A 
ATOM     53  C   UNL A   1      41.118  29.876  29.694  1.00  0.00     0.049 A 
ATOM     54  C   UNL A   1      46.494  28.327  29.914  1.00  0.00     0.074 A 
ATOM     55  C   UNL A   1      40.812  31.134  30.182  1.00  0.00     0.029 A 
ATOM     56  N   UNL A   1      42.488  29.715  29.826  1.00  0.00    -0.354 N 
ATOM     57  N   UNL A   1      45.281  28.823  29.940  1.00  0.00    -0.248 NA
ATOM     58  C   UNL A   1      47.534  29.257  30.378  1.00  0.00     0.031 C 
ATOM     59  C   UNL A   1      42.003  31.747  30.582  1.00  0.00     0.029 A 
ATOM     60  C   UNL A   1      43.044  30.858  30.374  1.00  0.00     0.049 A 
ATOM     61  H   UNL A   1      42.990  28.908  29.568  1.00  0.00     0.167 HD
ATOM     62  C   UNL A   1      45.409  30.112  30.439  1.00  0.00     0.074 A 
ATOM     63  C   UNL A   1      46.815  30.319  30.716  1.00  0.00     0.031 C 
ATOM     64  C   UNL A   1      44.446  31.042  30.647  1.00  0.00     0.037 A 
BRANCH  51  65
ATOM     65  C   UNL A   1      38.773  29.231  29.037  1.00  0.00     0.057 A 
ATOM     66  C   UNL A   1      38.200  29.598  27.814  1.00  0.00     0.134 A 
ATOM     67  C   UNL A   1      37.928  29.141  30.149  1.00  0.00     0.134 A 
ATOM     68  F   UNL A   1      38.961  29.715  26.715  1.00  0.00    -0.206 F 
ATOM     69  C   UNL A   1      36.837  29.877  27.701  1.00  0.00     0.040 A 
ATOM     70  C   UNL A   1      36.559  29.396  30.046  1.00  0.00     0.040 A 
ATOM     71  F   UNL A   1      38.414  28.790  31.349  1.00  0.00    -0.206 F 
ATOM     72  C   UNL A   1      36.011  29.767  28.819  1.00  0.00     0.006 A 
ENDBRANCH  51  65
BRANCH  52  73
ATOM     73  C   UNL A   1      48.376  26.571  29.574  1.00  0.00     0.057 A 
ATOM     74  C   UNL A   1      49.264  26.851  28.528  1.00  0.00     0.134 A 
ATOM     75  C   UNL A   1      48.889  25.920  30.701  1.00  0.00     0.134 A 
ATOM     76  F   UNL A   1      48.825  27.457  27.416  1.00  0.00    -0.206 F 
ATOM     77  C   UNL A   1      50.609  26.486  28.595  1.00  0.00     0.040 A 
ATOM     78  C   UNL A   1      50.236  25.567  30.789  1.00  0.00     0.040 A 
ATOM     79  F   UNL A   1      48.089  25.630  31.738  1.00  0.00    -0.206 F 
ATOM     80  C   UNL A   1      51.099  25.847  29.731  1.00  0.00     0.006 A 
ENDBRANCH  52  73
BRANCH  64  81
ATOM     81  C   UNL A   1      44.869  32.363  31.214  1.00  0.00     0.057 A 
ATOM     82  C   UNL A   1      44.947  32.574  32.595  1.00  0.00     0.134 A 
ATOM     83  C   UNL A   1      45.284  33.402  30.371  1.00  0.00     0.134 A 
ATOM     84  F   UNL A   1      44.554  31.620  33.452  1.00  0.00    -0.206 F 
ATOM     85  C   UNL A   1      45.417  33.779  33.121  1.00  0.00     0.040 A 
ATOM     86  C   UNL A   1      45.775  34.603  30.885  1.00  0.00     0.040 A 
ATOM     87  F   UNL A   1      45.242  33.256  29.038  1.00  0.00    -0.206 F 
ATOM     88  C   UNL A   1      45.842  34.793  32.264  1.00  0.00     0.006 A 
ENDBRANCH  64  81
ENDBRANCH  38  39
ENDBRANCH  30  33
ENDBRANCH  28  29
ENDBRANCH  27  28
ENDBRANCH   1  27
TORSDOF 14
ENDMDL
MODEL 2
REMARK VINA RESULT:     -12.0      0.338      6.197
REMARK SMILES Nc1c(N2CCCC2)ncnc1N1CCC(C(=O)NCCCCNC(=O)c2ccc(-c3c4nc(c(-c5c(F)cccc5F)c5ccc([nH]5)c(-c5c(F)cccc5F)c5nc(c(-c6c(F)cccc6F)c6ccc3[nH]6)C=C5)C=C4)cc2)CC1
REMARK SMILES IDX 21 1 20 2 19 3 17 4 18 5 16 7 13 8 14 9 82 10 15 11 81 12
REMARK SMILES IDX 12 13 2 14 3 15 9 16 11 17 10 18 1 19 4 22 5 23 8 24 6 25
REMARK SMILES IDX 7 26 22 27 23 28 24 29 25 30 26 32 27 33 28 34 80 35 29 36
REMARK SMILES IDX 79 37 30 38 31 39 32 40 73 41 33 42 78 43 72 44 74 45 34 46
REMARK SMILES IDX 77 47 71 48 70 49 35 51 61 52 44 53 60 54 45 55 48 56 59 57
REMARK SMILES IDX 75 58 46 59 47 60 58 62 76 63 49 64 36 65 37 66 42 67 38 68
REMARK SMILES IDX 39 69 41 70 43 71 40 72 62 73 63 74 68 75 64 76 65 77 67 78
REMARK SMILES IDX 69 79 66 80 50 81 51 82 56 83 52 84 53 85 55 86 57 87 54 88
REMARK H PARENT 19 6 1 20 1 21 24 31 74 50 48 61
REMARK Flexibility Score: inf
ROOT
ATOM      1  C   UNL A   1      37.003  21.805  24.112  1.00  0.00     0.023 C 
ENDROOT
BRANCH   1   2
ATOM      2  C   UNL A   1      36.778  22.925  25.124  1.00  0.00     0.116 C 
BRANCH   2   3
ATOM      3  N   UNL A   1      35.519  22.769  25.837  1.00  0.00    -0.356 N 
ATOM      4  C   UNL A   1      34.397  23.542  25.831  1.00  0.00     0.223 C 
ATOM      5  O   UNL A   1      33.449  23.189  26.538  1.00  0.00    -0.275 OA
ATOM      6  H   UNL A   1      35.470  21.977  26.419  1.00  0.00     0.163 HD
BRANCH   4   7
ATOM      7  C   UNL A   1      34.290  24.788  24.964  1.00  0.00     0.082 C 
ATOM      8  N   UNL A   1      32.477  26.633  23.816  1.00  0.00    -0.355 N 
ATOM      9  C   UNL A   1      33.097  25.710  22.892  1.00  0.00     0.119 C 
ATOM     10  C   UNL A   1      33.255  27.122  24.938  1.00  0.00     0.119 C 
ATOM     11  C   UNL A   1      33.593  24.478  23.630  1.00  0.00     0.035 C 
ATOM     12  C   UNL A   1      33.718  25.951  25.788  1.00  0.00     0.035 C 
BRANCH   8  13
ATOM     13  C   UNL A   1      31.171  27.045  23.610  1.00  0.00     0.157 A 
ATOM     14  C   UNL A   1      30.888  28.341  23.147  1.00  0.00     0.118 A 
ATOM     15  C   UNL A   1      29.533  28.704  23.070  1.00  0.00     0.157 A 
ATOM     16  N   UNL A   1      28.549  27.853  23.407  1.00  0.00    -0.217 NA
ATOM     17  N   UNL A   1      30.191  26.162  23.881  1.00  0.00    -0.217 NA
ATOM     18  C   UNL A   1      28.934  26.623  23.777  1.00  0.00     0.226 A 
BRANCH  14  19
ATOM     19  N   UNL A   1      31.907  29.275  22.879  1.00  0.00    -0.393 N 
ATOM     20  H   UNL A   1      32.320  29.309  21.987  1.00  0.00     0.156 HD
ATOM     21  H   UNL A   1      32.205  29.894  23.583  1.00  0.00     0.156 HD
ENDBRANCH  14  19
BRANCH  15  22
ATOM     22  N   UNL A   1      29.200  29.973  22.627  1.00  0.00    -0.355 N 
ATOM     23  C   UNL A   1      28.346  30.138  21.465  1.00  0.00     0.118 C 
ATOM     24  C   UNL A   1      28.986  31.058  23.569  1.00  0.00     0.118 C 
ATOM     25  C   UNL A   1      28.428  31.646  21.268  1.00  0.00     0.023 C 
ATOM     26  C   UNL A   1      28.417  32.189  22.697  1.00  0.00     0.023 C 
ENDBRANCH  15  22
ENDBRANCH   8  13
ENDBRANCH   4   7
ENDBRANCH   2   3
ENDBRANCH   1   2
BRANCH   1  27
ATOM     27  C   UNL A   1      37.540  20.505  24.707  1.00  0.00     0.023 C 
BRANCH  27  28
ATOM     28  C   UNL A   1      38.617  20.681  25.769  1.00  0.00     0.116 C 
BRANCH  28  29
ATOM     29  N   UNL A   1      39.656  19.664  25.701  1.00  0.00    -0.352 N 
ATOM     30  C   UNL A   1      40.990  19.772  26.005  1.00  0.00     0.251 C 
ATOM     31  H   UNL A   1      39.362  18.776  25.392  1.00  0.00     0.163 HD
ATOM     32  O   UNL A   1      41.764  18.848  25.776  1.00  0.00    -0.269 OA
BRANCH  30  33
ATOM     33  C   UNL A   1      41.496  21.034  26.582  1.00  0.00     0.039 A 
ATOM     34  C   UNL A   1      41.997  22.013  25.722  1.00  0.00     0.014 A 
ATOM     35  C   UNL A   1      41.431  21.263  27.959  1.00  0.00     0.014 A 
ATOM     36  C   UNL A   1      42.364  23.256  26.237  1.00  0.00     0.010 A 
ATOM     37  C   UNL A   1      41.733  22.523  28.461  1.00  0.00     0.010 A 
ATOM     38  C   UNL A   1      42.199  23.531  27.605  1.00  0.00    -0.014 A 
BRANCH  38  39
ATOM     39  C   UNL A   1      42.509  24.873  28.155  1.00  0.00     0.031 A 
ATOM     40  C   UNL A   1      43.914  25.208  28.566  1.00  0.00     0.074 A 
ATOM     41  C   UNL A   1      41.518  25.767  28.331  1.00  0.00     0.049 A 
ATOM     42  N   UNL A   1      44.373  26.304  29.111  1.00  0.00    -0.248 NA
ATOM     43  C   UNL A   1      44.934  24.168  28.356  1.00  0.00     0.031 C 
ATOM     44  C   UNL A   1      40.106  25.542  28.013  1.00  0.00     0.029 A 
ATOM     45  N   UNL A   1      41.545  27.047  28.827  1.00  0.00    -0.354 N 
ATOM     46  C   UNL A   1      45.729  26.082  29.317  1.00  0.00     0.074 A 
ATOM     47  C   UNL A   1      46.009  24.731  28.886  1.00  0.00     0.031 C 
ATOM     48  C   UNL A   1      39.410  26.655  28.291  1.00  0.00     0.029 A 
ATOM     49  C   UNL A   1      40.317  27.660  28.839  1.00  0.00     0.049 A 
ATOM     50  H   UNL A   1      42.368  27.482  29.145  1.00  0.00     0.167 HD
ATOM     51  C   UNL A   1      46.660  26.939  29.794  1.00  0.00     0.037 A 
ATOM     52  C   UNL A   1      39.963  28.895  29.242  1.00  0.00     0.037 A 
ATOM     53  C   UNL A   1      46.386  28.295  30.190  1.00  0.00     0.049 A 
ATOM     54  C   UNL A   1      41.016  29.824  29.777  1.00  0.00     0.074 A 
ATOM     55  C   UNL A   1      47.276  29.258  30.633  1.00  0.00     0.029 A 
ATOM     56  N   UNL A   1      45.129  28.879  30.186  1.00  0.00    -0.354 N 
ATOM     57  N   UNL A   1      42.303  29.619  29.914  1.00  0.00    -0.248 NA
ATOM     58  C   UNL A   1      40.570  31.154  30.215  1.00  0.00     0.031 C 
ATOM     59  C   UNL A   1      46.552  30.417  30.927  1.00  0.00     0.029 A 
ATOM     60  C   UNL A   1      45.217  30.185  30.635  1.00  0.00     0.049 A 
ATOM     61  H   UNL A   1      44.298  28.430  29.906  1.00  0.00     0.167 HD
ATOM     62  C   UNL A   1      42.822  30.798  30.433  1.00  0.00     0.074 A 
ATOM     63  C   UNL A   1      41.714  31.718  30.576  1.00  0.00     0.031 C 
ATOM     64  C   UNL A   1      44.104  31.088  30.764  1.00  0.00     0.037 A 
BRANCH  51  65
ATOM     65  C   UNL A   1      48.071  26.446  29.893  1.00  0.00     0.057 A 
ATOM     66  C   UNL A   1      48.552  25.835  31.057  1.00  0.00     0.134 A 
ATOM     67  C   UNL A   1      48.939  26.531  28.797  1.00  0.00     0.134 A 
ATOM     68  F   UNL A   1      47.772  25.735  32.144  1.00  0.00    -0.206 F 
ATOM     69  C   UNL A   1      49.853  25.336  31.134  1.00  0.00     0.040 A 
ATOM     70  C   UNL A   1      50.236  26.017  28.855  1.00  0.00     0.040 A 
ATOM     71  F   UNL A   1      48.537  27.101  27.652  1.00  0.00    -0.206 F 
ATOM     72  C   UNL A   1      50.696  25.419  30.027  1.00  0.00     0.006 A 
ENDBRANCH  51  65
BRANCH  52  73
ATOM     73  C   UNL A   1      38.551  29.337  29.124  1.00  0.00     0.057 A 
ATOM     74  C   UNL A   1      37.704  29.336  30.237  1.00  0.00     0.134 A 
ATOM     75  C   UNL A   1      38.018  29.775  27.905  1.00  0.00     0.134 A 
ATOM     76  F   UNL A   1      38.154  28.910  31.426  1.00  0.00    -0.206 F 
ATOM     77  C   UNL A   1      36.372  29.742  30.142  1.00  0.00     0.040 A 
ATOM     78  C   UNL A   1      36.694  30.202  27.801  1.00  0.00     0.040 A 
ATOM     79  F   UNL A   1      38.782  29.804  26.804  1.00  0.00    -0.206 F 
ATOM     80  C   UNL A   1      35.866  30.182  28.921  1.00  0.00     0.006 A 
ENDBRANCH  52  73
BRANCH  64  81
ATOM     81  C   UNL A   1      44.387  32.459  31.300  1.00  0.00     0.057 A 
ATOM     82  C   UNL A   1      44.400  32.717  32.675  1.00  0.00     0.134 A 
ATOM     83  C   UNL A   1      44.731  33.506  30.436  1.00  0.00     0.134 A 
ATOM     84  F   UNL A   1      44.070  31.756  33.551  1.00  0.00    -0.206 F 
ATOM     85  C   UNL A   1      44.741  33.975  33.175  1.00  0.00     0.040 A 
ATOM     86  C   UNL A   1      45.093  34.762  30.925  1.00  0.00     0.040 A 
ATOM     87  F   UNL A   1      44.745  33.317  29.107  1.00  0.00    -0.206 F 
ATOM     88  C   UNL A   1      45.099  34.999  32.298  1.00  0.00     0.006 A 
ENDBRANCH  64  81
ENDBRANCH  38  39
ENDBRANCH  30  33
ENDBRANCH  28  29
ENDBRANCH  27  28
ENDBRANCH   1  27
TORSDOF 14
ENDMDL
MODEL 3
REMARK VINA RESULT:     -11.9      3.605      9.136
REMARK SMILES Nc1c(N2CCCC2)ncnc1N1CCC(C(=O)NCCCCNC(=O)c2ccc(-c3c4nc(c(-c5c(F)cccc5F)c5ccc([nH]5)c(-c5c(F)cccc5F)c5nc(c(-c6c(F)cccc6F)c6ccc3[nH]6)C=C5)C=C4)cc2)CC1
REMARK SMILES IDX 21 1 20 2 19 3 17 4 18 5 16 7 13 8 14 9 82 10 15 11 81 12
REMARK SMILES IDX 12 13 2 14 3 15 9 16 11 17 10 18 1 19 4 22 5 23 8 24 6 25
REMARK SMILES IDX 7 26 22 27 23 28 24 29 25 30 26 32 27 33 28 34 80 35 29 36
REMARK SMILES IDX 79 37 30 38 31 39 32 40 73 41 33 42 78 43 72 44 74 45 34 46
REMARK SMILES IDX 77 47 71 48 70 49 35 51 61 52 44 53 60 54 45 55 48 56 59 57
REMARK SMILES IDX 75 58 46 59 47 60 58 62 76 63 49 64 36 65 37 66 42 67 38 68
REMARK SMILES IDX 39 69 41 70 43 71 40 72 62 73 63 74 68 75 64 76 65 77 67 78
REMARK SMILES IDX 69 79 66 80 50 81 51 82 56 83 52 84 53 85 55 86 57 87 54 88
REMARK H PARENT 19 6 1 20 1 21 24 31 74 50 48 61
REMARK Flexibility Score: inf
ROOT
ATOM      1  C   UNL A   1      32.010  29.335  27.250  1.00  0.00     0.023 C 
ENDROOT
BRANCH   1   2
ATOM      2  C   UNL A   1      33.391  28.801  26.878  1.00  0.00     0.116 C 
BRANCH   2   3
ATOM      3  N   UNL A   1      33.473  28.439  25.470  1.00  0.00    -0.356 N 
ATOM      4  C   UNL A   1      33.610  27.220  24.876  1.00  0.00     0.223 C 
ATOM      5  O   UNL A   1      33.659  27.181  23.644  1.00  0.00    -0.275 OA
ATOM      6  H   UNL A   1      33.420  29.198  24.845  1.00  0.00     0.163 HD
BRANCH   4   7
ATOM      7  C   UNL A   1      33.676  25.938  25.692  1.00  0.00     0.082 C 
ATOM      8  N   UNL A   1      33.329  23.131  25.582  1.00  0.00    -0.355 N 
ATOM      9  C   UNL A   1      32.306  23.858  26.299  1.00  0.00     0.119 C 
ATOM     10  C   UNL A   1      34.700  23.599  25.660  1.00  0.00     0.119 C 
ATOM     11  C   UNL A   1      32.282  25.311  25.855  1.00  0.00     0.035 C 
ATOM     12  C   UNL A   1      34.783  25.025  25.143  1.00  0.00     0.035 C 
BRANCH   8  13
ATOM     13  C   UNL A   1      32.993  22.003  24.853  1.00  0.00     0.157 A 
ATOM     14  C   UNL A   1      33.347  20.720  25.304  1.00  0.00     0.118 A 
ATOM     15  C   UNL A   1      33.058  19.645  24.447  1.00  0.00     0.157 A 
ATOM     16  N   UNL A   1      32.458  19.825  23.259  1.00  0.00    -0.217 NA
ATOM     17  N   UNL A   1      32.328  22.185  23.697  1.00  0.00    -0.217 NA
ATOM     18  C   UNL A   1      32.111  21.085  22.958  1.00  0.00     0.226 A 
BRANCH  14  19
ATOM     19  N   UNL A   1      34.058  20.522  26.503  1.00  0.00    -0.393 N 
ATOM     20  H   UNL A   1      35.012  20.280  26.475  1.00  0.00     0.156 HD
ATOM     21  H   UNL A   1      33.602  20.626  27.369  1.00  0.00     0.156 HD
ENDBRANCH  14  19
BRANCH  15  22
ATOM     22  N   UNL A   1      33.394  18.361  24.841  1.00  0.00    -0.355 N 
ATOM     23  C   UNL A   1      32.354  17.378  25.083  1.00  0.00     0.118 C 
ATOM     24  C   UNL A   1      34.591  17.715  24.332  1.00  0.00     0.118 C 
ATOM     25  C   UNL A   1      33.177  16.232  25.657  1.00  0.00     0.023 C 
ATOM     26  C   UNL A   1      34.455  16.263  24.820  1.00  0.00     0.023 C 
ENDBRANCH  15  22
ENDBRANCH   8  13
ENDBRANCH   4   7
ENDBRANCH   2   3
ENDBRANCH   1   2
BRANCH   1  27
ATOM     27  C   UNL A   1      31.725  30.756  26.769  1.00  0.00     0.023 C 
BRANCH  27  28
ATOM     28  C   UNL A   1      32.882  31.734  26.928  1.00  0.00     0.116 C 
BRANCH  28  29
ATOM     29  N   UNL A   1      32.456  33.054  27.369  1.00  0.00    -0.352 N 
ATOM     30  C   UNL A   1      33.073  33.911  28.248  1.00  0.00     0.251 C 
ATOM     31  H   UNL A   1      31.608  33.377  26.987  1.00  0.00     0.163 HD
ATOM     32  O   UNL A   1      32.519  34.943  28.611  1.00  0.00    -0.269 OA
BRANCH  30  33
ATOM     33  C   UNL A   1      34.403  33.557  28.782  1.00  0.00     0.039 A 
ATOM     34  C   UNL A   1      34.478  32.824  29.969  1.00  0.00     0.014 A 
ATOM     35  C   UNL A   1      35.564  33.909  28.090  1.00  0.00     0.014 A 
ATOM     36  C   UNL A   1      35.719  32.377  30.421  1.00  0.00     0.010 A 
ATOM     37  C   UNL A   1      36.792  33.406  28.505  1.00  0.00     0.010 A 
ATOM     38  C   UNL A   1      36.879  32.633  29.672  1.00  0.00    -0.014 A 
BRANCH  38  39
ATOM     39  C   UNL A   1      38.195  32.098  30.098  1.00  0.00     0.031 A 
ATOM     40  C   UNL A   1      38.675  30.778  29.568  1.00  0.00     0.074 A 
ATOM     41  C   UNL A   1      38.931  32.777  30.999  1.00  0.00     0.049 A 
ATOM     42  N   UNL A   1      39.769  30.123  29.858  1.00  0.00    -0.248 NA
ATOM     43  C   UNL A   1      37.802  30.094  28.601  1.00  0.00     0.031 C 
ATOM     44  C   UNL A   1      38.550  34.047  31.620  1.00  0.00     0.029 A 
ATOM     45  N   UNL A   1      40.153  32.490  31.554  1.00  0.00    -0.354 N 
ATOM     46  C   UNL A   1      39.711  28.949  29.118  1.00  0.00     0.074 A 
ATOM     47  C   UNL A   1      38.453  28.957  28.406  1.00  0.00     0.031 C 
ATOM     48  C   UNL A   1      39.532  34.445  32.445  1.00  0.00     0.029 A 
ATOM     49  C   UNL A   1      40.595  33.444  32.438  1.00  0.00     0.049 A 
ATOM     50  H   UNL A   1      40.664  31.677  31.339  1.00  0.00     0.167 HD
ATOM     51  C   UNL A   1      40.638  27.969  29.019  1.00  0.00     0.037 A 
ATOM     52  C   UNL A   1      41.731  33.505  33.158  1.00  0.00     0.037 A 
ATOM     53  C   UNL A   1      41.904  27.979  29.702  1.00  0.00     0.049 A 
ATOM     54  C   UNL A   1      42.740  32.398  33.037  1.00  0.00     0.074 A 
ATOM     55  C   UNL A   1      42.932  27.057  29.619  1.00  0.00     0.029 A 
ATOM     56  N   UNL A   1      42.314  28.963  30.587  1.00  0.00    -0.354 N 
ATOM     57  N   UNL A   1      42.695  31.321  32.291  1.00  0.00    -0.248 NA
ATOM     58  C   UNL A   1      43.954  32.511  33.857  1.00  0.00     0.031 C 
ATOM     59  C   UNL A   1      43.954  27.468  30.480  1.00  0.00     0.029 A 
ATOM     60  C   UNL A   1      43.575  28.662  31.072  1.00  0.00     0.049 A 
ATOM     61  H   UNL A   1      41.787  29.757  30.834  1.00  0.00     0.167 HD
ATOM     62  C   UNL A   1      43.881  30.641  32.536  1.00  0.00     0.074 A 
ATOM     63  C   UNL A   1      44.630  31.431  33.489  1.00  0.00     0.031 C 
ATOM     64  C   UNL A   1      44.308  29.464  32.017  1.00  0.00     0.037 A 
BRANCH  51  65
ATOM     65  C   UNL A   1      40.329  26.810  28.121  1.00  0.00     0.057 A 
ATOM     66  C   UNL A   1      40.887  26.709  26.841  1.00  0.00     0.134 A 
ATOM     67  C   UNL A   1      39.512  25.761  28.558  1.00  0.00     0.134 A 
ATOM     68  F   UNL A   1      41.667  27.689  26.360  1.00  0.00    -0.206 F 
ATOM     69  C   UNL A   1      40.633  25.609  26.020  1.00  0.00     0.040 A 
ATOM     70  C   UNL A   1      39.268  24.645  27.755  1.00  0.00     0.040 A 
ATOM     71  F   UNL A   1      38.950  25.796  29.776  1.00  0.00    -0.206 F 
ATOM     72  C   UNL A   1      39.828  24.569  26.481  1.00  0.00     0.006 A 
ENDBRANCH  51  65
BRANCH  52  73
ATOM     73  C   UNL A   1      41.991  34.675  34.034  1.00  0.00     0.057 A 
ATOM     74  C   UNL A   1      41.654  34.644  35.391  1.00  0.00     0.134 A 
ATOM     75  C   UNL A   1      42.584  35.844  33.541  1.00  0.00     0.134 A 
ATOM     76  F   UNL A   1      41.067  33.558  35.915  1.00  0.00    -0.206 F 
ATOM     77  C   UNL A   1      41.885  35.737  36.227  1.00  0.00     0.040 A 
ATOM     78  C   UNL A   1      42.840  36.937  34.370  1.00  0.00     0.040 A 
ATOM     79  F   UNL A   1      42.935  35.932  32.250  1.00  0.00    -0.206 F 
ATOM     80  C   UNL A   1      42.485  36.886  35.717  1.00  0.00     0.006 A 
ENDBRANCH  52  73
BRANCH  64  81
ATOM     81  C   UNL A   1      45.650  28.961  32.453  1.00  0.00     0.057 A 
ATOM     82  C   UNL A   1      46.823  29.348  31.796  1.00  0.00     0.134 A 
ATOM     83  C   UNL A   1      45.775  28.154  33.590  1.00  0.00     0.134 A 
ATOM     84  F   UNL A   1      46.766  30.112  30.695  1.00  0.00    -0.206 F 
ATOM     85  C   UNL A   1      48.079  28.942  32.251  1.00  0.00     0.040 A 
ATOM     86  C   UNL A   1      47.026  27.759  34.067  1.00  0.00     0.040 A 
ATOM     87  F   UNL A   1      44.687  27.758  34.268  1.00  0.00    -0.206 F 
ATOM     88  C   UNL A   1      48.182  28.154  33.396  1.00  0.00     0.006 A 
ENDBRANCH  64  81
ENDBRANCH  38  39
ENDBRANCH  30  33
ENDBRANCH  28  29
ENDBRANCH  27  28
ENDBRANCH   1  27
TORSDOF 14
ENDMDL
