MODEL 1
REMARK VINA RESULT:     -11.9      0.000      0.000
REMARK SMILES COc1ccc([C@H](C(=O)NCCCCNC(=O)c2ccc(-c3c4nc(c(-c5c(F)cccc5F)c5ccc([nH]5)c(-c5c(F)cccc5F)c5nc(c(-c6c(F)cccc6F)c6ccc3[nH]6)C=C5)C=C4)cc2)c2ccc(O)nn2)cc1
REMARK SMILES IDX 12 1 11 2 10 3 8 4 9 5 7 7 6 8 3 9 4 10 80 11 5 12 79 13
REMARK SMILES IDX 2 14 1 15 72 16 73 17 78 18 74 19 77 20 75 21 76 22 13 24
REMARK SMILES IDX 14 25 15 26 16 27 17 29 18 30 19 31 71 32 20 33 70 34 21 35
REMARK SMILES IDX 22 36 23 37 64 38 24 39 69 40 63 41 65 42 25 43 68 44 62 45
REMARK SMILES IDX 61 46 26 48 52 49 35 50 51 51 36 52 39 53 50 54 66 55 37 56
REMARK SMILES IDX 38 57 49 59 67 60 40 61 27 62 28 63 33 64 29 65 30 66 32 67
REMARK SMILES IDX 34 68 31 69 53 70 54 71 59 72 55 73 56 74 58 75 60 76 57 77
REMARK SMILES IDX 41 78 42 79 47 80 43 81 44 82 46 83 48 84 45 85
REMARK H PARENT 10 6 76 23 15 28 65 47 39 58
REMARK Flexibility Score: inf
ROOT
ATOM      1  C   UNL A   1      37.211  22.304  24.411  1.00  0.00     0.023 C 
ENDROOT
BRANCH   1   2
ATOM      2  C   UNL A   1      36.775  23.374  25.411  1.00  0.00     0.116 C 
BRANCH   2   3
ATOM      3  N   UNL A   1      35.922  22.894  26.485  1.00  0.00    -0.355 N 
ATOM      4  C   UNL A   1      34.689  22.315  26.516  1.00  0.00     0.233 C 
ATOM      5  O   UNL A   1      34.388  21.798  27.603  1.00  0.00    -0.274 OA
ATOM      6  H   UNL A   1      36.317  23.014  27.378  1.00  0.00     0.163 HD
BRANCH   4   7
ATOM      7  C   UNL A   1      33.631  22.405  25.400  1.00  0.00     0.159 C 
BRANCH   7   8
ATOM      8  C   UNL A   1      33.365  21.045  24.732  1.00  0.00    -0.029 A 
ATOM      9  C   UNL A   1      33.034  18.557  23.434  1.00  0.00     0.118 A 
ATOM     10  C   UNL A   1      33.980  18.704  24.444  1.00  0.00     0.047 A 
ATOM     11  C   UNL A   1      32.204  19.631  23.116  1.00  0.00     0.047 A 
ATOM     12  C   UNL A   1      34.143  19.931  25.094  1.00  0.00     0.009 A 
ATOM     13  C   UNL A   1      32.374  20.865  23.753  1.00  0.00     0.009 A 
BRANCH   9  14
ATOM     14  O   UNL A   1      32.988  17.326  22.841  1.00  0.00    -0.497 OA
ATOM     15  C   UNL A   1      34.062  16.450  23.167  1.00  0.00     0.278 C 
ENDBRANCH   9  14
ENDBRANCH   7   8
BRANCH   7  16
ATOM     16  C   UNL A   1      32.401  23.226  25.745  1.00  0.00     0.080 A 
ATOM     17  C   UNL A   1      31.973  24.329  25.004  1.00  0.00     0.032 A 
ATOM     18  N   UNL A   1      31.694  22.821  26.831  1.00  0.00    -0.151 NA
ATOM     19  C   UNL A   1      30.785  24.964  25.348  1.00  0.00     0.072 A 
ATOM     20  N   UNL A   1      30.515  23.432  27.160  1.00  0.00    -0.112 NA
ATOM     21  C   UNL A   1      30.090  24.466  26.419  1.00  0.00     0.230 A 
BRANCH  21  22
ATOM     22  O   UNL A   1      28.879  24.981  26.750  1.00  0.00    -0.492 OA
ATOM     23  H   UNL A   1      28.689  25.194  27.643  1.00  0.00     0.295 HD
ENDBRANCH  21  22
ENDBRANCH   7  16
ENDBRANCH   4   7
ENDBRANCH   2   3
ENDBRANCH   1   2
BRANCH   1  24
ATOM     24  C   UNL A   1      37.661  20.983  25.031  1.00  0.00     0.023 C 
BRANCH  24  25
ATOM     25  C   UNL A   1      38.972  21.022  25.808  1.00  0.00     0.116 C 
BRANCH  25  26
ATOM     26  N   UNL A   1      39.809  19.838  25.685  1.00  0.00    -0.352 N 
ATOM     27  C   UNL A   1      41.142  19.734  26.031  1.00  0.00     0.251 C 
ATOM     28  H   UNL A   1      39.381  19.030  25.320  1.00  0.00     0.163 HD
ATOM     29  O   UNL A   1      41.769  18.696  25.855  1.00  0.00    -0.269 OA
BRANCH  27  30
ATOM     30  C   UNL A   1      41.818  20.936  26.564  1.00  0.00     0.039 A 
ATOM     31  C   UNL A   1      42.342  21.870  25.670  1.00  0.00     0.014 A 
ATOM     32  C   UNL A   1      41.799  21.197  27.936  1.00  0.00     0.014 A 
ATOM     33  C   UNL A   1      42.747  23.120  26.143  1.00  0.00     0.010 A 
ATOM     34  C   UNL A   1      42.130  22.467  28.394  1.00  0.00     0.010 A 
ATOM     35  C   UNL A   1      42.585  23.449  27.499  1.00  0.00    -0.014 A 
BRANCH  35  36
ATOM     36  C   UNL A   1      42.847  24.820  28.004  1.00  0.00     0.031 A 
ATOM     37  C   UNL A   1      44.232  25.217  28.425  1.00  0.00     0.074 A 
ATOM     38  C   UNL A   1      41.819  25.675  28.179  1.00  0.00     0.049 A 
ATOM     39  N   UNL A   1      44.639  26.321  28.999  1.00  0.00    -0.248 NA
ATOM     40  C   UNL A   1      45.297  24.225  28.207  1.00  0.00     0.031 C 
ATOM     41  C   UNL A   1      40.415  25.391  27.873  1.00  0.00     0.029 A 
ATOM     42  N   UNL A   1      41.796  26.955  28.675  1.00  0.00    -0.354 N 
ATOM     43  C   UNL A   1      45.995  26.144  29.236  1.00  0.00     0.074 A 
ATOM     44  C   UNL A   1      46.334  24.812  28.784  1.00  0.00     0.031 C 
ATOM     45  C   UNL A   1      39.673  26.472  28.165  1.00  0.00     0.029 A 
ATOM     46  C   UNL A   1      40.540  27.512  28.709  1.00  0.00     0.049 A 
ATOM     47  H   UNL A   1      42.603  27.430  28.979  1.00  0.00     0.167 HD
ATOM     48  C   UNL A   1      46.883  27.018  29.764  1.00  0.00     0.037 A 
ATOM     49  C   UNL A   1      40.134  28.724  29.131  1.00  0.00     0.037 A 
ATOM     50  C   UNL A   1      46.558  28.360  30.170  1.00  0.00     0.049 A 
ATOM     51  C   UNL A   1      41.147  29.695  29.670  1.00  0.00     0.074 A 
ATOM     52  C   UNL A   1      47.403  29.347  30.645  1.00  0.00     0.029 A 
ATOM     53  N   UNL A   1      45.283  28.904  30.137  1.00  0.00    -0.354 N 
ATOM     54  N   UNL A   1      42.438  29.536  29.831  1.00  0.00    -0.248 NA
ATOM     55  C   UNL A   1      40.647  31.014  30.083  1.00  0.00     0.031 C 
ATOM     56  C   UNL A   1      46.636  30.484  30.922  1.00  0.00     0.029 A 
ATOM     57  C   UNL A   1      45.317  30.212  30.591  1.00  0.00     0.049 A 
ATOM     58  H   UNL A   1      44.474  28.431  29.837  1.00  0.00     0.167 HD
ATOM     59  C   UNL A   1      42.908  30.738  30.339  1.00  0.00     0.074 A 
ATOM     60  C   UNL A   1      41.766  31.622  30.453  1.00  0.00     0.031 C 
ATOM     61  C   UNL A   1      44.173  31.080  30.684  1.00  0.00     0.037 A 
BRANCH  48  62
ATOM     62  C   UNL A   1      48.298  26.548  29.919  1.00  0.00     0.057 A 
ATOM     63  C   UNL A   1      48.719  25.848  31.056  1.00  0.00     0.134 A 
ATOM     64  C   UNL A   1      49.246  26.786  28.916  1.00  0.00     0.134 A 
ATOM     65  F   UNL A   1      47.862  25.602  32.059  1.00  0.00    -0.206 F 
ATOM     66  C   UNL A   1      50.041  25.425  31.204  1.00  0.00     0.040 A 
ATOM     67  C   UNL A   1      50.565  26.348  29.042  1.00  0.00     0.040 A 
ATOM     68  F   UNL A   1      48.905  27.449  27.800  1.00  0.00    -0.206 F 
ATOM     69  C   UNL A   1      50.967  25.671  30.192  1.00  0.00     0.006 A 
ENDBRANCH  48  62
BRANCH  49  70
ATOM     70  C   UNL A   1      38.705  29.106  29.030  1.00  0.00     0.057 A 
ATOM     71  C   UNL A   1      38.174  29.585  27.827  1.00  0.00     0.134 A 
ATOM     72  C   UNL A   1      37.839  29.012  30.126  1.00  0.00     0.134 A 
ATOM     73  F   UNL A   1      38.961  29.713  26.748  1.00  0.00    -0.206 F 
ATOM     74  C   UNL A   1      36.838  29.972  27.718  1.00  0.00     0.040 A 
ATOM     75  C   UNL A   1      36.496  29.378  30.027  1.00  0.00     0.040 A 
ATOM     76  F   UNL A   1      38.287  28.554  31.305  1.00  0.00    -0.206 F 
ATOM     77  C   UNL A   1      35.994  29.865  28.822  1.00  0.00     0.006 A 
ENDBRANCH  49  70
BRANCH  61  78
ATOM     78  C   UNL A   1      44.393  32.474  31.183  1.00  0.00     0.057 A 
ATOM     79  C   UNL A   1      44.352  32.781  32.548  1.00  0.00     0.134 A 
ATOM     80  C   UNL A   1      44.694  33.511  30.292  1.00  0.00     0.134 A 
ATOM     81  F   UNL A   1      44.055  31.833  33.450  1.00  0.00    -0.206 F 
ATOM     82  C   UNL A   1      44.590  34.077  33.010  1.00  0.00     0.040 A 
ATOM     83  C   UNL A   1      44.954  34.806  30.742  1.00  0.00     0.040 A 
ATOM     84  F   UNL A   1      44.754  33.279  28.972  1.00  0.00    -0.206 F 
ATOM     85  C   UNL A   1      44.899  35.091  32.105  1.00  0.00     0.006 A 
ENDBRANCH  61  78
ENDBRANCH  35  36
ENDBRANCH  27  30
ENDBRANCH  25  26
ENDBRANCH  24  25
ENDBRANCH   1  24
TORSDOF 15
ENDMDL
MODEL 2
REMARK VINA RESULT:     -11.7      1.761      2.126
REMARK SMILES COc1ccc([C@H](C(=O)NCCCCNC(=O)c2ccc(-c3c4nc(c(-c5c(F)cccc5F)c5ccc([nH]5)c(-c5c(F)cccc5F)c5nc(c(-c6c(F)cccc6F)c6ccc3[nH]6)C=C5)C=C4)cc2)c2ccc(O)nn2)cc1
REMARK SMILES IDX 12 1 11 2 10 3 8 4 9 5 7 7 6 8 3 9 4 10 80 11 5 12 79 13
REMARK SMILES IDX 2 14 1 15 72 16 73 17 78 18 74 19 77 20 75 21 76 22 13 24
REMARK SMILES IDX 14 25 15 26 16 27 17 29 18 30 19 31 71 32 20 33 70 34 21 35
REMARK SMILES IDX 22 36 23 37 64 38 24 39 69 40 63 41 65 42 25 43 68 44 62 45
REMARK SMILES IDX 61 46 26 48 52 49 35 50 51 51 36 52 39 53 50 54 66 55 37 56
REMARK SMILES IDX 38 57 49 59 67 60 40 61 27 62 28 63 33 64 29 65 30 66 32 67
REMARK SMILES IDX 34 68 31 69 53 70 54 71 59 72 55 73 56 74 58 75 60 76 57 77
REMARK SMILES IDX 41 78 42 79 47 80 43 81 44 82 46 83 48 84 45 85
REMARK H PARENT 10 6 76 23 15 28 65 47 39 58
REMARK Flexibility Score: inf
ROOT
ATOM      1  C   UNL A   1      37.503  21.541  24.628  1.00  0.00     0.023 C 
ENDROOT
BRANCH   1   2
ATOM      2  C   UNL A   1      37.150  22.645  25.624  1.00  0.00     0.116 C 
BRANCH   2   3
ATOM      3  N   UNL A   1      36.027  22.345  26.495  1.00  0.00    -0.355 N 
ATOM      4  C   UNL A   1      34.914  21.570  26.357  1.00  0.00     0.233 C 
ATOM      5  O   UNL A   1      34.305  21.348  27.415  1.00  0.00    -0.274 OA
ATOM      6  H   UNL A   1      36.079  22.798  27.367  1.00  0.00     0.163 HD
BRANCH   4   7
ATOM      7  C   UNL A   1      34.300  21.117  25.019  1.00  0.00     0.159 C 
BRANCH   7   8
ATOM      8  C   UNL A   1      34.006  19.608  24.990  1.00  0.00    -0.029 A 
ATOM      9  C   UNL A   1      33.483  16.839  24.765  1.00  0.00     0.118 A 
ATOM     10  C   UNL A   1      34.740  17.347  24.448  1.00  0.00     0.047 A 
ATOM     11  C   UNL A   1      32.506  17.701  25.260  1.00  0.00     0.047 A 
ATOM     12  C   UNL A   1      35.005  18.714  24.564  1.00  0.00     0.009 A 
ATOM     13  C   UNL A   1      32.762  19.073  25.363  1.00  0.00     0.009 A 
BRANCH   9  14
ATOM     14  O   UNL A   1      33.323  15.494  24.577  1.00  0.00    -0.497 OA
ATOM     15  C   UNL A   1      32.515  14.834  25.546  1.00  0.00     0.278 C 
ENDBRANCH   9  14
ENDBRANCH   7   8
BRANCH   7  16
ATOM     16  C   UNL A   1      33.205  22.017  24.477  1.00  0.00     0.080 A 
ATOM     17  C   UNL A   1      32.585  21.825  23.241  1.00  0.00     0.032 A 
ATOM     18  N   UNL A   1      32.820  23.044  25.278  1.00  0.00    -0.151 NA
ATOM     19  C   UNL A   1      31.530  22.650  22.870  1.00  0.00     0.072 A 
ATOM     20  N   UNL A   1      31.770  23.846  24.923  1.00  0.00    -0.112 NA
ATOM     21  C   UNL A   1      31.154  23.630  23.752  1.00  0.00     0.230 A 
BRANCH  21  22
ATOM     22  O   UNL A   1      30.074  24.410  23.492  1.00  0.00    -0.492 OA
ATOM     23  H   UNL A   1      29.333  24.051  23.045  1.00  0.00     0.295 HD
ENDBRANCH  21  22
ENDBRANCH   7  16
ENDBRANCH   4   7
ENDBRANCH   2   3
ENDBRANCH   1   2
BRANCH   1  24
ATOM     24  C   UNL A   1      38.087  20.272  25.247  1.00  0.00     0.023 C 
BRANCH  24  25
ATOM     25  C   UNL A   1      39.485  20.402  25.841  1.00  0.00     0.116 C 
BRANCH  25  26
ATOM     26  N   UNL A   1      40.296  19.195  25.804  1.00  0.00    -0.352 N 
ATOM     27  C   UNL A   1      41.643  19.100  26.093  1.00  0.00     0.251 C 
ATOM     28  H   UNL A   1      39.838  18.362  25.547  1.00  0.00     0.163 HD
ATOM     29  O   UNL A   1      42.245  18.037  25.998  1.00  0.00    -0.269 OA
BRANCH  27  30
ATOM     30  C   UNL A   1      42.364  20.337  26.462  1.00  0.00     0.039 A 
ATOM     31  C   UNL A   1      43.030  21.054  25.468  1.00  0.00     0.014 A 
ATOM     32  C   UNL A   1      42.251  20.851  27.756  1.00  0.00     0.014 A 
ATOM     33  C   UNL A   1      43.490  22.344  25.744  1.00  0.00     0.010 A 
ATOM     34  C   UNL A   1      42.640  22.162  28.006  1.00  0.00     0.010 A 
ATOM     35  C   UNL A   1      43.242  22.930  26.997  1.00  0.00    -0.014 A 
BRANCH  35  36
ATOM     36  C   UNL A   1      43.567  24.353  27.268  1.00  0.00     0.031 A 
ATOM     37  C   UNL A   1      44.984  24.838  27.159  1.00  0.00     0.074 A 
ATOM     38  C   UNL A   1      42.603  25.185  27.711  1.00  0.00     0.049 A 
ATOM     39  N   UNL A   1      45.485  26.007  27.468  1.00  0.00    -0.248 NA
ATOM     40  C   UNL A   1      45.977  23.866  26.675  1.00  0.00     0.031 C 
ATOM     41  C   UNL A   1      41.199  24.824  27.924  1.00  0.00     0.029 A 
ATOM     42  N   UNL A   1      42.662  26.507  28.078  1.00  0.00    -0.354 N 
ATOM     43  C   UNL A   1      46.850  25.901  27.245  1.00  0.00     0.074 A 
ATOM     44  C   UNL A   1      47.106  24.543  26.815  1.00  0.00     0.031 C 
ATOM     45  C   UNL A   1      40.528  25.902  28.360  1.00  0.00     0.029 A 
ATOM     46  C   UNL A   1      41.456  27.021  28.490  1.00  0.00     0.049 A 
ATOM     47  H   UNL A   1      43.491  27.037  28.049  1.00  0.00     0.167 HD
ATOM     48  C   UNL A   1      47.804  26.854  27.366  1.00  0.00     0.037 A 
ATOM     49  C   UNL A   1      41.135  28.254  28.923  1.00  0.00     0.037 A 
ATOM     50  C   UNL A   1      47.545  28.217  27.745  1.00  0.00     0.049 A 
ATOM     51  C   UNL A   1      42.203  29.308  29.005  1.00  0.00     0.074 A 
ATOM     52  C   UNL A   1      48.433  29.275  27.823  1.00  0.00     0.029 A 
ATOM     53  N   UNL A   1      46.300  28.711  28.103  1.00  0.00    -0.354 N 
ATOM     54  N   UNL A   1      43.481  29.210  28.730  1.00  0.00    -0.248 NA
ATOM     55  C   UNL A   1      41.785  30.644  29.452  1.00  0.00     0.031 C 
ATOM     56  C   UNL A   1      47.729  30.407  28.249  1.00  0.00     0.029 A 
ATOM     57  C   UNL A   1      46.398  30.058  28.409  1.00  0.00     0.049 A 
ATOM     58  H   UNL A   1      45.470  28.183  28.135  1.00  0.00     0.167 HD
ATOM     59  C   UNL A   1      44.014  30.473  28.948  1.00  0.00     0.074 A 
ATOM     60  C   UNL A   1      42.920  31.324  29.369  1.00  0.00     0.031 C 
ATOM     61  C   UNL A   1      45.295  30.891  28.813  1.00  0.00     0.037 A 
BRANCH  48  62
ATOM     62  C   UNL A   1      49.217  26.451  27.069  1.00  0.00     0.057 A 
ATOM     63  C   UNL A   1      50.058  25.936  28.063  1.00  0.00     0.134 A 
ATOM     64  C   UNL A   1      49.738  26.566  25.775  1.00  0.00     0.134 A 
ATOM     65  F   UNL A   1      49.622  25.815  29.327  1.00  0.00    -0.206 F 
ATOM     66  C   UNL A   1      51.378  25.576  27.788  1.00  0.00     0.040 A 
ATOM     67  C   UNL A   1      51.049  26.188  25.481  1.00  0.00     0.040 A 
ATOM     68  F   UNL A   1      48.983  27.049  24.777  1.00  0.00    -0.206 F 
ATOM     69  C   UNL A   1      51.875  25.697  26.491  1.00  0.00     0.006 A 
ENDBRANCH  48  62
BRANCH  49  70
ATOM     70  C   UNL A   1      39.732  28.574  29.283  1.00  0.00     0.057 A 
ATOM     71  C   UNL A   1      38.849  29.091  28.328  1.00  0.00     0.134 A 
ATOM     72  C   UNL A   1      39.243  28.383  30.580  1.00  0.00     0.134 A 
ATOM     73  F   UNL A   1      39.267  29.312  27.073  1.00  0.00    -0.206 F 
ATOM     74  C   UNL A   1      37.532  29.421  28.653  1.00  0.00     0.040 A 
ATOM     75  C   UNL A   1      37.924  28.691  30.914  1.00  0.00     0.040 A 
ATOM     76  F   UNL A   1      40.040  27.885  31.537  1.00  0.00    -0.206 F 
ATOM     77  C   UNL A   1      37.066  29.217  29.950  1.00  0.00     0.006 A 
ENDBRANCH  49  70
BRANCH  61  78
ATOM     78  C   UNL A   1      45.577  32.335  29.091  1.00  0.00     0.057 A 
ATOM     79  C   UNL A   1      45.973  32.775  30.360  1.00  0.00     0.134 A 
ATOM     80  C   UNL A   1      45.496  33.287  28.068  1.00  0.00     0.134 A 
ATOM     81  F   UNL A   1      46.055  31.913  31.384  1.00  0.00    -0.206 F 
ATOM     82  C   UNL A   1      46.265  34.119  30.605  1.00  0.00     0.040 A 
ATOM     83  C   UNL A   1      45.805  34.628  28.295  1.00  0.00     0.040 A 
ATOM     84  F   UNL A   1      45.128  32.926  26.829  1.00  0.00    -0.206 F 
ATOM     85  C   UNL A   1      46.188  35.047  29.568  1.00  0.00     0.006 A 
ENDBRANCH  61  78
ENDBRANCH  35  36
ENDBRANCH  27  30
ENDBRANCH  25  26
ENDBRANCH  24  25
ENDBRANCH   1  24
TORSDOF 15
ENDMDL
MODEL 3
REMARK VINA RESULT:     -11.7      4.710      9.214
REMARK SMILES COc1ccc([C@H](C(=O)NCCCCNC(=O)c2ccc(-c3c4nc(c(-c5c(F)cccc5F)c5ccc([nH]5)c(-c5c(F)cccc5F)c5nc(c(-c6c(F)cccc6F)c6ccc3[nH]6)C=C5)C=C4)cc2)c2ccc(O)nn2)cc1
REMARK SMILES IDX 12 1 11 2 10 3 8 4 9 5 7 7 6 8 3 9 4 10 80 11 5 12 79 13
REMARK SMILES IDX 2 14 1 15 72 16 73 17 78 18 74 19 77 20 75 21 76 22 13 24
REMARK SMILES IDX 14 25 15 26 16 27 17 29 18 30 19 31 71 32 20 33 70 34 21 35
REMARK SMILES IDX 22 36 23 37 64 38 24 39 69 40 63 41 65 42 25 43 68 44 62 45
REMARK SMILES IDX 61 46 26 48 52 49 35 50 51 51 36 52 39 53 50 54 66 55 37 56
REMARK SMILES IDX 38 57 49 59 67 60 40 61 27 62 28 63 33 64 29 65 30 66 32 67
REMARK SMILES IDX 34 68 31 69 53 70 54 71 59 72 55 73 56 74 58 75 60 76 57 77
REMARK SMILES IDX 41 78 42 79 47 80 43 81 44 82 46 83 48 84 45 85
REMARK H PARENT 10 6 76 23 15 28 65 47 39 58
REMARK Flexibility Score: inf
ROOT
ATOM      1  C   UNL A   1      31.775  30.389  26.590  1.00  0.00     0.023 C 
ENDROOT
BRANCH   1   2
ATOM      2  C   UNL A   1      31.529  29.747  25.225  1.00  0.00     0.116 C 
BRANCH   2   3
ATOM      3  N   UNL A   1      32.722  29.555  24.417  1.00  0.00    -0.355 N 
ATOM      4  C   UNL A   1      32.972  28.879  23.261  1.00  0.00     0.233 C 
ATOM      5  O   UNL A   1      34.056  29.156  22.725  1.00  0.00    -0.274 OA
ATOM      6  H   UNL A   1      33.516  30.006  24.783  1.00  0.00     0.163 HD
BRANCH   4   7
ATOM      7  C   UNL A   1      32.120  27.727  22.696  1.00  0.00     0.159 C 
BRANCH   7   8
ATOM      8  C   UNL A   1      32.602  26.349  23.177  1.00  0.00    -0.029 A 
ATOM      9  C   UNL A   1      33.648  23.880  24.070  1.00  0.00     0.118 A 
ATOM     10  C   UNL A   1      33.648  24.990  24.911  1.00  0.00     0.047 A 
ATOM     11  C   UNL A   1      33.065  23.980  22.809  1.00  0.00     0.047 A 
ATOM     12  C   UNL A   1      33.125  26.211  24.475  1.00  0.00     0.009 A 
ATOM     13  C   UNL A   1      32.555  25.204  22.363  1.00  0.00     0.009 A 
BRANCH   9  14
ATOM     14  O   UNL A   1      34.219  22.749  24.585  1.00  0.00    -0.497 OA
ATOM     15  C   UNL A   1      33.465  21.553  24.417  1.00  0.00     0.278 C 
ENDBRANCH   9  14
ENDBRANCH   7   8
BRANCH   7  16
ATOM     16  C   UNL A   1      30.620  27.957  22.738  1.00  0.00     0.080 A 
ATOM     17  C   UNL A   1      29.734  27.162  23.468  1.00  0.00     0.032 A 
ATOM     18  N   UNL A   1      30.154  29.016  22.027  1.00  0.00    -0.151 NA
ATOM     19  C   UNL A   1      28.388  27.504  23.515  1.00  0.00     0.072 A 
ATOM     20  N   UNL A   1      28.833  29.366  22.087  1.00  0.00    -0.112 NA
ATOM     21  C   UNL A   1      27.996  28.621  22.823  1.00  0.00     0.230 A 
BRANCH  21  22
ATOM     22  O   UNL A   1      26.715  29.062  22.902  1.00  0.00    -0.492 OA
ATOM     23  H   UNL A   1      26.534  29.981  22.889  1.00  0.00     0.295 HD
ENDBRANCH  21  22
ENDBRANCH   7  16
ENDBRANCH   4   7
ENDBRANCH   2   3
ENDBRANCH   1   2
BRANCH   1  24
ATOM     24  C   UNL A   1      31.280  31.828  26.727  1.00  0.00     0.023 C 
BRANCH  24  25
ATOM     25  C   UNL A   1      32.336  32.916  26.575  1.00  0.00     0.116 C 
BRANCH  25  26
ATOM     26  N   UNL A   1      32.204  34.049  27.477  1.00  0.00    -0.352 N 
ATOM     27  C   UNL A   1      33.076  34.403  28.487  1.00  0.00     0.251 C 
ATOM     28  H   UNL A   1      31.412  34.622  27.354  1.00  0.00     0.163 HD
ATOM     29  O   UNL A   1      32.855  35.361  29.217  1.00  0.00    -0.269 OA
BRANCH  27  30
ATOM     30  C   UNL A   1      34.264  33.551  28.709  1.00  0.00     0.039 A 
ATOM     31  C   UNL A   1      35.531  34.136  28.686  1.00  0.00     0.014 A 
ATOM     32  C   UNL A   1      34.105  32.214  29.081  1.00  0.00     0.014 A 
ATOM     33  C   UNL A   1      36.631  33.408  29.146  1.00  0.00     0.010 A 
ATOM     34  C   UNL A   1      35.186  31.519  29.610  1.00  0.00     0.010 A 
ATOM     35  C   UNL A   1      36.455  32.117  29.669  1.00  0.00    -0.014 A 
BRANCH  35  36
ATOM     36  C   UNL A   1      37.571  31.382  30.319  1.00  0.00     0.031 A 
ATOM     37  C   UNL A   1      37.922  31.659  31.752  1.00  0.00     0.074 A 
ATOM     38  C   UNL A   1      38.331  30.541  29.589  1.00  0.00     0.049 A 
ATOM     39  N   UNL A   1      38.929  31.212  32.458  1.00  0.00    -0.248 NA
ATOM     40  C   UNL A   1      37.047  32.594  32.476  1.00  0.00     0.031 C 
ATOM     41  C   UNL A   1      38.138  30.234  28.169  1.00  0.00     0.029 A 
ATOM     42  N   UNL A   1      39.433  29.801  29.940  1.00  0.00    -0.354 N 
ATOM     43  C   UNL A   1      38.825  31.832  33.695  1.00  0.00     0.074 A 
ATOM     44  C   UNL A   1      37.683  32.718  33.631  1.00  0.00     0.031 C 
ATOM     45  C   UNL A   1      39.073  29.353  27.778  1.00  0.00     0.029 A 
ATOM     46  C   UNL A   1      39.950  29.057  28.906  1.00  0.00     0.049 A 
ATOM     47  H   UNL A   1      39.816  29.802  30.846  1.00  0.00     0.167 HD
ATOM     48  C   UNL A   1      39.598  31.663  34.794  1.00  0.00     0.037 A 
ATOM     49  C   UNL A   1      41.012  28.231  28.871  1.00  0.00     0.037 A 
ATOM     50  C   UNL A   1      40.703  30.747  34.876  1.00  0.00     0.049 A 
ATOM     51  C   UNL A   1      41.827  28.025  30.118  1.00  0.00     0.074 A 
ATOM     52  C   UNL A   1      41.498  30.449  35.968  1.00  0.00     0.029 A 
ATOM     53  N   UNL A   1      41.162  29.971  33.822  1.00  0.00    -0.354 N 
ATOM     54  N   UNL A   1      41.679  28.572  31.300  1.00  0.00    -0.248 NA
ATOM     55  C   UNL A   1      42.953  27.085  30.027  1.00  0.00     0.031 C 
ATOM     56  C   UNL A   1      42.455  29.508  35.569  1.00  0.00     0.029 A 
ATOM     57  C   UNL A   1      42.235  29.201  34.236  1.00  0.00     0.049 A 
ATOM     58  H   UNL A   1      40.781  29.970  32.914  1.00  0.00     0.167 HD
ATOM     59  C   UNL A   1      42.674  28.026  32.098  1.00  0.00     0.074 A 
ATOM     60  C   UNL A   1      43.416  27.098  31.269  1.00  0.00     0.031 C 
ATOM     61  C   UNL A   1      42.951  28.273  33.400  1.00  0.00     0.037 A 
BRANCH  48  62
ATOM     62  C   UNL A   1      39.259  32.484  36.002  1.00  0.00     0.057 A 
ATOM     63  C   UNL A   1      39.814  33.753  36.208  1.00  0.00     0.134 A 
ATOM     64  C   UNL A   1      38.359  32.007  36.963  1.00  0.00     0.134 A 
ATOM     65  F   UNL A   1      40.695  34.259  35.331  1.00  0.00    -0.206 F 
ATOM     66  C   UNL A   1      39.509  34.508  37.340  1.00  0.00     0.040 A 
ATOM     67  C   UNL A   1      38.027  32.763  38.088  1.00  0.00     0.040 A 
ATOM     68  F   UNL A   1      37.789  30.801  36.823  1.00  0.00    -0.206 F 
ATOM     69  C   UNL A   1      38.608  34.015  38.283  1.00  0.00     0.006 A 
ENDBRANCH  48  62
BRANCH  49  70
ATOM     70  C   UNL A   1      41.351  27.506  27.623  1.00  0.00     0.057 A 
ATOM     71  C   UNL A   1      40.859  26.217  27.387  1.00  0.00     0.134 A 
ATOM     72  C   UNL A   1      42.174  28.074  26.643  1.00  0.00     0.134 A 
ATOM     73  F   UNL A   1      40.080  25.616  28.298  1.00  0.00    -0.206 F 
ATOM     74  C   UNL A   1      41.185  25.510  26.229  1.00  0.00     0.040 A 
ATOM     75  C   UNL A   1      42.494  27.385  25.472  1.00  0.00     0.040 A 
ATOM     76  F   UNL A   1      42.671  29.309  26.809  1.00  0.00    -0.206 F 
ATOM     77  C   UNL A   1      42.003  26.097  25.266  1.00  0.00     0.006 A 
ENDBRANCH  49  70
BRANCH  61  78
ATOM     78  C   UNL A   1      44.081  27.506  34.017  1.00  0.00     0.057 A 
ATOM     79  C   UNL A   1      45.385  28.012  34.039  1.00  0.00     0.134 A 
ATOM     80  C   UNL A   1      43.849  26.271  34.635  1.00  0.00     0.134 A 
ATOM     81  F   UNL A   1      45.672  29.183  33.452  1.00  0.00    -0.206 F 
ATOM     82  C   UNL A   1      46.428  27.307  34.645  1.00  0.00     0.040 A 
ATOM     83  C   UNL A   1      44.879  25.567  35.260  1.00  0.00     0.040 A 
ATOM     84  F   UNL A   1      42.619  25.737  34.652  1.00  0.00    -0.206 F 
ATOM     85  C   UNL A   1      46.173  26.083  35.263  1.00  0.00     0.006 A 
ENDBRANCH  61  78
ENDBRANCH  35  36
ENDBRANCH  27  30
ENDBRANCH  25  26
ENDBRANCH  24  25
ENDBRANCH   1  24
TORSDOF 15
ENDMDL
