MODEL 1
REMARK VINA RESULT:     -12.9      0.000      0.000
REMARK SMILES C[C@@H](S[C@H]1CC(=O)N(c2ccc3ccccc3c2)C1=O)C(=O)NCCCCNC(=O)c1ccc(-c2c3nc(c(-c4c(F)cccc4F)c4ccc([nH]4)c(-c4c(F)cccc4F)c4nc(c(-c5c(F)cccc5F)c5ccc2[nH]5)C=C4)C=C3)cc1
REMARK SMILES IDX 25 1 24 2 23 3 21 4 22 5 2 7 1 8 3 9 4 10 5 11 19 12 6 13
REMARK SMILES IDX 8 14 20 15 7 16 9 17 10 18 18 19 11 20 17 21 12 22 16 23
REMARK SMILES IDX 13 24 15 25 14 26 26 27 27 28 28 29 29 30 30 32 31 33 32 34
REMARK SMILES IDX 84 35 33 36 83 37 34 38 35 39 36 40 77 41 37 42 82 43 76 44
REMARK SMILES IDX 78 45 38 46 81 47 75 48 74 49 39 51 65 52 48 53 64 54 49 55
REMARK SMILES IDX 52 56 63 57 79 58 50 59 51 60 62 62 80 63 53 64 40 65 41 66
REMARK SMILES IDX 46 67 42 68 43 69 45 70 47 71 44 72 66 73 67 74 72 75 68 76
REMARK SMILES IDX 69 77 71 78 73 79 70 80 54 81 55 82 60 83 56 84 57 85 59 86
REMARK SMILES IDX 61 87 58 88
REMARK H PARENT 23 6 28 31 78 50 52 61
REMARK Flexibility Score: inf
ROOT
ATOM      1  C   UNL A   1      31.814  30.251  26.879  1.00  0.00     0.023 C 
ENDROOT
BRANCH   1   2
ATOM      2  C   UNL A   1      32.688  29.835  25.714  1.00  0.00     0.116 C 
BRANCH   2   3
ATOM      3  N   UNL A   1      32.041  29.811  24.431  1.00  0.00    -0.355 N 
ATOM      4  C   UNL A   1      31.511  28.707  23.821  1.00  0.00     0.232 C 
ATOM      5  O   UNL A   1      30.815  28.890  22.818  1.00  0.00    -0.274 OA
ATOM      6  H   UNL A   1      31.974  30.666  23.946  1.00  0.00     0.163 HD
BRANCH   4   7
ATOM      7  C   UNL A   1      31.842  27.270  24.308  1.00  0.00     0.133 C 
ATOM      8  C   UNL A   1      30.600  26.523  24.760  1.00  0.00     0.030 C 
BRANCH   7   9
ATOM      9  S   UNL A   1      33.137  26.464  23.245  1.00  0.00    -0.135 SA
BRANCH   9  10
ATOM     10  C   UNL A   1      34.190  25.307  24.230  1.00  0.00     0.147 C 
ATOM     11  C   UNL A   1      33.979  25.159  25.710  1.00  0.00     0.125 C 
ATOM     12  C   UNL A   1      34.249  23.893  23.714  1.00  0.00     0.247 C 
ATOM     13  C   UNL A   1      33.684  23.694  25.895  1.00  0.00     0.235 C 
ATOM     14  N   UNL A   1      33.809  23.029  24.698  1.00  0.00    -0.250 N 
ATOM     15  O   UNL A   1      34.604  23.641  22.578  1.00  0.00    -0.273 OA
ATOM     16  O   UNL A   1      33.424  23.232  26.999  1.00  0.00    -0.274 OA
BRANCH  14  17
ATOM     17  C   UNL A   1      33.430  21.654  24.477  1.00  0.00     0.052 A 
ATOM     18  C   UNL A   1      32.343  21.329  23.659  1.00  0.00     0.027 A 
ATOM     19  C   UNL A   1      34.198  20.573  24.934  1.00  0.00     0.035 A 
ATOM     20  C   UNL A   1      32.122  20.012  23.214  1.00  0.00     0.011 A 
ATOM     21  C   UNL A   1      34.036  19.248  24.449  1.00  0.00    -0.016 A 
ATOM     22  C   UNL A   1      32.994  18.970  23.554  1.00  0.00    -0.018 A 
ATOM     23  C   UNL A   1      34.930  18.208  24.767  1.00  0.00     0.009 A 
ATOM     24  C   UNL A   1      32.877  17.677  23.002  1.00  0.00     0.009 A 
ATOM     25  C   UNL A   1      34.835  16.940  24.190  1.00  0.00     0.001 A 
ATOM     26  C   UNL A   1      33.803  16.674  23.304  1.00  0.00     0.001 A 
ENDBRANCH  14  17
ENDBRANCH   9  10
ENDBRANCH   7   9
ENDBRANCH   4   7
ENDBRANCH   2   3
ENDBRANCH   1   2
BRANCH   1  27
ATOM     27  C   UNL A   1      31.323  31.699  26.906  1.00  0.00     0.023 C 
BRANCH  27  28
ATOM     28  C   UNL A   1      32.270  32.860  26.575  1.00  0.00     0.116 C 
BRANCH  28  29
ATOM     29  N   UNL A   1      32.287  34.016  27.471  1.00  0.00    -0.352 N 
ATOM     30  C   UNL A   1      33.152  34.449  28.456  1.00  0.00     0.251 C 
ATOM     31  H   UNL A   1      31.516  34.615  27.344  1.00  0.00     0.163 HD
ATOM     32  O   UNL A   1      32.937  35.469  29.103  1.00  0.00    -0.269 OA
BRANCH  30  33
ATOM     33  C   UNL A   1      34.321  33.628  28.793  1.00  0.00     0.039 A 
ATOM     34  C   UNL A   1      35.608  34.184  28.820  1.00  0.00     0.014 A 
ATOM     35  C   UNL A   1      34.099  32.314  29.171  1.00  0.00     0.014 A 
ATOM     36  C   UNL A   1      36.656  33.447  29.368  1.00  0.00     0.010 A 
ATOM     37  C   UNL A   1      35.098  31.641  29.834  1.00  0.00     0.010 A 
ATOM     38  C   UNL A   1      36.387  32.189  29.920  1.00  0.00    -0.014 A 
BRANCH  38  39
ATOM     39  C   UNL A   1      37.417  31.320  30.519  1.00  0.00     0.031 A 
ATOM     40  C   UNL A   1      37.761  31.558  31.961  1.00  0.00     0.074 A 
ATOM     41  C   UNL A   1      38.148  30.501  29.744  1.00  0.00     0.049 A 
ATOM     42  N   UNL A   1      38.814  31.184  32.635  1.00  0.00    -0.248 NA
ATOM     43  C   UNL A   1      36.826  32.411  32.721  1.00  0.00     0.031 C 
ATOM     44  C   UNL A   1      37.925  30.245  28.320  1.00  0.00     0.029 A 
ATOM     45  N   UNL A   1      39.264  29.766  30.046  1.00  0.00    -0.354 N 
ATOM     46  C   UNL A   1      38.686  31.790  33.877  1.00  0.00     0.074 A 
ATOM     47  C   UNL A   1      37.506  32.622  33.835  1.00  0.00     0.031 C 
ATOM     48  C   UNL A   1      38.878  29.411  27.871  1.00  0.00     0.029 A 
ATOM     49  C   UNL A   1      39.800  29.114  28.963  1.00  0.00     0.049 A 
ATOM     50  H   UNL A   1      39.646  29.712  30.951  1.00  0.00     0.167 HD
ATOM     51  C   UNL A   1      39.469  31.639  34.968  1.00  0.00     0.037 A 
ATOM     52  C   UNL A   1      40.922  28.377  28.871  1.00  0.00     0.037 A 
ATOM     53  C   UNL A   1      40.613  30.771  34.997  1.00  0.00     0.049 A 
ATOM     54  C   UNL A   1      41.768  28.200  30.104  1.00  0.00     0.074 A 
ATOM     55  C   UNL A   1      41.443  30.471  36.059  1.00  0.00     0.029 A 
ATOM     56  N   UNL A   1      41.080  30.056  33.903  1.00  0.00    -0.354 N 
ATOM     57  N   UNL A   1      41.610  28.722  31.298  1.00  0.00    -0.248 NA
ATOM     58  C   UNL A   1      42.943  27.327  29.980  1.00  0.00     0.031 C 
ATOM     59  C   UNL A   1      42.439  29.605  35.597  1.00  0.00     0.029 A 
ATOM     60  C   UNL A   1      42.195  29.323  34.260  1.00  0.00     0.049 A 
ATOM     61  H   UNL A   1      40.676  30.069  33.004  1.00  0.00     0.167 HD
ATOM     62  C   UNL A   1      42.641  28.213  32.077  1.00  0.00     0.074 A 
ATOM     63  C   UNL A   1      43.411  27.333  31.220  1.00  0.00     0.031 C 
ATOM     64  C   UNL A   1      42.928  28.446  33.382  1.00  0.00     0.037 A 
BRANCH  51  65
ATOM     65  C   UNL A   1      39.093  32.406  36.202  1.00  0.00     0.057 A 
ATOM     66  C   UNL A   1      38.232  31.870  37.171  1.00  0.00     0.134 A 
ATOM     67  C   UNL A   1      39.594  33.693  36.428  1.00  0.00     0.134 A 
ATOM     68  F   UNL A   1      37.698  30.650  37.009  1.00  0.00    -0.206 F 
ATOM     69  C   UNL A   1      37.856  32.600  38.300  1.00  0.00     0.040 A 
ATOM     70  C   UNL A   1      39.253  34.419  37.570  1.00  0.00     0.040 A 
ATOM     71  F   UNL A   1      40.421  34.269  35.542  1.00  0.00    -0.206 F 
ATOM     72  C   UNL A   1      38.374  33.876  38.506  1.00  0.00     0.006 A 
ENDBRANCH  51  65
BRANCH  52  73
ATOM     73  C   UNL A   1      41.286  27.724  27.588  1.00  0.00     0.057 A 
ATOM     74  C   UNL A   1      40.882  26.412  27.313  1.00  0.00     0.134 A 
ATOM     75  C   UNL A   1      42.036  28.384  26.607  1.00  0.00     0.134 A 
ATOM     76  F   UNL A   1      40.172  25.723  28.218  1.00  0.00    -0.206 F 
ATOM     77  C   UNL A   1      41.230  25.770  26.123  1.00  0.00     0.040 A 
ATOM     78  C   UNL A   1      42.370  27.764  25.401  1.00  0.00     0.040 A 
ATOM     79  F   UNL A   1      42.443  29.648  26.801  1.00  0.00    -0.206 F 
ATOM     80  C   UNL A   1      41.973  26.450  25.160  1.00  0.00     0.006 A 
ENDBRANCH  52  73
BRANCH  64  81
ATOM     81  C   UNL A   1      44.092  27.702  33.969  1.00  0.00     0.057 A 
ATOM     82  C   UNL A   1      45.382  28.243  33.990  1.00  0.00     0.134 A 
ATOM     83  C   UNL A   1      43.901  26.451  34.568  1.00  0.00     0.134 A 
ATOM     84  F   UNL A   1      45.631  29.434  33.425  1.00  0.00    -0.206 F 
ATOM     85  C   UNL A   1      46.450  27.553  34.565  1.00  0.00     0.040 A 
ATOM     86  C   UNL A   1      44.953  25.766  35.174  1.00  0.00     0.040 A 
ATOM     87  F   UNL A   1      42.685  25.884  34.592  1.00  0.00    -0.206 F 
ATOM     88  C   UNL A   1      46.234  26.314  35.168  1.00  0.00     0.006 A 
ENDBRANCH  64  81
ENDBRANCH  38  39
ENDBRANCH  30  33
ENDBRANCH  28  29
ENDBRANCH  27  28
ENDBRANCH   1  27
TORSDOF 14
ENDMDL
MODEL 2
REMARK VINA RESULT:     -12.8      2.815      8.232
REMARK SMILES C[C@@H](S[C@H]1CC(=O)N(c2ccc3ccccc3c2)C1=O)C(=O)NCCCCNC(=O)c1ccc(-c2c3nc(c(-c4c(F)cccc4F)c4ccc([nH]4)c(-c4c(F)cccc4F)c4nc(c(-c5c(F)cccc5F)c5ccc2[nH]5)C=C4)C=C3)cc1
REMARK SMILES IDX 25 1 24 2 23 3 21 4 22 5 2 7 1 8 3 9 4 10 5 11 19 12 6 13
REMARK SMILES IDX 8 14 20 15 7 16 9 17 10 18 18 19 11 20 17 21 12 22 16 23
REMARK SMILES IDX 13 24 15 25 14 26 26 27 27 28 28 29 29 30 30 32 31 33 32 34
REMARK SMILES IDX 84 35 33 36 83 37 34 38 35 39 36 40 77 41 37 42 82 43 76 44
REMARK SMILES IDX 78 45 38 46 81 47 75 48 74 49 39 51 65 52 48 53 64 54 49 55
REMARK SMILES IDX 52 56 63 57 79 58 50 59 51 60 62 62 80 63 53 64 40 65 41 66
REMARK SMILES IDX 46 67 42 68 43 69 45 70 47 71 44 72 66 73 67 74 72 75 68 76
REMARK SMILES IDX 69 77 71 78 73 79 70 80 54 81 55 82 60 83 56 84 57 85 59 86
REMARK SMILES IDX 61 87 58 88
REMARK H PARENT 23 6 28 31 78 50 52 61
REMARK Flexibility Score: inf
ROOT
ATOM      1  C   UNL A   1      39.007  23.560  26.480  1.00  0.00     0.023 C 
ENDROOT
BRANCH   1   2
ATOM      2  C   UNL A   1      37.589  23.735  25.975  1.00  0.00     0.116 C 
BRANCH   2   3
ATOM      3  N   UNL A   1      37.416  23.606  24.554  1.00  0.00    -0.355 N 
ATOM      4  C   UNL A   1      36.553  22.748  23.926  1.00  0.00     0.232 C 
ATOM      5  O   UNL A   1      36.380  22.903  22.713  1.00  0.00    -0.274 OA
ATOM      6  H   UNL A   1      37.968  24.186  23.981  1.00  0.00     0.163 HD
BRANCH   4   7
ATOM      7  C   UNL A   1      35.887  21.566  24.682  1.00  0.00     0.133 C 
ATOM      8  C   UNL A   1      36.836  20.392  24.848  1.00  0.00     0.030 C 
BRANCH   7   9
ATOM      9  S   UNL A   1      34.810  22.160  26.076  1.00  0.00    -0.135 SA
BRANCH   9  10
ATOM     10  C   UNL A   1      33.044  22.293  25.550  1.00  0.00     0.147 C 
ATOM     11  C   UNL A   1      31.935  22.045  26.532  1.00  0.00     0.125 C 
ATOM     12  C   UNL A   1      32.668  23.588  24.877  1.00  0.00     0.247 C 
ATOM     13  C   UNL A   1      31.146  23.328  26.530  1.00  0.00     0.235 C 
ATOM     14  N   UNL A   1      31.649  24.194  25.588  1.00  0.00    -0.250 N 
ATOM     15  O   UNL A   1      33.251  23.986  23.886  1.00  0.00    -0.273 OA
ATOM     16  O   UNL A   1      30.176  23.480  27.262  1.00  0.00    -0.274 OA
BRANCH  14  17
ATOM     17  C   UNL A   1      31.248  25.571  25.438  1.00  0.00     0.052 A 
ATOM     18  C   UNL A   1      32.002  26.607  25.997  1.00  0.00     0.027 A 
ATOM     19  C   UNL A   1      30.183  25.964  24.614  1.00  0.00     0.035 A 
ATOM     20  C   UNL A   1      31.788  27.952  25.641  1.00  0.00     0.011 A 
ATOM     21  C   UNL A   1      29.986  27.306  24.189  1.00  0.00    -0.016 A 
ATOM     22  C   UNL A   1      30.820  28.312  24.694  1.00  0.00    -0.018 A 
ATOM     23  C   UNL A   1      29.034  27.662  23.215  1.00  0.00     0.009 A 
ATOM     24  C   UNL A   1      30.687  29.632  24.214  1.00  0.00     0.009 A 
ATOM     25  C   UNL A   1      28.931  28.961  22.714  1.00  0.00     0.001 A 
ATOM     26  C   UNL A   1      29.761  29.950  23.217  1.00  0.00     0.001 A 
ENDBRANCH  14  17
ENDBRANCH   9  10
ENDBRANCH   7   9
ENDBRANCH   4   7
ENDBRANCH   2   3
ENDBRANCH   1   2
BRANCH   1  27
ATOM     27  C   UNL A   1      39.649  22.184  26.304  1.00  0.00     0.023 C 
BRANCH  27  28
ATOM     28  C   UNL A   1      41.146  21.972  26.563  1.00  0.00     0.116 C 
BRANCH  28  29
ATOM     29  N   UNL A   1      42.095  22.420  25.544  1.00  0.00    -0.352 N 
ATOM     30  C   UNL A   1      42.902  23.532  25.412  1.00  0.00     0.251 C 
ATOM     31  H   UNL A   1      42.176  21.792  24.789  1.00  0.00     0.163 HD
ATOM     32  O   UNL A   1      43.618  23.699  24.429  1.00  0.00    -0.269 OA
BRANCH  30  33
ATOM     33  C   UNL A   1      42.848  24.580  26.437  1.00  0.00     0.039 A 
ATOM     34  C   UNL A   1      43.308  25.877  26.166  1.00  0.00     0.014 A 
ATOM     35  C   UNL A   1      42.244  24.271  27.644  1.00  0.00     0.014 A 
ATOM     36  C   UNL A   1      43.028  26.900  27.069  1.00  0.00     0.010 A 
ATOM     37  C   UNL A   1      41.849  25.299  28.467  1.00  0.00     0.010 A 
ATOM     38  C   UNL A   1      42.254  26.617  28.201  1.00  0.00    -0.014 A 
BRANCH  38  39
ATOM     39  C   UNL A   1      41.903  27.617  29.225  1.00  0.00     0.031 A 
ATOM     40  C   UNL A   1      42.618  27.532  30.542  1.00  0.00     0.074 A 
ATOM     41  C   UNL A   1      40.846  28.429  29.046  1.00  0.00     0.049 A 
ATOM     42  N   UNL A   1      42.296  28.051  31.696  1.00  0.00    -0.248 NA
ATOM     43  C   UNL A   1      43.815  26.669  30.578  1.00  0.00     0.031 C 
ATOM     44  C   UNL A   1      40.053  28.544  27.820  1.00  0.00     0.029 A 
ATOM     45  N   UNL A   1      40.229  29.279  29.925  1.00  0.00    -0.354 N 
ATOM     46  C   UNL A   1      43.223  27.542  32.596  1.00  0.00     0.074 A 
ATOM     47  C   UNL A   1      44.062  26.612  31.876  1.00  0.00     0.031 C 
ATOM     48  C   UNL A   1      39.053  29.416  28.027  1.00  0.00     0.029 A 
ATOM     49  C   UNL A   1      39.108  29.882  29.409  1.00  0.00     0.049 A 
ATOM     50  H   UNL A   1      40.557  29.441  30.839  1.00  0.00     0.167 HD
ATOM     51  C   UNL A   1      43.380  27.851  33.901  1.00  0.00     0.037 A 
ATOM     52  C   UNL A   1      38.222  30.702  30.003  1.00  0.00     0.037 A 
ATOM     53  C   UNL A   1      42.560  28.813  34.583  1.00  0.00     0.049 A 
ATOM     54  C   UNL A   1      38.428  31.053  31.453  1.00  0.00     0.074 A 
ATOM     55  C   UNL A   1      42.663  29.272  35.882  1.00  0.00     0.029 A 
ATOM     56  N   UNL A   1      41.482  29.471  34.005  1.00  0.00    -0.354 N 
ATOM     57  N   UNL A   1      39.346  30.622  32.286  1.00  0.00    -0.248 NA
ATOM     58  C   UNL A   1      37.483  32.010  32.042  1.00  0.00     0.031 C 
ATOM     59  C   UNL A   1      41.622  30.178  36.103  1.00  0.00     0.029 A 
ATOM     60  C   UNL A   1      40.904  30.325  34.925  1.00  0.00     0.049 A 
ATOM     61  H   UNL A   1      41.176  29.348  33.077  1.00  0.00     0.167 HD
ATOM     62  C   UNL A   1      39.112  31.281  33.486  1.00  0.00     0.074 A 
ATOM     63  C   UNL A   1      37.971  32.149  33.266  1.00  0.00     0.031 C 
ATOM     64  C   UNL A   1      39.776  31.185  34.664  1.00  0.00     0.037 A 
BRANCH  51  65
ATOM     65  C   UNL A   1      44.484  27.161  34.648  1.00  0.00     0.057 A 
ATOM     66  C   UNL A   1      45.781  27.691  34.705  1.00  0.00     0.134 A 
ATOM     67  C   UNL A   1      44.252  25.956  35.319  1.00  0.00     0.134 A 
ATOM     68  F   UNL A   1      46.080  28.833  34.066  1.00  0.00    -0.206 F 
ATOM     69  C   UNL A   1      46.815  27.028  35.370  1.00  0.00     0.040 A 
ATOM     70  C   UNL A   1      45.268  25.302  36.019  1.00  0.00     0.040 A 
ATOM     71  F   UNL A   1      43.035  25.390  35.307  1.00  0.00    -0.206 F 
ATOM     72  C   UNL A   1      46.556  25.834  36.037  1.00  0.00     0.006 A 
ENDBRANCH  51  65
BRANCH  52  73
ATOM     73  C   UNL A   1      37.093  31.273  29.226  1.00  0.00     0.057 A 
ATOM     74  C   UNL A   1      35.945  30.514  28.968  1.00  0.00     0.134 A 
ATOM     75  C   UNL A   1      37.125  32.580  28.725  1.00  0.00     0.134 A 
ATOM     76  F   UNL A   1      35.861  29.250  29.409  1.00  0.00    -0.206 F 
ATOM     77  C   UNL A   1      34.881  31.022  28.221  1.00  0.00     0.040 A 
ATOM     78  C   UNL A   1      36.056  33.111  27.999  1.00  0.00     0.040 A 
ATOM     79  F   UNL A   1      38.188  33.366  28.949  1.00  0.00    -0.206 F 
ATOM     80  C   UNL A   1      34.933  32.328  27.738  1.00  0.00     0.006 A 
ENDBRANCH  52  73
BRANCH  64  81
ATOM     81  C   UNL A   1      39.317  32.072  35.784  1.00  0.00     0.057 A 
ATOM     82  C   UNL A   1      39.799  33.376  35.940  1.00  0.00     0.134 A 
ATOM     83  C   UNL A   1      38.340  31.627  36.683  1.00  0.00     0.134 A 
ATOM     84  F   UNL A   1      40.742  33.858  35.117  1.00  0.00    -0.206 F 
ATOM     85  C   UNL A   1      39.342  34.201  36.969  1.00  0.00     0.040 A 
ATOM     86  C   UNL A   1      37.853  32.452  37.696  1.00  0.00     0.040 A 
ATOM     87  F   UNL A   1      37.829  30.390  36.579  1.00  0.00    -0.206 F 
ATOM     88  C   UNL A   1      38.360  33.741  37.845  1.00  0.00     0.006 A 
ENDBRANCH  64  81
ENDBRANCH  38  39
ENDBRANCH  30  33
ENDBRANCH  28  29
ENDBRANCH  27  28
ENDBRANCH   1  27
TORSDOF 14
ENDMDL
MODEL 3
REMARK VINA RESULT:     -12.8      4.525      9.467
REMARK SMILES C[C@@H](S[C@H]1CC(=O)N(c2ccc3ccccc3c2)C1=O)C(=O)NCCCCNC(=O)c1ccc(-c2c3nc(c(-c4c(F)cccc4F)c4ccc([nH]4)c(-c4c(F)cccc4F)c4nc(c(-c5c(F)cccc5F)c5ccc2[nH]5)C=C4)C=C3)cc1
REMARK SMILES IDX 25 1 24 2 23 3 21 4 22 5 2 7 1 8 3 9 4 10 5 11 19 12 6 13
REMARK SMILES IDX 8 14 20 15 7 16 9 17 10 18 18 19 11 20 17 21 12 22 16 23
REMARK SMILES IDX 13 24 15 25 14 26 26 27 27 28 28 29 29 30 30 32 31 33 32 34
REMARK SMILES IDX 84 35 33 36 83 37 34 38 35 39 36 40 77 41 37 42 82 43 76 44
REMARK SMILES IDX 78 45 38 46 81 47 75 48 74 49 39 51 65 52 48 53 64 54 49 55
REMARK SMILES IDX 52 56 63 57 79 58 50 59 51 60 62 62 80 63 53 64 40 65 41 66
REMARK SMILES IDX 46 67 42 68 43 69 45 70 47 71 44 72 66 73 67 74 72 75 68 76
REMARK SMILES IDX 69 77 71 78 73 79 70 80 54 81 55 82 60 83 56 84 57 85 59 86
REMARK SMILES IDX 61 87 58 88
REMARK H PARENT 23 6 28 31 78 50 52 61
REMARK Flexibility Score: inf
ROOT
ATOM      1  C   UNL A   1      36.907  21.850  24.345  1.00  0.00     0.023 C 
ENDROOT
BRANCH   1   2
ATOM      2  C   UNL A   1      36.456  22.931  25.306  1.00  0.00     0.116 C 
BRANCH   2   3
ATOM      3  N   UNL A   1      35.857  22.466  26.526  1.00  0.00    -0.355 N 
ATOM      4  C   UNL A   1      34.580  21.992  26.663  1.00  0.00     0.232 C 
ATOM      5  O   UNL A   1      34.288  21.445  27.731  1.00  0.00    -0.274 OA
ATOM      6  H   UNL A   1      36.415  22.491  27.337  1.00  0.00     0.163 HD
BRANCH   4   7
ATOM      7  C   UNL A   1      33.508  22.212  25.561  1.00  0.00     0.133 C 
ATOM      8  C   UNL A   1      33.251  20.948  24.759  1.00  0.00     0.030 C 
BRANCH   7   9
ATOM      9  S   UNL A   1      32.118  23.291  26.159  1.00  0.00    -0.135 SA
BRANCH   9  10
ATOM     10  C   UNL A   1      32.625  25.068  26.218  1.00  0.00     0.147 C 
ATOM     11  C   UNL A   1      33.777  25.559  25.389  1.00  0.00     0.125 C 
ATOM     12  C   UNL A   1      31.523  26.061  25.959  1.00  0.00     0.247 C 
ATOM     13  C   UNL A   1      33.177  26.640  24.529  1.00  0.00     0.235 C 
ATOM     14  N   UNL A   1      31.863  26.848  24.874  1.00  0.00    -0.250 N 
ATOM     15  O   UNL A   1      30.504  26.074  26.623  1.00  0.00    -0.273 OA
ATOM     16  O   UNL A   1      33.848  27.235  23.695  1.00  0.00    -0.274 OA
BRANCH  14  17
ATOM     17  C   UNL A   1      30.941  27.683  24.143  1.00  0.00     0.052 A 
ATOM     18  C   UNL A   1      29.881  27.125  23.421  1.00  0.00     0.027 A 
ATOM     19  C   UNL A   1      30.957  29.083  24.226  1.00  0.00     0.035 A 
ATOM     20  C   UNL A   1      28.825  27.917  22.931  1.00  0.00     0.011 A 
ATOM     21  C   UNL A   1      29.874  29.897  23.798  1.00  0.00    -0.016 A 
ATOM     22  C   UNL A   1      28.779  29.298  23.161  1.00  0.00    -0.018 A 
ATOM     23  C   UNL A   1      29.814  31.279  24.056  1.00  0.00     0.009 A 
ATOM     24  C   UNL A   1      27.663  30.085  22.809  1.00  0.00     0.009 A 
ATOM     25  C   UNL A   1      28.693  32.049  23.742  1.00  0.00     0.001 A 
ATOM     26  C   UNL A   1      27.613  31.448  23.115  1.00  0.00     0.001 A 
ENDBRANCH  14  17
ENDBRANCH   9  10
ENDBRANCH   7   9
ENDBRANCH   4   7
ENDBRANCH   2   3
ENDBRANCH   1   2
BRANCH   1  27
ATOM     27  C   UNL A   1      37.626  20.640  24.940  1.00  0.00     0.023 C 
BRANCH  27  28
ATOM     28  C   UNL A   1      38.932  20.805  25.727  1.00  0.00     0.116 C 
BRANCH  28  29
ATOM     29  N   UNL A   1      39.880  19.691  25.739  1.00  0.00    -0.352 N 
ATOM     30  C   UNL A   1      41.221  19.580  26.050  1.00  0.00     0.251 C 
ATOM     31  H   UNL A   1      39.474  18.836  25.468  1.00  0.00     0.163 HD
ATOM     32  O   UNL A   1      41.818  18.512  25.962  1.00  0.00    -0.269 OA
BRANCH  30  33
ATOM     33  C   UNL A   1      41.970  20.784  26.421  1.00  0.00     0.039 A 
ATOM     34  C   UNL A   1      42.307  21.748  25.460  1.00  0.00     0.014 A 
ATOM     35  C   UNL A   1      42.252  20.980  27.763  1.00  0.00     0.014 A 
ATOM     36  C   UNL A   1      42.805  22.981  25.878  1.00  0.00     0.010 A 
ATOM     37  C   UNL A   1      42.613  22.238  28.184  1.00  0.00     0.010 A 
ATOM     38  C   UNL A   1      42.913  23.242  27.249  1.00  0.00    -0.014 A 
BRANCH  38  39
ATOM     39  C   UNL A   1      43.432  24.505  27.804  1.00  0.00     0.031 A 
ATOM     40  C   UNL A   1      42.425  25.547  28.197  1.00  0.00     0.074 A 
ATOM     41  C   UNL A   1      44.748  24.775  27.762  1.00  0.00     0.049 A 
ATOM     42  N   UNL A   1      42.590  26.826  28.398  1.00  0.00    -0.248 NA
ATOM     43  C   UNL A   1      41.023  25.095  28.287  1.00  0.00     0.031 C 
ATOM     44  C   UNL A   1      45.799  23.845  27.345  1.00  0.00     0.029 A 
ATOM     45  N   UNL A   1      45.418  25.938  28.033  1.00  0.00    -0.354 N 
ATOM     46  C   UNL A   1      41.312  27.332  28.595  1.00  0.00     0.074 A 
ATOM     47  C   UNL A   1      40.380  26.246  28.403  1.00  0.00     0.031 C 
ATOM     48  C   UNL A   1      46.984  24.477  27.387  1.00  0.00     0.029 A 
ATOM     49  C   UNL A   1      46.767  25.864  27.788  1.00  0.00     0.049 A 
ATOM     50  H   UNL A   1      44.975  26.751  28.369  1.00  0.00     0.167 HD
ATOM     51  C   UNL A   1      40.953  28.589  28.938  1.00  0.00     0.037 A 
ATOM     52  C   UNL A   1      47.709  26.821  27.863  1.00  0.00     0.037 A 
ATOM     53  C   UNL A   1      41.903  29.641  29.165  1.00  0.00     0.049 A 
ATOM     54  C   UNL A   1      47.292  28.209  28.270  1.00  0.00     0.074 A 
ATOM     55  C   UNL A   1      41.674  30.935  29.590  1.00  0.00     0.029 A 
ATOM     56  N   UNL A   1      43.274  29.508  28.990  1.00  0.00    -0.354 N 
ATOM     57  N   UNL A   1      46.089  28.672  28.521  1.00  0.00    -0.248 NA
ATOM     58  C   UNL A   1      48.361  29.206  28.414  1.00  0.00     0.031 C 
ATOM     59  C   UNL A   1      42.904  31.598  29.633  1.00  0.00     0.029 A 
ATOM     60  C   UNL A   1      43.904  30.702  29.288  1.00  0.00     0.049 A 
ATOM     61  H   UNL A   1      43.730  28.685  28.697  1.00  0.00     0.167 HD
ATOM     62  C   UNL A   1      46.259  30.001  28.887  1.00  0.00     0.074 A 
ATOM     63  C   UNL A   1      47.684  30.265  28.836  1.00  0.00     0.031 C 
ATOM     64  C   UNL A   1      45.328  30.922  29.238  1.00  0.00     0.037 A 
BRANCH  51  65
ATOM     65  C   UNL A   1      39.488  28.868  29.106  1.00  0.00     0.057 A 
ATOM     66  C   UNL A   1      38.696  29.323  28.042  1.00  0.00     0.134 A 
ATOM     67  C   UNL A   1      38.859  28.681  30.342  1.00  0.00     0.134 A 
ATOM     68  F   UNL A   1      39.237  29.544  26.835  1.00  0.00    -0.206 F 
ATOM     69  C   UNL A   1      37.341  29.616  28.212  1.00  0.00     0.040 A 
ATOM     70  C   UNL A   1      37.497  28.936  30.515  1.00  0.00     0.040 A 
ATOM     71  F   UNL A   1      39.556  28.249  31.405  1.00  0.00    -0.206 F 
ATOM     72  C   UNL A   1      36.737  29.415  29.449  1.00  0.00     0.006 A 
ENDBRANCH  51  65
BRANCH  52  73
ATOM     73  C   UNL A   1      49.131  26.495  27.587  1.00  0.00     0.057 A 
ATOM     74  C   UNL A   1      49.658  26.625  26.296  1.00  0.00     0.134 A 
ATOM     75  C   UNL A   1      49.998  26.052  28.593  1.00  0.00     0.134 A 
ATOM     76  F   UNL A   1      48.874  27.033  25.287  1.00  0.00    -0.206 F 
ATOM     77  C   UNL A   1      50.986  26.304  26.009  1.00  0.00     0.040 A 
ATOM     78  C   UNL A   1      51.336  25.752  28.325  1.00  0.00     0.040 A 
ATOM     79  F   UNL A   1      49.562  25.920  29.854  1.00  0.00    -0.206 F 
ATOM     80  C   UNL A   1      51.831  25.871  27.028  1.00  0.00     0.006 A 
ENDBRANCH  52  73
BRANCH  64  81
ATOM     81  C   UNL A   1      45.826  32.280  29.637  1.00  0.00     0.057 A 
ATOM     82  C   UNL A   1      46.145  32.591  30.964  1.00  0.00     0.134 A 
ATOM     83  C   UNL A   1      46.037  33.269  28.669  1.00  0.00     0.134 A 
ATOM     84  F   UNL A   1      45.956  31.690  31.939  1.00  0.00    -0.206 F 
ATOM     85  C   UNL A   1      46.634  33.849  31.318  1.00  0.00     0.040 A 
ATOM     86  C   UNL A   1      46.555  34.519  29.005  1.00  0.00     0.040 A 
ATOM     87  F   UNL A   1      45.763  33.029  27.377  1.00  0.00    -0.206 F 
ATOM     88  C   UNL A   1      46.848  34.814  30.334  1.00  0.00     0.006 A 
ENDBRANCH  64  81
ENDBRANCH  38  39
ENDBRANCH  30  33
ENDBRANCH  28  29
ENDBRANCH  27  28
ENDBRANCH   1  27
TORSDOF 14
ENDMDL
