MODEL 1
REMARK VINA RESULT:     -12.7      0.000      0.000
REMARK SMILES CC(C)Cc1ccc(S(=O)(=O)Nc2cnc(N3CCCC3)c(C(=O)NCCCCNC(=O)c3ccc(-c4c5nc(c(-c6c(F)cccc6F)c6ccc([nH]6)c(-c6c(F)cccc6F)c6nc(c(-c7c(F)cccc7F)c7ccc4[nH]7)C=C6)C=C5)cc3)c2)cc1
REMARK SMILES IDX 26 1 25 2 23 3 24 4 22 6 13 7 14 8 87 9 15 10 16 11 12 12
REMARK SMILES IDX 9 14 10 15 11 16 8 17 5 18 6 19 89 20 7 21 88 22 4 23 2 24
REMARK SMILES IDX 1 25 3 26 17 27 18 28 21 29 19 30 20 31 27 32 28 33 29 34
REMARK SMILES IDX 30 35 31 36 32 38 33 39 34 40 86 41 35 42 85 43 36 44 37 45
REMARK SMILES IDX 38 46 79 47 39 48 84 49 78 50 80 51 40 52 83 53 77 54 76 55
REMARK SMILES IDX 41 57 67 58 50 59 66 60 51 61 54 62 65 63 81 64 52 65 53 66
REMARK SMILES IDX 64 68 82 69 55 70 42 71 43 72 48 73 44 74 45 75 47 76 49 77
REMARK SMILES IDX 46 78 68 79 69 80 74 81 70 82 71 83 73 84 75 85 72 86 56 87
REMARK SMILES IDX 57 88 62 89 58 90 59 91 61 92 63 93 60 94
REMARK H PARENT 25 5 12 13 30 37 80 56 54 67
REMARK Flexibility Score: inf
ROOT
ATOM      1  C   UNL A   1      36.186  20.896  25.152  1.00  0.00     0.116 C 
ENDROOT
BRANCH   1   2
ATOM      2  N   UNL A   1      35.135  20.761  26.135  1.00  0.00    -0.352 N 
ATOM      3  C   UNL A   1      33.766  20.862  26.121  1.00  0.00     0.255 C 
ATOM      4  O   UNL A   1      33.278  20.803  27.250  1.00  0.00    -0.269 OA
ATOM      5  H   UNL A   1      35.485  20.546  27.030  1.00  0.00     0.163 HD
BRANCH   3   6
ATOM      6  C   UNL A   1      32.924  20.960  24.873  1.00  0.00     0.084 A 
ATOM      7  C   UNL A   1      32.088  22.337  23.060  1.00  0.00     0.068 A 
ATOM      8  C   UNL A   1      31.873  21.175  22.345  1.00  0.00     0.140 A 
ATOM      9  C   UNL A   1      32.482  22.202  24.385  1.00  0.00     0.046 A 
ATOM     10  N   UNL A   1      32.154  19.947  22.816  1.00  0.00    -0.236 NA
ATOM     11  C   UNL A   1      32.701  19.827  24.057  1.00  0.00     0.141 A 
BRANCH   7  12
ATOM     12  N   UNL A   1      31.988  23.584  22.377  1.00  0.00    -0.278 N 
ATOM     13  H   UNL A   1      31.104  23.850  22.036  1.00  0.00     0.180 HD
BRANCH  12  14
ATOM     14  S   UNL A   1      33.277  24.631  22.117  1.00  0.00     0.261 S 
ATOM     15  O   UNL A   1      33.063  25.274  20.837  1.00  0.00    -0.201 OA
ATOM     16  O   UNL A   1      34.467  23.849  22.378  1.00  0.00    -0.201 OA
BRANCH  14  17
ATOM     17  C   UNL A   1      33.242  25.931  23.342  1.00  0.00     0.087 A 
ATOM     18  C   UNL A   1      33.782  27.896  25.285  1.00  0.00    -0.048 A 
ATOM     19  C   UNL A   1      33.852  26.539  25.613  1.00  0.00     0.005 A 
ATOM     20  C   UNL A   1      33.354  28.254  23.995  1.00  0.00     0.005 A 
ATOM     21  C   UNL A   1      33.586  25.561  24.651  1.00  0.00     0.022 A 
ATOM     22  C   UNL A   1      33.068  27.278  23.030  1.00  0.00     0.022 A 
BRANCH  18  23
ATOM     23  C   UNL A   1      34.250  28.963  26.253  1.00  0.00     0.038 C 
BRANCH  23  24
ATOM     24  C   UNL A   1      33.215  30.044  26.626  1.00  0.00    -0.013 C 
ATOM     25  C   UNL A   1      31.946  29.451  27.245  1.00  0.00     0.008 C 
ATOM     26  C   UNL A   1      33.838  31.026  27.626  1.00  0.00     0.008 C 
ENDBRANCH  23  24
ENDBRANCH  18  23
ENDBRANCH  14  17
ENDBRANCH  12  14
ENDBRANCH   7  12
BRANCH  11  27
ATOM     27  N   UNL A   1      33.058  18.554  24.393  1.00  0.00    -0.356 N 
ATOM     28  C   UNL A   1      32.332  17.757  25.367  1.00  0.00     0.118 C 
ATOM     29  C   UNL A   1      33.798  17.702  23.476  1.00  0.00     0.118 C 
ATOM     30  C   UNL A   1      33.304  16.603  25.579  1.00  0.00     0.023 C 
ATOM     31  C   UNL A   1      33.806  16.331  24.163  1.00  0.00     0.023 C 
ENDBRANCH  11  27
ENDBRANCH   3   6
ENDBRANCH   1   2
BRANCH   1  32
ATOM     32  C   UNL A   1      36.882  19.553  24.939  1.00  0.00     0.023 C 
BRANCH  32  33
ATOM     33  C   UNL A   1      38.377  19.680  24.620  1.00  0.00     0.023 C 
BRANCH  33  34
ATOM     34  C   UNL A   1      39.282  19.864  25.835  1.00  0.00     0.116 C 
BRANCH  34  35
ATOM     35  N   UNL A   1      40.350  18.881  25.900  1.00  0.00    -0.352 N 
ATOM     36  C   UNL A   1      41.688  19.074  26.129  1.00  0.00     0.251 C 
ATOM     37  H   UNL A   1      40.075  17.946  25.760  1.00  0.00     0.163 HD
ATOM     38  O   UNL A   1      42.470  18.133  26.052  1.00  0.00    -0.269 OA
BRANCH  36  39
ATOM     39  C   UNL A   1      42.191  20.427  26.436  1.00  0.00     0.039 A 
ATOM     40  C   UNL A   1      42.625  21.230  25.379  1.00  0.00     0.014 A 
ATOM     41  C   UNL A   1      42.254  20.895  27.752  1.00  0.00     0.014 A 
ATOM     42  C   UNL A   1      43.083  22.523  25.636  1.00  0.00     0.010 A 
ATOM     43  C   UNL A   1      42.664  22.202  28.003  1.00  0.00     0.010 A 
ATOM     44  C   UNL A   1      43.088  23.023  26.947  1.00  0.00    -0.014 A 
BRANCH  44  45
ATOM     45  C   UNL A   1      43.548  24.403  27.226  1.00  0.00     0.031 A 
ATOM     46  C   UNL A   1      42.566  25.452  27.663  1.00  0.00     0.074 A 
ATOM     47  C   UNL A   1      44.843  24.720  27.042  1.00  0.00     0.049 A 
ATOM     48  N   UNL A   1      42.772  26.717  27.927  1.00  0.00    -0.248 NA
ATOM     49  C   UNL A   1      41.163  25.029  27.799  1.00  0.00     0.031 C 
ATOM     50  C   UNL A   1      45.881  23.801  26.572  1.00  0.00     0.029 A 
ATOM     51  N   UNL A   1      45.505  25.907  27.224  1.00  0.00    -0.354 N 
ATOM     52  C   UNL A   1      41.528  27.243  28.244  1.00  0.00     0.074 A 
ATOM     53  C   UNL A   1      40.565  26.172  28.101  1.00  0.00     0.031 C 
ATOM     54  C   UNL A   1      47.053  24.454  26.523  1.00  0.00     0.029 A 
ATOM     55  C   UNL A   1      46.846  25.838  26.938  1.00  0.00     0.049 A 
ATOM     56  H   UNL A   1      45.061  26.730  27.532  1.00  0.00     0.167 HD
ATOM     57  C   UNL A   1      41.218  28.500  28.639  1.00  0.00     0.037 A 
ATOM     58  C   UNL A   1      47.799  26.785  27.007  1.00  0.00     0.037 A 
ATOM     59  C   UNL A   1      42.180  29.556  28.816  1.00  0.00     0.049 A 
ATOM     60  C   UNL A   1      47.434  28.163  27.478  1.00  0.00     0.074 A 
ATOM     61  C   UNL A   1      41.974  30.844  29.277  1.00  0.00     0.029 A 
ATOM     62  N   UNL A   1      43.534  29.440  28.541  1.00  0.00    -0.354 N 
ATOM     63  N   UNL A   1      46.264  28.632  27.837  1.00  0.00    -0.248 NA
ATOM     64  C   UNL A   1      48.526  29.144  27.560  1.00  0.00     0.031 C 
ATOM     65  C   UNL A   1      43.201  31.517  29.257  1.00  0.00     0.029 A 
ATOM     66  C   UNL A   1      44.174  30.638  28.811  1.00  0.00     0.049 A 
ATOM     67  H   UNL A   1      43.974  28.627  28.205  1.00  0.00     0.167 HD
ATOM     68  C   UNL A   1      46.479  29.952  28.205  1.00  0.00     0.074 A 
ATOM     69  C   UNL A   1      47.895  30.208  28.039  1.00  0.00     0.031 C 
ATOM     70  C   UNL A   1      45.584  30.871  28.641  1.00  0.00     0.037 A 
BRANCH  57  71
ATOM     71  C   UNL A   1      39.774  28.796  28.917  1.00  0.00     0.057 A 
ATOM     72  C   UNL A   1      38.901  29.210  27.902  1.00  0.00     0.134 A 
ATOM     73  C   UNL A   1      39.249  28.648  30.206  1.00  0.00     0.134 A 
ATOM     74  F   UNL A   1      39.349  29.385  26.650  1.00  0.00    -0.206 F 
ATOM     75  C   UNL A   1      37.559  29.487  28.165  1.00  0.00     0.040 A 
ATOM     76  C   UNL A   1      37.903  28.902  30.476  1.00  0.00     0.040 A 
ATOM     77  F   UNL A   1      40.032  28.253  31.221  1.00  0.00    -0.206 F 
ATOM     78  C   UNL A   1      37.055  29.328  29.456  1.00  0.00     0.006 A 
ENDBRANCH  57  71
BRANCH  58  79
ATOM     79  C   UNL A   1      49.199  26.449  26.657  1.00  0.00     0.057 A 
ATOM     80  C   UNL A   1      50.062  25.889  27.605  1.00  0.00     0.134 A 
ATOM     81  C   UNL A   1      49.706  26.677  25.373  1.00  0.00     0.134 A 
ATOM     82  F   UNL A   1      49.634  25.665  28.856  1.00  0.00    -0.206 F 
ATOM     83  C   UNL A   1      51.386  25.579  27.294  1.00  0.00     0.040 A 
ATOM     84  C   UNL A   1      51.023  26.355  25.043  1.00  0.00     0.040 A 
ATOM     85  F   UNL A   1      48.924  27.206  24.421  1.00  0.00    -0.206 F 
ATOM     86  C   UNL A   1      51.869  25.809  26.007  1.00  0.00     0.006 A 
ENDBRANCH  58  79
BRANCH  70  87
ATOM     87  C   UNL A   1      46.116  32.228  28.983  1.00  0.00     0.057 A 
ATOM     88  C   UNL A   1      46.581  32.530  30.269  1.00  0.00     0.134 A 
ATOM     89  C   UNL A   1      46.193  33.232  28.010  1.00  0.00     0.134 A 
ATOM     90  F   UNL A   1      46.521  31.613  31.246  1.00  0.00    -0.206 F 
ATOM     91  C   UNL A   1      47.089  33.792  30.581  1.00  0.00     0.040 A 
ATOM     92  C   UNL A   1      46.716  34.492  28.305  1.00  0.00     0.040 A 
ATOM     93  F   UNL A   1      45.768  33.002  26.759  1.00  0.00    -0.206 F 
ATOM     94  C   UNL A   1      47.163  34.775  29.594  1.00  0.00     0.006 A 
ENDBRANCH  70  87
ENDBRANCH  44  45
ENDBRANCH  36  39
ENDBRANCH  34  35
ENDBRANCH  33  34
ENDBRANCH  32  33
ENDBRANCH   1  32
TORSDOF 17
ENDMDL
MODEL 2
REMARK VINA RESULT:     -12.7      0.825      6.050
REMARK SMILES CC(C)Cc1ccc(S(=O)(=O)Nc2cnc(N3CCCC3)c(C(=O)NCCCCNC(=O)c3ccc(-c4c5nc(c(-c6c(F)cccc6F)c6ccc([nH]6)c(-c6c(F)cccc6F)c6nc(c(-c7c(F)cccc7F)c7ccc4[nH]7)C=C6)C=C5)cc3)c2)cc1
REMARK SMILES IDX 26 1 25 2 23 3 24 4 22 6 13 7 14 8 87 9 15 10 16 11 12 12
REMARK SMILES IDX 9 14 10 15 11 16 8 17 5 18 6 19 89 20 7 21 88 22 4 23 2 24
REMARK SMILES IDX 1 25 3 26 17 27 18 28 21 29 19 30 20 31 27 32 28 33 29 34
REMARK SMILES IDX 30 35 31 36 32 38 33 39 34 40 86 41 35 42 85 43 36 44 37 45
REMARK SMILES IDX 38 46 79 47 39 48 84 49 78 50 80 51 40 52 83 53 77 54 76 55
REMARK SMILES IDX 41 57 67 58 50 59 66 60 51 61 54 62 65 63 81 64 52 65 53 66
REMARK SMILES IDX 64 68 82 69 55 70 42 71 43 72 48 73 44 74 45 75 47 76 49 77
REMARK SMILES IDX 46 78 68 79 69 80 74 81 70 82 71 83 73 84 75 85 72 86 56 87
REMARK SMILES IDX 57 88 62 89 58 90 59 91 61 92 63 93 60 94
REMARK H PARENT 25 5 12 13 30 37 80 56 54 67
REMARK Flexibility Score: inf
ROOT
ATOM      1  C   UNL A   1      36.224  20.983  25.108  1.00  0.00     0.116 C 
ENDROOT
BRANCH   1   2
ATOM      2  N   UNL A   1      35.175  20.789  26.084  1.00  0.00    -0.352 N 
ATOM      3  C   UNL A   1      33.803  20.837  26.065  1.00  0.00     0.255 C 
ATOM      4  O   UNL A   1      33.312  20.739  27.190  1.00  0.00    -0.269 OA
ATOM      5  H   UNL A   1      35.529  20.572  26.976  1.00  0.00     0.163 HD
BRANCH   3   6
ATOM      6  C   UNL A   1      32.963  20.924  24.814  1.00  0.00     0.084 A 
ATOM      7  C   UNL A   1      32.140  22.281  22.981  1.00  0.00     0.068 A 
ATOM      8  C   UNL A   1      31.917  21.111  22.282  1.00  0.00     0.140 A 
ATOM      9  C   UNL A   1      32.531  22.162  24.308  1.00  0.00     0.046 A 
ATOM     10  N   UNL A   1      32.188  19.887  22.771  1.00  0.00    -0.236 NA
ATOM     11  C   UNL A   1      32.733  19.780  24.013  1.00  0.00     0.141 A 
BRANCH   7  12
ATOM     12  N   UNL A   1      32.050  23.519  22.280  1.00  0.00    -0.278 N 
ATOM     13  H   UNL A   1      31.175  23.770  21.903  1.00  0.00     0.180 HD
BRANCH  12  14
ATOM     14  S   UNL A   1      33.334  24.580  22.056  1.00  0.00     0.261 S 
ATOM     15  O   UNL A   1      33.143  25.229  20.776  1.00  0.00    -0.201 OA
ATOM     16  O   UNL A   1      34.525  23.808  22.341  1.00  0.00    -0.201 OA
BRANCH  14  17
ATOM     17  C   UNL A   1      33.258  25.872  23.289  1.00  0.00     0.087 A 
ATOM     18  C   UNL A   1      33.736  27.851  25.233  1.00  0.00    -0.048 A 
ATOM     19  C   UNL A   1      33.872  26.496  25.554  1.00  0.00     0.005 A 
ATOM     20  C   UNL A   1      33.276  28.194  23.951  1.00  0.00     0.005 A 
ATOM     21  C   UNL A   1      33.635  25.512  24.591  1.00  0.00     0.022 A 
ATOM     22  C   UNL A   1      33.019  27.211  22.985  1.00  0.00     0.022 A 
BRANCH  18  23
ATOM     23  C   UNL A   1      34.170  28.933  26.201  1.00  0.00     0.038 C 
BRANCH  23  24
ATOM     24  C   UNL A   1      33.119  30.013  26.527  1.00  0.00    -0.013 C 
ATOM     25  C   UNL A   1      31.839  29.423  27.126  1.00  0.00     0.008 C 
ATOM     26  C   UNL A   1      33.710  31.019  27.524  1.00  0.00     0.008 C 
ENDBRANCH  23  24
ENDBRANCH  18  23
ENDBRANCH  14  17
ENDBRANCH  12  14
ENDBRANCH   7  12
BRANCH  11  27
ATOM     27  N   UNL A   1      33.081  18.510  24.368  1.00  0.00    -0.356 N 
ATOM     28  C   UNL A   1      32.208  17.632  25.129  1.00  0.00     0.118 C 
ATOM     29  C   UNL A   1      34.046  17.740  23.598  1.00  0.00     0.118 C 
ATOM     30  C   UNL A   1      33.176  16.514  25.500  1.00  0.00     0.023 C 
ATOM     31  C   UNL A   1      33.983  16.338  24.216  1.00  0.00     0.023 C 
ENDBRANCH  11  27
ENDBRANCH   3   6
ENDBRANCH   1   2
BRANCH   1  32
ATOM     32  C   UNL A   1      37.011  19.688  24.918  1.00  0.00     0.023 C 
BRANCH  32  33
ATOM     33  C   UNL A   1      38.523  19.902  24.776  1.00  0.00     0.023 C 
BRANCH  33  34
ATOM     34  C   UNL A   1      39.319  19.757  26.070  1.00  0.00     0.116 C 
BRANCH  34  35
ATOM     35  N   UNL A   1      40.496  18.918  25.919  1.00  0.00    -0.352 N 
ATOM     36  C   UNL A   1      41.818  19.253  26.055  1.00  0.00     0.251 C 
ATOM     37  H   UNL A   1      40.320  17.977  25.686  1.00  0.00     0.163 HD
ATOM     38  O   UNL A   1      42.694  18.436  25.794  1.00  0.00    -0.269 OA
BRANCH  36  39
ATOM     39  C   UNL A   1      42.188  20.615  26.487  1.00  0.00     0.039 A 
ATOM     40  C   UNL A   1      42.510  21.557  25.507  1.00  0.00     0.014 A 
ATOM     41  C   UNL A   1      42.237  20.958  27.841  1.00  0.00     0.014 A 
ATOM     42  C   UNL A   1      42.840  22.860  25.882  1.00  0.00     0.010 A 
ATOM     43  C   UNL A   1      42.517  22.270  28.213  1.00  0.00     0.010 A 
ATOM     44  C   UNL A   1      42.827  23.230  27.236  1.00  0.00    -0.014 A 
BRANCH  44  45
ATOM     45  C   UNL A   1      43.150  24.617  27.642  1.00  0.00     0.031 A 
ATOM     46  C   UNL A   1      44.581  25.068  27.716  1.00  0.00     0.074 A 
ATOM     47  C   UNL A   1      42.155  25.455  27.987  1.00  0.00     0.049 A 
ATOM     48  N   UNL A   1      45.063  26.230  28.075  1.00  0.00    -0.248 NA
ATOM     49  C   UNL A   1      45.606  24.073  27.362  1.00  0.00     0.031 C 
ATOM     50  C   UNL A   1      40.731  25.118  28.003  1.00  0.00     0.029 A 
ATOM     51  N   UNL A   1      42.193  26.764  28.394  1.00  0.00    -0.354 N 
ATOM     52  C   UNL A   1      46.443  26.104  28.005  1.00  0.00     0.074 A 
ATOM     53  C   UNL A   1      46.724  24.740  27.609  1.00  0.00     0.031 C 
ATOM     54  C   UNL A   1      40.030  26.199  28.381  1.00  0.00     0.029 A 
ATOM     55  C   UNL A   1      40.954  27.296  28.651  1.00  0.00     0.049 A 
ATOM     56  H   UNL A   1      43.030  27.274  28.492  1.00  0.00     0.167 HD
ATOM     57  C   UNL A   1      47.390  27.044  28.231  1.00  0.00     0.037 A 
ATOM     58  C   UNL A   1      40.606  28.532  29.055  1.00  0.00     0.037 A 
ATOM     59  C   UNL A   1      47.109  28.409  28.590  1.00  0.00     0.049 A 
ATOM     60  C   UNL A   1      41.674  29.565  29.268  1.00  0.00     0.074 A 
ATOM     61  C   UNL A   1      47.997  29.453  28.774  1.00  0.00     0.029 A 
ATOM     62  N   UNL A   1      45.839  28.917  28.816  1.00  0.00    -0.354 N 
ATOM     63  N   UNL A   1      42.973  29.450  29.137  1.00  0.00    -0.248 NA
ATOM     64  C   UNL A   1      41.226  30.903  29.680  1.00  0.00     0.031 C 
ATOM     65  C   UNL A   1      47.265  30.590  29.138  1.00  0.00     0.029 A 
ATOM     66  C   UNL A   1      45.920  30.258  29.150  1.00  0.00     0.049 A 
ATOM     67  H   UNL A   1      45.004  28.401  28.748  1.00  0.00     0.167 HD
ATOM     68  C   UNL A   1      43.496  30.702  29.430  1.00  0.00     0.074 A 
ATOM     69  C   UNL A   1      42.374  31.566  29.733  1.00  0.00     0.031 C 
ATOM     70  C   UNL A   1      44.791  31.100  29.447  1.00  0.00     0.037 A 
BRANCH  57  71
ATOM     71  C   UNL A   1      48.822  26.625  28.084  1.00  0.00     0.057 A 
ATOM     72  C   UNL A   1      49.589  26.231  29.189  1.00  0.00     0.134 A 
ATOM     73  C   UNL A   1      49.433  26.596  26.825  1.00  0.00     0.134 A 
ATOM     74  F   UNL A   1      49.064  26.252  30.423  1.00  0.00    -0.206 F 
ATOM     75  C   UNL A   1      50.922  25.844  29.048  1.00  0.00     0.040 A 
ATOM     76  C   UNL A   1      50.760  26.190  26.670  1.00  0.00     0.040 A 
ATOM     77  F   UNL A   1      48.753  26.959  25.728  1.00  0.00    -0.206 F 
ATOM     78  C   UNL A   1      51.510  25.818  27.784  1.00  0.00     0.006 A 
ENDBRANCH  57  71
BRANCH  58  79
ATOM     79  C   UNL A   1      39.176  28.868  29.246  1.00  0.00     0.057 A 
ATOM     80  C   UNL A   1      38.415  29.392  28.196  1.00  0.00     0.134 A 
ATOM     81  C   UNL A   1      38.537  28.675  30.476  1.00  0.00     0.134 A 
ATOM     82  F   UNL A   1      38.979  29.614  27.000  1.00  0.00    -0.206 F 
ATOM     83  C   UNL A   1      37.070  29.726  28.364  1.00  0.00     0.040 A 
ATOM     84  C   UNL A   1      37.190  28.988  30.654  1.00  0.00     0.040 A 
ATOM     85  F   UNL A   1      39.214  28.171  31.518  1.00  0.00    -0.206 F 
ATOM     86  C   UNL A   1      36.453  29.520  29.597  1.00  0.00     0.006 A 
ENDBRANCH  58  79
BRANCH  70  87
ATOM     87  C   UNL A   1      45.056  32.534  29.788  1.00  0.00     0.057 A 
ATOM     88  C   UNL A   1      45.043  33.535  28.808  1.00  0.00     0.134 A 
ATOM     89  C   UNL A   1      45.297  32.921  31.112  1.00  0.00     0.134 A 
ATOM     90  F   UNL A   1      44.832  33.223  27.521  1.00  0.00    -0.206 F 
ATOM     91  C   UNL A   1      45.277  34.872  29.133  1.00  0.00     0.040 A 
ATOM     92  C   UNL A   1      45.513  34.257  31.451  1.00  0.00     0.040 A 
ATOM     93  F   UNL A   1      45.317  32.009  32.095  1.00  0.00    -0.206 F 
ATOM     94  C   UNL A   1      45.508  35.236  30.459  1.00  0.00     0.006 A 
ENDBRANCH  70  87
ENDBRANCH  44  45
ENDBRANCH  36  39
ENDBRANCH  34  35
ENDBRANCH  33  34
ENDBRANCH  32  33
ENDBRANCH   1  32
TORSDOF 17
ENDMDL
MODEL 3
REMARK VINA RESULT:     -12.0      2.975      8.289
REMARK SMILES CC(C)Cc1ccc(S(=O)(=O)Nc2cnc(N3CCCC3)c(C(=O)NCCCCNC(=O)c3ccc(-c4c5nc(c(-c6c(F)cccc6F)c6ccc([nH]6)c(-c6c(F)cccc6F)c6nc(c(-c7c(F)cccc7F)c7ccc4[nH]7)C=C6)C=C5)cc3)c2)cc1
REMARK SMILES IDX 26 1 25 2 23 3 24 4 22 6 13 7 14 8 87 9 15 10 16 11 12 12
REMARK SMILES IDX 9 14 10 15 11 16 8 17 5 18 6 19 89 20 7 21 88 22 4 23 2 24
REMARK SMILES IDX 1 25 3 26 17 27 18 28 21 29 19 30 20 31 27 32 28 33 29 34
REMARK SMILES IDX 30 35 31 36 32 38 33 39 34 40 86 41 35 42 85 43 36 44 37 45
REMARK SMILES IDX 38 46 79 47 39 48 84 49 78 50 80 51 40 52 83 53 77 54 76 55
REMARK SMILES IDX 41 57 67 58 50 59 66 60 51 61 54 62 65 63 81 64 52 65 53 66
REMARK SMILES IDX 64 68 82 69 55 70 42 71 43 72 48 73 44 74 45 75 47 76 49 77
REMARK SMILES IDX 46 78 68 79 69 80 74 81 70 82 71 83 73 84 75 85 72 86 56 87
REMARK SMILES IDX 57 88 62 89 58 90 59 91 61 92 63 93 60 94
REMARK H PARENT 25 5 12 13 30 37 80 56 54 67
REMARK Flexibility Score: inf
ROOT
ATOM      1  C   UNL A   1      33.846  28.817  24.406  1.00  0.00     0.116 C 
ENDROOT
BRANCH   1   2
ATOM      2  N   UNL A   1      32.766  29.682  24.825  1.00  0.00    -0.352 N 
ATOM      3  C   UNL A   1      31.397  29.655  24.724  1.00  0.00     0.255 C 
ATOM      4  O   UNL A   1      30.875  30.699  25.114  1.00  0.00    -0.269 OA
ATOM      5  H   UNL A   1      33.090  30.484  25.296  1.00  0.00     0.163 HD
BRANCH   3   6
ATOM      6  C   UNL A   1      30.593  28.465  24.260  1.00  0.00     0.084 A 
ATOM      7  C   UNL A   1      29.927  26.163  24.632  1.00  0.00     0.068 A 
ATOM      8  C   UNL A   1      28.816  26.412  23.849  1.00  0.00     0.140 A 
ATOM      9  C   UNL A   1      30.885  27.166  24.710  1.00  0.00     0.046 A 
ATOM     10  N   UNL A   1      28.556  27.604  23.282  1.00  0.00    -0.236 NA
ATOM     11  C   UNL A   1      29.413  28.638  23.500  1.00  0.00     0.141 A 
BRANCH   7  12
ATOM     12  N   UNL A   1      29.974  24.950  25.378  1.00  0.00    -0.278 N 
ATOM     13  H   UNL A   1      29.238  24.307  25.256  1.00  0.00     0.180 HD
BRANCH  12  14
ATOM     14  S   UNL A   1      31.202  24.541  26.451  1.00  0.00     0.261 S 
ATOM     15  O   UNL A   1      30.776  23.357  27.168  1.00  0.00    -0.201 OA
ATOM     16  O   UNL A   1      31.529  25.767  27.147  1.00  0.00    -0.201 OA
BRANCH  14  17
ATOM     17  C   UNL A   1      32.661  24.072  25.532  1.00  0.00     0.087 A 
ATOM     18  C   UNL A   1      35.085  23.009  24.573  1.00  0.00    -0.048 A 
ATOM     19  C   UNL A   1      35.089  24.004  25.556  1.00  0.00     0.005 A 
ATOM     20  C   UNL A   1      33.855  22.617  24.019  1.00  0.00     0.005 A 
ATOM     21  C   UNL A   1      33.887  24.533  26.034  1.00  0.00     0.022 A 
ATOM     22  C   UNL A   1      32.647  23.157  24.481  1.00  0.00     0.022 A 
BRANCH  18  23
ATOM     23  C   UNL A   1      36.359  22.290  24.181  1.00  0.00     0.038 C 
BRANCH  23  24
ATOM     24  C   UNL A   1      37.050  21.475  25.293  1.00  0.00    -0.013 C 
ATOM     25  C   UNL A   1      37.443  20.068  24.830  1.00  0.00     0.008 C 
ATOM     26  C   UNL A   1      38.313  22.210  25.758  1.00  0.00     0.008 C 
ENDBRANCH  23  24
ENDBRANCH  18  23
ENDBRANCH  14  17
ENDBRANCH  12  14
ENDBRANCH   7  12
BRANCH  11  27
ATOM     27  N   UNL A   1      29.000  29.830  22.982  1.00  0.00    -0.356 N 
ATOM     28  C   UNL A   1      29.397  30.306  21.668  1.00  0.00     0.118 C 
ATOM     29  C   UNL A   1      27.754  30.453  23.402  1.00  0.00     0.118 C 
ATOM     30  C   UNL A   1      28.933  31.756  21.733  1.00  0.00     0.023 C 
ATOM     31  C   UNL A   1      27.588  31.640  22.444  1.00  0.00     0.023 C 
ENDBRANCH  11  27
ENDBRANCH   3   6
ENDBRANCH   1   2
BRANCH   1  32
ATOM     32  C   UNL A   1      34.367  28.013  25.595  1.00  0.00     0.023 C 
BRANCH  32  33
ATOM     33  C   UNL A   1      34.120  28.689  26.950  1.00  0.00     0.023 C 
BRANCH  33  34
ATOM     34  C   UNL A   1      35.239  29.613  27.423  1.00  0.00     0.116 C 
BRANCH  34  35
ATOM     35  N   UNL A   1      35.124  29.967  28.828  1.00  0.00    -0.352 N 
ATOM     36  C   UNL A   1      36.088  29.951  29.802  1.00  0.00     0.251 C 
ATOM     37  H   UNL A   1      34.231  30.260  29.120  1.00  0.00     0.163 HD
ATOM     38  O   UNL A   1      35.792  30.191  30.968  1.00  0.00    -0.269 OA
BRANCH  36  39
ATOM     39  C   UNL A   1      37.481  29.612  29.451  1.00  0.00     0.039 A 
ATOM     40  C   UNL A   1      38.308  29.091  30.449  1.00  0.00     0.014 A 
ATOM     41  C   UNL A   1      37.974  29.821  28.160  1.00  0.00     0.014 A 
ATOM     42  C   UNL A   1      39.622  28.737  30.142  1.00  0.00     0.010 A 
ATOM     43  C   UNL A   1      39.269  29.422  27.842  1.00  0.00     0.010 A 
ATOM     44  C   UNL A   1      40.105  28.883  28.832  1.00  0.00    -0.014 A 
BRANCH  44  45
ATOM     45  C   UNL A   1      41.490  28.486  28.491  1.00  0.00     0.031 A 
ATOM     46  C   UNL A   1      41.794  27.068  28.098  1.00  0.00     0.074 A 
ATOM     47  C   UNL A   1      42.481  29.393  28.577  1.00  0.00     0.049 A 
ATOM     48  N   UNL A   1      42.944  26.525  27.792  1.00  0.00    -0.248 NA
ATOM     49  C   UNL A   1      40.659  26.132  28.069  1.00  0.00     0.031 C 
ATOM     50  C   UNL A   1      42.317  30.787  28.995  1.00  0.00     0.029 A 
ATOM     51  N   UNL A   1      43.823  29.276  28.323  1.00  0.00    -0.354 N 
ATOM     52  C   UNL A   1      42.676  25.185  27.549  1.00  0.00     0.074 A 
ATOM     53  C   UNL A   1      41.261  24.987  27.783  1.00  0.00     0.031 C 
ATOM     54  C   UNL A   1      43.511  31.400  28.948  1.00  0.00     0.029 A 
ATOM     55  C   UNL A   1      44.523  30.440  28.518  1.00  0.00     0.049 A 
ATOM     56  H   UNL A   1      44.244  28.436  28.028  1.00  0.00     0.167 HD
ATOM     57  C   UNL A   1      43.527  24.212  27.148  1.00  0.00     0.037 A 
ATOM     58  C   UNL A   1      45.834  30.702  28.361  1.00  0.00     0.037 A 
ATOM     59  C   UNL A   1      44.926  24.417  26.881  1.00  0.00     0.049 A 
ATOM     60  C   UNL A   1      46.751  29.613  27.885  1.00  0.00     0.074 A 
ATOM     61  C   UNL A   1      45.856  23.509  26.406  1.00  0.00     0.029 A 
ATOM     62  N   UNL A   1      45.594  25.617  27.065  1.00  0.00    -0.354 N 
ATOM     63  N   UNL A   1      46.472  28.365  27.597  1.00  0.00    -0.248 NA
ATOM     64  C   UNL A   1      48.165  29.971  27.706  1.00  0.00     0.031 C 
ATOM     65  C   UNL A   1      47.095  24.155  26.326  1.00  0.00     0.029 A 
ATOM     66  C   UNL A   1      46.928  25.472  26.724  1.00  0.00     0.049 A 
ATOM     67  H   UNL A   1      45.181  26.450  27.388  1.00  0.00     0.167 HD
ATOM     68  C   UNL A   1      47.668  27.794  27.185  1.00  0.00     0.074 A 
ATOM     69  C   UNL A   1      48.673  28.835  27.247  1.00  0.00     0.031 C 
ATOM     70  C   UNL A   1      47.912  26.520  26.791  1.00  0.00     0.037 A 
BRANCH  57  71
ATOM     71  C   UNL A   1      42.959  22.837  26.964  1.00  0.00     0.057 A 
ATOM     72  C   UNL A   1      42.678  22.005  28.056  1.00  0.00     0.134 A 
ATOM     73  C   UNL A   1      42.672  22.347  25.684  1.00  0.00     0.134 A 
ATOM     74  F   UNL A   1      42.946  22.413  29.306  1.00  0.00    -0.206 F 
ATOM     75  C   UNL A   1      42.152  20.725  27.880  1.00  0.00     0.040 A 
ATOM     76  C   UNL A   1      42.125  21.076  25.497  1.00  0.00     0.040 A 
ATOM     77  F   UNL A   1      42.915  23.094  24.597  1.00  0.00    -0.206 F 
ATOM     78  C   UNL A   1      41.869  20.259  26.597  1.00  0.00     0.006 A 
ENDBRANCH  57  71
BRANCH  58  79
ATOM     79  C   UNL A   1      46.349  32.067  28.622  1.00  0.00     0.057 A 
ATOM     80  C   UNL A   1      46.827  32.424  29.887  1.00  0.00     0.134 A 
ATOM     81  C   UNL A   1      46.376  33.042  27.619  1.00  0.00     0.134 A 
ATOM     82  F   UNL A   1      46.809  31.534  30.890  1.00  0.00    -0.206 F 
ATOM     83  C   UNL A   1      47.304  33.708  30.152  1.00  0.00     0.040 A 
ATOM     84  C   UNL A   1      46.865  34.325  27.865  1.00  0.00     0.040 A 
ATOM     85  F   UNL A   1      45.935  32.757  26.385  1.00  0.00    -0.206 F 
ATOM     86  C   UNL A   1      47.327  34.663  29.136  1.00  0.00     0.006 A 
ENDBRANCH  58  79
BRANCH  70  87
ATOM     87  C   UNL A   1      49.315  26.193  26.382  1.00  0.00     0.057 A 
ATOM     88  C   UNL A   1      49.796  26.503  25.103  1.00  0.00     0.134 A 
ATOM     89  C   UNL A   1      50.200  25.591  27.283  1.00  0.00     0.134 A 
ATOM     90  F   UNL A   1      48.990  27.068  24.192  1.00  0.00    -0.206 F 
ATOM     91  C   UNL A   1      51.109  26.208  24.730  1.00  0.00     0.040 A 
ATOM     92  C   UNL A   1      51.520  25.309  26.928  1.00  0.00     0.040 A 
ATOM     93  F   UNL A   1      49.799  25.276  28.524  1.00  0.00    -0.206 F 
ATOM     94  C   UNL A   1      51.976  25.615  25.647  1.00  0.00     0.006 A 
ENDBRANCH  70  87
ENDBRANCH  44  45
ENDBRANCH  36  39
ENDBRANCH  34  35
ENDBRANCH  33  34
ENDBRANCH  32  33
ENDBRANCH   1  32
TORSDOF 17
ENDMDL
