MODEL 1
REMARK VINA RESULT:     -10.8      0.000      0.000
REMARK SMILES Cn1cc(SCC[C@@H]2CCC[C@@]2([NH3+])C(=O)NCCCCNC(=O)c2ccc(-c3c4nc(c(-c5c(F)cccc5F)c5ccc([nH]5)c(-c5c(F)cccc5F)c5nc(c(-c6c(F)cccc6F)c6ccc3[nH]6)C=C5)C=C4)cc2)cn1
REMARK SMILES IDX 17 1 16 2 14 3 15 4 12 6 8 7 9 8 10 9 11 10 7 11 6 12 5 13
REMARK SMILES IDX 4 14 1 15 2 16 3 17 79 18 78 19 13 20 18 24 19 25 20 26
REMARK SMILES IDX 21 27 22 28 23 30 24 31 25 32 77 33 26 34 76 35 27 36 28 37
REMARK SMILES IDX 29 38 70 39 30 40 75 41 69 42 71 43 31 44 74 45 68 46 67 47
REMARK SMILES IDX 32 49 58 50 41 51 57 52 42 53 45 54 56 55 72 56 43 57 44 58
REMARK SMILES IDX 55 60 73 61 46 62 33 63 34 64 39 65 35 66 36 67 38 68 40 69
REMARK SMILES IDX 37 70 59 71 60 72 65 73 61 74 62 75 64 76 66 77 63 78 47 79
REMARK SMILES IDX 48 80 53 81 49 82 50 83 52 84 54 85 51 86
REMARK H PARENT 16 5 13 21 13 22 13 23 21 29 71 48 45 59
REMARK Flexibility Score: inf
ROOT
ATOM      1  C   UNL A   1      36.361  21.721  25.430  1.00  0.00     0.116 C 
ENDROOT
BRANCH   1   2
ATOM      2  N   UNL A   1      35.489  21.833  26.567  1.00  0.00    -0.351 N 
ATOM      3  C   UNL A   1      34.157  21.694  26.735  1.00  0.00     0.281 C 
ATOM      4  O   UNL A   1      33.766  21.984  27.879  1.00  0.00    -0.268 OA
ATOM      5  H   UNL A   1      35.963  22.058  27.400  1.00  0.00     0.163 HD
BRANCH   3   6
ATOM      6  C   UNL A   1      33.094  21.268  25.657  1.00  0.00     0.176 C 
ATOM      7  C   UNL A   1      33.261  21.468  24.124  1.00  0.00     0.061 C 
ATOM      8  C   UNL A   1      32.382  20.339  23.540  1.00  0.00     0.011 C 
ATOM      9  C   UNL A   1      32.567  19.144  24.449  1.00  0.00     0.008 C 
ATOM     10  C   UNL A   1      33.152  19.705  25.731  1.00  0.00     0.079 C 
BRANCH   7  11
ATOM     11  C   UNL A   1      32.826  22.811  23.485  1.00  0.00     0.022 C 
BRANCH  11  12
ATOM     12  C   UNL A   1      33.869  23.949  23.590  1.00  0.00     0.075 C 
BRANCH  12  13
ATOM     13  S   UNL A   1      33.427  25.573  22.900  1.00  0.00    -0.123 SA
BRANCH  13  14
ATOM     14  C   UNL A   1      33.626  26.682  24.223  1.00  0.00     0.045 A 
ATOM     15  C   UNL A   1      33.251  29.720  26.066  1.00  0.00     0.173 C 
ATOM     16  N   UNL A   1      33.579  28.412  25.551  1.00  0.00    -0.275 N 
ATOM     17  C   UNL A   1      33.685  28.054  24.235  1.00  0.00     0.123 A 
ATOM     18  N   UNL A   1      33.663  27.369  26.397  1.00  0.00    -0.181 NA
ATOM     19  C   UNL A   1      33.692  26.310  25.581  1.00  0.00     0.150 A 
ENDBRANCH  13  14
ENDBRANCH  12  13
ENDBRANCH  11  12
ENDBRANCH   7  11
BRANCH   6  20
ATOM     20  N   UNL A   1      31.776  21.754  26.121  1.00  0.00    -0.345 N 
ATOM     21  H   UNL A   1      31.088  21.006  26.034  1.00  0.00     0.345 HD
ATOM     22  H   UNL A   1      31.487  22.548  25.550  1.00  0.00     0.345 HD
ATOM     23  H   UNL A   1      31.844  22.043  27.097  1.00  0.00     0.345 HD
ENDBRANCH   6  20
ENDBRANCH   3   6
ENDBRANCH   1   2
BRANCH   1  24
ATOM     24  C   UNL A   1      36.622  20.268  25.044  1.00  0.00     0.023 C 
BRANCH  24  25
ATOM     25  C   UNL A   1      38.077  19.957  24.684  1.00  0.00     0.023 C 
BRANCH  25  26
ATOM     26  C   UNL A   1      39.085  20.181  25.805  1.00  0.00     0.116 C 
BRANCH  26  27
ATOM     27  N   UNL A   1      40.124  19.164  25.852  1.00  0.00    -0.352 N 
ATOM     28  C   UNL A   1      41.466  19.311  26.110  1.00  0.00     0.251 C 
ATOM     29  H   UNL A   1      39.823  18.242  25.675  1.00  0.00     0.163 HD
ATOM     30  O   UNL A   1      42.228  18.358  25.981  1.00  0.00    -0.269 OA
BRANCH  28  31
ATOM     31  C   UNL A   1      41.995  20.632  26.506  1.00  0.00     0.039 A 
ATOM     32  C   UNL A   1      42.402  21.523  25.510  1.00  0.00     0.014 A 
ATOM     33  C   UNL A   1      42.069  21.001  27.852  1.00  0.00     0.014 A 
ATOM     34  C   UNL A   1      42.816  22.810  25.860  1.00  0.00     0.010 A 
ATOM     35  C   UNL A   1      42.408  22.307  28.193  1.00  0.00     0.010 A 
ATOM     36  C   UNL A   1      42.784  23.226  27.202  1.00  0.00    -0.014 A 
BRANCH  36  37
ATOM     37  C   UNL A   1      43.127  24.620  27.582  1.00  0.00     0.031 A 
ATOM     38  C   UNL A   1      44.563  25.060  27.645  1.00  0.00     0.074 A 
ATOM     39  C   UNL A   1      42.147  25.474  27.940  1.00  0.00     0.049 A 
ATOM     40  N   UNL A   1      45.061  26.213  28.013  1.00  0.00    -0.248 NA
ATOM     41  C   UNL A   1      45.578  24.060  27.276  1.00  0.00     0.031 C 
ATOM     42  C   UNL A   1      40.719  25.154  27.979  1.00  0.00     0.029 A 
ATOM     43  N   UNL A   1      42.205  26.781  28.355  1.00  0.00    -0.354 N 
ATOM     44  C   UNL A   1      46.441  26.073  27.935  1.00  0.00     0.074 A 
ATOM     45  C   UNL A   1      46.704  24.707  27.538  1.00  0.00     0.031 C 
ATOM     46  C   UNL A   1      40.036  26.239  28.375  1.00  0.00     0.029 A 
ATOM     47  C   UNL A   1      40.978  27.318  28.656  1.00  0.00     0.049 A 
ATOM     48  H   UNL A   1      43.048  27.287  28.429  1.00  0.00     0.167 HD
ATOM     49  C   UNL A   1      47.401  27.002  28.155  1.00  0.00     0.037 A 
ATOM     50  C   UNL A   1      40.647  28.540  29.117  1.00  0.00     0.037 A 
ATOM     51  C   UNL A   1      47.134  28.368  28.528  1.00  0.00     0.049 A 
ATOM     52  C   UNL A   1      41.728  29.558  29.347  1.00  0.00     0.074 A 
ATOM     53  C   UNL A   1      48.033  29.405  28.697  1.00  0.00     0.029 A 
ATOM     54  N   UNL A   1      45.875  28.883  28.799  1.00  0.00    -0.354 N 
ATOM     55  N   UNL A   1      43.024  29.437  29.186  1.00  0.00    -0.248 NA
ATOM     56  C   UNL A   1      41.303  30.884  29.815  1.00  0.00     0.031 C 
ATOM     57  C   UNL A   1      47.325  30.533  29.126  1.00  0.00     0.029 A 
ATOM     58  C   UNL A   1      45.977  30.215  29.165  1.00  0.00     0.049 A 
ATOM     59  H   UNL A   1      45.033  28.375  28.740  1.00  0.00     0.167 HD
ATOM     60  C   UNL A   1      43.566  30.675  29.507  1.00  0.00     0.074 A 
ATOM     61  C   UNL A   1      42.455  31.538  29.857  1.00  0.00     0.031 C 
ATOM     62  C   UNL A   1      44.864  31.064  29.512  1.00  0.00     0.037 A 
BRANCH  49  63
ATOM     63  C   UNL A   1      48.831  26.571  28.002  1.00  0.00     0.057 A 
ATOM     64  C   UNL A   1      49.580  26.084  29.082  1.00  0.00     0.134 A 
ATOM     65  C   UNL A   1      49.460  26.615  26.751  1.00  0.00     0.134 A 
ATOM     66  F   UNL A   1      49.044  26.023  30.310  1.00  0.00    -0.206 F 
ATOM     67  C   UNL A   1      50.912  25.689  28.930  1.00  0.00     0.040 A 
ATOM     68  C   UNL A   1      50.780  26.195  26.580  1.00  0.00     0.040 A 
ATOM     69  F   UNL A   1      48.800  27.063  25.672  1.00  0.00    -0.206 F 
ATOM     70  C   UNL A   1      51.513  25.738  27.674  1.00  0.00     0.006 A 
ENDBRANCH  49  63
BRANCH  50  71
ATOM     71  C   UNL A   1      39.222  28.871  29.377  1.00  0.00     0.057 A 
ATOM     72  C   UNL A   1      38.413  29.425  28.378  1.00  0.00     0.134 A 
ATOM     73  C   UNL A   1      38.635  28.639  30.627  1.00  0.00     0.134 A 
ATOM     74  F   UNL A   1      38.922  29.687  27.165  1.00  0.00    -0.206 F 
ATOM     75  C   UNL A   1      37.077  29.753  28.617  1.00  0.00     0.040 A 
ATOM     76  C   UNL A   1      37.294  28.936  30.872  1.00  0.00     0.040 A 
ATOM     77  F   UNL A   1      39.354  28.102  31.624  1.00  0.00    -0.206 F 
ATOM     78  C   UNL A   1      36.512  29.502  29.866  1.00  0.00     0.006 A 
ENDBRANCH  50  71
BRANCH  62  79
ATOM     79  C   UNL A   1      45.155  32.491  29.875  1.00  0.00     0.057 A 
ATOM     80  C   UNL A   1      45.150  33.515  28.920  1.00  0.00     0.134 A 
ATOM     81  C   UNL A   1      45.407  32.850  31.206  1.00  0.00     0.134 A 
ATOM     82  F   UNL A   1      44.928  33.238  27.626  1.00  0.00    -0.206 F 
ATOM     83  C   UNL A   1      45.409  34.842  29.271  1.00  0.00     0.040 A 
ATOM     84  C   UNL A   1      45.638  34.176  31.574  1.00  0.00     0.040 A 
ATOM     85  F   UNL A   1      45.418  31.920  32.173  1.00  0.00    -0.206 F 
ATOM     86  C   UNL A   1      45.646  35.176  30.604  1.00  0.00     0.006 A 
ENDBRANCH  62  79
ENDBRANCH  36  37
ENDBRANCH  28  31
ENDBRANCH  26  27
ENDBRANCH  25  26
ENDBRANCH  24  25
ENDBRANCH   1  24
TORSDOF 16
ENDMDL
MODEL 2
REMARK VINA RESULT:     -10.8      5.310      9.660
REMARK SMILES Cn1cc(SCC[C@@H]2CCC[C@@]2([NH3+])C(=O)NCCCCNC(=O)c2ccc(-c3c4nc(c(-c5c(F)cccc5F)c5ccc([nH]5)c(-c5c(F)cccc5F)c5nc(c(-c6c(F)cccc6F)c6ccc3[nH]6)C=C5)C=C4)cc2)cn1
REMARK SMILES IDX 17 1 16 2 14 3 15 4 12 6 8 7 9 8 10 9 11 10 7 11 6 12 5 13
REMARK SMILES IDX 4 14 1 15 2 16 3 17 79 18 78 19 13 20 18 24 19 25 20 26
REMARK SMILES IDX 21 27 22 28 23 30 24 31 25 32 77 33 26 34 76 35 27 36 28 37
REMARK SMILES IDX 29 38 70 39 30 40 75 41 69 42 71 43 31 44 74 45 68 46 67 47
REMARK SMILES IDX 32 49 58 50 41 51 57 52 42 53 45 54 56 55 72 56 43 57 44 58
REMARK SMILES IDX 55 60 73 61 46 62 33 63 34 64 39 65 35 66 36 67 38 68 40 69
REMARK SMILES IDX 37 70 59 71 60 72 65 73 61 74 62 75 64 76 66 77 63 78 47 79
REMARK SMILES IDX 48 80 53 81 49 82 50 83 52 84 54 85 51 86
REMARK H PARENT 16 5 13 21 13 22 13 23 21 29 71 48 45 59
REMARK Flexibility Score: inf
ROOT
ATOM      1  C   UNL A   1      31.453  29.924  25.355  1.00  0.00     0.116 C 
ENDROOT
BRANCH   1   2
ATOM      2  N   UNL A   1      32.638  29.507  24.657  1.00  0.00    -0.351 N 
ATOM      3  C   UNL A   1      33.317  28.343  24.591  1.00  0.00     0.281 C 
ATOM      4  O   UNL A   1      34.378  28.420  23.945  1.00  0.00    -0.268 OA
ATOM      5  H   UNL A   1      33.039  30.221  24.110  1.00  0.00     0.163 HD
BRANCH   3   6
ATOM      6  C   UNL A   1      32.938  26.972  25.262  1.00  0.00     0.176 C 
ATOM      7  C   UNL A   1      31.830  26.012  24.744  1.00  0.00     0.061 C 
ATOM      8  C   UNL A   1      32.315  24.634  25.253  1.00  0.00     0.011 C 
ATOM      9  C   UNL A   1      33.821  24.638  25.117  1.00  0.00     0.008 C 
ATOM     10  C   UNL A   1      34.206  26.098  24.974  1.00  0.00     0.079 C 
BRANCH   7  11
ATOM     11  C   UNL A   1      30.368  26.221  25.211  1.00  0.00     0.022 C 
BRANCH  11  12
ATOM     12  C   UNL A   1      29.398  26.709  24.109  1.00  0.00     0.075 C 
BRANCH  12  13
ATOM     13  S   UNL A   1      30.108  27.554  22.663  1.00  0.00    -0.123 SA
BRANCH  13  14
ATOM     14  C   UNL A   1      29.207  29.034  22.532  1.00  0.00     0.045 A 
ATOM     15  C   UNL A   1      28.154  32.140  21.114  1.00  0.00     0.173 C 
ATOM     16  N   UNL A   1      28.392  30.959  21.909  1.00  0.00    -0.275 N 
ATOM     17  C   UNL A   1      29.556  30.244  21.983  1.00  0.00     0.123 A 
ATOM     18  N   UNL A   1      27.365  30.378  22.556  1.00  0.00    -0.181 NA
ATOM     19  C   UNL A   1      27.867  29.198  22.936  1.00  0.00     0.150 A 
ENDBRANCH  13  14
ENDBRANCH  12  13
ENDBRANCH  11  12
ENDBRANCH   7  11
BRANCH   6  20
ATOM     20  N   UNL A   1      32.801  27.214  26.715  1.00  0.00    -0.345 N 
ATOM     21  H   UNL A   1      33.595  27.763  27.044  1.00  0.00     0.345 HD
ATOM     22  H   UNL A   1      32.779  26.321  27.208  1.00  0.00     0.345 HD
ATOM     23  H   UNL A   1      31.936  27.724  26.894  1.00  0.00     0.345 HD
ENDBRANCH   6  20
ENDBRANCH   3   6
ENDBRANCH   1   2
BRANCH   1  24
ATOM     24  C   UNL A   1      31.769  30.532  26.718  1.00  0.00     0.023 C 
BRANCH  24  25
ATOM     25  C   UNL A   1      31.537  32.042  26.810  1.00  0.00     0.023 C 
BRANCH  25  26
ATOM     26  C   UNL A   1      32.748  32.860  27.245  1.00  0.00     0.116 C 
BRANCH  26  27
ATOM     27  N   UNL A   1      32.415  34.232  27.597  1.00  0.00    -0.352 N 
ATOM     28  C   UNL A   1      32.984  35.040  28.552  1.00  0.00     0.251 C 
ATOM     29  H   UNL A   1      31.681  34.636  27.080  1.00  0.00     0.163 HD
ATOM     30  O   UNL A   1      32.491  36.134  28.808  1.00  0.00    -0.269 OA
BRANCH  28  31
ATOM     31  C   UNL A   1      34.170  34.570  29.298  1.00  0.00     0.039 A 
ATOM     32  C   UNL A   1      33.993  34.024  30.571  1.00  0.00     0.014 A 
ATOM     33  C   UNL A   1      35.447  34.646  28.737  1.00  0.00     0.014 A 
ATOM     34  C   UNL A   1      35.088  33.489  31.252  1.00  0.00     0.010 A 
ATOM     35  C   UNL A   1      36.523  34.044  29.383  1.00  0.00     0.010 A 
ATOM     36  C   UNL A   1      36.356  33.458  30.647  1.00  0.00    -0.014 A 
BRANCH  36  37
ATOM     37  C   UNL A   1      37.511  32.806  31.315  1.00  0.00     0.031 A 
ATOM     38  C   UNL A   1      38.177  31.613  30.689  1.00  0.00     0.074 A 
ATOM     39  C   UNL A   1      37.916  33.245  32.524  1.00  0.00     0.049 A 
ATOM     40  N   UNL A   1      39.156  30.875  31.149  1.00  0.00    -0.248 NA
ATOM     41  C   UNL A   1      37.654  31.170  29.387  1.00  0.00     0.031 C 
ATOM     42  C   UNL A   1      37.316  34.355  33.265  1.00  0.00     0.029 A 
ATOM     43  N   UNL A   1      38.920  32.800  33.348  1.00  0.00    -0.354 N 
ATOM     44  C   UNL A   1      39.353  29.876  30.205  1.00  0.00     0.074 A 
ATOM     45  C   UNL A   1      38.358  30.068  29.173  1.00  0.00     0.031 C 
ATOM     46  C   UNL A   1      37.974  34.516  34.424  1.00  0.00     0.029 A 
ATOM     47  C   UNL A   1      39.016  33.499  34.526  1.00  0.00     0.049 A 
ATOM     48  H   UNL A   1      39.516  32.051  33.115  1.00  0.00     0.167 HD
ATOM     49  C   UNL A   1      40.291  28.899  30.188  1.00  0.00     0.037 A 
ATOM     50  C   UNL A   1      39.843  33.334  35.577  1.00  0.00     0.037 A 
ATOM     51  C   UNL A   1      41.295  28.725  31.206  1.00  0.00     0.049 A 
ATOM     52  C   UNL A   1      40.880  32.248  35.533  1.00  0.00     0.074 A 
ATOM     53  C   UNL A   1      42.336  27.814  31.240  1.00  0.00     0.029 A 
ATOM     54  N   UNL A   1      41.377  29.469  32.373  1.00  0.00    -0.354 N 
ATOM     55  N   UNL A   1      41.111  31.363  34.592  1.00  0.00    -0.248 NA
ATOM     56  C   UNL A   1      41.777  32.140  36.692  1.00  0.00     0.031 C 
ATOM     57  C   UNL A   1      43.014  27.970  32.454  1.00  0.00     0.029 A 
ATOM     58  C   UNL A   1      42.432  29.018  33.149  1.00  0.00     0.049 A 
ATOM     59  H   UNL A   1      40.773  30.209  32.614  1.00  0.00     0.167 HD
ATOM     60  C   UNL A   1      42.193  30.612  35.033  1.00  0.00     0.074 A 
ATOM     61  C   UNL A   1      42.583  31.156  36.318  1.00  0.00     0.031 C 
ATOM     62  C   UNL A   1      42.809  29.567  34.428  1.00  0.00     0.037 A 
BRANCH  49  63
ATOM     63  C   UNL A   1      40.271  27.939  29.033  1.00  0.00     0.057 A 
ATOM     64  C   UNL A   1      39.524  26.753  29.065  1.00  0.00     0.134 A 
ATOM     65  C   UNL A   1      40.986  28.218  27.861  1.00  0.00     0.134 A 
ATOM     66  F   UNL A   1      38.824  26.419  30.159  1.00  0.00    -0.206 F 
ATOM     67  C   UNL A   1      39.516  25.865  27.987  1.00  0.00     0.040 A 
ATOM     68  C   UNL A   1      40.961  27.353  26.766  1.00  0.00     0.040 A 
ATOM     69  F   UNL A   1      41.716  29.339  27.758  1.00  0.00    -0.206 F 
ATOM     70  C   UNL A   1      40.231  26.167  26.830  1.00  0.00     0.006 A 
ENDBRANCH  49  63
BRANCH  50  71
ATOM     71  C   UNL A   1      39.730  34.233  36.753  1.00  0.00     0.057 A 
ATOM     72  C   UNL A   1      38.967  33.872  37.870  1.00  0.00     0.134 A 
ATOM     73  C   UNL A   1      40.383  35.471  36.792  1.00  0.00     0.134 A 
ATOM     74  F   UNL A   1      38.303  32.707  37.887  1.00  0.00    -0.206 F 
ATOM     75  C   UNL A   1      38.843  34.717  38.975  1.00  0.00     0.040 A 
ATOM     76  C   UNL A   1      40.291  36.313  37.901  1.00  0.00     0.040 A 
ATOM     77  F   UNL A   1      41.137  35.871  35.758  1.00  0.00    -0.206 F 
ATOM     78  C   UNL A   1      39.512  35.939  38.994  1.00  0.00     0.006 A 
ENDBRANCH  50  71
BRANCH  62  79
ATOM     79  C   UNL A   1      43.989  28.962  35.132  1.00  0.00     0.057 A 
ATOM     80  C   UNL A   1      43.848  27.912  36.048  1.00  0.00     0.134 A 
ATOM     81  C   UNL A   1      45.289  29.411  34.859  1.00  0.00     0.134 A 
ATOM     82  F   UNL A   1      42.632  27.442  36.363  1.00  0.00    -0.206 F 
ATOM     83  C   UNL A   1      44.955  27.347  36.686  1.00  0.00     0.040 A 
ATOM     84  C   UNL A   1      46.404  28.836  35.468  1.00  0.00     0.040 A 
ATOM     85  F   UNL A   1      45.496  30.407  33.985  1.00  0.00    -0.206 F 
ATOM     86  C   UNL A   1      46.238  27.805  36.391  1.00  0.00     0.006 A 
ENDBRANCH  62  79
ENDBRANCH  36  37
ENDBRANCH  28  31
ENDBRANCH  26  27
ENDBRANCH  25  26
ENDBRANCH  24  25
ENDBRANCH   1  24
TORSDOF 16
ENDMDL
MODEL 3
REMARK VINA RESULT:     -10.8      0.989      6.320
REMARK SMILES Cn1cc(SCC[C@@H]2CCC[C@@]2([NH3+])C(=O)NCCCCNC(=O)c2ccc(-c3c4nc(c(-c5c(F)cccc5F)c5ccc([nH]5)c(-c5c(F)cccc5F)c5nc(c(-c6c(F)cccc6F)c6ccc3[nH]6)C=C5)C=C4)cc2)cn1
REMARK SMILES IDX 17 1 16 2 14 3 15 4 12 6 8 7 9 8 10 9 11 10 7 11 6 12 5 13
REMARK SMILES IDX 4 14 1 15 2 16 3 17 79 18 78 19 13 20 18 24 19 25 20 26
REMARK SMILES IDX 21 27 22 28 23 30 24 31 25 32 77 33 26 34 76 35 27 36 28 37
REMARK SMILES IDX 29 38 70 39 30 40 75 41 69 42 71 43 31 44 74 45 68 46 67 47
REMARK SMILES IDX 32 49 58 50 41 51 57 52 42 53 45 54 56 55 72 56 43 57 44 58
REMARK SMILES IDX 55 60 73 61 46 62 33 63 34 64 39 65 35 66 36 67 38 68 40 69
REMARK SMILES IDX 37 70 59 71 60 72 65 73 61 74 62 75 64 76 66 77 63 78 47 79
REMARK SMILES IDX 48 80 53 81 49 82 50 83 52 84 54 85 51 86
REMARK H PARENT 16 5 13 21 13 22 13 23 21 29 71 48 45 59
REMARK Flexibility Score: inf
ROOT
ATOM      1  C   UNL A   1      36.386  21.718  25.654  1.00  0.00     0.116 C 
ENDROOT
BRANCH   1   2
ATOM      2  N   UNL A   1      35.441  21.640  26.734  1.00  0.00    -0.351 N 
ATOM      3  C   UNL A   1      34.093  21.617  26.791  1.00  0.00     0.281 C 
ATOM      4  O   UNL A   1      33.642  21.653  27.949  1.00  0.00    -0.268 OA
ATOM      5  H   UNL A   1      35.867  21.592  27.621  1.00  0.00     0.163 HD
BRANCH   3   6
ATOM      6  C   UNL A   1      33.083  21.601  25.586  1.00  0.00     0.176 C 
ATOM      7  C   UNL A   1      33.373  22.203  24.182  1.00  0.00     0.061 C 
ATOM      8  C   UNL A   1      32.461  21.361  23.260  1.00  0.00     0.011 C 
ATOM      9  C   UNL A   1      32.496  19.950  23.803  1.00  0.00     0.008 C 
ATOM     10  C   UNL A   1      33.026  20.080  25.218  1.00  0.00     0.079 C 
BRANCH   7  11
ATOM     11  C   UNL A   1      33.080  23.703  23.926  1.00  0.00     0.022 C 
BRANCH  11  12
ATOM     12  C   UNL A   1      31.973  23.979  22.881  1.00  0.00     0.075 C 
BRANCH  12  13
ATOM     13  S   UNL A   1      30.446  24.785  23.454  1.00  0.00    -0.123 SA
BRANCH  13  14
ATOM     14  C   UNL A   1      30.961  25.843  24.734  1.00  0.00     0.045 A 
ATOM     15  C   UNL A   1      31.790  28.931  26.329  1.00  0.00     0.173 C 
ATOM     16  N   UNL A   1      31.543  27.562  25.944  1.00  0.00    -0.275 N 
ATOM     17  C   UNL A   1      31.640  27.036  24.685  1.00  0.00     0.123 A 
ATOM     18  N   UNL A   1      31.033  26.703  26.845  1.00  0.00    -0.181 NA
ATOM     19  C   UNL A   1      30.676  25.650  26.101  1.00  0.00     0.150 A 
ENDBRANCH  13  14
ENDBRANCH  12  13
ENDBRANCH  11  12
ENDBRANCH   7  11
BRANCH   6  20
ATOM     20  N   UNL A   1      31.772  22.053  26.101  1.00  0.00    -0.345 N 
ATOM     21  H   UNL A   1      31.545  21.537  26.951  1.00  0.00     0.345 HD
ATOM     22  H   UNL A   1      31.053  21.882  25.399  1.00  0.00     0.345 HD
ATOM     23  H   UNL A   1      31.814  23.051  26.310  1.00  0.00     0.345 HD
ENDBRANCH   6  20
ENDBRANCH   3   6
ENDBRANCH   1   2
BRANCH   1  24
ATOM     24  C   UNL A   1      36.627  20.361  24.999  1.00  0.00     0.023 C 
BRANCH  24  25
ATOM     25  C   UNL A   1      38.087  20.079  24.637  1.00  0.00     0.023 C 
BRANCH  25  26
ATOM     26  C   UNL A   1      39.083  20.247  25.778  1.00  0.00     0.116 C 
BRANCH  26  27
ATOM     27  N   UNL A   1      40.038  19.153  25.869  1.00  0.00    -0.352 N 
ATOM     28  C   UNL A   1      41.383  19.202  26.147  1.00  0.00     0.251 C 
ATOM     29  H   UNL A   1      39.669  18.253  25.708  1.00  0.00     0.163 HD
ATOM     30  O   UNL A   1      42.070  18.189  26.055  1.00  0.00    -0.269 OA
BRANCH  28  31
ATOM     31  C   UNL A   1      42.008  20.487  26.521  1.00  0.00     0.039 A 
ATOM     32  C   UNL A   1      42.480  21.327  25.510  1.00  0.00     0.014 A 
ATOM     33  C   UNL A   1      42.107  20.874  27.861  1.00  0.00     0.014 A 
ATOM     34  C   UNL A   1      42.987  22.587  25.839  1.00  0.00     0.010 A 
ATOM     35  C   UNL A   1      42.541  22.158  28.179  1.00  0.00     0.010 A 
ATOM     36  C   UNL A   1      42.984  23.028  27.172  1.00  0.00    -0.014 A 
BRANCH  36  37
ATOM     37  C   UNL A   1      43.429  24.400  27.528  1.00  0.00     0.031 A 
ATOM     38  C   UNL A   1      42.423  25.450  27.911  1.00  0.00     0.074 A 
ATOM     39  C   UNL A   1      44.735  24.722  27.437  1.00  0.00     0.049 A 
ATOM     40  N   UNL A   1      42.612  26.714  28.193  1.00  0.00    -0.248 NA
ATOM     41  C   UNL A   1      41.013  25.032  27.950  1.00  0.00     0.031 C 
ATOM     42  C   UNL A   1      45.803  23.812  27.021  1.00  0.00     0.029 A 
ATOM     43  N   UNL A   1      45.383  25.908  27.676  1.00  0.00    -0.354 N 
ATOM     44  C   UNL A   1      41.350  27.244  28.428  1.00  0.00     0.074 A 
ATOM     45  C   UNL A   1      40.397  26.178  28.201  1.00  0.00     0.031 C 
ATOM     46  C   UNL A   1      46.974  24.467  27.051  1.00  0.00     0.029 A 
ATOM     47  C   UNL A   1      46.737  25.850  27.451  1.00  0.00     0.049 A 
ATOM     48  H   UNL A   1      44.922  26.724  27.980  1.00  0.00     0.167 HD
ATOM     49  C   UNL A   1      41.015  28.497  28.816  1.00  0.00     0.037 A 
ATOM     50  C   UNL A   1      47.681  26.807  27.545  1.00  0.00     0.037 A 
ATOM     51  C   UNL A   1      41.968  29.548  29.063  1.00  0.00     0.049 A 
ATOM     52  C   UNL A   1      47.288  28.189  27.984  1.00  0.00     0.074 A 
ATOM     53  C   UNL A   1      41.735  30.828  29.535  1.00  0.00     0.029 A 
ATOM     54  N   UNL A   1      43.334  29.445  28.849  1.00  0.00    -0.354 N 
ATOM     55  N   UNL A   1      46.098  28.652  28.286  1.00  0.00    -0.248 NA
ATOM     56  C   UNL A   1      48.366  29.180  28.104  1.00  0.00     0.031 C 
ATOM     57  C   UNL A   1      42.952  31.517  29.552  1.00  0.00     0.029 A 
ATOM     58  C   UNL A   1      43.953  30.647  29.149  1.00  0.00     0.049 A 
ATOM     59  H   UNL A   1      43.796  28.635  28.531  1.00  0.00     0.167 HD
ATOM     60  C   UNL A   1      46.288  29.978  28.656  1.00  0.00     0.074 A 
ATOM     61  C   UNL A   1      47.710  30.239  28.555  1.00  0.00     0.031 C 
ATOM     62  C   UNL A   1      45.370  30.896  29.044  1.00  0.00     0.037 A 
BRANCH  49  63
ATOM     63  C   UNL A   1      39.555  28.801  28.993  1.00  0.00     0.057 A 
ATOM     64  C   UNL A   1      38.898  28.606  30.216  1.00  0.00     0.134 A 
ATOM     65  C   UNL A   1      38.801  29.324  27.933  1.00  0.00     0.134 A 
ATOM     66  F   UNL A   1      39.556  28.100  31.269  1.00  0.00    -0.206 F 
ATOM     67  C   UNL A   1      37.538  28.888  30.368  1.00  0.00     0.040 A 
ATOM     68  C   UNL A   1      37.450  29.638  28.083  1.00  0.00     0.040 A 
ATOM     69  F   UNL A   1      39.368  29.542  26.737  1.00  0.00    -0.206 F 
ATOM     70  C   UNL A   1      36.812  29.412  29.301  1.00  0.00     0.006 A 
ENDBRANCH  49  63
BRANCH  50  71
ATOM     71  C   UNL A   1      49.096  26.482  27.229  1.00  0.00     0.057 A 
ATOM     72  C   UNL A   1      49.959  25.979  28.210  1.00  0.00     0.134 A 
ATOM     73  C   UNL A   1      49.617  26.663  25.943  1.00  0.00     0.134 A 
ATOM     74  F   UNL A   1      49.524  25.800  29.466  1.00  0.00    -0.206 F 
ATOM     75  C   UNL A   1      51.295  25.684  27.927  1.00  0.00     0.040 A 
ATOM     76  C   UNL A   1      50.942  26.347  25.639  1.00  0.00     0.040 A 
ATOM     77  F   UNL A   1      48.839  27.133  24.957  1.00  0.00    -0.206 F 
ATOM     78  C   UNL A   1      51.787  25.862  26.636  1.00  0.00     0.006 A 
ENDBRANCH  50  71
BRANCH  62  79
ATOM     79  C   UNL A   1      45.874  32.259  29.420  1.00  0.00     0.057 A 
ATOM     80  C   UNL A   1      45.946  33.305  28.492  1.00  0.00     0.134 A 
ATOM     81  C   UNL A   1      46.255  32.538  30.740  1.00  0.00     0.134 A 
ATOM     82  F   UNL A   1      45.608  33.102  27.209  1.00  0.00    -0.206 F 
ATOM     83  C   UNL A   1      46.404  34.573  28.856  1.00  0.00     0.040 A 
ATOM     84  C   UNL A   1      46.686  33.809  31.122  1.00  0.00     0.040 A 
ATOM     85  F   UNL A   1      46.200  31.584  31.681  1.00  0.00    -0.206 F 
ATOM     86  C   UNL A   1      46.768  34.829  30.177  1.00  0.00     0.006 A 
ENDBRANCH  62  79
ENDBRANCH  36  37
ENDBRANCH  28  31
ENDBRANCH  26  27
ENDBRANCH  25  26
ENDBRANCH  24  25
ENDBRANCH   1  24
TORSDOF 16
ENDMDL
