MODEL 1
REMARK VINA RESULT:     -12.0      0.000      0.000
REMARK SMILES O=C(NCCCCNC(=O)c1cc(/N=C/c2ccc([N+](=O)[O-])cc2)ccc1O)c1ccc(-c2c3nc(c(-c4c(F)cccc4F)c4ccc([nH]4)c(-c4c(F)cccc4F)c4nc(c(-c5c(F)cccc5F)c5ccc2[nH]5)C=C4)C=C3)cc1
REMARK SMILES IDX 6 1 5 2 4 3 3 4 1 5 2 6 29 8 30 9 82 10 31 11 81 12 32 13
REMARK SMILES IDX 33 14 34 15 75 16 35 17 80 18 74 19 76 20 36 21 79 22 73 23
REMARK SMILES IDX 72 24 37 26 63 27 46 28 62 29 47 30 50 31 61 32 77 33 48 34
REMARK SMILES IDX 49 35 60 37 78 38 51 39 38 40 39 41 44 42 40 43 41 44 43 45
REMARK SMILES IDX 45 46 42 47 64 48 65 49 70 50 66 51 67 52 69 53 71 54 68 55
REMARK SMILES IDX 52 56 53 57 58 58 54 59 55 60 57 61 59 62 56 63 7 64 8 65
REMARK SMILES IDX 9 66 10 68 11 69 12 70 27 71 13 72 26 73 25 74 28 75 14 77
REMARK SMILES IDX 15 78 16 79 17 80 24 81 18 82 23 83 19 84 20 85 21 86 22 87
REMARK H PARENT 3 7 76 25 50 36 8 67 28 76
REMARK Flexibility Score: inf
ROOT
ATOM      1  C   UNL A   1      31.310  30.602  25.719  1.00  0.00     0.023 C 
ENDROOT
BRANCH   1   2
ATOM      2  C   UNL A   1      31.194  31.905  26.505  1.00  0.00     0.023 C 
BRANCH   2   3
ATOM      3  C   UNL A   1      32.521  32.534  26.912  1.00  0.00     0.116 C 
BRANCH   3   4
ATOM      4  N   UNL A   1      32.368  33.886  27.430  1.00  0.00    -0.352 N 
ATOM      5  O   UNL A   1      32.694  35.612  28.846  1.00  0.00    -0.269 OA
ATOM      6  C   UNL A   1      33.061  34.515  28.436  1.00  0.00     0.251 C 
ATOM      7  H   UNL A   1      31.668  34.425  26.998  1.00  0.00     0.163 HD
BRANCH   6   8
ATOM      8  C   UNL A   1      34.240  33.858  29.036  1.00  0.00     0.039 A 
ATOM      9  C   UNL A   1      34.087  32.755  29.880  1.00  0.00     0.014 A 
ATOM     10  C   UNL A   1      35.517  34.342  28.738  1.00  0.00     0.014 A 
ATOM     11  C   UNL A   1      35.194  32.221  30.529  1.00  0.00     0.010 A 
ATOM     12  C   UNL A   1      36.639  33.748  29.324  1.00  0.00     0.010 A 
ATOM     13  C   UNL A   1      36.483  32.695  30.238  1.00  0.00    -0.014 A 
BRANCH  13  14
ATOM     14  C   UNL A   1      37.661  32.003  30.818  1.00  0.00     0.031 A 
ATOM     15  C   UNL A   1      38.399  30.941  30.055  1.00  0.00     0.074 A 
ATOM     16  C   UNL A   1      38.051  32.344  32.061  1.00  0.00     0.049 A 
ATOM     17  N   UNL A   1      39.421  30.217  30.437  1.00  0.00    -0.248 NA
ATOM     18  C   UNL A   1      37.930  30.644  28.692  1.00  0.00     0.031 C 
ATOM     19  C   UNL A   1      37.395  33.351  32.902  1.00  0.00     0.029 A 
ATOM     20  N   UNL A   1      39.082  31.885  32.839  1.00  0.00    -0.354 N 
ATOM     21  C   UNL A   1      39.704  29.367  29.377  1.00  0.00     0.074 A 
ATOM     22  C   UNL A   1      38.738  29.653  28.338  1.00  0.00     0.031 C 
ATOM     23  C   UNL A   1      38.053  33.450  34.065  1.00  0.00     0.029 A 
ATOM     24  C   UNL A   1      39.130  32.469  34.082  1.00  0.00     0.049 A 
ATOM     25  H   UNL A   1      39.726  31.205  32.536  1.00  0.00     0.167 HD
ATOM     26  C   UNL A   1      40.684  28.436  29.285  1.00  0.00     0.037 A 
ATOM     27  C   UNL A   1      39.928  32.217  35.135  1.00  0.00     0.037 A 
ATOM     28  C   UNL A   1      41.655  28.177  30.317  1.00  0.00     0.049 A 
ATOM     29  C   UNL A   1      40.979  31.154  35.014  1.00  0.00     0.074 A 
ATOM     30  C   UNL A   1      42.734  27.309  30.287  1.00  0.00     0.029 A 
ATOM     31  N   UNL A   1      41.657  28.770  31.571  1.00  0.00    -0.354 N 
ATOM     32  N   UNL A   1      41.278  30.405  33.980  1.00  0.00    -0.248 NA
ATOM     33  C   UNL A   1      41.798  30.893  36.204  1.00  0.00     0.031 C 
ATOM     34  C   UNL A   1      43.353  27.334  31.540  1.00  0.00     0.029 A 
ATOM     35  C   UNL A   1      42.692  28.255  32.336  1.00  0.00     0.049 A 
ATOM     36  H   UNL A   1      41.019  29.456  31.872  1.00  0.00     0.167 HD
ATOM     37  C   UNL A   1      42.324  29.592  34.392  1.00  0.00     0.074 A 
ATOM     38  C   UNL A   1      42.626  29.958  35.760  1.00  0.00     0.031 C 
ATOM     39  C   UNL A   1      42.974  28.627  33.699  1.00  0.00     0.037 A 
BRANCH  26  40
ATOM     40  C   UNL A   1      40.756  27.604  28.037  1.00  0.00     0.057 A 
ATOM     41  C   UNL A   1      41.524  27.987  26.931  1.00  0.00     0.134 A 
ATOM     42  C   UNL A   1      40.113  26.359  27.978  1.00  0.00     0.134 A 
ATOM     43  F   UNL A   1      42.159  29.168  26.920  1.00  0.00    -0.206 F 
ATOM     44  C   UNL A   1      41.642  27.166  25.807  1.00  0.00     0.040 A 
ATOM     45  C   UNL A   1      40.242  25.522  26.869  1.00  0.00     0.040 A 
ATOM     46  F   UNL A   1      39.369  25.928  29.008  1.00  0.00    -0.206 F 
ATOM     47  C   UNL A   1      41.007  25.926  25.778  1.00  0.00     0.006 A 
ENDBRANCH  26  40
BRANCH  27  48
ATOM     48  C   UNL A   1      39.730  32.958  36.405  1.00  0.00     0.057 A 
ATOM     49  C   UNL A   1      38.809  32.524  37.365  1.00  0.00     0.134 A 
ATOM     50  C   UNL A   1      40.462  34.119  36.690  1.00  0.00     0.134 A 
ATOM     51  F   UNL A   1      38.068  31.429  37.143  1.00  0.00    -0.206 F 
ATOM     52  C   UNL A   1      38.608  33.229  38.552  1.00  0.00     0.040 A 
ATOM     53  C   UNL A   1      40.292  34.816  37.886  1.00  0.00     0.040 A 
ATOM     54  F   UNL A   1      41.367  34.581  35.815  1.00  0.00    -0.206 F 
ATOM     55  C   UNL A   1      39.355  34.375  38.819  1.00  0.00     0.006 A 
ENDBRANCH  27  48
BRANCH  39  56
ATOM     56  C   UNL A   1      44.081  27.906  34.408  1.00  0.00     0.057 A 
ATOM     57  C   UNL A   1      43.858  26.698  35.080  1.00  0.00     0.134 A 
ATOM     58  C   UNL A   1      45.389  28.405  34.387  1.00  0.00     0.134 A 
ATOM     59  F   UNL A   1      42.623  26.177  35.152  1.00  0.00    -0.206 F 
ATOM     60  C   UNL A   1      44.895  26.018  35.719  1.00  0.00     0.040 A 
ATOM     61  C   UNL A   1      46.440  27.722  34.999  1.00  0.00     0.040 A 
ATOM     62  F   UNL A   1      45.670  29.555  33.755  1.00  0.00    -0.206 F 
ATOM     63  C   UNL A   1      46.193  26.526  35.672  1.00  0.00     0.006 A 
ENDBRANCH  39  56
ENDBRANCH  13  14
ENDBRANCH   6   8
ENDBRANCH   3   4
ENDBRANCH   2   3
ENDBRANCH   1   2
BRANCH   1  64
ATOM     64  C   UNL A   1      31.629  29.366  26.554  1.00  0.00     0.116 C 
BRANCH  64  65
ATOM     65  N   UNL A   1      33.006  29.332  27.015  1.00  0.00    -0.352 N 
ATOM     66  C   UNL A   1      34.067  28.657  26.461  1.00  0.00     0.255 C 
ATOM     67  H   UNL A   1      33.203  29.859  27.823  1.00  0.00     0.163 HD
ATOM     68  O   UNL A   1      35.174  28.694  26.991  1.00  0.00    -0.269 OA
BRANCH  66  69
ATOM     69  C   UNL A   1      33.853  27.819  25.266  1.00  0.00     0.083 A 
ATOM     70  C   UNL A   1      33.775  26.433  25.459  1.00  0.00     0.046 A 
ATOM     71  C   UNL A   1      33.691  28.360  23.986  1.00  0.00     0.128 A 
ATOM     72  C   UNL A   1      33.474  25.588  24.390  1.00  0.00     0.064 A 
ATOM     73  C   UNL A   1      33.375  27.529  22.916  1.00  0.00     0.049 A 
ATOM     74  C   UNL A   1      33.245  26.153  23.128  1.00  0.00     0.032 A 
BRANCH  71  75
ATOM     75  O   UNL A   1      33.807  29.707  23.782  1.00  0.00    -0.507 OA
ATOM     76  H   UNL A   1      33.179  30.293  24.156  1.00  0.00     0.293 HD
ENDBRANCH  71  75
BRANCH  72  77
ATOM     77  N   UNL A   1      33.332  24.213  24.639  1.00  0.00    -0.256 NA
ATOM     78  C   UNL A   1      33.401  23.401  23.634  1.00  0.00     0.119 C 
BRANCH  78  79
ATOM     79  C   UNL A   1      33.261  21.939  23.795  1.00  0.00    -0.007 A 
ATOM     80  C   UNL A   1      34.092  21.287  24.713  1.00  0.00     0.017 A 
ATOM     81  C   UNL A   1      32.313  21.219  23.061  1.00  0.00     0.017 A 
ATOM     82  C   UNL A   1      33.969  19.908  24.907  1.00  0.00     0.086 A 
ATOM     83  C   UNL A   1      32.182  19.841  23.253  1.00  0.00     0.086 A 
ATOM     84  C   UNL A   1      33.009  19.190  24.179  1.00  0.00     0.269 A 
BRANCH  84  85
ATOM     85  N   UNL A   1      32.866  17.744  24.398  1.00  0.00     0.062 N 
ATOM     86  O   UNL A   1      32.083  17.372  25.283  1.00  0.00    -0.258 OA
ATOM     87  O   UNL A   1      33.536  16.984  23.685  1.00  0.00    -0.258 OA
ENDBRANCH  84  85
ENDBRANCH  78  79
ENDBRANCH  72  77
ENDBRANCH  66  69
ENDBRANCH  64  65
ENDBRANCH   1  64
TORSDOF 15
ENDMDL
MODEL 2
REMARK VINA RESULT:     -11.9      1.966      2.688
REMARK SMILES O=C(NCCCCNC(=O)c1cc(/N=C/c2ccc([N+](=O)[O-])cc2)ccc1O)c1ccc(-c2c3nc(c(-c4c(F)cccc4F)c4ccc([nH]4)c(-c4c(F)cccc4F)c4nc(c(-c5c(F)cccc5F)c5ccc2[nH]5)C=C4)C=C3)cc1
REMARK SMILES IDX 6 1 5 2 4 3 3 4 1 5 2 6 29 8 30 9 82 10 31 11 81 12 32 13
REMARK SMILES IDX 33 14 34 15 75 16 35 17 80 18 74 19 76 20 36 21 79 22 73 23
REMARK SMILES IDX 72 24 37 26 63 27 46 28 62 29 47 30 50 31 61 32 77 33 48 34
REMARK SMILES IDX 49 35 60 37 78 38 51 39 38 40 39 41 44 42 40 43 41 44 43 45
REMARK SMILES IDX 45 46 42 47 64 48 65 49 70 50 66 51 67 52 69 53 71 54 68 55
REMARK SMILES IDX 52 56 53 57 58 58 54 59 55 60 57 61 59 62 56 63 7 64 8 65
REMARK SMILES IDX 9 66 10 68 11 69 12 70 27 71 13 72 26 73 25 74 28 75 14 77
REMARK SMILES IDX 15 78 16 79 17 80 24 81 18 82 23 83 19 84 20 85 21 86 22 87
REMARK H PARENT 3 7 76 25 50 36 8 67 28 76
REMARK Flexibility Score: inf
ROOT
ATOM      1  C   UNL A   1      31.376  30.456  25.916  1.00  0.00     0.023 C 
ENDROOT
BRANCH   1   2
ATOM      2  C   UNL A   1      31.335  31.919  26.348  1.00  0.00     0.023 C 
BRANCH   2   3
ATOM      3  C   UNL A   1      32.556  32.398  27.123  1.00  0.00     0.116 C 
BRANCH   3   4
ATOM      4  N   UNL A   1      32.454  33.792  27.530  1.00  0.00    -0.352 N 
ATOM      5  O   UNL A   1      32.862  35.618  28.791  1.00  0.00    -0.269 OA
ATOM      6  C   UNL A   1      33.187  34.481  28.466  1.00  0.00     0.251 C 
ATOM      7  H   UNL A   1      31.760  34.315  27.069  1.00  0.00     0.163 HD
BRANCH   6   8
ATOM      8  C   UNL A   1      34.361  33.840  29.095  1.00  0.00     0.039 A 
ATOM      9  C   UNL A   1      34.206  32.710  29.902  1.00  0.00     0.014 A 
ATOM     10  C   UNL A   1      35.634  34.366  28.861  1.00  0.00     0.014 A 
ATOM     11  C   UNL A   1      35.301  32.188  30.581  1.00  0.00     0.010 A 
ATOM     12  C   UNL A   1      36.748  33.787  29.474  1.00  0.00     0.010 A 
ATOM     13  C   UNL A   1      36.587  32.705  30.353  1.00  0.00    -0.014 A 
BRANCH  13  14
ATOM     14  C   UNL A   1      37.760  32.029  30.961  1.00  0.00     0.031 A 
ATOM     15  C   UNL A   1      38.524  30.969  30.220  1.00  0.00     0.074 A 
ATOM     16  C   UNL A   1      38.123  32.383  32.209  1.00  0.00     0.049 A 
ATOM     17  N   UNL A   1      39.546  30.259  30.627  1.00  0.00    -0.248 NA
ATOM     18  C   UNL A   1      38.084  30.658  28.851  1.00  0.00     0.031 C 
ATOM     19  C   UNL A   1      37.441  33.389  33.029  1.00  0.00     0.029 A 
ATOM     20  N   UNL A   1      39.143  31.941  33.010  1.00  0.00    -0.354 N 
ATOM     21  C   UNL A   1      39.858  29.404  29.579  1.00  0.00     0.074 A 
ATOM     22  C   UNL A   1      38.909  29.672  28.520  1.00  0.00     0.031 C 
ATOM     23  C   UNL A   1      38.075  33.504  34.204  1.00  0.00     0.029 A 
ATOM     24  C   UNL A   1      39.162  32.534  34.249  1.00  0.00     0.049 A 
ATOM     25  H   UNL A   1      39.800  31.265  32.724  1.00  0.00     0.167 HD
ATOM     26  C   UNL A   1      40.848  28.482  29.512  1.00  0.00     0.037 A 
ATOM     27  C   UNL A   1      39.942  32.298  35.319  1.00  0.00     0.037 A 
ATOM     28  C   UNL A   1      41.802  28.241  30.566  1.00  0.00     0.049 A 
ATOM     29  C   UNL A   1      41.006  31.246  35.226  1.00  0.00     0.074 A 
ATOM     30  C   UNL A   1      42.890  27.384  30.562  1.00  0.00     0.029 A 
ATOM     31  N   UNL A   1      41.774  28.843  31.814  1.00  0.00    -0.354 N 
ATOM     32  N   UNL A   1      41.332  30.492  34.204  1.00  0.00    -0.248 NA
ATOM     33  C   UNL A   1      41.804  31.001  36.434  1.00  0.00     0.031 C 
ATOM     34  C   UNL A   1      43.484  27.425  31.827  1.00  0.00     0.029 A 
ATOM     35  C   UNL A   1      42.799  28.345  32.603  1.00  0.00     0.049 A 
ATOM     36  H   UNL A   1      41.123  29.525  32.098  1.00  0.00     0.167 HD
ATOM     37  C   UNL A   1      42.378  29.693  34.641  1.00  0.00     0.074 A 
ATOM     38  C   UNL A   1      42.650  30.072  36.012  1.00  0.00     0.031 C 
ATOM     39  C   UNL A   1      43.051  28.729  33.968  1.00  0.00     0.037 A 
BRANCH  26  40
ATOM     40  C   UNL A   1      40.953  27.642  28.273  1.00  0.00     0.057 A 
ATOM     41  C   UNL A   1      40.274  26.425  28.140  1.00  0.00     0.134 A 
ATOM     42  C   UNL A   1      41.676  28.104  27.164  1.00  0.00     0.134 A 
ATOM     43  F   UNL A   1      39.569  25.924  29.164  1.00  0.00    -0.206 F 
ATOM     44  C   UNL A   1      40.320  25.691  26.952  1.00  0.00     0.040 A 
ATOM     45  C   UNL A   1      41.712  27.390  25.965  1.00  0.00     0.040 A 
ATOM     46  F   UNL A   1      42.341  29.267  27.221  1.00  0.00    -0.206 F 
ATOM     47  C   UNL A   1      41.033  26.178  25.857  1.00  0.00     0.006 A 
ENDBRANCH  26  40
BRANCH  27  48
ATOM     48  C   UNL A   1      39.712  33.046  36.580  1.00  0.00     0.057 A 
ATOM     49  C   UNL A   1      40.444  34.198  36.887  1.00  0.00     0.134 A 
ATOM     50  C   UNL A   1      38.752  32.624  37.509  1.00  0.00     0.134 A 
ATOM     51  F   UNL A   1      41.389  34.641  36.045  1.00  0.00    -0.206 F 
ATOM     52  C   UNL A   1      40.244  34.892  38.080  1.00  0.00     0.040 A 
ATOM     53  C   UNL A   1      38.520  33.327  38.692  1.00  0.00     0.040 A 
ATOM     54  F   UNL A   1      38.010  31.533  37.269  1.00  0.00    -0.206 F 
ATOM     55  C   UNL A   1      39.275  34.461  38.984  1.00  0.00     0.006 A 
ENDBRANCH  27  48
BRANCH  39  56
ATOM     56  C   UNL A   1      44.152  28.025  34.704  1.00  0.00     0.057 A 
ATOM     57  C   UNL A   1      43.928  26.821  35.382  1.00  0.00     0.134 A 
ATOM     58  C   UNL A   1      45.455  28.536  34.702  1.00  0.00     0.134 A 
ATOM     59  F   UNL A   1      42.696  26.289  35.436  1.00  0.00    -0.206 F 
ATOM     60  C   UNL A   1      44.959  26.156  36.046  1.00  0.00     0.040 A 
ATOM     61  C   UNL A   1      46.501  27.868  35.340  1.00  0.00     0.040 A 
ATOM     62  F   UNL A   1      45.737  29.683  34.066  1.00  0.00    -0.206 F 
ATOM     63  C   UNL A   1      46.253  26.677  36.018  1.00  0.00     0.006 A 
ENDBRANCH  39  56
ENDBRANCH  13  14
ENDBRANCH   6   8
ENDBRANCH   3   4
ENDBRANCH   2   3
ENDBRANCH   1   2
BRANCH   1  64
ATOM     64  C   UNL A   1      32.773  29.875  25.722  1.00  0.00     0.116 C 
BRANCH  64  65
ATOM     65  N   UNL A   1      33.139  29.733  24.323  1.00  0.00    -0.352 N 
ATOM     66  C   UNL A   1      33.169  28.584  23.569  1.00  0.00     0.255 C 
ATOM     67  H   UNL A   1      33.396  30.562  23.858  1.00  0.00     0.163 HD
ATOM     68  O   UNL A   1      33.541  28.617  22.399  1.00  0.00    -0.269 OA
BRANCH  66  69
ATOM     69  C   UNL A   1      32.828  27.292  24.196  1.00  0.00     0.083 A 
ATOM     70  C   UNL A   1      33.891  26.446  24.540  1.00  0.00     0.046 A 
ATOM     71  C   UNL A   1      31.511  26.920  24.483  1.00  0.00     0.128 A 
ATOM     72  C   UNL A   1      33.649  25.254  25.226  1.00  0.00     0.064 A 
ATOM     73  C   UNL A   1      31.260  25.743  25.181  1.00  0.00     0.049 A 
ATOM     74  C   UNL A   1      32.330  24.930  25.569  1.00  0.00     0.032 A 
BRANCH  71  75
ATOM     75  O   UNL A   1      30.466  27.721  24.114  1.00  0.00    -0.507 OA
ATOM     76  H   UNL A   1      29.585  27.441  24.265  1.00  0.00     0.293 HD
ENDBRANCH  71  75
BRANCH  72  77
ATOM     77  N   UNL A   1      34.746  24.470  25.617  1.00  0.00    -0.256 NA
ATOM     78  C   UNL A   1      35.350  23.771  24.710  1.00  0.00     0.119 C 
BRANCH  78  79
ATOM     79  C   UNL A   1      36.511  22.914  25.024  1.00  0.00    -0.007 A 
ATOM     80  C   UNL A   1      37.539  23.445  25.812  1.00  0.00     0.017 A 
ATOM     81  C   UNL A   1      36.582  21.596  24.561  1.00  0.00     0.017 A 
ATOM     82  C   UNL A   1      38.640  22.652  26.147  1.00  0.00     0.086 A 
ATOM     83  C   UNL A   1      37.679  20.797  24.895  1.00  0.00     0.086 A 
ATOM     84  C   UNL A   1      38.704  21.327  25.691  1.00  0.00     0.269 A 
BRANCH  84  85
ATOM     85  N   UNL A   1      39.851  20.488  26.061  1.00  0.00     0.062 N 
ATOM     86  O   UNL A   1      40.738  21.001  26.758  1.00  0.00    -0.258 OA
ATOM     87  O   UNL A   1      39.864  19.317  25.655  1.00  0.00    -0.258 OA
ENDBRANCH  84  85
ENDBRANCH  78  79
ENDBRANCH  72  77
ENDBRANCH  66  69
ENDBRANCH  64  65
ENDBRANCH   1  64
TORSDOF 15
ENDMDL
MODEL 3
REMARK VINA RESULT:     -11.8      4.938     10.372
REMARK SMILES O=C(NCCCCNC(=O)c1cc(/N=C/c2ccc([N+](=O)[O-])cc2)ccc1O)c1ccc(-c2c3nc(c(-c4c(F)cccc4F)c4ccc([nH]4)c(-c4c(F)cccc4F)c4nc(c(-c5c(F)cccc5F)c5ccc2[nH]5)C=C4)C=C3)cc1
REMARK SMILES IDX 6 1 5 2 4 3 3 4 1 5 2 6 29 8 30 9 82 10 31 11 81 12 32 13
REMARK SMILES IDX 33 14 34 15 75 16 35 17 80 18 74 19 76 20 36 21 79 22 73 23
REMARK SMILES IDX 72 24 37 26 63 27 46 28 62 29 47 30 50 31 61 32 77 33 48 34
REMARK SMILES IDX 49 35 60 37 78 38 51 39 38 40 39 41 44 42 40 43 41 44 43 45
REMARK SMILES IDX 45 46 42 47 64 48 65 49 70 50 66 51 67 52 69 53 71 54 68 55
REMARK SMILES IDX 52 56 53 57 58 58 54 59 55 60 57 61 59 62 56 63 7 64 8 65
REMARK SMILES IDX 9 66 10 68 11 69 12 70 27 71 13 72 26 73 25 74 28 75 14 77
REMARK SMILES IDX 15 78 16 79 17 80 24 81 18 82 23 83 19 84 20 85 21 86 22 87
REMARK H PARENT 3 7 76 25 50 36 8 67 28 76
REMARK Flexibility Score: inf
ROOT
ATOM      1  C   UNL A   1      36.636  19.934  24.960  1.00  0.00     0.023 C 
ENDROOT
BRANCH   1   2
ATOM      2  C   UNL A   1      38.094  19.575  24.687  1.00  0.00     0.023 C 
BRANCH   2   3
ATOM      3  C   UNL A   1      39.037  19.762  25.869  1.00  0.00     0.116 C 
BRANCH   3   4
ATOM      4  N   UNL A   1      40.176  18.857  25.829  1.00  0.00    -0.352 N 
ATOM      5  O   UNL A   1      42.353  18.266  25.751  1.00  0.00    -0.269 OA
ATOM      6  C   UNL A   1      41.514  19.136  25.966  1.00  0.00     0.251 C 
ATOM      7  H   UNL A   1      39.956  17.909  25.682  1.00  0.00     0.163 HD
BRANCH   6   8
ATOM      8  C   UNL A   1      41.944  20.495  26.355  1.00  0.00     0.039 A 
ATOM      9  C   UNL A   1      42.250  21.450  25.382  1.00  0.00     0.014 A 
ATOM     10  C   UNL A   1      42.025  20.824  27.711  1.00  0.00     0.014 A 
ATOM     11  C   UNL A   1      42.764  22.685  25.761  1.00  0.00     0.010 A 
ATOM     12  C   UNL A   1      42.459  22.096  28.092  1.00  0.00     0.010 A 
ATOM     13  C   UNL A   1      42.848  23.030  27.119  1.00  0.00    -0.014 A 
BRANCH  13  14
ATOM     14  C   UNL A   1      43.245  24.410  27.496  1.00  0.00     0.031 A 
ATOM     15  C   UNL A   1      42.226  25.428  27.920  1.00  0.00     0.074 A 
ATOM     16  C   UNL A   1      44.551  24.735  27.438  1.00  0.00     0.049 A 
ATOM     17  N   UNL A   1      42.408  26.685  28.242  1.00  0.00    -0.248 NA
ATOM     18  C   UNL A   1      40.824  24.989  27.985  1.00  0.00     0.031 C 
ATOM     19  C   UNL A   1      45.625  23.829  27.022  1.00  0.00     0.029 A 
ATOM     20  N   UNL A   1      45.200  25.909  27.721  1.00  0.00    -0.354 N 
ATOM     21  C   UNL A   1      41.147  27.192  28.526  1.00  0.00     0.074 A 
ATOM     22  C   UNL A   1      40.204  26.113  28.325  1.00  0.00     0.031 C 
ATOM     23  C   UNL A   1      46.799  24.471  27.101  1.00  0.00     0.029 A 
ATOM     24  C   UNL A   1      46.555  25.850  27.503  1.00  0.00     0.049 A 
ATOM     25  H   UNL A   1      44.740  26.714  28.050  1.00  0.00     0.167 HD
ATOM     26  C   UNL A   1      40.814  28.445  28.919  1.00  0.00     0.037 A 
ATOM     27  C   UNL A   1      47.495  26.809  27.580  1.00  0.00     0.037 A 
ATOM     28  C   UNL A   1      41.766  29.505  29.138  1.00  0.00     0.049 A 
ATOM     29  C   UNL A   1      47.088  28.195  27.982  1.00  0.00     0.074 A 
ATOM     30  C   UNL A   1      41.534  30.785  29.612  1.00  0.00     0.029 A 
ATOM     31  N   UNL A   1      43.126  29.415  28.883  1.00  0.00    -0.354 N 
ATOM     32  N   UNL A   1      45.901  28.642  28.313  1.00  0.00    -0.248 NA
ATOM     33  C   UNL A   1      48.146  29.213  28.014  1.00  0.00     0.031 C 
ATOM     34  C   UNL A   1      42.743  31.487  29.589  1.00  0.00     0.029 A 
ATOM     35  C   UNL A   1      43.738  30.629  29.149  1.00  0.00     0.049 A 
ATOM     36  H   UNL A   1      43.588  28.607  28.562  1.00  0.00     0.167 HD
ATOM     37  C   UNL A   1      46.070  29.989  28.602  1.00  0.00     0.074 A 
ATOM     38  C   UNL A   1      47.479  30.279  28.433  1.00  0.00     0.031 C 
ATOM     39  C   UNL A   1      45.141  30.903  28.970  1.00  0.00     0.037 A 
BRANCH  26  40
ATOM     40  C   UNL A   1      39.361  28.761  29.123  1.00  0.00     0.057 A 
ATOM     41  C   UNL A   1      38.741  28.636  30.371  1.00  0.00     0.134 A 
ATOM     42  C   UNL A   1      38.595  29.279  28.069  1.00  0.00     0.134 A 
ATOM     43  F   UNL A   1      39.415  28.142  31.420  1.00  0.00    -0.206 F 
ATOM     44  C   UNL A   1      37.407  29.006  30.563  1.00  0.00     0.040 A 
ATOM     45  C   UNL A   1      37.269  29.672  28.254  1.00  0.00     0.040 A 
ATOM     46  F   UNL A   1      39.131  29.433  26.849  1.00  0.00    -0.206 F 
ATOM     47  C   UNL A   1      36.671  29.535  29.504  1.00  0.00     0.006 A 
ENDBRANCH  26  40
BRANCH  27  48
ATOM     48  C   UNL A   1      48.901  26.495  27.226  1.00  0.00     0.057 A 
ATOM     49  C   UNL A   1      49.823  26.088  28.197  1.00  0.00     0.134 A 
ATOM     50  C   UNL A   1      49.357  26.595  25.905  1.00  0.00     0.134 A 
ATOM     51  F   UNL A   1      49.450  25.991  29.482  1.00  0.00    -0.206 F 
ATOM     52  C   UNL A   1      51.150  25.811  27.870  1.00  0.00     0.040 A 
ATOM     53  C   UNL A   1      50.674  26.291  25.560  1.00  0.00     0.040 A 
ATOM     54  F   UNL A   1      48.521  26.970  24.926  1.00  0.00    -0.206 F 
ATOM     55  C   UNL A   1      51.578  25.906  26.548  1.00  0.00     0.006 A 
ENDBRANCH  27  48
BRANCH  39  56
ATOM     56  C   UNL A   1      45.622  32.300  29.224  1.00  0.00     0.057 A 
ATOM     57  C   UNL A   1      46.109  32.693  30.476  1.00  0.00     0.134 A 
ATOM     58  C   UNL A   1      45.636  33.250  28.195  1.00  0.00     0.134 A 
ATOM     59  F   UNL A   1      46.105  31.834  31.508  1.00  0.00    -0.206 F 
ATOM     60  C   UNL A   1      46.578  33.987  30.702  1.00  0.00     0.040 A 
ATOM     61  C   UNL A   1      46.127  34.539  28.400  1.00  0.00     0.040 A 
ATOM     62  F   UNL A   1      45.189  32.934  26.970  1.00  0.00    -0.206 F 
ATOM     63  C   UNL A   1      46.595  34.913  29.659  1.00  0.00     0.006 A 
ENDBRANCH  39  56
ENDBRANCH  13  14
ENDBRANCH   6   8
ENDBRANCH   3   4
ENDBRANCH   2   3
ENDBRANCH   1   2
BRANCH   1  64
ATOM     64  C   UNL A   1      36.241  21.363  24.604  1.00  0.00     0.116 C 
BRANCH  64  65
ATOM     65  N   UNL A   1      37.012  22.361  25.326  1.00  0.00    -0.352 N 
ATOM     66  C   UNL A   1      36.543  23.409  26.081  1.00  0.00     0.255 C 
ATOM     67  H   UNL A   1      37.991  22.274  25.267  1.00  0.00     0.163 HD
ATOM     68  O   UNL A   1      37.324  24.199  26.603  1.00  0.00    -0.269 OA
BRANCH  66  69
ATOM     69  C   UNL A   1      35.088  23.630  26.196  1.00  0.00     0.083 A 
ATOM     70  C   UNL A   1      34.545  24.713  25.493  1.00  0.00     0.046 A 
ATOM     71  C   UNL A   1      34.256  22.785  26.938  1.00  0.00     0.128 A 
ATOM     72  C   UNL A   1      33.165  24.922  25.476  1.00  0.00     0.064 A 
ATOM     73  C   UNL A   1      32.877  22.974  26.915  1.00  0.00     0.049 A 
ATOM     74  C   UNL A   1      32.339  24.025  26.166  1.00  0.00     0.032 A 
BRANCH  71  75
ATOM     75  O   UNL A   1      34.782  21.750  27.661  1.00  0.00    -0.507 OA
ATOM     76  H   UNL A   1      35.011  20.949  27.232  1.00  0.00     0.293 HD
ENDBRANCH  71  75
BRANCH  72  77
ATOM     77  N   UNL A   1      32.655  25.975  24.699  1.00  0.00    -0.256 NA
ATOM     78  C   UNL A   1      31.383  26.209  24.749  1.00  0.00     0.119 C 
BRANCH  78  79
ATOM     79  C   UNL A   1      30.753  27.292  23.967  1.00  0.00    -0.007 A 
ATOM     80  C   UNL A   1      29.398  27.175  23.637  1.00  0.00     0.017 A 
ATOM     81  C   UNL A   1      31.484  28.418  23.573  1.00  0.00     0.017 A 
ATOM     82  C   UNL A   1      28.766  28.194  22.918  1.00  0.00     0.086 A 
ATOM     83  C   UNL A   1      30.857  29.441  22.857  1.00  0.00     0.086 A 
ATOM     84  C   UNL A   1      29.498  29.327  22.534  1.00  0.00     0.269 A 
BRANCH  84  85
ATOM     85  N   UNL A   1      28.828  30.406  21.796  1.00  0.00     0.062 N 
ATOM     86  O   UNL A   1      27.997  30.084  20.935  1.00  0.00    -0.258 OA
ATOM     87  O   UNL A   1      29.133  31.574  22.079  1.00  0.00    -0.258 OA
ENDBRANCH  84  85
ENDBRANCH  78  79
ENDBRANCH  72  77
ENDBRANCH  66  69
ENDBRANCH  64  65
ENDBRANCH   1  64
TORSDOF 15
ENDMDL
