MODEL 1
REMARK VINA RESULT:     -13.4      0.000      0.000
REMARK SMILES O=C1O[C@@H](c2ccc(O)c(O)c2)[C@H](C(=O)NCCCCNC(=O)c2ccc(-c3c4nc(c(-c5c(F)cccc5F)c5ccc([nH]5)c(-c5c(F)cccc5F)c5nc(c(-c6c(F)cccc6F)c6ccc3[nH]6)C=C5)C=C4)cc2)/C1=C\c1ccc(O)c(O)c1
REMARK SMILES IDX 18 1 17 2 16 3 14 4 15 5 13 7 1 8 2 9 3 10 78 11 4 12 79 13
REMARK SMILES IDX 5 14 6 15 12 16 7 17 10 18 8 19 11 20 9 22 80 24 81 25 87 26
REMARK SMILES IDX 82 27 85 28 83 29 86 30 84 32 19 34 20 35 21 36 22 37 23 39
REMARK SMILES IDX 24 40 25 41 77 42 26 43 76 44 27 45 28 46 29 47 70 48 30 49
REMARK SMILES IDX 75 50 69 51 71 52 31 53 74 54 68 55 67 56 32 58 58 59 41 60
REMARK SMILES IDX 57 61 42 62 45 63 56 64 72 65 43 66 44 67 55 69 73 70 46 71
REMARK SMILES IDX 33 72 34 73 39 74 35 75 36 76 38 77 40 78 37 79 59 80 60 81
REMARK SMILES IDX 65 82 61 83 62 84 64 85 66 86 63 87 47 88 48 89 53 90 49 91
REMARK SMILES IDX 50 92 52 93 54 94 51 95
REMARK H PARENT 16 6 11 21 9 23 86 31 84 33 21 38 71 57 45 68
REMARK Flexibility Score: inf
ROOT
ATOM      1  C   UNL A   1      31.814  30.728  26.135  1.00  0.00     0.023 C 
ENDROOT
BRANCH   1   2
ATOM      2  C   UNL A   1      32.160  29.544  27.025  1.00  0.00     0.116 C 
BRANCH   2   3
ATOM      3  N   UNL A   1      33.355  28.831  26.621  1.00  0.00    -0.355 N 
ATOM      4  C   UNL A   1      33.601  28.043  25.530  1.00  0.00     0.231 C 
ATOM      5  O   UNL A   1      34.773  27.708  25.348  1.00  0.00    -0.274 OA
ATOM      6  H   UNL A   1      34.118  28.930  27.235  1.00  0.00     0.163 HD
BRANCH   4   7
ATOM      7  C   UNL A   1      32.447  27.529  24.657  1.00  0.00     0.161 C 
ATOM      8  O   UNL A   1      33.690  26.751  21.396  1.00  0.00    -0.247 OA
ATOM      9  C   UNL A   1      33.121  27.197  22.376  1.00  0.00     0.335 C 
ATOM     10  O   UNL A   1      32.534  28.415  22.451  1.00  0.00    -0.453 OA
ATOM     11  C   UNL A   1      32.920  26.518  23.666  1.00  0.00     0.054 C 
ATOM     12  C   UNL A   1      31.882  28.592  23.719  1.00  0.00     0.224 C 
ATOM     13  C   UNL A   1      33.128  25.196  23.760  1.00  0.00     0.020 C 
BRANCH  12  14
ATOM     14  C   UNL A   1      30.356  28.576  23.584  1.00  0.00    -0.002 A 
ATOM     15  C   UNL A   1      29.645  29.705  23.111  1.00  0.00     0.012 A 
ATOM     16  C   UNL A   1      29.624  27.405  23.834  1.00  0.00     0.057 A 
ATOM     17  C   UNL A   1      28.267  29.665  22.871  1.00  0.00     0.050 A 
ATOM     18  C   UNL A   1      28.251  27.380  23.617  1.00  0.00     0.157 A 
ATOM     19  C   UNL A   1      27.577  28.495  23.128  1.00  0.00     0.157 A 
BRANCH  18  20
ATOM     20  O   UNL A   1      27.559  26.232  23.879  1.00  0.00    -0.504 OA
ATOM     21  H   UNL A   1      27.724  25.756  24.669  1.00  0.00     0.293 HD
ENDBRANCH  18  20
BRANCH  19  22
ATOM     22  O   UNL A   1      26.233  28.387  22.908  1.00  0.00    -0.504 OA
ATOM     23  H   UNL A   1      25.631  28.529  23.613  1.00  0.00     0.293 HD
ENDBRANCH  19  22
ENDBRANCH  12  14
BRANCH  13  24
ATOM     24  C   UNL A   1      32.936  24.411  24.977  1.00  0.00    -0.021 A 
ATOM     25  C   UNL A   1      34.020  23.799  25.625  1.00  0.00     0.012 A 
ATOM     26  C   UNL A   1      31.653  24.308  25.525  1.00  0.00     0.058 A 
ATOM     27  C   UNL A   1      33.824  23.060  26.796  1.00  0.00     0.051 A 
ATOM     28  C   UNL A   1      31.469  23.582  26.692  1.00  0.00     0.157 A 
ATOM     29  C   UNL A   1      32.542  22.957  27.321  1.00  0.00     0.157 A 
BRANCH  28  30
ATOM     30  O   UNL A   1      30.216  23.488  27.228  1.00  0.00    -0.504 OA
ATOM     31  H   UNL A   1      30.109  23.383  28.152  1.00  0.00     0.293 HD
ENDBRANCH  28  30
BRANCH  29  32
ATOM     32  O   UNL A   1      32.285  22.250  28.464  1.00  0.00    -0.504 OA
ATOM     33  H   UNL A   1      32.592  22.569  29.290  1.00  0.00     0.293 HD
ENDBRANCH  29  32
ENDBRANCH  13  24
ENDBRANCH   4   7
ENDBRANCH   2   3
ENDBRANCH   1   2
BRANCH   1  34
ATOM     34  C   UNL A   1      31.476  32.008  26.886  1.00  0.00     0.023 C 
BRANCH  34  35
ATOM     35  C   UNL A   1      32.679  32.807  27.366  1.00  0.00     0.116 C 
BRANCH  35  36
ATOM     36  N   UNL A   1      32.375  34.205  27.645  1.00  0.00    -0.352 N 
ATOM     37  C   UNL A   1      32.991  35.037  28.554  1.00  0.00     0.251 C 
ATOM     38  H   UNL A   1      31.643  34.603  27.122  1.00  0.00     0.163 HD
ATOM     39  O   UNL A   1      32.562  36.162  28.776  1.00  0.00    -0.269 OA
BRANCH  37  40
ATOM     40  C   UNL A   1      34.162  34.520  29.288  1.00  0.00     0.039 A 
ATOM     41  C   UNL A   1      33.974  33.873  30.510  1.00  0.00     0.014 A 
ATOM     42  C   UNL A   1      35.425  34.574  28.692  1.00  0.00     0.014 A 
ATOM     43  C   UNL A   1      35.047  33.201  31.099  1.00  0.00     0.010 A 
ATOM     44  C   UNL A   1      36.462  33.828  29.233  1.00  0.00     0.010 A 
ATOM     45  C   UNL A   1      36.285  33.134  30.441  1.00  0.00    -0.014 A 
BRANCH  45  46
ATOM     46  C   UNL A   1      37.436  32.376  30.994  1.00  0.00     0.031 A 
ATOM     47  C   UNL A   1      38.120  32.884  32.232  1.00  0.00     0.074 A 
ATOM     48  C   UNL A   1      37.924  31.302  30.341  1.00  0.00     0.049 A 
ATOM     49  N   UNL A   1      39.237  32.488  32.785  1.00  0.00    -0.248 NA
ATOM     50  C   UNL A   1      37.478  34.018  32.918  1.00  0.00     0.031 C 
ATOM     51  C   UNL A   1      37.368  30.723  29.117  1.00  0.00     0.029 A 
ATOM     52  N   UNL A   1      39.020  30.520  30.608  1.00  0.00    -0.354 N 
ATOM     53  C   UNL A   1      39.440  33.337  33.865  1.00  0.00     0.074 A 
ATOM     54  C   UNL A   1      38.368  34.307  33.853  1.00  0.00     0.031 C 
ATOM     55  C   UNL A   1      38.116  29.669  28.749  1.00  0.00     0.029 A 
ATOM     56  C   UNL A   1      39.232  29.529  29.679  1.00  0.00     0.049 A 
ATOM     57  H   UNL A   1      39.599  30.654  31.392  1.00  0.00     0.167 HD
ATOM     58  C   UNL A   1      40.418  33.296  34.800  1.00  0.00     0.037 A 
ATOM     59  C   UNL A   1      40.226  28.625  29.579  1.00  0.00     0.037 A 
ATOM     60  C   UNL A   1      41.469  32.315  34.822  1.00  0.00     0.049 A 
ATOM     61  C   UNL A   1      41.323  28.623  30.610  1.00  0.00     0.074 A 
ATOM     62  C   UNL A   1      42.487  32.164  35.747  1.00  0.00     0.029 A 
ATOM     63  N   UNL A   1      41.635  31.316  33.875  1.00  0.00    -0.354 N 
ATOM     64  N   UNL A   1      41.482  29.403  31.653  1.00  0.00    -0.248 NA
ATOM     65  C   UNL A   1      42.382  27.615  30.452  1.00  0.00     0.031 C 
ATOM     66  C   UNL A   1      43.297  31.104  35.333  1.00  0.00     0.029 A 
ATOM     67  C   UNL A   1      42.747  30.554  34.185  1.00  0.00     0.049 A 
ATOM     68  H   UNL A   1      41.048  31.170  33.098  1.00  0.00     0.167 HD
ATOM     69  C   UNL A   1      42.626  28.950  32.298  1.00  0.00     0.074 A 
ATOM     70  C   UNL A   1      43.122  27.828  31.531  1.00  0.00     0.031 C 
ATOM     71  C   UNL A   1      43.208  29.418  33.429  1.00  0.00     0.037 A 
BRANCH  58  72
ATOM     72  C   UNL A   1      40.390  34.343  35.876  1.00  0.00     0.057 A 
ATOM     73  C   UNL A   1      39.695  34.150  37.078  1.00  0.00     0.134 A 
ATOM     74  C   UNL A   1      41.085  35.548  35.719  1.00  0.00     0.134 A 
ATOM     75  F   UNL A   1      38.995  33.024  37.286  1.00  0.00    -0.206 F 
ATOM     76  C   UNL A   1      39.666  35.131  38.071  1.00  0.00     0.040 A 
ATOM     77  C   UNL A   1      41.091  36.523  36.719  1.00  0.00     0.040 A 
ATOM     78  F   UNL A   1      41.776  35.798  34.597  1.00  0.00    -0.206 F 
ATOM     79  C   UNL A   1      40.373  36.318  37.896  1.00  0.00     0.006 A 
ENDBRANCH  58  72
BRANCH  59  80
ATOM     80  C   UNL A   1      40.232  27.632  28.473  1.00  0.00     0.057 A 
ATOM     81  C   UNL A   1      39.584  26.397  28.611  1.00  0.00     0.134 A 
ATOM     82  C   UNL A   1      40.905  27.873  27.269  1.00  0.00     0.134 A 
ATOM     83  F   UNL A   1      38.936  26.098  29.746  1.00  0.00    -0.206 F 
ATOM     84  C   UNL A   1      39.630  25.429  27.607  1.00  0.00     0.040 A 
ATOM     85  C   UNL A   1      40.936  26.924  26.245  1.00  0.00     0.040 A 
ATOM     86  F   UNL A   1      41.539  29.037  27.069  1.00  0.00    -0.206 F 
ATOM     87  C   UNL A   1      40.305  25.693  26.417  1.00  0.00     0.006 A 
ENDBRANCH  59  80
BRANCH  71  88
ATOM     88  C   UNL A   1      44.402  28.677  33.957  1.00  0.00     0.057 A 
ATOM     89  C   UNL A   1      44.280  27.586  34.826  1.00  0.00     0.134 A 
ATOM     90  C   UNL A   1      45.691  29.020  33.526  1.00  0.00     0.134 A 
ATOM     91  F   UNL A   1      43.077  27.213  35.286  1.00  0.00    -0.206 F 
ATOM     92  C   UNL A   1      45.400  26.872  35.259  1.00  0.00     0.040 A 
ATOM     93  C   UNL A   1      46.814  28.296  33.927  1.00  0.00     0.040 A 
ATOM     94  F   UNL A   1      45.876  30.049  32.684  1.00  0.00    -0.206 F 
ATOM     95  C   UNL A   1      46.669  27.220  34.799  1.00  0.00     0.006 A 
ENDBRANCH  71  88
ENDBRANCH  45  46
ENDBRANCH  37  40
ENDBRANCH  35  36
ENDBRANCH  34  35
ENDBRANCH   1  34
TORSDOF 17
ENDMDL
MODEL 2
REMARK VINA RESULT:     -13.4      3.764      6.577
REMARK SMILES O=C1O[C@@H](c2ccc(O)c(O)c2)[C@H](C(=O)NCCCCNC(=O)c2ccc(-c3c4nc(c(-c5c(F)cccc5F)c5ccc([nH]5)c(-c5c(F)cccc5F)c5nc(c(-c6c(F)cccc6F)c6ccc3[nH]6)C=C5)C=C4)cc2)/C1=C\c1ccc(O)c(O)c1
REMARK SMILES IDX 18 1 17 2 16 3 14 4 15 5 13 7 1 8 2 9 3 10 78 11 4 12 79 13
REMARK SMILES IDX 5 14 6 15 12 16 7 17 10 18 8 19 11 20 9 22 80 24 81 25 87 26
REMARK SMILES IDX 82 27 85 28 83 29 86 30 84 32 19 34 20 35 21 36 22 37 23 39
REMARK SMILES IDX 24 40 25 41 77 42 26 43 76 44 27 45 28 46 29 47 70 48 30 49
REMARK SMILES IDX 75 50 69 51 71 52 31 53 74 54 68 55 67 56 32 58 58 59 41 60
REMARK SMILES IDX 57 61 42 62 45 63 56 64 72 65 43 66 44 67 55 69 73 70 46 71
REMARK SMILES IDX 33 72 34 73 39 74 35 75 36 76 38 77 40 78 37 79 59 80 60 81
REMARK SMILES IDX 65 82 61 83 62 84 64 85 66 86 63 87 47 88 48 89 53 90 49 91
REMARK SMILES IDX 50 92 52 93 54 94 51 95
REMARK H PARENT 16 6 11 21 9 23 86 31 84 33 21 38 71 57 45 68
REMARK Flexibility Score: inf
ROOT
ATOM      1  C   UNL A   1      31.769  27.527  26.776  1.00  0.00     0.023 C 
ENDROOT
BRANCH   1   2
ATOM      2  C   UNL A   1      32.371  26.165  26.467  1.00  0.00     0.116 C 
BRANCH   2   3
ATOM      3  N   UNL A   1      31.561  25.048  26.907  1.00  0.00    -0.355 N 
ATOM      4  C   UNL A   1      31.761  23.699  26.798  1.00  0.00     0.231 C 
ATOM      5  O   UNL A   1      30.986  22.977  27.428  1.00  0.00    -0.274 OA
ATOM      6  H   UNL A   1      30.725  25.303  27.361  1.00  0.00     0.163 HD
BRANCH   4   7
ATOM      7  C   UNL A   1      32.832  23.139  25.851  1.00  0.00     0.161 C 
ATOM      8  O   UNL A   1      31.778  19.945  24.635  1.00  0.00    -0.247 OA
ATOM      9  C   UNL A   1      32.337  20.893  25.158  1.00  0.00     0.335 C 
ATOM     10  O   UNL A   1      33.201  20.814  26.197  1.00  0.00    -0.453 OA
ATOM     11  C   UNL A   1      32.224  22.308  24.770  1.00  0.00     0.054 C 
ATOM     12  C   UNL A   1      33.741  22.107  26.513  1.00  0.00     0.224 C 
ATOM     13  C   UNL A   1      31.681  22.631  23.586  1.00  0.00     0.020 C 
BRANCH  12  14
ATOM     14  C   UNL A   1      35.220  22.219  26.126  1.00  0.00    -0.002 A 
ATOM     15  C   UNL A   1      35.934  23.430  26.285  1.00  0.00     0.012 A 
ATOM     16  C   UNL A   1      35.935  21.093  25.692  1.00  0.00     0.057 A 
ATOM     17  C   UNL A   1      37.311  23.514  26.046  1.00  0.00     0.050 A 
ATOM     18  C   UNL A   1      37.298  21.190  25.432  1.00  0.00     0.157 A 
ATOM     19  C   UNL A   1      37.986  22.385  25.619  1.00  0.00     0.157 A 
BRANCH  18  20
ATOM     20  O   UNL A   1      37.971  20.084  24.999  1.00  0.00    -0.504 OA
ATOM     21  H   UNL A   1      38.533  19.617  25.586  1.00  0.00     0.293 HD
ENDBRANCH  18  20
BRANCH  19  22
ATOM     22  O   UNL A   1      39.330  22.397  25.376  1.00  0.00    -0.504 OA
ATOM     23  H   UNL A   1      39.645  22.428  24.494  1.00  0.00     0.293 HD
ENDBRANCH  19  22
ENDBRANCH  12  14
BRANCH  13  24
ATOM     24  C   UNL A   1      31.541  23.995  23.083  1.00  0.00    -0.021 A 
ATOM     25  C   UNL A   1      30.513  24.836  23.539  1.00  0.00     0.012 A 
ATOM     26  C   UNL A   1      32.476  24.480  22.163  1.00  0.00     0.058 A 
ATOM     27  C   UNL A   1      30.398  26.144  23.057  1.00  0.00     0.051 A 
ATOM     28  C   UNL A   1      32.360  25.781  21.697  1.00  0.00     0.157 A 
ATOM     29  C   UNL A   1      31.327  26.607  22.134  1.00  0.00     0.157 A 
BRANCH  28  30
ATOM     30  O   UNL A   1      33.278  26.254  20.803  1.00  0.00    -0.504 OA
ATOM     31  H   UNL A   1      34.174  25.987  20.867  1.00  0.00     0.293 HD
ENDBRANCH  28  30
BRANCH  29  32
ATOM     32  O   UNL A   1      31.270  27.875  21.626  1.00  0.00    -0.504 OA
ATOM     33  H   UNL A   1      31.796  28.108  20.886  1.00  0.00     0.293 HD
ENDBRANCH  29  32
ENDBRANCH  13  24
ENDBRANCH   4   7
ENDBRANCH   2   3
ENDBRANCH   1   2
BRANCH   1  34
ATOM     34  C   UNL A   1      32.643  28.710  26.381  1.00  0.00     0.023 C 
BRANCH  34  35
ATOM     35  C   UNL A   1      33.874  28.916  27.251  1.00  0.00     0.116 C 
BRANCH  35  36
ATOM     36  N   UNL A   1      33.888  30.199  27.945  1.00  0.00    -0.352 N 
ATOM     37  C   UNL A   1      34.927  30.765  28.651  1.00  0.00     0.251 C 
ATOM     38  H   UNL A   1      33.057  30.723  27.904  1.00  0.00     0.163 HD
ATOM     39  O   UNL A   1      34.772  31.798  29.288  1.00  0.00    -0.269 OA
BRANCH  37  40
ATOM     40  C   UNL A   1      36.228  30.067  28.653  1.00  0.00     0.039 A 
ATOM     41  C   UNL A   1      37.068  30.182  27.544  1.00  0.00     0.014 A 
ATOM     42  C   UNL A   1      36.652  29.407  29.809  1.00  0.00     0.014 A 
ATOM     43  C   UNL A   1      38.377  29.703  27.627  1.00  0.00     0.010 A 
ATOM     44  C   UNL A   1      37.979  29.018  29.919  1.00  0.00     0.010 A 
ATOM     45  C   UNL A   1      38.855  29.161  28.830  1.00  0.00    -0.014 A 
BRANCH  45  46
ATOM     46  C   UNL A   1      40.258  28.700  28.988  1.00  0.00     0.031 A 
ATOM     47  C   UNL A   1      41.294  29.668  29.488  1.00  0.00     0.074 A 
ATOM     48  C   UNL A   1      40.619  27.462  28.594  1.00  0.00     0.049 A 
ATOM     49  N   UNL A   1      42.594  29.539  29.538  1.00  0.00    -0.248 NA
ATOM     50  C   UNL A   1      40.799  30.971  29.961  1.00  0.00     0.031 C 
ATOM     51  C   UNL A   1      39.716  26.437  28.069  1.00  0.00     0.029 A 
ATOM     52  N   UNL A   1      41.855  26.865  28.555  1.00  0.00    -0.354 N 
ATOM     53  C   UNL A   1      43.071  30.750  30.023  1.00  0.00     0.074 A 
ATOM     54  C   UNL A   1      41.929  31.620  30.192  1.00  0.00     0.031 C 
ATOM     55  C   UNL A   1      40.425  25.334  27.775  1.00  0.00     0.029 A 
ATOM     56  C   UNL A   1      41.837  25.590  28.042  1.00  0.00     0.049 A 
ATOM     57  H   UNL A   1      42.677  27.309  28.867  1.00  0.00     0.167 HD
ATOM     58  C   UNL A   1      44.343  31.098  30.326  1.00  0.00     0.037 A 
ATOM     59  C   UNL A   1      42.848  24.734  27.796  1.00  0.00     0.037 A 
ATOM     60  C   UNL A   1      45.473  30.221  30.177  1.00  0.00     0.049 A 
ATOM     61  C   UNL A   1      44.260  25.158  28.106  1.00  0.00     0.074 A 
ATOM     62  C   UNL A   1      46.799  30.463  30.491  1.00  0.00     0.029 A 
ATOM     63  N   UNL A   1      45.409  28.930  29.675  1.00  0.00    -0.354 N 
ATOM     64  N   UNL A   1      44.694  26.290  28.606  1.00  0.00    -0.248 NA
ATOM     65  C   UNL A   1      45.324  24.185  27.818  1.00  0.00     0.031 C 
ATOM     66  C   UNL A   1      47.544  29.337  30.132  1.00  0.00     0.029 A 
ATOM     67  C   UNL A   1      46.673  28.369  29.655  1.00  0.00     0.049 A 
ATOM     68  H   UNL A   1      44.586  28.479  29.376  1.00  0.00     0.167 HD
ATOM     69  C   UNL A   1      46.071  26.146  28.737  1.00  0.00     0.074 A 
ATOM     70  C   UNL A   1      46.399  24.819  28.264  1.00  0.00     0.031 C 
ATOM     71  C   UNL A   1      46.979  27.033  29.213  1.00  0.00     0.037 A 
BRANCH  58  72
ATOM     72  C   UNL A   1      44.575  32.485  30.850  1.00  0.00     0.057 A 
ATOM     73  C   UNL A   1      44.541  32.772  32.221  1.00  0.00     0.134 A 
ATOM     74  C   UNL A   1      44.859  33.542  29.977  1.00  0.00     0.134 A 
ATOM     75  F   UNL A   1      44.260  31.809  33.112  1.00  0.00    -0.206 F 
ATOM     76  C   UNL A   1      44.750  34.066  32.703  1.00  0.00     0.040 A 
ATOM     77  C   UNL A   1      45.102  34.834  30.447  1.00  0.00     0.040 A 
ATOM     78  F   UNL A   1      44.912  33.337  28.652  1.00  0.00    -0.206 F 
ATOM     79  C   UNL A   1      45.040  35.099  31.815  1.00  0.00     0.006 A 
ENDBRANCH  58  72
BRANCH  59  80
ATOM     80  C   UNL A   1      42.573  23.384  27.240  1.00  0.00     0.057 A 
ATOM     81  C   UNL A   1      42.114  22.347  28.062  1.00  0.00     0.134 A 
ATOM     82  C   UNL A   1      42.789  23.086  25.889  1.00  0.00     0.134 A 
ATOM     83  F   UNL A   1      41.905  22.563  29.368  1.00  0.00    -0.206 F 
ATOM     84  C   UNL A   1      41.909  21.057  27.569  1.00  0.00     0.040 A 
ATOM     85  C   UNL A   1      42.560  21.807  25.376  1.00  0.00     0.040 A 
ATOM     86  F   UNL A   1      43.220  24.035  25.045  1.00  0.00    -0.206 F 
ATOM     87  C   UNL A   1      42.128  20.785  26.220  1.00  0.00     0.006 A 
ENDBRANCH  59  80
BRANCH  71  88
ATOM     88  C   UNL A   1      48.405  26.579  29.323  1.00  0.00     0.057 A 
ATOM     89  C   UNL A   1      49.347  26.821  28.317  1.00  0.00     0.134 A 
ATOM     90  C   UNL A   1      48.855  25.953  30.494  1.00  0.00     0.134 A 
ATOM     91  F   UNL A   1      48.979  27.405  27.167  1.00  0.00    -0.206 F 
ATOM     92  C   UNL A   1      50.684  26.443  28.464  1.00  0.00     0.040 A 
ATOM     93  C   UNL A   1      50.194  25.598  30.665  1.00  0.00     0.040 A 
ATOM     94  F   UNL A   1      48.006  25.701  31.502  1.00  0.00    -0.206 F 
ATOM     95  C   UNL A   1      51.111  25.840  29.646  1.00  0.00     0.006 A 
ENDBRANCH  71  88
ENDBRANCH  45  46
ENDBRANCH  37  40
ENDBRANCH  35  36
ENDBRANCH  34  35
ENDBRANCH   1  34
TORSDOF 17
ENDMDL
MODEL 3
REMARK VINA RESULT:     -13.3      5.061     10.261
REMARK SMILES O=C1O[C@@H](c2ccc(O)c(O)c2)[C@H](C(=O)NCCCCNC(=O)c2ccc(-c3c4nc(c(-c5c(F)cccc5F)c5ccc([nH]5)c(-c5c(F)cccc5F)c5nc(c(-c6c(F)cccc6F)c6ccc3[nH]6)C=C5)C=C4)cc2)/C1=C\c1ccc(O)c(O)c1
REMARK SMILES IDX 18 1 17 2 16 3 14 4 15 5 13 7 1 8 2 9 3 10 78 11 4 12 79 13
REMARK SMILES IDX 5 14 6 15 12 16 7 17 10 18 8 19 11 20 9 22 80 24 81 25 87 26
REMARK SMILES IDX 82 27 85 28 83 29 86 30 84 32 19 34 20 35 21 36 22 37 23 39
REMARK SMILES IDX 24 40 25 41 77 42 26 43 76 44 27 45 28 46 29 47 70 48 30 49
REMARK SMILES IDX 75 50 69 51 71 52 31 53 74 54 68 55 67 56 32 58 58 59 41 60
REMARK SMILES IDX 57 61 42 62 45 63 56 64 72 65 43 66 44 67 55 69 73 70 46 71
REMARK SMILES IDX 33 72 34 73 39 74 35 75 36 76 38 77 40 78 37 79 59 80 60 81
REMARK SMILES IDX 65 82 61 83 62 84 64 85 66 86 63 87 47 88 48 89 53 90 49 91
REMARK SMILES IDX 50 92 52 93 54 94 51 95
REMARK H PARENT 16 6 11 21 9 23 86 31 84 33 21 38 71 57 45 68
REMARK Flexibility Score: inf
ROOT
ATOM      1  C   UNL A   1      37.131  20.412  25.003  1.00  0.00     0.023 C 
ENDROOT
BRANCH   1   2
ATOM      2  C   UNL A   1      36.975  21.738  24.275  1.00  0.00     0.116 C 
BRANCH   2   3
ATOM      3  N   UNL A   1      36.682  22.858  25.146  1.00  0.00    -0.355 N 
ATOM      4  C   UNL A   1      35.509  23.257  25.727  1.00  0.00     0.231 C 
ATOM      5  O   UNL A   1      35.592  24.151  26.572  1.00  0.00    -0.274 OA
ATOM      6  H   UNL A   1      37.457  23.428  25.355  1.00  0.00     0.163 HD
BRANCH   4   7
ATOM      7  C   UNL A   1      34.165  22.684  25.258  1.00  0.00     0.161 C 
ATOM      8  O   UNL A   1      31.766  22.989  27.891  1.00  0.00    -0.247 OA
ATOM      9  C   UNL A   1      32.542  22.623  27.027  1.00  0.00     0.335 C 
ATOM     10  O   UNL A   1      33.105  21.394  26.951  1.00  0.00    -0.453 OA
ATOM     11  C   UNL A   1      33.016  23.408  25.875  1.00  0.00     0.054 C 
ATOM     12  C   UNL A   1      33.905  21.268  25.764  1.00  0.00     0.224 C 
ATOM     13  C   UNL A   1      32.382  24.542  25.540  1.00  0.00     0.020 C 
BRANCH  12  14
ATOM     14  C   UNL A   1      33.260  20.331  24.737  1.00  0.00    -0.002 A 
ATOM     15  C   UNL A   1      32.688  20.829  23.543  1.00  0.00     0.012 A 
ATOM     16  C   UNL A   1      33.304  18.939  24.907  1.00  0.00     0.057 A 
ATOM     17  C   UNL A   1      32.203  19.978  22.544  1.00  0.00     0.050 A 
ATOM     18  C   UNL A   1      32.796  18.100  23.921  1.00  0.00     0.157 A 
ATOM     19  C   UNL A   1      32.262  18.611  22.743  1.00  0.00     0.157 A 
BRANCH  18  20
ATOM     20  O   UNL A   1      32.840  16.749  24.114  1.00  0.00    -0.504 OA
ATOM     21  H   UNL A   1      33.004  16.403  24.969  1.00  0.00     0.293 HD
ENDBRANCH  18  20
BRANCH  19  22
ATOM     22  O   UNL A   1      31.812  17.725  21.805  1.00  0.00    -0.504 OA
ATOM     23  H   UNL A   1      31.768  16.811  22.008  1.00  0.00     0.293 HD
ENDBRANCH  19  22
ENDBRANCH  12  14
BRANCH  13  24
ATOM     24  C   UNL A   1      32.744  25.388  24.405  1.00  0.00    -0.021 A 
ATOM     25  C   UNL A   1      33.435  26.596  24.590  1.00  0.00     0.012 A 
ATOM     26  C   UNL A   1      32.431  24.960  23.110  1.00  0.00     0.058 A 
ATOM     27  C   UNL A   1      33.784  27.391  23.494  1.00  0.00     0.051 A 
ATOM     28  C   UNL A   1      32.790  25.749  22.028  1.00  0.00     0.157 A 
ATOM     29  C   UNL A   1      33.455  26.958  22.215  1.00  0.00     0.157 A 
BRANCH  28  30
ATOM     30  O   UNL A   1      32.488  25.326  20.765  1.00  0.00    -0.504 OA
ATOM     31  H   UNL A   1      33.159  24.968  20.219  1.00  0.00     0.293 HD
ENDBRANCH  28  30
BRANCH  29  32
ATOM     32  O   UNL A   1      33.771  27.689  21.102  1.00  0.00    -0.504 OA
ATOM     33  H   UNL A   1      33.091  28.090  20.598  1.00  0.00     0.293 HD
ENDBRANCH  29  32
ENDBRANCH  13  24
ENDBRANCH   4   7
ENDBRANCH   2   3
ENDBRANCH   1   2
BRANCH   1  34
ATOM     34  C   UNL A   1      38.445  19.692  24.734  1.00  0.00     0.023 C 
BRANCH  34  35
ATOM     35  C   UNL A   1      39.538  19.946  25.762  1.00  0.00     0.116 C 
BRANCH  35  36
ATOM     36  N   UNL A   1      40.481  18.842  25.895  1.00  0.00    -0.352 N 
ATOM     37  C   UNL A   1      41.831  18.912  26.159  1.00  0.00     0.251 C 
ATOM     38  H   UNL A   1      40.108  17.938  25.783  1.00  0.00     0.163 HD
ATOM     39  O   UNL A   1      42.536  17.912  26.130  1.00  0.00    -0.269 OA
BRANCH  37  40
ATOM     40  C   UNL A   1      42.416  20.238  26.440  1.00  0.00     0.039 A 
ATOM     41  C   UNL A   1      42.987  20.969  25.397  1.00  0.00     0.014 A 
ATOM     42  C   UNL A   1      42.280  20.793  27.714  1.00  0.00     0.014 A 
ATOM     43  C   UNL A   1      43.348  22.300  25.614  1.00  0.00     0.010 A 
ATOM     44  C   UNL A   1      42.552  22.141  27.899  1.00  0.00     0.010 A 
ATOM     45  C   UNL A   1      43.089  22.909  26.853  1.00  0.00    -0.014 A 
BRANCH  45  46
ATOM     46  C   UNL A   1      43.392  24.339  27.111  1.00  0.00     0.031 A 
ATOM     47  C   UNL A   1      44.820  24.806  27.053  1.00  0.00     0.074 A 
ATOM     48  C   UNL A   1      42.415  25.187  27.490  1.00  0.00     0.049 A 
ATOM     49  N   UNL A   1      45.332  25.955  27.410  1.00  0.00    -0.248 NA
ATOM     50  C   UNL A   1      45.809  23.832  26.563  1.00  0.00     0.031 C 
ATOM     51  C   UNL A   1      40.995  24.854  27.608  1.00  0.00     0.029 A 
ATOM     52  N   UNL A   1      42.477  26.506  27.868  1.00  0.00    -0.354 N 
ATOM     53  C   UNL A   1      46.701  25.832  27.209  1.00  0.00     0.074 A 
ATOM     54  C   UNL A   1      46.946  24.480  26.762  1.00  0.00     0.031 C 
ATOM     55  C   UNL A   1      40.319  25.942  28.015  1.00  0.00     0.029 A 
ATOM     56  C   UNL A   1      41.263  27.034  28.235  1.00  0.00     0.049 A 
ATOM     57  H   UNL A   1      43.314  27.025  27.875  1.00  0.00     0.167 HD
ATOM     58  C   UNL A   1      47.665  26.771  27.359  1.00  0.00     0.037 A 
ATOM     59  C   UNL A   1      40.950  28.253  28.715  1.00  0.00     0.037 A 
ATOM     60  C   UNL A   1      47.413  28.122  27.782  1.00  0.00     0.049 A 
ATOM     61  C   UNL A   1      42.045  29.268  28.909  1.00  0.00     0.074 A 
ATOM     62  C   UNL A   1      48.316  29.160  27.930  1.00  0.00     0.029 A 
ATOM     63  N   UNL A   1      46.166  28.621  28.124  1.00  0.00    -0.354 N 
ATOM     64  N   UNL A   1      43.331  29.155  28.674  1.00  0.00    -0.248 NA
ATOM     65  C   UNL A   1      41.648  30.583  29.435  1.00  0.00     0.031 C 
ATOM     66  C   UNL A   1      47.621  30.275  28.408  1.00  0.00     0.029 A 
ATOM     67  C   UNL A   1      46.277  29.949  28.496  1.00  0.00     0.049 A 
ATOM     68  H   UNL A   1      45.325  28.108  28.104  1.00  0.00     0.167 HD
ATOM     69  C   UNL A   1      43.885  30.393  28.976  1.00  0.00     0.074 A 
ATOM     70  C   UNL A   1      42.797  31.243  29.412  1.00  0.00     0.031 C 
ATOM     71  C   UNL A   1      45.178  30.791  28.894  1.00  0.00     0.037 A 
BRANCH  58  72
ATOM     72  C   UNL A   1      49.078  26.363  27.059  1.00  0.00     0.057 A 
ATOM     73  C   UNL A   1      49.932  25.868  28.054  1.00  0.00     0.134 A 
ATOM     74  C   UNL A   1      49.585  26.446  25.756  1.00  0.00     0.134 A 
ATOM     75  F   UNL A   1      49.515  25.778  29.326  1.00  0.00    -0.206 F 
ATOM     76  C   UNL A   1      51.248  25.498  27.769  1.00  0.00     0.040 A 
ATOM     77  C   UNL A   1      50.888  26.048  25.453  1.00  0.00     0.040 A 
ATOM     78  F   UNL A   1      48.821  26.906  24.754  1.00  0.00    -0.206 F 
ATOM     79  C   UNL A   1      51.726  25.580  26.464  1.00  0.00     0.006 A 
ENDBRANCH  58  72
BRANCH  59  80
ATOM     80  C   UNL A   1      39.540  28.598  29.035  1.00  0.00     0.057 A 
ATOM     81  C   UNL A   1      38.711  29.198  28.078  1.00  0.00     0.134 A 
ATOM     82  C   UNL A   1      38.995  28.370  30.304  1.00  0.00     0.134 A 
ATOM     83  F   UNL A   1      39.179  29.460  26.849  1.00  0.00    -0.206 F 
ATOM     84  C   UNL A   1      37.404  29.584  28.379  1.00  0.00     0.040 A 
ATOM     85  C   UNL A   1      37.680  28.724  30.610  1.00  0.00     0.040 A 
ATOM     86  F   UNL A   1      39.732  27.791  31.264  1.00  0.00    -0.206 F 
ATOM     87  C   UNL A   1      36.883  29.344  29.649  1.00  0.00     0.006 A 
ENDBRANCH  59  80
BRANCH  71  88
ATOM     88  C   UNL A   1      45.487  32.227  29.204  1.00  0.00     0.057 A 
ATOM     89  C   UNL A   1      45.411  33.234  28.235  1.00  0.00     0.134 A 
ATOM     90  C   UNL A   1      45.793  32.613  30.516  1.00  0.00     0.134 A 
ATOM     91  F   UNL A   1      45.134  32.931  26.958  1.00  0.00    -0.206 F 
ATOM     92  C   UNL A   1      45.644  34.574  28.557  1.00  0.00     0.040 A 
ATOM     93  C   UNL A   1      45.998  33.951  30.856  1.00  0.00     0.040 A 
ATOM     94  F   UNL A   1      45.871  31.699  31.495  1.00  0.00    -0.206 F 
ATOM     95  C   UNL A   1      45.927  34.935  29.873  1.00  0.00     0.006 A 
ENDBRANCH  71  88
ENDBRANCH  45  46
ENDBRANCH  37  40
ENDBRANCH  35  36
ENDBRANCH  34  35
ENDBRANCH   1  34
TORSDOF 17
ENDMDL
