MODEL 1
REMARK VINA RESULT:      -9.9      0.000      0.000
REMARK SMILES CC(C)c1ccc(-c2ccc(N3CCC[C@@H](C(=O)NCCCCNC(=O)c4ccc(-c5c6nc(c(-c7c(F)cccc7F)c7ccc([nH]7)c(-c7c(F)cccc7F)c7nc(c(-c8c(F)cccc8F)c8ccc5[nH]8)C=C7)C=C6)cc4)C3)nn2)cc1
REMARK SMILES IDX 21 1 20 2 19 3 17 4 18 5 16 7 12 8 13 9 81 10 14 11 15 12
REMARK SMILES IDX 11 13 8 14 9 15 83 16 10 17 82 18 7 19 4 20 5 21 85 22 6 23
REMARK SMILES IDX 84 24 2 25 1 26 3 27 22 28 23 29 24 30 25 31 26 33 27 34
REMARK SMILES IDX 28 35 80 36 29 37 79 38 30 39 31 40 32 41 73 42 33 43 78 44
REMARK SMILES IDX 72 45 74 46 34 47 77 48 71 49 70 50 35 52 61 53 44 54 60 55
REMARK SMILES IDX 45 56 48 57 59 58 75 59 46 60 47 61 58 63 76 64 49 65 36 66
REMARK SMILES IDX 37 67 42 68 38 69 39 70 41 71 43 72 40 73 62 74 63 75 68 76
REMARK SMILES IDX 64 77 65 78 67 79 69 80 66 81 50 82 51 83 56 84 52 85 53 86
REMARK SMILES IDX 55 87 57 88 54 89
REMARK H PARENT 19 6 24 32 74 51 48 62
REMARK Flexibility Score: inf
ROOT
ATOM      1  C   UNL A   1      34.748  32.349  31.569  1.00  0.00     0.023 C 
ENDROOT
BRANCH   1   2
ATOM      2  C   UNL A   1      36.008  32.280  32.438  1.00  0.00     0.116 C 
BRANCH   2   3
ATOM      3  N   UNL A   1      36.490  33.606  32.772  1.00  0.00    -0.356 N 
ATOM      4  C   UNL A   1      37.195  34.035  33.857  1.00  0.00     0.224 C 
ATOM      5  O   UNL A   1      37.456  35.236  33.930  1.00  0.00    -0.275 OA
ATOM      6  H   UNL A   1      36.275  34.306  32.112  1.00  0.00     0.163 HD
BRANCH   4   7
ATOM      7  C   UNL A   1      37.665  33.035  34.907  1.00  0.00     0.098 C 
ATOM      8  N   UNL A   1      39.662  31.959  35.854  1.00  0.00    -0.354 N 
ATOM      9  C   UNL A   1      39.276  32.204  37.234  1.00  0.00     0.118 C 
ATOM     10  C   UNL A   1      39.193  32.867  34.810  1.00  0.00     0.131 C 
ATOM     11  C   UNL A   1      37.773  32.407  37.339  1.00  0.00     0.022 C 
ATOM     12  C   UNL A   1      37.292  33.453  36.336  1.00  0.00     0.017 C 
BRANCH   8  13
ATOM     13  C   UNL A   1      40.250  30.755  35.533  1.00  0.00     0.151 A 
ATOM     14  C   UNL A   1      41.553  28.416  34.881  1.00  0.00     0.093 A 
ATOM     15  C   UNL A   1      40.776  29.044  33.921  1.00  0.00     0.035 A 
ATOM     16  N   UNL A   1      41.661  28.930  36.122  1.00  0.00    -0.148 NA
ATOM     17  C   UNL A   1      40.104  30.215  34.262  1.00  0.00     0.051 A 
ATOM     18  N   UNL A   1      41.026  30.116  36.436  1.00  0.00    -0.132 NA
BRANCH  14  19
ATOM     19  C   UNL A   1      42.305  27.193  34.607  1.00  0.00     0.002 A 
ATOM     20  C   UNL A   1      43.753  24.818  34.058  1.00  0.00    -0.045 A 
ATOM     21  C   UNL A   1      42.700  24.820  34.984  1.00  0.00     0.004 A 
ATOM     22  C   UNL A   1      44.073  26.018  33.409  1.00  0.00     0.004 A 
ATOM     23  C   UNL A   1      41.993  25.994  35.261  1.00  0.00     0.011 A 
ATOM     24  C   UNL A   1      43.357  27.189  33.679  1.00  0.00     0.011 A 
BRANCH  20  25
ATOM     25  C   UNL A   1      44.535  23.558  33.736  1.00  0.00     0.013 C 
ATOM     26  C   UNL A   1      44.207  22.412  34.697  1.00  0.00     0.012 C 
ATOM     27  C   UNL A   1      44.315  23.132  32.283  1.00  0.00     0.012 C 
ENDBRANCH  20  25
ENDBRANCH  14  19
ENDBRANCH   8  13
ENDBRANCH   4   7
ENDBRANCH   2   3
ENDBRANCH   1   2
BRANCH   1  28
ATOM     28  C   UNL A   1      34.774  33.430  30.486  1.00  0.00     0.023 C 
BRANCH  28  29
ATOM     29  C   UNL A   1      35.249  32.962  29.117  1.00  0.00     0.116 C 
BRANCH  29  30
ATOM     30  N   UNL A   1      34.354  31.993  28.504  1.00  0.00    -0.352 N 
ATOM     31  C   UNL A   1      34.627  30.711  28.095  1.00  0.00     0.251 C 
ATOM     32  H   UNL A   1      33.428  32.297  28.364  1.00  0.00     0.163 HD
ATOM     33  O   UNL A   1      33.787  30.062  27.479  1.00  0.00    -0.269 OA
BRANCH  31  34
ATOM     34  C   UNL A   1      35.958  30.127  28.370  1.00  0.00     0.039 A 
ATOM     35  C   UNL A   1      36.948  30.211  27.388  1.00  0.00     0.014 A 
ATOM     36  C   UNL A   1      36.232  29.523  29.600  1.00  0.00     0.014 A 
ATOM     37  C   UNL A   1      38.236  29.747  27.665  1.00  0.00     0.010 A 
ATOM     38  C   UNL A   1      37.532  29.130  29.900  1.00  0.00     0.010 A 
ATOM     39  C   UNL A   1      38.546  29.236  28.936  1.00  0.00    -0.014 A 
BRANCH  39  40
ATOM     40  C   UNL A   1      39.920  28.795  29.278  1.00  0.00     0.031 A 
ATOM     41  C   UNL A   1      40.828  29.704  30.059  1.00  0.00     0.074 A 
ATOM     42  C   UNL A   1      40.378  27.612  28.824  1.00  0.00     0.049 A 
ATOM     43  N   UNL A   1      42.089  29.547  30.372  1.00  0.00    -0.248 NA
ATOM     44  C   UNL A   1      40.247  30.973  30.523  1.00  0.00     0.031 C 
ATOM     45  C   UNL A   1      39.610  26.656  28.023  1.00  0.00     0.029 A 
ATOM     46  N   UNL A   1      41.608  27.019  28.961  1.00  0.00    -0.354 N 
ATOM     47  C   UNL A   1      42.454  30.700  31.053  1.00  0.00     0.074 A 
ATOM     48  C   UNL A   1      41.299  31.572  31.059  1.00  0.00     0.031 C 
ATOM     49  C   UNL A   1      40.378  25.587  27.760  1.00  0.00     0.029 A 
ATOM     50  C   UNL A   1      41.703  25.799  28.337  1.00  0.00     0.049 A 
ATOM     51  H   UNL A   1      42.351  27.429  29.459  1.00  0.00     0.167 HD
ATOM     52  C   UNL A   1      43.636  30.998  31.641  1.00  0.00     0.037 A 
ATOM     53  C   UNL A   1      42.743  24.951  28.235  1.00  0.00     0.037 A 
ATOM     54  C   UNL A   1      44.777  30.120  31.655  1.00  0.00     0.049 A 
ATOM     55  C   UNL A   1      44.053  25.309  28.883  1.00  0.00     0.074 A 
ATOM     56  C   UNL A   1      46.003  30.307  32.267  1.00  0.00     0.029 A 
ATOM     57  N   UNL A   1      44.829  28.886  31.024  1.00  0.00    -0.354 N 
ATOM     58  N   UNL A   1      44.368  26.379  29.571  1.00  0.00    -0.248 NA
ATOM     59  C   UNL A   1      45.148  24.340  28.742  1.00  0.00     0.031 C 
ATOM     60  C   UNL A   1      46.812  29.205  31.972  1.00  0.00     0.029 A 
ATOM     61  C   UNL A   1      46.073  28.309  31.216  1.00  0.00     0.049 A 
ATOM     62  H   UNL A   1      44.091  28.481  30.514  1.00  0.00     0.167 HD
ATOM     63  C   UNL A   1      45.686  26.198  29.974  1.00  0.00     0.074 A 
ATOM     64  C   UNL A   1      46.106  24.912  29.458  1.00  0.00     0.031 C 
ATOM     65  C   UNL A   1      46.473  27.022  30.707  1.00  0.00     0.037 A 
BRANCH  52  66
ATOM     66  C   UNL A   1      43.750  32.332  32.321  1.00  0.00     0.057 A 
ATOM     67  C   UNL A   1      44.039  33.502  31.607  1.00  0.00     0.134 A 
ATOM     68  C   UNL A   1      43.559  32.450  33.703  1.00  0.00     0.134 A 
ATOM     69  F   UNL A   1      44.249  33.457  30.282  1.00  0.00    -0.206 F 
ATOM     70  C   UNL A   1      44.166  34.737  32.246  1.00  0.00     0.040 A 
ATOM     71  C   UNL A   1      43.653  33.684  34.350  1.00  0.00     0.040 A 
ATOM     72  F   UNL A   1      43.274  31.372  34.447  1.00  0.00    -0.206 F 
ATOM     73  C   UNL A   1      43.967  34.830  33.623  1.00  0.00     0.006 A 
ENDBRANCH  52  66
BRANCH  53  74
ATOM     74  C   UNL A   1      42.583  23.662  27.516  1.00  0.00     0.057 A 
ATOM     75  C   UNL A   1      42.303  22.481  28.212  1.00  0.00     0.134 A 
ATOM     76  C   UNL A   1      42.707  23.576  26.124  1.00  0.00     0.134 A 
ATOM     77  F   UNL A   1      42.191  22.497  29.549  1.00  0.00    -0.206 F 
ATOM     78  C   UNL A   1      42.168  21.258  27.554  1.00  0.00     0.040 A 
ATOM     79  C   UNL A   1      42.551  22.364  25.450  1.00  0.00     0.040 A 
ATOM     80  F   UNL A   1      42.968  24.674  25.398  1.00  0.00    -0.206 F 
ATOM     81  C   UNL A   1      42.287  21.199  26.167  1.00  0.00     0.006 A 
ENDBRANCH  53  74
BRANCH  65  82
ATOM     82  C   UNL A   1      47.856  26.540  31.034  1.00  0.00     0.057 A 
ATOM     83  C   UNL A   1      48.121  25.768  32.171  1.00  0.00     0.134 A 
ATOM     84  C   UNL A   1      48.927  26.817  30.175  1.00  0.00     0.134 A 
ATOM     85  F   UNL A   1      47.142  25.480  33.043  1.00  0.00    -0.206 F 
ATOM     86  C   UNL A   1      49.408  25.304  32.453  1.00  0.00     0.040 A 
ATOM     87  C   UNL A   1      50.211  26.337  30.432  1.00  0.00     0.040 A 
ATOM     88  F   UNL A   1      48.738  27.544  29.064  1.00  0.00    -0.206 F 
ATOM     89  C   UNL A   1      50.455  25.582  31.577  1.00  0.00     0.006 A 
ENDBRANCH  65  82
ENDBRANCH  39  40
ENDBRANCH  31  34
ENDBRANCH  29  30
ENDBRANCH  28  29
ENDBRANCH   1  28
TORSDOF 14
ENDMDL
MODEL 2
REMARK VINA RESULT:      -9.9      3.743     10.432
REMARK SMILES CC(C)c1ccc(-c2ccc(N3CCC[C@@H](C(=O)NCCCCNC(=O)c4ccc(-c5c6nc(c(-c7c(F)cccc7F)c7ccc([nH]7)c(-c7c(F)cccc7F)c7nc(c(-c8c(F)cccc8F)c8ccc5[nH]8)C=C7)C=C6)cc4)C3)nn2)cc1
REMARK SMILES IDX 21 1 20 2 19 3 17 4 18 5 16 7 12 8 13 9 81 10 14 11 15 12
REMARK SMILES IDX 11 13 8 14 9 15 83 16 10 17 82 18 7 19 4 20 5 21 85 22 6 23
REMARK SMILES IDX 84 24 2 25 1 26 3 27 22 28 23 29 24 30 25 31 26 33 27 34
REMARK SMILES IDX 28 35 80 36 29 37 79 38 30 39 31 40 32 41 73 42 33 43 78 44
REMARK SMILES IDX 72 45 74 46 34 47 77 48 71 49 70 50 35 52 61 53 44 54 60 55
REMARK SMILES IDX 45 56 48 57 59 58 75 59 46 60 47 61 58 63 76 64 49 65 36 66
REMARK SMILES IDX 37 67 42 68 38 69 39 70 41 71 43 72 40 73 62 74 63 75 68 76
REMARK SMILES IDX 64 77 65 78 67 79 69 80 66 81 50 82 51 83 56 84 52 85 53 86
REMARK SMILES IDX 55 87 57 88 54 89
REMARK H PARENT 19 6 24 32 74 51 48 62
REMARK Flexibility Score: inf
ROOT
ATOM      1  C   UNL A   1      43.075  23.151  24.999  1.00  0.00     0.023 C 
ENDROOT
BRANCH   1   2
ATOM      2  C   UNL A   1      44.513  23.440  24.559  1.00  0.00     0.116 C 
BRANCH   2   3
ATOM      3  N   UNL A   1      45.443  23.278  25.660  1.00  0.00    -0.356 N 
ATOM      4  C   UNL A   1      46.461  24.087  26.073  1.00  0.00     0.224 C 
ATOM      5  O   UNL A   1      47.142  23.703  27.025  1.00  0.00    -0.275 OA
ATOM      6  H   UNL A   1      45.321  22.458  26.191  1.00  0.00     0.163 HD
BRANCH   4   7
ATOM      7  C   UNL A   1      46.699  25.427  25.389  1.00  0.00     0.098 C 
ATOM      8  N   UNL A   1      47.395  27.751  25.789  1.00  0.00    -0.354 N 
ATOM      9  C   UNL A   1      48.330  27.779  24.676  1.00  0.00     0.118 C 
ATOM     10  C   UNL A   1      47.102  26.476  26.442  1.00  0.00     0.131 C 
ATOM     11  C   UNL A   1      47.963  26.724  23.645  1.00  0.00     0.022 C 
ATOM     12  C   UNL A   1      47.782  25.358  24.304  1.00  0.00     0.017 C 
BRANCH   8  13
ATOM     13  C   UNL A   1      46.631  28.869  26.043  1.00  0.00     0.151 A 
ATOM     14  C   UNL A   1      45.179  31.125  26.671  1.00  0.00     0.093 A 
ATOM     15  C   UNL A   1      44.612  29.879  26.882  1.00  0.00     0.035 A 
ATOM     16  N   UNL A   1      46.418  31.237  26.151  1.00  0.00    -0.148 NA
ATOM     17  C   UNL A   1      45.342  28.743  26.545  1.00  0.00     0.051 A 
ATOM     18  N   UNL A   1      47.150  30.102  25.862  1.00  0.00    -0.132 NA
BRANCH  14  19
ATOM     19  C   UNL A   1      44.493  32.370  27.010  1.00  0.00     0.002 A 
ATOM     20  C   UNL A   1      43.142  34.774  27.668  1.00  0.00    -0.045 A 
ATOM     21  C   UNL A   1      43.520  34.502  26.346  1.00  0.00     0.004 A 
ATOM     22  C   UNL A   1      43.448  33.830  28.658  1.00  0.00     0.004 A 
ATOM     23  C   UNL A   1      44.194  33.319  26.025  1.00  0.00     0.011 A 
ATOM     24  C   UNL A   1      44.112  32.644  28.333  1.00  0.00     0.011 A 
BRANCH  20  25
ATOM     25  C   UNL A   1      42.407  36.047  28.046  1.00  0.00     0.013 C 
ATOM     26  C   UNL A   1      42.282  37.014  26.865  1.00  0.00     0.012 C 
ATOM     27  C   UNL A   1      41.033  35.731  28.641  1.00  0.00     0.012 C 
ENDBRANCH  20  25
ENDBRANCH  14  19
ENDBRANCH   8  13
ENDBRANCH   4   7
ENDBRANCH   2   3
ENDBRANCH   1   2
BRANCH   1  28
ATOM     28  C   UNL A   1      42.931  22.014  26.014  1.00  0.00     0.023 C 
BRANCH  28  29
ATOM     29  C   UNL A   1      41.733  22.128  26.947  1.00  0.00     0.116 C 
BRANCH  29  30
ATOM     30  N   UNL A   1      40.459  22.084  26.246  1.00  0.00    -0.352 N 
ATOM     31  C   UNL A   1      39.472  23.038  26.200  1.00  0.00     0.251 C 
ATOM     32  H   UNL A   1      40.281  21.261  25.736  1.00  0.00     0.163 HD
ATOM     33  O   UNL A   1      38.397  22.794  25.660  1.00  0.00    -0.269 OA
BRANCH  31  34
ATOM     34  C   UNL A   1      39.699  24.352  26.838  1.00  0.00     0.039 A 
ATOM     35  C   UNL A   1      39.264  24.549  28.152  1.00  0.00     0.014 A 
ATOM     36  C   UNL A   1      40.361  25.374  26.153  1.00  0.00     0.014 A 
ATOM     37  C   UNL A   1      39.551  25.752  28.801  1.00  0.00     0.010 A 
ATOM     38  C   UNL A   1      40.710  26.541  26.824  1.00  0.00     0.010 A 
ATOM     39  C   UNL A   1      40.308  26.742  28.153  1.00  0.00    -0.014 A 
BRANCH  39  40
ATOM     40  C   UNL A   1      40.682  28.003  28.841  1.00  0.00     0.031 A 
ATOM     41  C   UNL A   1      42.076  28.181  29.376  1.00  0.00     0.074 A 
ATOM     42  C   UNL A   1      39.751  28.954  29.051  1.00  0.00     0.049 A 
ATOM     43  N   UNL A   1      42.571  29.160  30.089  1.00  0.00    -0.248 NA
ATOM     44  C   UNL A   1      43.031  27.098  29.096  1.00  0.00     0.031 C 
ATOM     45  C   UNL A   1      38.355  28.885  28.616  1.00  0.00     0.029 A 
ATOM     46  N   UNL A   1      39.840  30.162  29.696  1.00  0.00    -0.354 N 
ATOM     47  C   UNL A   1      43.886  28.804  30.355  1.00  0.00     0.074 A 
ATOM     48  C   UNL A   1      44.096  27.494  29.776  1.00  0.00     0.031 C 
ATOM     49  C   UNL A   1      37.724  30.011  28.987  1.00  0.00     0.029 A 
ATOM     50  C   UNL A   1      38.658  30.861  29.720  1.00  0.00     0.049 A 
ATOM     51  H   UNL A   1      40.672  30.495  30.105  1.00  0.00     0.167 HD
ATOM     52  C   UNL A   1      44.841  29.512  31.004  1.00  0.00     0.037 A 
ATOM     53  C   UNL A   1      38.360  32.050  30.276  1.00  0.00     0.037 A 
ATOM     54  C   UNL A   1      44.637  30.825  31.559  1.00  0.00     0.049 A 
ATOM     55  C   UNL A   1      39.432  32.813  31.005  1.00  0.00     0.074 A 
ATOM     56  C   UNL A   1      45.554  31.647  32.190  1.00  0.00     0.029 A 
ATOM     57  N   UNL A   1      43.429  31.506  31.549  1.00  0.00    -0.354 N 
ATOM     58  N   UNL A   1      40.687  32.489  31.203  1.00  0.00    -0.248 NA
ATOM     59  C   UNL A   1      39.046  34.107  31.585  1.00  0.00     0.031 C 
ATOM     60  C   UNL A   1      44.891  32.808  32.598  1.00  0.00     0.029 A 
ATOM     61  C   UNL A   1      43.572  32.730  32.179  1.00  0.00     0.049 A 
ATOM     62  H   UNL A   1      42.593  31.168  31.153  1.00  0.00     0.167 HD
ATOM     63  C   UNL A   1      41.248  33.552  31.899  1.00  0.00     0.074 A 
ATOM     64  C   UNL A   1      40.199  34.532  32.083  1.00  0.00     0.031 C 
ATOM     65  C   UNL A   1      42.520  33.702  32.344  1.00  0.00     0.037 A 
BRANCH  52  66
ATOM     66  C   UNL A   1      46.194  28.877  31.143  1.00  0.00     0.057 A 
ATOM     67  C   UNL A   1      46.488  27.987  32.185  1.00  0.00     0.134 A 
ATOM     68  C   UNL A   1      47.210  29.148  30.220  1.00  0.00     0.134 A 
ATOM     69  F   UNL A   1      45.563  27.695  33.112  1.00  0.00    -0.206 F 
ATOM     70  C   UNL A   1      47.754  27.415  32.323  1.00  0.00     0.040 A 
ATOM     71  C   UNL A   1      48.472  28.560  30.330  1.00  0.00     0.040 A 
ATOM     72  F   UNL A   1      46.996  29.986  29.195  1.00  0.00    -0.206 F 
ATOM     73  C   UNL A   1      48.750  27.698  31.389  1.00  0.00     0.006 A 
ENDBRANCH  52  66
BRANCH  53  74
ATOM     74  C   UNL A   1      36.992  32.611  30.140  1.00  0.00     0.057 A 
ATOM     75  C   UNL A   1      36.674  33.482  29.091  1.00  0.00     0.134 A 
ATOM     76  C   UNL A   1      35.975  32.297  31.048  1.00  0.00     0.134 A 
ATOM     77  F   UNL A   1      37.613  33.834  28.200  1.00  0.00    -0.206 F 
ATOM     78  C   UNL A   1      35.400  34.033  28.959  1.00  0.00     0.040 A 
ATOM     79  C   UNL A   1      34.688  32.823  30.915  1.00  0.00     0.040 A 
ATOM     80  F   UNL A   1      36.213  31.463  32.071  1.00  0.00    -0.206 F 
ATOM     81  C   UNL A   1      34.400  33.699  29.870  1.00  0.00     0.006 A 
ENDBRANCH  53  74
BRANCH  65  82
ATOM     82  C   UNL A   1      42.860  34.991  33.032  1.00  0.00     0.057 A 
ATOM     83  C   UNL A   1      43.410  36.077  32.340  1.00  0.00     0.134 A 
ATOM     84  C   UNL A   1      42.593  35.159  34.396  1.00  0.00     0.134 A 
ATOM     85  F   UNL A   1      43.704  35.975  31.035  1.00  0.00    -0.206 F 
ATOM     86  C   UNL A   1      43.700  37.280  32.987  1.00  0.00     0.040 A 
ATOM     87  C   UNL A   1      42.854  36.365  35.047  1.00  0.00     0.040 A 
ATOM     88  F   UNL A   1      42.059  34.161  35.114  1.00  0.00    -0.206 F 
ATOM     89  C   UNL A   1      43.414  37.429  34.342  1.00  0.00     0.006 A 
ENDBRANCH  65  82
ENDBRANCH  39  40
ENDBRANCH  31  34
ENDBRANCH  29  30
ENDBRANCH  28  29
ENDBRANCH   1  28
TORSDOF 14
ENDMDL
MODEL 3
REMARK VINA RESULT:      -9.8      4.518     10.325
REMARK SMILES CC(C)c1ccc(-c2ccc(N3CCC[C@@H](C(=O)NCCCCNC(=O)c4ccc(-c5c6nc(c(-c7c(F)cccc7F)c7ccc([nH]7)c(-c7c(F)cccc7F)c7nc(c(-c8c(F)cccc8F)c8ccc5[nH]8)C=C7)C=C6)cc4)C3)nn2)cc1
REMARK SMILES IDX 21 1 20 2 19 3 17 4 18 5 16 7 12 8 13 9 81 10 14 11 15 12
REMARK SMILES IDX 11 13 8 14 9 15 83 16 10 17 82 18 7 19 4 20 5 21 85 22 6 23
REMARK SMILES IDX 84 24 2 25 1 26 3 27 22 28 23 29 24 30 25 31 26 33 27 34
REMARK SMILES IDX 28 35 80 36 29 37 79 38 30 39 31 40 32 41 73 42 33 43 78 44
REMARK SMILES IDX 72 45 74 46 34 47 77 48 71 49 70 50 35 52 61 53 44 54 60 55
REMARK SMILES IDX 45 56 48 57 59 58 75 59 46 60 47 61 58 63 76 64 49 65 36 66
REMARK SMILES IDX 37 67 42 68 38 69 39 70 41 71 43 72 40 73 62 74 63 75 68 76
REMARK SMILES IDX 64 77 65 78 67 79 69 80 66 81 50 82 51 83 56 84 52 85 53 86
REMARK SMILES IDX 55 87 57 88 54 89
REMARK H PARENT 19 6 24 32 74 51 48 62
REMARK Flexibility Score: inf
ROOT
ATOM      1  C   UNL A   1      36.623  20.958  25.156  1.00  0.00     0.023 C 
ENDROOT
BRANCH   1   2
ATOM      2  C   UNL A   1      36.907  22.373  24.645  1.00  0.00     0.116 C 
BRANCH   2   3
ATOM      3  N   UNL A   1      36.080  22.696  23.499  1.00  0.00    -0.356 N 
ATOM      4  C   UNL A   1      34.863  23.310  23.441  1.00  0.00     0.224 C 
ATOM      5  O   UNL A   1      34.341  23.435  22.333  1.00  0.00    -0.275 OA
ATOM      6  H   UNL A   1      36.455  22.431  22.627  1.00  0.00     0.163 HD
BRANCH   4   7
ATOM      7  C   UNL A   1      34.216  23.845  24.712  1.00  0.00     0.098 C 
ATOM      8  N   UNL A   1      32.572  25.466  25.557  1.00  0.00    -0.354 N 
ATOM      9  C   UNL A   1      31.910  24.508  26.428  1.00  0.00     0.118 C 
ATOM     10  C   UNL A   1      33.246  24.987  24.353  1.00  0.00     0.131 C 
ATOM     11  C   UNL A   1      32.845  23.357  26.762  1.00  0.00     0.022 C 
ATOM     12  C   UNL A   1      33.456  22.765  25.494  1.00  0.00     0.017 C 
BRANCH   8  13
ATOM     13  C   UNL A   1      32.755  26.756  26.007  1.00  0.00     0.151 A 
ATOM     14  C   UNL A   1      33.037  29.379  26.800  1.00  0.00     0.093 A 
ATOM     15  C   UNL A   1      34.073  28.769  26.111  1.00  0.00     0.035 A 
ATOM     16  N   UNL A   1      31.912  28.698  27.093  1.00  0.00    -0.148 NA
ATOM     17  C   UNL A   1      33.933  27.437  25.730  1.00  0.00     0.051 A 
ATOM     18  N   UNL A   1      31.766  27.391  26.671  1.00  0.00    -0.132 NA
BRANCH  14  19
ATOM     19  C   UNL A   1      33.090  30.777  27.224  1.00  0.00     0.002 A 
ATOM     20  C   UNL A   1      33.184  33.482  28.066  1.00  0.00    -0.045 A 
ATOM     21  C   UNL A   1      32.116  33.008  27.291  1.00  0.00     0.004 A 
ATOM     22  C   UNL A   1      34.205  32.587  28.415  1.00  0.00     0.004 A 
ATOM     23  C   UNL A   1      32.076  31.676  26.869  1.00  0.00     0.011 A 
ATOM     24  C   UNL A   1      34.157  31.253  28.001  1.00  0.00     0.011 A 
BRANCH  20  25
ATOM     25  C   UNL A   1      33.253  34.922  28.541  1.00  0.00     0.013 C 
ATOM     26  C   UNL A   1      33.219  35.030  30.068  1.00  0.00     0.012 C 
ATOM     27  C   UNL A   1      34.485  35.629  27.971  1.00  0.00     0.012 C 
ENDBRANCH  20  25
ENDBRANCH  14  19
ENDBRANCH   8  13
ENDBRANCH   4   7
ENDBRANCH   2   3
ENDBRANCH   1   2
BRANCH   1  28
ATOM     28  C   UNL A   1      37.782  19.972  24.988  1.00  0.00     0.023 C 
BRANCH  28  29
ATOM     29  C   UNL A   1      39.038  20.309  25.781  1.00  0.00     0.116 C 
BRANCH  29  30
ATOM     30  N   UNL A   1      40.001  19.220  25.815  1.00  0.00    -0.352 N 
ATOM     31  C   UNL A   1      41.349  19.274  26.070  1.00  0.00     0.251 C 
ATOM     32  H   UNL A   1      39.637  18.324  25.630  1.00  0.00     0.163 HD
ATOM     33  O   UNL A   1      42.048  18.274  25.937  1.00  0.00    -0.269 OA
BRANCH  31  34
ATOM     34  C   UNL A   1      41.964  20.558  26.471  1.00  0.00     0.039 A 
ATOM     35  C   UNL A   1      42.479  21.398  25.480  1.00  0.00     0.014 A 
ATOM     36  C   UNL A   1      42.006  20.940  27.814  1.00  0.00     0.014 A 
ATOM     37  C   UNL A   1      42.979  22.654  25.832  1.00  0.00     0.010 A 
ATOM     38  C   UNL A   1      42.436  22.218  28.153  1.00  0.00     0.010 A 
ATOM     39  C   UNL A   1      42.928  23.087  27.167  1.00  0.00    -0.014 A 
BRANCH  39  40
ATOM     40  C   UNL A   1      43.394  24.440  27.560  1.00  0.00     0.031 A 
ATOM     41  C   UNL A   1      42.396  25.489  27.965  1.00  0.00     0.074 A 
ATOM     42  C   UNL A   1      44.703  24.748  27.480  1.00  0.00     0.049 A 
ATOM     43  N   UNL A   1      42.590  26.752  28.246  1.00  0.00    -0.248 NA
ATOM     44  C   UNL A   1      40.988  25.067  28.033  1.00  0.00     0.031 C 
ATOM     45  C   UNL A   1      45.766  23.832  27.065  1.00  0.00     0.029 A 
ATOM     46  N   UNL A   1      45.359  25.926  27.734  1.00  0.00    -0.354 N 
ATOM     47  C   UNL A   1      41.331  27.277  28.507  1.00  0.00     0.074 A 
ATOM     48  C   UNL A   1      40.376  26.211  28.296  1.00  0.00     0.031 C 
ATOM     49  C   UNL A   1      46.944  24.475  27.114  1.00  0.00     0.029 A 
ATOM     50  C   UNL A   1      46.715  25.857  27.525  1.00  0.00     0.049 A 
ATOM     51  H   UNL A   1      44.901  26.743  28.038  1.00  0.00     0.167 HD
ATOM     52  C   UNL A   1      41.001  28.527  28.908  1.00  0.00     0.037 A 
ATOM     53  C   UNL A   1      47.664  26.804  27.643  1.00  0.00     0.037 A 
ATOM     54  C   UNL A   1      41.955  29.580  29.140  1.00  0.00     0.049 A 
ATOM     55  C   UNL A   1      47.273  28.190  28.076  1.00  0.00     0.074 A 
ATOM     56  C   UNL A   1      41.727  30.866  29.597  1.00  0.00     0.029 A 
ATOM     57  N   UNL A   1      43.321  29.466  28.931  1.00  0.00    -0.354 N 
ATOM     58  N   UNL A   1      46.085  28.659  28.372  1.00  0.00    -0.248 NA
ATOM     59  C   UNL A   1      48.356  29.177  28.192  1.00  0.00     0.031 C 
ATOM     60  C   UNL A   1      42.950  31.543  29.624  1.00  0.00     0.029 A 
ATOM     61  C   UNL A   1      43.947  30.665  29.231  1.00  0.00     0.049 A 
ATOM     62  H   UNL A   1      43.778  28.654  28.614  1.00  0.00     0.167 HD
ATOM     63  C   UNL A   1      46.281  29.984  28.743  1.00  0.00     0.074 A 
ATOM     64  C   UNL A   1      47.702  30.241  28.639  1.00  0.00     0.031 C 
ATOM     65  C   UNL A   1      45.365  30.902  29.135  1.00  0.00     0.037 A 
BRANCH  52  66
ATOM     66  C   UNL A   1      39.544  28.819  29.124  1.00  0.00     0.057 A 
ATOM     67  C   UNL A   1      38.718  29.261  28.082  1.00  0.00     0.134 A 
ATOM     68  C   UNL A   1      38.958  28.646  30.383  1.00  0.00     0.134 A 
ATOM     69  F   UNL A   1      39.219  29.460  26.853  1.00  0.00    -0.206 F 
ATOM     70  C   UNL A   1      37.368  29.551  28.292  1.00  0.00     0.040 A 
ATOM     71  C   UNL A   1      37.603  28.906  30.600  1.00  0.00     0.040 A 
ATOM     72  F   UNL A   1      39.689  28.221  31.424  1.00  0.00    -0.206 F 
ATOM     73  C   UNL A   1      36.806  29.369  29.555  1.00  0.00     0.006 A 
ENDBRANCH  52  66
BRANCH  53  74
ATOM     74  C   UNL A   1      49.086  26.466  27.378  1.00  0.00     0.057 A 
ATOM     75  C   UNL A   1      49.629  26.602  26.096  1.00  0.00     0.134 A 
ATOM     76  C   UNL A   1      49.932  26.001  28.391  1.00  0.00     0.134 A 
ATOM     77  F   UNL A   1      48.861  27.026  25.080  1.00  0.00    -0.206 F 
ATOM     78  C   UNL A   1      50.956  26.271  25.824  1.00  0.00     0.040 A 
ATOM     79  C   UNL A   1      51.270  25.688  28.140  1.00  0.00     0.040 A 
ATOM     80  F   UNL A   1      49.474  25.855  29.643  1.00  0.00    -0.206 F 
ATOM     81  C   UNL A   1      51.783  25.818  26.850  1.00  0.00     0.006 A 
ENDBRANCH  53  74
BRANCH  65  82
ATOM     82  C   UNL A   1      45.875  32.258  29.527  1.00  0.00     0.057 A 
ATOM     83  C   UNL A   1      45.907  33.327  28.623  1.00  0.00     0.134 A 
ATOM     84  C   UNL A   1      46.298  32.505  30.839  1.00  0.00     0.134 A 
ATOM     85  F   UNL A   1      45.529  33.152  27.347  1.00  0.00    -0.206 F 
ATOM     86  C   UNL A   1      46.361  34.590  29.006  1.00  0.00     0.040 A 
ATOM     87  C   UNL A   1      46.729  33.770  31.240  1.00  0.00     0.040 A 
ATOM     88  F   UNL A   1      46.284  31.526  31.755  1.00  0.00    -0.206 F 
ATOM     89  C   UNL A   1      46.766  34.816  30.320  1.00  0.00     0.006 A 
ENDBRANCH  65  82
ENDBRANCH  39  40
ENDBRANCH  31  34
ENDBRANCH  29  30
ENDBRANCH  28  29
ENDBRANCH   1  28
TORSDOF 14
ENDMDL
