MODEL 1
REMARK VINA RESULT:     -12.1      0.000      0.000
REMARK SMILES Cc1nc(-c2ccc(C(F)(F)F)cc2)nc(SCC(=O)NCCCCNC(=O)c2ccc(-c3c4nc(c(-c5c(F)cccc5F)c5ccc([nH]5)c(-c5c(F)cccc5F)c5nc(c(-c6c(F)cccc6F)c6ccc3[nH]6)C=C5)C=C4)cc2)c1C
REMARK SMILES IDX 22 1 21 2 19 3 20 4 18 6 17 7 16 8 1 9 2 10 3 11 83 12 4 13
REMARK SMILES IDX 84 14 15 15 5 16 6 17 14 18 7 19 13 20 8 21 9 22 10 23 11 24
REMARK SMILES IDX 12 25 23 26 24 27 25 28 26 29 27 30 28 32 29 33 30 34 82 35
REMARK SMILES IDX 31 36 81 37 32 38 33 39 34 40 75 41 35 42 80 43 74 44 76 45
REMARK SMILES IDX 36 46 79 47 73 48 72 49 37 51 63 52 46 53 62 54 47 55 50 56
REMARK SMILES IDX 61 57 77 58 48 59 49 60 60 62 78 63 51 64 38 65 39 66 44 67
REMARK SMILES IDX 40 68 41 69 43 70 45 71 42 72 64 73 65 74 70 75 66 76 67 77
REMARK SMILES IDX 69 78 71 79 68 80 52 81 53 82 58 83 54 84 55 85 57 86 59 87
REMARK SMILES IDX 56 88
REMARK H PARENT 21 5 26 31 76 50 50 61
REMARK Flexibility Score: inf
ROOT
ATOM      1  C   UNL A   1      32.143  29.884  25.724  1.00  0.00     0.116 C 
ENDROOT
BRANCH   1   2
ATOM      2  N   UNL A   1      33.043  29.710  24.603  1.00  0.00    -0.355 N 
ATOM      3  C   UNL A   1      33.134  28.689  23.712  1.00  0.00     0.230 C 
ATOM      4  O   UNL A   1      33.878  28.863  22.742  1.00  0.00    -0.274 OA
ATOM      5  H   UNL A   1      33.687  30.442  24.467  1.00  0.00     0.163 HD
BRANCH   3   6
ATOM      6  C   UNL A   1      32.274  27.450  23.811  1.00  0.00     0.176 C 
BRANCH   6   7
ATOM      7  S   UNL A   1      32.656  26.275  25.135  1.00  0.00    -0.096 SA
BRANCH   7   8
ATOM      8  C   UNL A   1      32.983  24.635  24.520  1.00  0.00     0.104 A 
ATOM      9  C   UNL A   1      32.120  21.466  22.654  1.00  0.00     0.067 C 
ATOM     10  C   UNL A   1      32.814  22.531  23.458  1.00  0.00     0.045 A 
ATOM     11  N   UNL A   1      34.081  22.227  23.793  1.00  0.00    -0.233 NA
ATOM     12  C   UNL A   1      32.185  23.730  23.827  1.00  0.00     0.003 A 
ATOM     13  C   UNL A   1      34.741  23.120  24.531  1.00  0.00     0.160 A 
ATOM     14  C   UNL A   1      30.765  23.941  23.419  1.00  0.00     0.049 C 
ATOM     15  N   UNL A   1      34.246  24.307  24.897  1.00  0.00    -0.221 NA
BRANCH  13  16
ATOM     16  C   UNL A   1      36.092  22.753  24.968  1.00  0.00     0.019 A 
ATOM     17  C   UNL A   1      36.573  21.445  24.782  1.00  0.00     0.012 A 
ATOM     18  C   UNL A   1      36.931  23.672  25.620  1.00  0.00     0.012 A 
ATOM     19  C   UNL A   1      37.842  21.067  25.232  1.00  0.00     0.014 A 
ATOM     20  C   UNL A   1      38.196  23.292  26.089  1.00  0.00     0.014 A 
ATOM     21  C   UNL A   1      38.663  21.983  25.901  1.00  0.00     0.056 A 
BRANCH  21  22
ATOM     22  C   UNL A   1      40.020  21.549  26.399  1.00  0.00     0.416 C 
ATOM     23  F   UNL A   1      40.203  20.202  26.308  1.00  0.00    -0.166 F 
ATOM     24  F   UNL A   1      41.038  22.111  25.689  1.00  0.00    -0.166 F 
ATOM     25  F   UNL A   1      40.254  21.869  27.703  1.00  0.00    -0.166 F 
ENDBRANCH  21  22
ENDBRANCH  13  16
ENDBRANCH   7   8
ENDBRANCH   6   7
ENDBRANCH   3   6
ENDBRANCH   1   2
BRANCH   1  26
ATOM     26  C   UNL A   1      30.996  30.836  25.396  1.00  0.00     0.023 C 
BRANCH  26  27
ATOM     27  C   UNL A   1      31.035  32.181  26.127  1.00  0.00     0.023 C 
BRANCH  27  28
ATOM     28  C   UNL A   1      32.315  32.484  26.901  1.00  0.00     0.116 C 
BRANCH  28  29
ATOM     29  N   UNL A   1      32.355  33.835  27.436  1.00  0.00    -0.352 N 
ATOM     30  C   UNL A   1      33.238  34.397  28.327  1.00  0.00     0.251 C 
ATOM     31  H   UNL A   1      31.645  34.435  27.112  1.00  0.00     0.163 HD
ATOM     32  O   UNL A   1      33.053  35.533  28.743  1.00  0.00    -0.269 OA
BRANCH  30  33
ATOM     33  C   UNL A   1      34.395  33.613  28.811  1.00  0.00     0.039 A 
ATOM     34  C   UNL A   1      35.671  34.171  28.703  1.00  0.00     0.014 A 
ATOM     35  C   UNL A   1      34.225  32.345  29.373  1.00  0.00     0.014 A 
ATOM     36  C   UNL A   1      36.771  33.486  29.221  1.00  0.00     0.010 A 
ATOM     37  C   UNL A   1      35.313  31.693  29.948  1.00  0.00     0.010 A 
ATOM     38  C   UNL A   1      36.595  32.259  29.879  1.00  0.00    -0.014 A 
BRANCH  38  39
ATOM     39  C   UNL A   1      37.745  31.549  30.491  1.00  0.00     0.031 A 
ATOM     40  C   UNL A   1      38.131  31.826  31.915  1.00  0.00     0.074 A 
ATOM     41  C   UNL A   1      38.462  30.678  29.755  1.00  0.00     0.049 A 
ATOM     42  N   UNL A   1      39.125  31.338  32.612  1.00  0.00    -0.248 NA
ATOM     43  C   UNL A   1      37.301  32.795  32.648  1.00  0.00     0.031 C 
ATOM     44  C   UNL A   1      38.199  30.337  28.355  1.00  0.00     0.029 A 
ATOM     45  N   UNL A   1      39.555  29.917  30.082  1.00  0.00    -0.354 N 
ATOM     46  C   UNL A   1      39.037  31.934  33.863  1.00  0.00     0.074 A 
ATOM     47  C   UNL A   1      37.934  32.869  33.810  1.00  0.00     0.031 C 
ATOM     48  C   UNL A   1      39.079  29.405  27.958  1.00  0.00     0.029 A 
ATOM     49  C   UNL A   1      39.991  29.110  29.060  1.00  0.00     0.049 A 
ATOM     50  H   UNL A   1      39.986  29.947  30.967  1.00  0.00     0.167 HD
ATOM     51  C   UNL A   1      39.785  31.702  34.967  1.00  0.00     0.037 A 
ATOM     52  C   UNL A   1      41.008  28.228  29.018  1.00  0.00     0.037 A 
ATOM     53  C   UNL A   1      40.877  30.767  35.022  1.00  0.00     0.049 A 
ATOM     54  C   UNL A   1      41.862  28.029  30.238  1.00  0.00     0.074 A 
ATOM     55  C   UNL A   1      41.687  30.449  36.098  1.00  0.00     0.029 A 
ATOM     56  N   UNL A   1      41.311  29.996  33.953  1.00  0.00    -0.354 N 
ATOM     57  N   UNL A   1      41.751  28.581  31.422  1.00  0.00    -0.248 NA
ATOM     58  C   UNL A   1      42.985  27.088  30.115  1.00  0.00     0.031 C 
ATOM     59  C   UNL A   1      42.634  29.513  35.672  1.00  0.00     0.029 A 
ATOM     60  C   UNL A   1      42.388  29.215  34.340  1.00  0.00     0.049 A 
ATOM     61  H   UNL A   1      40.913  30.003  33.054  1.00  0.00     0.167 HD
ATOM     62  C   UNL A   1      42.772  28.038  32.191  1.00  0.00     0.074 A 
ATOM     63  C   UNL A   1      43.485  27.106  31.344  1.00  0.00     0.031 C 
ATOM     64  C   UNL A   1      43.087  28.291  33.485  1.00  0.00     0.037 A 
BRANCH  51  65
ATOM     65  C   UNL A   1      39.431  32.463  36.210  1.00  0.00     0.057 A 
ATOM     66  C   UNL A   1      38.473  31.983  37.113  1.00  0.00     0.134 A 
ATOM     67  C   UNL A   1      40.068  33.670  36.523  1.00  0.00     0.134 A 
ATOM     68  F   UNL A   1      37.818  30.840  36.863  1.00  0.00    -0.206 F 
ATOM     69  C   UNL A   1      38.144  32.689  38.271  1.00  0.00     0.040 A 
ATOM     70  C   UNL A   1      39.765  34.371  37.692  1.00  0.00     0.040 A 
ATOM     71  F   UNL A   1      40.998  34.184  35.704  1.00  0.00    -0.206 F 
ATOM     72  C   UNL A   1      38.796  33.883  38.566  1.00  0.00     0.006 A 
ENDBRANCH  51  65
BRANCH  52  73
ATOM     73  C   UNL A   1      41.240  27.431  27.788  1.00  0.00     0.057 A 
ATOM     74  C   UNL A   1      42.015  27.945  26.741  1.00  0.00     0.134 A 
ATOM     75  C   UNL A   1      40.722  26.140  27.635  1.00  0.00     0.134 A 
ATOM     76  F   UNL A   1      42.524  29.183  26.824  1.00  0.00    -0.206 F 
ATOM     77  C   UNL A   1      42.263  27.206  25.585  1.00  0.00     0.040 A 
ATOM     78  C   UNL A   1      40.978  25.382  26.491  1.00  0.00     0.040 A 
ATOM     79  F   UNL A   1      39.976  25.590  28.604  1.00  0.00    -0.206 F 
ATOM     80  C   UNL A   1      41.750  25.917  25.460  1.00  0.00     0.006 A 
ENDBRANCH  52  73
BRANCH  64  81
ATOM     81  C   UNL A   1      44.244  27.540  34.075  1.00  0.00     0.057 A 
ATOM     82  C   UNL A   1      45.534  28.081  34.102  1.00  0.00     0.134 A 
ATOM     83  C   UNL A   1      44.050  26.294  34.685  1.00  0.00     0.134 A 
ATOM     84  F   UNL A   1      45.787  29.266  33.524  1.00  0.00    -0.206 F 
ATOM     85  C   UNL A   1      46.594  27.406  34.709  1.00  0.00     0.040 A 
ATOM     86  C   UNL A   1      45.097  25.620  35.316  1.00  0.00     0.040 A 
ATOM     87  F   UNL A   1      42.835  25.725  34.702  1.00  0.00    -0.206 F 
ATOM     88  C   UNL A   1      46.374  26.175  35.327  1.00  0.00     0.006 A 
ENDBRANCH  64  81
ENDBRANCH  38  39
ENDBRANCH  30  33
ENDBRANCH  28  29
ENDBRANCH  27  28
ENDBRANCH  26  27
ENDBRANCH   1  26
TORSDOF 15
ENDMDL
MODEL 2
REMARK VINA RESULT:     -11.9      4.678     10.201
REMARK SMILES Cc1nc(-c2ccc(C(F)(F)F)cc2)nc(SCC(=O)NCCCCNC(=O)c2ccc(-c3c4nc(c(-c5c(F)cccc5F)c5ccc([nH]5)c(-c5c(F)cccc5F)c5nc(c(-c6c(F)cccc6F)c6ccc3[nH]6)C=C5)C=C4)cc2)c1C
REMARK SMILES IDX 22 1 21 2 19 3 20 4 18 6 17 7 16 8 1 9 2 10 3 11 83 12 4 13
REMARK SMILES IDX 84 14 15 15 5 16 6 17 14 18 7 19 13 20 8 21 9 22 10 23 11 24
REMARK SMILES IDX 12 25 23 26 24 27 25 28 26 29 27 30 28 32 29 33 30 34 82 35
REMARK SMILES IDX 31 36 81 37 32 38 33 39 34 40 75 41 35 42 80 43 74 44 76 45
REMARK SMILES IDX 36 46 79 47 73 48 72 49 37 51 63 52 46 53 62 54 47 55 50 56
REMARK SMILES IDX 61 57 77 58 48 59 49 60 60 62 78 63 51 64 38 65 39 66 44 67
REMARK SMILES IDX 40 68 41 69 43 70 45 71 42 72 64 73 65 74 70 75 66 76 67 77
REMARK SMILES IDX 69 78 71 79 68 80 52 81 53 82 58 83 54 84 55 85 57 86 59 87
REMARK SMILES IDX 56 88
REMARK H PARENT 21 5 26 31 76 50 50 61
REMARK Flexibility Score: inf
ROOT
ATOM      1  C   UNL A   1      36.951  21.976  25.077  1.00  0.00     0.116 C 
ENDROOT
BRANCH   1   2
ATOM      2  N   UNL A   1      36.383  22.701  23.960  1.00  0.00    -0.355 N 
ATOM      3  C   UNL A   1      35.084  22.973  23.670  1.00  0.00     0.230 C 
ATOM      4  O   UNL A   1      34.875  23.759  22.741  1.00  0.00    -0.274 OA
ATOM      5  H   UNL A   1      37.037  23.049  23.312  1.00  0.00     0.163 HD
BRANCH   3   6
ATOM      6  C   UNL A   1      33.941  22.457  24.514  1.00  0.00     0.176 C 
BRANCH   6   7
ATOM      7  S   UNL A   1      33.424  23.470  25.924  1.00  0.00    -0.096 SA
BRANCH   7   8
ATOM      8  C   UNL A   1      32.380  24.830  25.440  1.00  0.00     0.104 A 
ATOM      9  C   UNL A   1      29.426  26.394  23.681  1.00  0.00     0.067 C 
ATOM     10  C   UNL A   1      30.666  26.156  24.498  1.00  0.00     0.045 A 
ATOM     11  N   UNL A   1      31.139  27.256  25.111  1.00  0.00    -0.233 NA
ATOM     12  C   UNL A   1      31.273  24.895  24.600  1.00  0.00     0.003 A 
ATOM     13  C   UNL A   1      32.255  27.115  25.827  1.00  0.00     0.160 A 
ATOM     14  C   UNL A   1      30.670  23.754  23.851  1.00  0.00     0.049 C 
ATOM     15  N   UNL A   1      32.883  25.951  26.020  1.00  0.00    -0.221 NA
BRANCH  13  16
ATOM     16  C   UNL A   1      32.818  28.330  26.426  1.00  0.00     0.019 A 
ATOM     17  C   UNL A   1      31.999  29.442  26.690  1.00  0.00     0.012 A 
ATOM     18  C   UNL A   1      34.189  28.443  26.713  1.00  0.00     0.012 A 
ATOM     19  C   UNL A   1      32.528  30.624  27.220  1.00  0.00     0.014 A 
ATOM     20  C   UNL A   1      34.726  29.632  27.227  1.00  0.00     0.014 A 
ATOM     21  C   UNL A   1      33.900  30.735  27.482  1.00  0.00     0.056 A 
BRANCH  21  22
ATOM     22  C   UNL A   1      34.454  32.027  28.033  1.00  0.00     0.416 C 
ATOM     23  F   UNL A   1      35.723  32.276  27.602  1.00  0.00    -0.166 F 
ATOM     24  F   UNL A   1      33.717  33.110  27.660  1.00  0.00    -0.166 F 
ATOM     25  F   UNL A   1      34.510  32.064  29.394  1.00  0.00    -0.166 F 
ENDBRANCH  21  22
ENDBRANCH  13  16
ENDBRANCH   7   8
ENDBRANCH   6   7
ENDBRANCH   3   6
ENDBRANCH   1   2
BRANCH   1  26
ATOM     26  C   UNL A   1      36.683  20.477  24.984  1.00  0.00     0.023 C 
BRANCH  26  27
ATOM     27  C   UNL A   1      37.932  19.590  24.985  1.00  0.00     0.023 C 
BRANCH  27  28
ATOM     28  C   UNL A   1      39.134  20.131  25.753  1.00  0.00     0.116 C 
BRANCH  28  29
ATOM     29  N   UNL A   1      40.218  19.169  25.873  1.00  0.00    -0.352 N 
ATOM     30  C   UNL A   1      41.547  19.379  26.155  1.00  0.00     0.251 C 
ATOM     31  H   UNL A   1      39.961  18.229  25.732  1.00  0.00     0.163 HD
ATOM     32  O   UNL A   1      42.339  18.447  26.116  1.00  0.00    -0.269 OA
BRANCH  30  33
ATOM     33  C   UNL A   1      42.026  20.742  26.470  1.00  0.00     0.039 A 
ATOM     34  C   UNL A   1      42.283  21.620  25.414  1.00  0.00     0.014 A 
ATOM     35  C   UNL A   1      42.213  21.156  27.792  1.00  0.00     0.014 A 
ATOM     36  C   UNL A   1      42.662  22.935  25.686  1.00  0.00     0.010 A 
ATOM     37  C   UNL A   1      42.527  22.484  28.063  1.00  0.00     0.010 A 
ATOM     38  C   UNL A   1      42.752  23.387  27.012  1.00  0.00    -0.014 A 
BRANCH  38  39
ATOM     39  C   UNL A   1      43.092  24.798  27.317  1.00  0.00     0.031 A 
ATOM     40  C   UNL A   1      44.458  25.331  26.996  1.00  0.00     0.074 A 
ATOM     41  C   UNL A   1      42.181  25.592  27.912  1.00  0.00     0.049 A 
ATOM     42  N   UNL A   1      44.956  26.521  27.221  1.00  0.00    -0.248 NA
ATOM     43  C   UNL A   1      45.397  24.399  26.353  1.00  0.00     0.031 C 
ATOM     44  C   UNL A   1      40.826  25.187  28.291  1.00  0.00     0.029 A 
ATOM     45  N   UNL A   1      42.254  26.906  28.298  1.00  0.00    -0.354 N 
ATOM     46  C   UNL A   1      46.259  26.481  26.745  1.00  0.00     0.074 A 
ATOM     47  C   UNL A   1      46.498  25.132  26.278  1.00  0.00     0.031 C 
ATOM     48  C   UNL A   1      40.183  26.242  28.816  1.00  0.00     0.029 A 
ATOM     49  C   UNL A   1      41.091  27.386  28.847  1.00  0.00     0.049 A 
ATOM     50  H   UNL A   1      43.066  27.454  28.192  1.00  0.00     0.167 HD
ATOM     51  C   UNL A   1      47.165  27.483  26.672  1.00  0.00     0.037 A 
ATOM     52  C   UNL A   1      40.787  28.611  29.315  1.00  0.00     0.037 A 
ATOM     53  C   UNL A   1      46.926  28.826  27.128  1.00  0.00     0.049 A 
ATOM     54  C   UNL A   1      41.828  29.693  29.277  1.00  0.00     0.074 A 
ATOM     55  C   UNL A   1      47.775  29.917  27.084  1.00  0.00     0.029 A 
ATOM     56  N   UNL A   1      45.745  29.261  27.713  1.00  0.00    -0.354 N 
ATOM     57  N   UNL A   1      43.049  29.649  28.800  1.00  0.00    -0.248 NA
ATOM     58  C   UNL A   1      41.452  30.996  29.847  1.00  0.00     0.031 C 
ATOM     59  C   UNL A   1      47.123  31.003  27.674  1.00  0.00     0.029 A 
ATOM     60  C   UNL A   1      45.851  30.601  28.048  1.00  0.00     0.049 A 
ATOM     61  H   UNL A   1      44.951  28.702  27.867  1.00  0.00     0.167 HD
ATOM     62  C   UNL A   1      43.578  30.918  28.989  1.00  0.00     0.074 A 
ATOM     63  C   UNL A   1      42.543  31.715  29.614  1.00  0.00     0.031 C 
ATOM     64  C   UNL A   1      44.811  31.381  28.670  1.00  0.00     0.037 A 
BRANCH  51  65
ATOM     65  C   UNL A   1      48.496  27.163  26.057  1.00  0.00     0.057 A 
ATOM     66  C   UNL A   1      49.576  26.727  26.836  1.00  0.00     0.134 A 
ATOM     67  C   UNL A   1      48.695  27.264  24.674  1.00  0.00     0.134 A 
ATOM     68  F   UNL A   1      49.454  26.623  28.167  1.00  0.00    -0.206 F 
ATOM     69  C   UNL A   1      50.813  26.426  26.265  1.00  0.00     0.040 A 
ATOM     70  C   UNL A   1      49.921  26.942  24.090  1.00  0.00     0.040 A 
ATOM     71  F   UNL A   1      47.701  27.671  23.869  1.00  0.00    -0.206 F 
ATOM     72  C   UNL A   1      50.986  26.527  24.887  1.00  0.00     0.006 A 
ENDBRANCH  51  65
BRANCH  52  73
ATOM     73  C   UNL A   1      39.418  28.890  29.816  1.00  0.00     0.057 A 
ATOM     74  C   UNL A   1      38.437  29.403  28.960  1.00  0.00     0.134 A 
ATOM     75  C   UNL A   1      39.049  28.632  31.141  1.00  0.00     0.134 A 
ATOM     76  F   UNL A   1      38.737  29.686  27.684  1.00  0.00    -0.206 F 
ATOM     77  C   UNL A   1      37.139  29.655  29.403  1.00  0.00     0.040 A 
ATOM     78  C   UNL A   1      37.748  28.860  31.594  1.00  0.00     0.040 A 
ATOM     79  F   UNL A   1      39.942  28.135  32.009  1.00  0.00    -0.206 F 
ATOM     80  C   UNL A   1      36.789  29.376  30.723  1.00  0.00     0.006 A 
ENDBRANCH  52  73
BRANCH  64  81
ATOM     81  C   UNL A   1      45.111  32.819  28.975  1.00  0.00     0.057 A 
ATOM     82  C   UNL A   1      45.750  33.200  30.160  1.00  0.00     0.134 A 
ATOM     83  C   UNL A   1      44.822  33.822  28.042  1.00  0.00     0.134 A 
ATOM     84  F   UNL A   1      46.043  32.287  31.099  1.00  0.00    -0.206 F 
ATOM     85  C   UNL A   1      46.085  34.532  30.411  1.00  0.00     0.040 A 
ATOM     86  C   UNL A   1      45.173  35.154  28.271  1.00  0.00     0.040 A 
ATOM     87  F   UNL A   1      44.218  33.521  26.882  1.00  0.00    -0.206 F 
ATOM     88  C   UNL A   1      45.804  35.512  29.459  1.00  0.00     0.006 A 
ENDBRANCH  64  81
ENDBRANCH  38  39
ENDBRANCH  30  33
ENDBRANCH  28  29
ENDBRANCH  27  28
ENDBRANCH  26  27
ENDBRANCH   1  26
TORSDOF 15
ENDMDL
MODEL 3
REMARK VINA RESULT:     -11.8      0.903      6.071
REMARK SMILES Cc1nc(-c2ccc(C(F)(F)F)cc2)nc(SCC(=O)NCCCCNC(=O)c2ccc(-c3c4nc(c(-c5c(F)cccc5F)c5ccc([nH]5)c(-c5c(F)cccc5F)c5nc(c(-c6c(F)cccc6F)c6ccc3[nH]6)C=C5)C=C4)cc2)c1C
REMARK SMILES IDX 22 1 21 2 19 3 20 4 18 6 17 7 16 8 1 9 2 10 3 11 83 12 4 13
REMARK SMILES IDX 84 14 15 15 5 16 6 17 14 18 7 19 13 20 8 21 9 22 10 23 11 24
REMARK SMILES IDX 12 25 23 26 24 27 25 28 26 29 27 30 28 32 29 33 30 34 82 35
REMARK SMILES IDX 31 36 81 37 32 38 33 39 34 40 75 41 35 42 80 43 74 44 76 45
REMARK SMILES IDX 36 46 79 47 73 48 72 49 37 51 63 52 46 53 62 54 47 55 50 56
REMARK SMILES IDX 61 57 77 58 48 59 49 60 60 62 78 63 51 64 38 65 39 66 44 67
REMARK SMILES IDX 40 68 41 69 43 70 45 71 42 72 64 73 65 74 70 75 66 76 67 77
REMARK SMILES IDX 69 78 71 79 68 80 52 81 53 82 58 83 54 84 55 85 57 86 59 87
REMARK SMILES IDX 56 88
REMARK H PARENT 21 5 26 31 76 50 50 61
REMARK Flexibility Score: inf
ROOT
ATOM      1  C   UNL A   1      32.644  29.682  25.839  1.00  0.00     0.116 C 
ENDROOT
BRANCH   1   2
ATOM      2  N   UNL A   1      33.455  29.607  24.641  1.00  0.00    -0.355 N 
ATOM      3  C   UNL A   1      33.712  28.548  23.830  1.00  0.00     0.230 C 
ATOM      4  O   UNL A   1      34.301  28.790  22.772  1.00  0.00    -0.274 OA
ATOM      5  H   UNL A   1      33.885  30.452  24.376  1.00  0.00     0.163 HD
BRANCH   3   6
ATOM      6  C   UNL A   1      33.193  27.159  24.124  1.00  0.00     0.176 C 
BRANCH   6   7
ATOM      7  S   UNL A   1      33.376  25.910  22.826  1.00  0.00    -0.096 SA
BRANCH   7   8
ATOM      8  C   UNL A   1      33.506  24.258  23.482  1.00  0.00     0.104 A 
ATOM      9  C   UNL A   1      32.217  20.793  24.255  1.00  0.00     0.067 C 
ATOM     10  C   UNL A   1      33.067  22.027  24.124  1.00  0.00     0.045 A 
ATOM     11  N   UNL A   1      34.326  21.877  24.573  1.00  0.00    -0.233 NA
ATOM     12  C   UNL A   1      32.578  23.227  23.586  1.00  0.00     0.003 A 
ATOM     13  C   UNL A   1      35.120  22.946  24.511  1.00  0.00     0.160 A 
ATOM     14  C   UNL A   1      31.152  23.279  23.147  1.00  0.00     0.049 C 
ATOM     15  N   UNL A   1      34.763  24.120  23.978  1.00  0.00    -0.221 NA
BRANCH  13  16
ATOM     16  C   UNL A   1      36.466  22.808  25.077  1.00  0.00     0.019 A 
ATOM     17  C   UNL A   1      37.175  21.601  24.948  1.00  0.00     0.012 A 
ATOM     18  C   UNL A   1      37.073  23.849  25.800  1.00  0.00     0.012 A 
ATOM     19  C   UNL A   1      38.441  21.437  25.520  1.00  0.00     0.014 A 
ATOM     20  C   UNL A   1      38.333  23.683  26.391  1.00  0.00     0.014 A 
ATOM     21  C   UNL A   1      39.029  22.473  26.258  1.00  0.00     0.056 A 
BRANCH  21  22
ATOM     22  C   UNL A   1      40.386  22.269  26.886  1.00  0.00     0.416 C 
ATOM     23  F   UNL A   1      40.627  20.965  27.196  1.00  0.00    -0.166 F 
ATOM     24  F   UNL A   1      41.403  22.649  26.063  1.00  0.00    -0.166 F 
ATOM     25  F   UNL A   1      40.564  22.964  28.044  1.00  0.00    -0.166 F 
ENDBRANCH  21  22
ENDBRANCH  13  16
ENDBRANCH   7   8
ENDBRANCH   6   7
ENDBRANCH   3   6
ENDBRANCH   1   2
BRANCH   1  26
ATOM     26  C   UNL A   1      31.514  30.698  25.704  1.00  0.00     0.023 C 
BRANCH  26  27
ATOM     27  C   UNL A   1      31.425  31.729  26.834  1.00  0.00     0.023 C 
BRANCH  27  28
ATOM     28  C   UNL A   1      32.713  32.480  27.156  1.00  0.00     0.116 C 
BRANCH  28  29
ATOM     29  N   UNL A   1      32.490  33.868  27.525  1.00  0.00    -0.352 N 
ATOM     30  C   UNL A   1      33.140  34.641  28.459  1.00  0.00     0.251 C 
ATOM     31  H   UNL A   1      31.767  34.321  27.035  1.00  0.00     0.163 HD
ATOM     32  O   UNL A   1      32.744  35.772  28.705  1.00  0.00    -0.269 OA
BRANCH  30  33
ATOM     33  C   UNL A   1      34.300  34.089  29.192  1.00  0.00     0.039 A 
ATOM     34  C   UNL A   1      34.061  33.227  30.265  1.00  0.00     0.014 A 
ATOM     35  C   UNL A   1      35.609  34.408  28.822  1.00  0.00     0.014 A 
ATOM     36  C   UNL A   1      35.137  32.632  30.926  1.00  0.00     0.010 A 
ATOM     37  C   UNL A   1      36.678  33.764  29.437  1.00  0.00     0.010 A 
ATOM     38  C   UNL A   1      36.452  32.869  30.494  1.00  0.00    -0.014 A 
BRANCH  38  39
ATOM     39  C   UNL A   1      37.602  32.194  31.144  1.00  0.00     0.031 A 
ATOM     40  C   UNL A   1      38.382  31.148  30.401  1.00  0.00     0.074 A 
ATOM     41  C   UNL A   1      37.925  32.500  32.416  1.00  0.00     0.049 A 
ATOM     42  N   UNL A   1      39.390  30.422  30.811  1.00  0.00    -0.248 NA
ATOM     43  C   UNL A   1      37.961  30.868  29.019  1.00  0.00     0.031 C 
ATOM     44  C   UNL A   1      37.233  33.484  33.250  1.00  0.00     0.029 A 
ATOM     45  N   UNL A   1      38.920  32.018  33.227  1.00  0.00    -0.354 N 
ATOM     46  C   UNL A   1      39.727  29.605  29.740  1.00  0.00     0.074 A 
ATOM     47  C   UNL A   1      38.775  29.877  28.684  1.00  0.00     0.031 C 
ATOM     48  C   UNL A   1      37.851  33.563  34.439  1.00  0.00     0.029 A 
ATOM     49  C   UNL A   1      38.957  32.609  34.466  1.00  0.00     0.049 A 
ATOM     50  H   UNL A   1      39.549  31.313  32.947  1.00  0.00     0.167 HD
ATOM     51  C   UNL A   1      40.754  28.731  29.632  1.00  0.00     0.037 A 
ATOM     52  C   UNL A   1      39.791  32.409  35.504  1.00  0.00     0.037 A 
ATOM     53  C   UNL A   1      41.705  28.465  30.678  1.00  0.00     0.049 A 
ATOM     54  C   UNL A   1      40.889  31.391  35.382  1.00  0.00     0.074 A 
ATOM     55  C   UNL A   1      42.791  27.608  30.659  1.00  0.00     0.029 A 
ATOM     56  N   UNL A   1      41.684  29.059  31.932  1.00  0.00    -0.354 N 
ATOM     57  N   UNL A   1      41.212  30.645  34.353  1.00  0.00    -0.248 NA
ATOM     58  C   UNL A   1      41.737  31.185  36.565  1.00  0.00     0.031 C 
ATOM     59  C   UNL A   1      43.406  27.654  31.914  1.00  0.00     0.029 A 
ATOM     60  C   UNL A   1      42.729  28.573  32.701  1.00  0.00     0.049 A 
ATOM     61  H   UNL A   1      41.025  29.724  32.231  1.00  0.00     0.167 HD
ATOM     62  C   UNL A   1      42.311  29.898  34.755  1.00  0.00     0.074 A 
ATOM     63  C   UNL A   1      42.608  30.290  36.118  1.00  0.00     0.031 C 
ATOM     64  C   UNL A   1      43.012  28.973  34.056  1.00  0.00     0.037 A 
BRANCH  51  65
ATOM     65  C   UNL A   1      40.909  28.012  28.324  1.00  0.00     0.057 A 
ATOM     66  C   UNL A   1      40.283  26.780  28.088  1.00  0.00     0.134 A 
ATOM     67  C   UNL A   1      41.666  28.562  27.283  1.00  0.00     0.134 A 
ATOM     68  F   UNL A   1      39.555  26.194  29.050  1.00  0.00    -0.206 F 
ATOM     69  C   UNL A   1      40.423  26.111  26.871  1.00  0.00     0.040 A 
ATOM     70  C   UNL A   1      41.793  27.914  26.053  1.00  0.00     0.040 A 
ATOM     71  F   UNL A   1      42.289  29.740  27.440  1.00  0.00    -0.206 F 
ATOM     72  C   UNL A   1      41.175  26.681  25.848  1.00  0.00     0.006 A 
ENDBRANCH  51  65
BRANCH  52  73
ATOM     73  C   UNL A   1      39.646  33.228  36.733  1.00  0.00     0.057 A 
ATOM     74  C   UNL A   1      40.379  34.411  36.891  1.00  0.00     0.134 A 
ATOM     75  C   UNL A   1      38.767  32.871  37.761  1.00  0.00     0.134 A 
ATOM     76  F   UNL A   1      41.250  34.796  35.947  1.00  0.00    -0.206 F 
ATOM     77  C   UNL A   1      40.245  35.207  38.029  1.00  0.00     0.040 A 
ATOM     78  C   UNL A   1      38.608  33.667  38.896  1.00  0.00     0.040 A 
ATOM     79  F   UNL A   1      38.034  31.752  37.666  1.00  0.00    -0.206 F 
ATOM     80  C   UNL A   1      39.351  34.839  39.033  1.00  0.00     0.006 A 
ENDBRANCH  52  73
BRANCH  64  81
ATOM     81  C   UNL A   1      44.180  28.326  34.740  1.00  0.00     0.057 A 
ATOM     82  C   UNL A   1      45.450  28.914  34.738  1.00  0.00     0.134 A 
ATOM     83  C   UNL A   1      44.015  27.140  35.467  1.00  0.00     0.134 A 
ATOM     84  F   UNL A   1      45.675  30.044  34.051  1.00  0.00    -0.206 F 
ATOM     85  C   UNL A   1      46.518  28.340  35.429  1.00  0.00     0.040 A 
ATOM     86  C   UNL A   1      45.069  26.570  36.181  1.00  0.00     0.040 A 
ATOM     87  F   UNL A   1      42.819  26.532  35.516  1.00  0.00    -0.206 F 
ATOM     88  C   UNL A   1      46.326  27.169  36.162  1.00  0.00     0.006 A 
ENDBRANCH  64  81
ENDBRANCH  38  39
ENDBRANCH  30  33
ENDBRANCH  28  29
ENDBRANCH  27  28
ENDBRANCH  26  27
ENDBRANCH   1  26
TORSDOF 15
ENDMDL
