MODEL 1
REMARK VINA RESULT:     -12.0      0.000      0.000
REMARK SMILES Cc1sc(-c2ccco2)nc1C(=O)N[C@@H](C(=O)NCCCCNC(=O)c1ccc(-c2c3nc(c(-c4c(F)cccc4F)c4ccc([nH]4)c(-c4c(F)cccc4F)c4nc(c(-c5c(F)cccc5F)c5ccc2[nH]5)C=C4)C=C3)cc1)C(C)C
REMARK SMILES IDX 20 1 19 2 18 3 16 4 17 5 15 7 14 8 12 9 13 10 11 12 1 13
REMARK SMILES IDX 2 14 3 15 4 16 10 17 5 18 6 19 9 20 7 21 8 22 80 23 81 24
REMARK SMILES IDX 82 25 21 26 22 27 23 28 24 29 25 31 26 32 27 33 79 34 28 35
REMARK SMILES IDX 78 36 29 37 30 38 31 39 72 40 32 41 77 42 71 43 73 44 33 45
REMARK SMILES IDX 76 46 70 47 69 48 34 50 60 51 43 52 59 53 44 54 47 55 58 56
REMARK SMILES IDX 74 57 45 58 46 59 57 61 75 62 48 63 35 64 36 65 41 66 37 67
REMARK SMILES IDX 38 68 40 69 42 70 39 71 61 72 62 73 67 74 63 75 64 76 66 77
REMARK SMILES IDX 68 78 65 79 49 80 50 81 55 82 51 83 52 84 54 85 56 86 53 87
REMARK H PARENT 18 6 14 11 23 30 73 49 47 60
REMARK Flexibility Score: inf
ROOT
ATOM      1  C   UNL A   1      36.843  21.951  24.125  1.00  0.00     0.023 C 
ENDROOT
BRANCH   1   2
ATOM      2  C   UNL A   1      35.423  22.326  24.536  1.00  0.00     0.116 C 
BRANCH   2   3
ATOM      3  N   UNL A   1      35.116  21.851  25.871  1.00  0.00    -0.354 N 
ATOM      4  C   UNL A   1      33.914  21.691  26.506  1.00  0.00     0.242 C 
ATOM      5  O   UNL A   1      33.954  21.316  27.679  1.00  0.00    -0.273 OA
ATOM      6  H   UNL A   1      35.901  21.603  26.410  1.00  0.00     0.163 HD
BRANCH   4   7
ATOM      7  C   UNL A   1      32.581  21.816  25.717  1.00  0.00     0.174 C 
BRANCH   7   8
ATOM      8  N   UNL A   1      31.493  22.242  26.574  1.00  0.00    -0.339 N 
ATOM      9  C   UNL A   1      30.722  23.373  26.656  1.00  0.00     0.271 C 
ATOM     10  O   UNL A   1      29.903  23.321  27.582  1.00  0.00    -0.267 OA
ATOM     11  H   UNL A   1      31.254  21.567  27.250  1.00  0.00     0.164 HD
BRANCH   9  12
ATOM     12  C   UNL A   1      30.796  24.597  25.794  1.00  0.00     0.142 A 
ATOM     13  C   UNL A   1      30.590  24.097  23.148  1.00  0.00     0.059 C 
ATOM     14  C   UNL A   1      30.689  24.867  24.421  1.00  0.00     0.035 A 
ATOM     15  S   UNL A   1      30.669  26.585  24.163  1.00  0.00    -0.115 S 
ATOM     16  C   UNL A   1      31.141  26.837  25.767  1.00  0.00     0.160 A 
ATOM     17  N   UNL A   1      31.160  25.764  26.515  1.00  0.00    -0.227 NA
BRANCH  16  18
ATOM     18  C   UNL A   1      31.557  28.135  26.199  1.00  0.00     0.162 A 
ATOM     19  C   UNL A   1      32.334  28.465  27.297  1.00  0.00     0.053 A 
ATOM     20  O   UNL A   1      31.301  29.277  25.482  1.00  0.00    -0.462 OA
ATOM     21  C   UNL A   1      32.580  29.857  27.228  1.00  0.00     0.043 A 
ATOM     22  C   UNL A   1      31.910  30.306  26.117  1.00  0.00     0.196 A 
ENDBRANCH  16  18
ENDBRANCH   9  12
ENDBRANCH   7   8
BRANCH   7  23
ATOM     23  C   UNL A   1      32.233  20.556  24.886  1.00  0.00     0.015 C 
ATOM     24  C   UNL A   1      32.429  20.779  23.380  1.00  0.00     0.010 C 
ATOM     25  C   UNL A   1      33.128  19.381  25.316  1.00  0.00     0.010 C 
ENDBRANCH   7  23
ENDBRANCH   4   7
ENDBRANCH   2   3
ENDBRANCH   1   2
BRANCH   1  26
ATOM     26  C   UNL A   1      37.344  20.671  24.794  1.00  0.00     0.023 C 
BRANCH  26  27
ATOM     27  C   UNL A   1      38.539  20.866  25.722  1.00  0.00     0.116 C 
BRANCH  27  28
ATOM     28  N   UNL A   1      39.503  19.779  25.651  1.00  0.00    -0.352 N 
ATOM     29  C   UNL A   1      40.841  19.803  25.964  1.00  0.00     0.251 C 
ATOM     30  H   UNL A   1      39.152  18.915  25.336  1.00  0.00     0.163 HD
ATOM     31  O   UNL A   1      41.556  18.835  25.727  1.00  0.00    -0.269 OA
BRANCH  29  32
ATOM     32  C   UNL A   1      41.420  21.025  26.558  1.00  0.00     0.039 A 
ATOM     33  C   UNL A   1      41.959  21.996  25.714  1.00  0.00     0.014 A 
ATOM     34  C   UNL A   1      41.388  21.228  27.941  1.00  0.00     0.014 A 
ATOM     35  C   UNL A   1      42.405  23.204  26.251  1.00  0.00     0.010 A 
ATOM     36  C   UNL A   1      41.758  22.462  28.465  1.00  0.00     0.010 A 
ATOM     37  C   UNL A   1      42.271  23.463  27.626  1.00  0.00    -0.014 A 
BRANCH  37  38
ATOM     38  C   UNL A   1      42.659  24.777  28.202  1.00  0.00     0.031 A 
ATOM     39  C   UNL A   1      41.623  25.845  28.414  1.00  0.00     0.074 A 
ATOM     40  C   UNL A   1      43.954  25.029  28.477  1.00  0.00     0.049 A 
ATOM     41  N   UNL A   1      41.775  27.070  28.848  1.00  0.00    -0.248 NA
ATOM     42  C   UNL A   1      40.235  25.500  28.064  1.00  0.00     0.031 C 
ATOM     43  C   UNL A   1      45.062  24.094  28.268  1.00  0.00     0.029 A 
ATOM     44  N   UNL A   1      44.559  26.152  28.982  1.00  0.00    -0.354 N 
ATOM     45  C   UNL A   1      40.510  27.642  28.816  1.00  0.00     0.074 A 
ATOM     46  C   UNL A   1      39.613  26.653  28.261  1.00  0.00     0.031 C 
ATOM     47  C   UNL A   1      46.206  24.673  28.668  1.00  0.00     0.029 A 
ATOM     48  C   UNL A   1      45.921  26.031  29.120  1.00  0.00     0.049 A 
ATOM     49  H   UNL A   1      44.064  26.968  29.224  1.00  0.00     0.167 HD
ATOM     50  C   UNL A   1      40.125  28.871  29.234  1.00  0.00     0.037 A 
ATOM     51  C   UNL A   1      46.837  26.917  29.553  1.00  0.00     0.037 A 
ATOM     52  C   UNL A   1      41.017  29.848  29.802  1.00  0.00     0.049 A 
ATOM     53  C   UNL A   1      46.387  28.281  29.998  1.00  0.00     0.074 A 
ATOM     54  C   UNL A   1      40.715  31.101  30.306  1.00  0.00     0.029 A 
ATOM     55  N   UNL A   1      42.388  29.684  29.936  1.00  0.00    -0.354 N 
ATOM     56  N   UNL A   1      45.176  28.784  30.028  1.00  0.00    -0.248 NA
ATOM     57  C   UNL A   1      47.430  29.201  30.474  1.00  0.00     0.031 C 
ATOM     58  C   UNL A   1      41.909  31.715  30.696  1.00  0.00     0.029 A 
ATOM     59  C   UNL A   1      42.948  30.823  30.490  1.00  0.00     0.049 A 
ATOM     60  H   UNL A   1      42.888  28.877  29.675  1.00  0.00     0.167 HD
ATOM     61  C   UNL A   1      45.308  30.063  30.554  1.00  0.00     0.074 A 
ATOM     62  C   UNL A   1      46.714  30.253  30.843  1.00  0.00     0.031 C 
ATOM     63  C   UNL A   1      44.350  30.996  30.779  1.00  0.00     0.037 A 
BRANCH  50  64
ATOM     64  C   UNL A   1      38.672  29.227  29.095  1.00  0.00     0.057 A 
ATOM     65  C   UNL A   1      37.795  29.198  30.187  1.00  0.00     0.134 A 
ATOM     66  C   UNL A   1      38.150  29.634  27.860  1.00  0.00     0.134 A 
ATOM     67  F   UNL A   1      38.226  28.805  31.395  1.00  0.00    -0.206 F 
ATOM     68  C   UNL A   1      36.446  29.531  30.052  1.00  0.00     0.040 A 
ATOM     69  C   UNL A   1      36.810  30.000  27.718  1.00  0.00     0.040 A 
ATOM     70  F   UNL A   1      38.934  29.692  26.773  1.00  0.00    -0.206 F 
ATOM     71  C   UNL A   1      35.953  29.941  28.814  1.00  0.00     0.006 A 
ENDBRANCH  50  64
BRANCH  51  72
ATOM     72  C   UNL A   1      48.273  26.538  29.608  1.00  0.00     0.057 A 
ATOM     73  C   UNL A   1      48.802  25.870  30.718  1.00  0.00     0.134 A 
ATOM     74  C   UNL A   1      49.151  26.844  28.562  1.00  0.00     0.134 A 
ATOM     75  F   UNL A   1      48.015  25.564  31.761  1.00  0.00    -0.206 F 
ATOM     76  C   UNL A   1      50.156  25.539  30.798  1.00  0.00     0.040 A 
ATOM     77  C   UNL A   1      50.502  26.496  28.615  1.00  0.00     0.040 A 
ATOM     78  F   UNL A   1      48.705  27.477  27.467  1.00  0.00    -0.206 F 
ATOM     79  C   UNL A   1      51.010  25.850  29.740  1.00  0.00     0.006 A 
ENDBRANCH  51  72
BRANCH  63  80
ATOM     80  C   UNL A   1      44.783  32.292  31.401  1.00  0.00     0.057 A 
ATOM     81  C   UNL A   1      45.152  33.401  30.629  1.00  0.00     0.134 A 
ATOM     82  C   UNL A   1      44.797  32.442  32.794  1.00  0.00     0.134 A 
ATOM     83  F   UNL A   1      45.173  33.321  29.290  1.00  0.00    -0.206 F 
ATOM     84  C   UNL A   1      45.544  34.603  31.220  1.00  0.00     0.040 A 
ATOM     85  C   UNL A   1      45.157  33.648  33.396  1.00  0.00     0.040 A 
ATOM     86  F   UNL A   1      44.446  31.423  33.593  1.00  0.00    -0.206 F 
ATOM     87  C   UNL A   1      45.539  34.731  32.608  1.00  0.00     0.006 A 
ENDBRANCH  63  80
ENDBRANCH  37  38
ENDBRANCH  29  32
ENDBRANCH  27  28
ENDBRANCH  26  27
ENDBRANCH   1  26
TORSDOF 15
ENDMDL
MODEL 2
REMARK VINA RESULT:     -11.9      0.317      6.200
REMARK SMILES Cc1sc(-c2ccco2)nc1C(=O)N[C@@H](C(=O)NCCCCNC(=O)c1ccc(-c2c3nc(c(-c4c(F)cccc4F)c4ccc([nH]4)c(-c4c(F)cccc4F)c4nc(c(-c5c(F)cccc5F)c5ccc2[nH]5)C=C4)C=C3)cc1)C(C)C
REMARK SMILES IDX 20 1 19 2 18 3 16 4 17 5 15 7 14 8 12 9 13 10 11 12 1 13
REMARK SMILES IDX 2 14 3 15 4 16 10 17 5 18 6 19 9 20 7 21 8 22 80 23 81 24
REMARK SMILES IDX 82 25 21 26 22 27 23 28 24 29 25 31 26 32 27 33 79 34 28 35
REMARK SMILES IDX 78 36 29 37 30 38 31 39 72 40 32 41 77 42 71 43 73 44 33 45
REMARK SMILES IDX 76 46 70 47 69 48 34 50 60 51 43 52 59 53 44 54 47 55 58 56
REMARK SMILES IDX 74 57 45 58 46 59 57 61 75 62 48 63 35 64 36 65 41 66 37 67
REMARK SMILES IDX 38 68 40 69 42 70 39 71 61 72 62 73 67 74 63 75 64 76 66 77
REMARK SMILES IDX 68 78 65 79 49 80 50 81 55 82 51 83 52 84 54 85 56 86 53 87
REMARK H PARENT 18 6 14 11 23 30 73 49 47 60
REMARK Flexibility Score: inf
ROOT
ATOM      1  C   UNL A   1      36.995  21.723  24.266  1.00  0.00     0.023 C 
ENDROOT
BRANCH   1   2
ATOM      2  C   UNL A   1      35.498  21.854  24.523  1.00  0.00     0.116 C 
BRANCH   2   3
ATOM      3  N   UNL A   1      35.167  21.545  25.900  1.00  0.00    -0.354 N 
ATOM      4  C   UNL A   1      33.963  21.546  26.550  1.00  0.00     0.242 C 
ATOM      5  O   UNL A   1      33.985  21.292  27.755  1.00  0.00    -0.273 OA
ATOM      6  H   UNL A   1      35.936  21.293  26.460  1.00  0.00     0.163 HD
BRANCH   4   7
ATOM      7  C   UNL A   1      32.636  21.693  25.754  1.00  0.00     0.174 C 
BRANCH   7   8
ATOM      8  N   UNL A   1      31.548  22.121  26.610  1.00  0.00    -0.339 N 
ATOM      9  C   UNL A   1      30.775  23.252  26.686  1.00  0.00     0.271 C 
ATOM     10  O   UNL A   1      29.956  23.202  27.613  1.00  0.00    -0.267 OA
ATOM     11  H   UNL A   1      31.310  21.449  27.290  1.00  0.00     0.164 HD
BRANCH   9  12
ATOM     12  C   UNL A   1      30.846  24.471  25.819  1.00  0.00     0.142 A 
ATOM     13  C   UNL A   1      30.642  23.957  23.175  1.00  0.00     0.059 C 
ATOM     14  C   UNL A   1      30.739  24.734  24.444  1.00  0.00     0.035 A 
ATOM     15  S   UNL A   1      30.715  26.450  24.178  1.00  0.00    -0.115 S 
ATOM     16  C   UNL A   1      31.186  26.712  25.780  1.00  0.00     0.160 A 
ATOM     17  N   UNL A   1      31.207  25.643  26.534  1.00  0.00    -0.227 NA
BRANCH  16  18
ATOM     18  C   UNL A   1      31.599  28.012  26.206  1.00  0.00     0.162 A 
ATOM     19  C   UNL A   1      32.379  28.350  27.299  1.00  0.00     0.053 A 
ATOM     20  O   UNL A   1      31.335  29.151  25.486  1.00  0.00    -0.462 OA
ATOM     21  C   UNL A   1      32.620  29.743  27.224  1.00  0.00     0.043 A 
ATOM     22  C   UNL A   1      31.943  30.185  26.114  1.00  0.00     0.196 A 
ENDBRANCH  16  18
ENDBRANCH   9  12
ENDBRANCH   7   8
BRANCH   7  23
ATOM     23  C   UNL A   1      32.280  20.446  24.909  1.00  0.00     0.015 C 
ATOM     24  C   UNL A   1      32.519  20.671  23.409  1.00  0.00     0.010 C 
ATOM     25  C   UNL A   1      33.137  19.248  25.354  1.00  0.00     0.010 C 
ENDBRANCH   7  23
ENDBRANCH   4   7
ENDBRANCH   2   3
ENDBRANCH   1   2
BRANCH   1  26
ATOM     26  C   UNL A   1      37.573  20.392  24.746  1.00  0.00     0.023 C 
BRANCH  26  27
ATOM     27  C   UNL A   1      38.626  20.516  25.843  1.00  0.00     0.116 C 
BRANCH  27  28
ATOM     28  N   UNL A   1      39.663  19.500  25.757  1.00  0.00    -0.352 N 
ATOM     29  C   UNL A   1      41.006  19.627  26.025  1.00  0.00     0.251 C 
ATOM     30  H   UNL A   1      39.367  18.607  25.470  1.00  0.00     0.163 HD
ATOM     31  O   UNL A   1      41.782  18.709  25.780  1.00  0.00    -0.269 OA
BRANCH  29  32
ATOM     32  C   UNL A   1      41.513  20.899  26.578  1.00  0.00     0.039 A 
ATOM     33  C   UNL A   1      42.034  21.855  25.705  1.00  0.00     0.014 A 
ATOM     34  C   UNL A   1      41.432  21.162  27.949  1.00  0.00     0.014 A 
ATOM     35  C   UNL A   1      42.411  23.104  26.199  1.00  0.00     0.010 A 
ATOM     36  C   UNL A   1      41.731  22.434  28.425  1.00  0.00     0.010 A 
ATOM     37  C   UNL A   1      42.225  23.418  27.556  1.00  0.00    -0.014 A 
BRANCH  37  38
ATOM     38  C   UNL A   1      42.538  24.772  28.081  1.00  0.00     0.031 A 
ATOM     39  C   UNL A   1      43.941  25.116  28.498  1.00  0.00     0.074 A 
ATOM     40  C   UNL A   1      41.547  25.672  28.239  1.00  0.00     0.049 A 
ATOM     41  N   UNL A   1      44.397  26.221  29.032  1.00  0.00    -0.248 NA
ATOM     42  C   UNL A   1      44.960  24.071  28.318  1.00  0.00     0.031 C 
ATOM     43  C   UNL A   1      40.136  25.443  27.920  1.00  0.00     0.029 A 
ATOM     44  N   UNL A   1      41.574  26.957  28.718  1.00  0.00    -0.354 N 
ATOM     45  C   UNL A   1      45.750  26.000  29.258  1.00  0.00     0.074 A 
ATOM     46  C   UNL A   1      46.027  24.636  28.863  1.00  0.00     0.031 C 
ATOM     47  C   UNL A   1      39.439  26.560  28.187  1.00  0.00     0.029 A 
ATOM     48  C   UNL A   1      40.342  27.567  28.734  1.00  0.00     0.049 A 
ATOM     49  H   UNL A   1      42.398  27.402  29.023  1.00  0.00     0.167 HD
ATOM     50  C   UNL A   1      46.682  26.862  29.729  1.00  0.00     0.037 A 
ATOM     51  C   UNL A   1      39.981  28.795  29.151  1.00  0.00     0.037 A 
ATOM     52  C   UNL A   1      46.406  28.224  30.105  1.00  0.00     0.049 A 
ATOM     53  C   UNL A   1      41.032  29.729  29.684  1.00  0.00     0.074 A 
ATOM     54  C   UNL A   1      47.292  29.193  30.542  1.00  0.00     0.029 A 
ATOM     55  N   UNL A   1      45.148  28.808  30.097  1.00  0.00    -0.354 N 
ATOM     56  N   UNL A   1      42.320  29.530  29.826  1.00  0.00    -0.248 NA
ATOM     57  C   UNL A   1      40.579  31.061  30.111  1.00  0.00     0.031 C 
ATOM     58  C   UNL A   1      46.563  30.346  30.847  1.00  0.00     0.029 A 
ATOM     59  C   UNL A   1      45.231  30.116  30.544  1.00  0.00     0.049 A 
ATOM     60  H   UNL A   1      44.319  28.358  29.814  1.00  0.00     0.167 HD
ATOM     61  C   UNL A   1      42.836  30.719  30.327  1.00  0.00     0.074 A 
ATOM     62  C   UNL A   1      41.724  31.638  30.450  1.00  0.00     0.031 C 
ATOM     63  C   UNL A   1      44.116  31.022  30.656  1.00  0.00     0.037 A 
BRANCH  50  64
ATOM     64  C   UNL A   1      48.090  26.356  29.859  1.00  0.00     0.057 A 
ATOM     65  C   UNL A   1      48.556  25.758  31.038  1.00  0.00     0.134 A 
ATOM     66  C   UNL A   1      48.982  26.437  28.782  1.00  0.00     0.134 A 
ATOM     67  F   UNL A   1      47.758  25.659  32.112  1.00  0.00    -0.206 F 
ATOM     68  C   UNL A   1      49.866  25.288  31.152  1.00  0.00     0.040 A 
ATOM     69  C   UNL A   1      50.285  25.942  28.873  1.00  0.00     0.040 A 
ATOM     70  F   UNL A   1      48.602  26.991  27.621  1.00  0.00    -0.206 F 
ATOM     71  C   UNL A   1      50.732  25.373  30.064  1.00  0.00     0.006 A 
ENDBRANCH  50  64
BRANCH  51  72
ATOM     72  C   UNL A   1      38.560  29.223  29.063  1.00  0.00     0.057 A 
ATOM     73  C   UNL A   1      38.021  29.694  27.861  1.00  0.00     0.134 A 
ATOM     74  C   UNL A   1      37.715  29.185  30.178  1.00  0.00     0.134 A 
ATOM     75  F   UNL A   1      38.786  29.772  26.762  1.00  0.00    -0.206 F 
ATOM     76  C   UNL A   1      36.698  30.133  27.774  1.00  0.00     0.040 A 
ATOM     77  C   UNL A   1      36.382  29.594  30.100  1.00  0.00     0.040 A 
ATOM     78  F   UNL A   1      38.169  28.737  31.357  1.00  0.00    -0.206 F 
ATOM     79  C   UNL A   1      35.873  30.079  28.896  1.00  0.00     0.006 A 
ENDBRANCH  51  72
BRANCH  63  80
ATOM     80  C   UNL A   1      44.390  32.416  31.142  1.00  0.00     0.057 A 
ATOM     81  C   UNL A   1      44.380  32.744  32.504  1.00  0.00     0.134 A 
ATOM     82  C   UNL A   1      44.704  33.437  30.234  1.00  0.00     0.134 A 
ATOM     83  F   UNL A   1      44.075  31.817  33.424  1.00  0.00    -0.206 F 
ATOM     84  C   UNL A   1      44.646  34.041  32.943  1.00  0.00     0.040 A 
ATOM     85  C   UNL A   1      45.002  34.731  30.664  1.00  0.00     0.040 A 
ATOM     86  F   UNL A   1      44.741  33.190  28.916  1.00  0.00    -0.206 F 
ATOM     87  C   UNL A   1      44.966  35.038  32.022  1.00  0.00     0.006 A 
ENDBRANCH  63  80
ENDBRANCH  37  38
ENDBRANCH  29  32
ENDBRANCH  27  28
ENDBRANCH  26  27
ENDBRANCH   1  26
TORSDOF 15
ENDMDL
MODEL 3
REMARK VINA RESULT:     -11.8      1.402      2.246
REMARK SMILES Cc1sc(-c2ccco2)nc1C(=O)N[C@@H](C(=O)NCCCCNC(=O)c1ccc(-c2c3nc(c(-c4c(F)cccc4F)c4ccc([nH]4)c(-c4c(F)cccc4F)c4nc(c(-c5c(F)cccc5F)c5ccc2[nH]5)C=C4)C=C3)cc1)C(C)C
REMARK SMILES IDX 20 1 19 2 18 3 16 4 17 5 15 7 14 8 12 9 13 10 11 12 1 13
REMARK SMILES IDX 2 14 3 15 4 16 10 17 5 18 6 19 9 20 7 21 8 22 80 23 81 24
REMARK SMILES IDX 82 25 21 26 22 27 23 28 24 29 25 31 26 32 27 33 79 34 28 35
REMARK SMILES IDX 78 36 29 37 30 38 31 39 72 40 32 41 77 42 71 43 73 44 33 45
REMARK SMILES IDX 76 46 70 47 69 48 34 50 60 51 43 52 59 53 44 54 47 55 58 56
REMARK SMILES IDX 74 57 45 58 46 59 57 61 75 62 48 63 35 64 36 65 41 66 37 67
REMARK SMILES IDX 38 68 40 69 42 70 39 71 61 72 62 73 67 74 63 75 64 76 66 77
REMARK SMILES IDX 68 78 65 79 49 80 50 81 55 82 51 83 52 84 54 85 56 86 53 87
REMARK H PARENT 18 6 14 11 23 30 73 49 47 60
REMARK Flexibility Score: inf
ROOT
ATOM      1  C   UNL A   1      37.071  21.251  24.661  1.00  0.00     0.023 C 
ENDROOT
BRANCH   1   2
ATOM      2  C   UNL A   1      36.037  21.586  25.730  1.00  0.00     0.116 C 
BRANCH   2   3
ATOM      3  N   UNL A   1      35.009  20.568  25.810  1.00  0.00    -0.354 N 
ATOM      4  C   UNL A   1      33.645  20.675  25.808  1.00  0.00     0.242 C 
ATOM      5  O   UNL A   1      33.008  19.629  25.946  1.00  0.00    -0.273 OA
ATOM      6  H   UNL A   1      35.348  19.646  25.877  1.00  0.00     0.163 HD
BRANCH   4   7
ATOM      7  C   UNL A   1      32.960  22.029  25.475  1.00  0.00     0.174 C 
BRANCH   7   8
ATOM      8  N   UNL A   1      31.823  22.277  26.340  1.00  0.00    -0.339 N 
ATOM      9  C   UNL A   1      30.994  23.349  26.551  1.00  0.00     0.271 C 
ATOM     10  O   UNL A   1      30.147  23.126  27.426  1.00  0.00    -0.267 OA
ATOM     11  H   UNL A   1      31.595  21.500  26.901  1.00  0.00     0.164 HD
BRANCH   9  12
ATOM     12  C   UNL A   1      31.036  24.686  25.879  1.00  0.00     0.142 A 
ATOM     13  C   UNL A   1      30.233  24.651  23.300  1.00  0.00     0.059 C 
ATOM     14  C   UNL A   1      30.683  25.188  24.616  1.00  0.00     0.035 A 
ATOM     15  S   UNL A   1      30.818  26.921  24.617  1.00  0.00    -0.115 S 
ATOM     16  C   UNL A   1      31.635  26.862  26.096  1.00  0.00     0.160 A 
ATOM     17  N   UNL A   1      31.678  25.683  26.660  1.00  0.00    -0.227 NA
BRANCH  16  18
ATOM     18  C   UNL A   1      32.284  28.029  26.606  1.00  0.00     0.162 A 
ATOM     19  C   UNL A   1      33.633  28.222  26.852  1.00  0.00     0.053 A 
ATOM     20  O   UNL A   1      31.621  29.208  26.842  1.00  0.00    -0.462 OA
ATOM     21  C   UNL A   1      33.798  29.578  27.225  1.00  0.00     0.043 A 
ATOM     22  C   UNL A   1      32.539  30.127  27.225  1.00  0.00     0.196 A 
ENDBRANCH  16  18
ENDBRANCH   9  12
ENDBRANCH   7   8
BRANCH   7  23
ATOM     23  C   UNL A   1      32.621  22.199  23.974  1.00  0.00     0.015 C 
ATOM     24  C   UNL A   1      33.744  22.900  23.198  1.00  0.00     0.010 C 
ATOM     25  C   UNL A   1      32.383  20.821  23.331  1.00  0.00     0.010 C 
ENDBRANCH   7  23
ENDBRANCH   4   7
ENDBRANCH   2   3
ENDBRANCH   1   2
BRANCH   1  26
ATOM     26  C   UNL A   1      37.931  20.037  25.015  1.00  0.00     0.023 C 
BRANCH  26  27
ATOM     27  C   UNL A   1      39.211  20.367  25.776  1.00  0.00     0.116 C 
BRANCH  27  28
ATOM     28  N   UNL A   1      40.141  19.251  25.843  1.00  0.00    -0.352 N 
ATOM     29  C   UNL A   1      41.487  19.276  26.120  1.00  0.00     0.251 C 
ATOM     30  H   UNL A   1      39.757  18.362  25.666  1.00  0.00     0.163 HD
ATOM     31  O   UNL A   1      42.167  18.261  26.010  1.00  0.00    -0.269 OA
BRANCH  29  32
ATOM     32  C   UNL A   1      42.117  20.551  26.516  1.00  0.00     0.039 A 
ATOM     33  C   UNL A   1      42.657  21.374  25.526  1.00  0.00     0.014 A 
ATOM     34  C   UNL A   1      42.132  20.952  27.855  1.00  0.00     0.014 A 
ATOM     35  C   UNL A   1      43.152  22.632  25.872  1.00  0.00     0.010 A 
ATOM     36  C   UNL A   1      42.551  22.236  28.186  1.00  0.00     0.010 A 
ATOM     37  C   UNL A   1      43.067  23.090  27.198  1.00  0.00    -0.014 A 
BRANCH  37  38
ATOM     38  C   UNL A   1      43.507  24.459  27.567  1.00  0.00     0.031 A 
ATOM     39  C   UNL A   1      42.494  25.507  27.932  1.00  0.00     0.074 A 
ATOM     40  C   UNL A   1      44.817  24.776  27.516  1.00  0.00     0.049 A 
ATOM     41  N   UNL A   1      42.678  26.769  28.226  1.00  0.00    -0.248 NA
ATOM     42  C   UNL A   1      41.083  25.089  27.940  1.00  0.00     0.031 C 
ATOM     43  C   UNL A   1      45.894  23.863  27.128  1.00  0.00     0.029 A 
ATOM     44  N   UNL A   1      45.463  25.957  27.782  1.00  0.00    -0.354 N 
ATOM     45  C   UNL A   1      41.411  27.295  28.444  1.00  0.00     0.074 A 
ATOM     46  C   UNL A   1      40.463  26.233  28.188  1.00  0.00     0.031 C 
ATOM     47  C   UNL A   1      47.069  24.512  27.207  1.00  0.00     0.029 A 
ATOM     48  C   UNL A   1      46.824  25.893  27.609  1.00  0.00     0.049 A 
ATOM     49  H   UNL A   1      44.994  26.774  28.069  1.00  0.00     0.167 HD
ATOM     50  C   UNL A   1      41.069  28.542  28.846  1.00  0.00     0.037 A 
ATOM     51  C   UNL A   1      47.768  26.842  27.751  1.00  0.00     0.037 A 
ATOM     52  C   UNL A   1      42.016  29.592  29.117  1.00  0.00     0.049 A 
ATOM     53  C   UNL A   1      47.362  28.224  28.184  1.00  0.00     0.074 A 
ATOM     54  C   UNL A   1      41.772  30.873  29.581  1.00  0.00     0.029 A 
ATOM     55  N   UNL A   1      43.387  29.485  28.942  1.00  0.00    -0.354 N 
ATOM     56  N   UNL A   1      46.166  28.688  28.455  1.00  0.00    -0.248 NA
ATOM     57  C   UNL A   1      48.438  29.214  28.335  1.00  0.00     0.031 C 
ATOM     58  C   UNL A   1      42.991  31.557  29.637  1.00  0.00     0.029 A 
ATOM     59  C   UNL A   1      44.000  30.684  29.265  1.00  0.00     0.049 A 
ATOM     60  H   UNL A   1      43.856  28.675  28.634  1.00  0.00     0.167 HD
ATOM     61  C   UNL A   1      46.348  30.010  28.838  1.00  0.00     0.074 A 
ATOM     62  C   UNL A   1      47.771  30.270  28.779  1.00  0.00     0.031 C 
ATOM     63  C   UNL A   1      45.420  30.927  29.207  1.00  0.00     0.037 A 
BRANCH  50  64
ATOM     64  C   UNL A   1      39.606  28.837  29.020  1.00  0.00     0.057 A 
ATOM     65  C   UNL A   1      38.810  29.289  27.959  1.00  0.00     0.134 A 
ATOM     66  C   UNL A   1      38.978  28.636  30.256  1.00  0.00     0.134 A 
ATOM     67  F   UNL A   1      39.351  29.514  26.752  1.00  0.00    -0.206 F 
ATOM     68  C   UNL A   1      37.451  29.559  28.127  1.00  0.00     0.040 A 
ATOM     69  C   UNL A   1      37.613  28.872  30.429  1.00  0.00     0.040 A 
ATOM     70  F   UNL A   1      39.677  28.198  31.314  1.00  0.00    -0.206 F 
ATOM     71  C   UNL A   1      36.848  29.344  29.364  1.00  0.00     0.006 A 
ENDBRANCH  50  64
BRANCH  51  72
ATOM     72  C   UNL A   1      49.197  26.515  27.501  1.00  0.00     0.057 A 
ATOM     73  C   UNL A   1      49.738  26.580  26.212  1.00  0.00     0.134 A 
ATOM     74  C   UNL A   1      50.048  26.119  28.539  1.00  0.00     0.134 A 
ATOM     75  F   UNL A   1      48.968  26.935  25.173  1.00  0.00    -0.206 F 
ATOM     76  C   UNL A   1      51.069  26.241  25.959  1.00  0.00     0.040 A 
ATOM     77  C   UNL A   1      51.388  25.804  28.305  1.00  0.00     0.040 A 
ATOM     78  F   UNL A   1      49.593  26.045  29.798  1.00  0.00    -0.206 F 
ATOM     79  C   UNL A   1      51.899  25.855  27.010  1.00  0.00     0.006 A 
ENDBRANCH  51  72
BRANCH  63  80
ATOM     80  C   UNL A   1      45.917  32.285  29.612  1.00  0.00     0.057 A 
ATOM     81  C   UNL A   1      46.281  32.580  30.932  1.00  0.00     0.134 A 
ATOM     82  C   UNL A   1      46.067  33.301  28.658  1.00  0.00     0.134 A 
ATOM     83  F   UNL A   1      46.150  31.658  31.897  1.00  0.00    -0.206 F 
ATOM     84  C   UNL A   1      46.751  33.844  31.294  1.00  0.00     0.040 A 
ATOM     85  C   UNL A   1      46.565  34.558  29.002  1.00  0.00     0.040 A 
ATOM     86  F   UNL A   1      45.747  33.083  27.374  1.00  0.00    -0.206 F 
ATOM     87  C   UNL A   1      46.901  34.835  30.325  1.00  0.00     0.006 A 
ENDBRANCH  63  80
ENDBRANCH  37  38
ENDBRANCH  29  32
ENDBRANCH  27  28
ENDBRANCH  26  27
ENDBRANCH   1  26
TORSDOF 15
ENDMDL
