MODEL 1
REMARK VINA RESULT:     -11.1      0.000      0.000
REMARK SMILES C/C(=N\Nc1nc(-c2ccc(Cl)cc2)cs1)c1nnn(-c2ccc(C(=O)NCCCCNC(=O)c3ccc(-c4c5nc(c(-c6c(F)cccc6F)c6ccc([nH]6)c(-c6c(F)cccc6F)c6nc(c(-c7c(F)cccc7F)c7ccc4[nH]7)C=C6)C=C5)cc3)cc2)c1C
REMARK SMILES IDX 28 1 27 2 25 3 26 4 24 6 21 7 22 8 90 9 23 10 89 11 20 12
REMARK SMILES IDX 17 13 18 14 91 15 19 16 92 17 2 18 1 19 3 20 4 21 5 23 6 24
REMARK SMILES IDX 16 25 7 26 15 27 8 28 9 29 14 30 10 31 13 32 11 33 12 34
REMARK SMILES IDX 29 35 30 36 31 37 32 38 33 39 34 41 35 42 36 43 88 44 37 45
REMARK SMILES IDX 87 46 38 47 39 48 40 49 81 50 41 51 86 52 80 53 82 54 42 55
REMARK SMILES IDX 85 56 79 57 78 58 43 60 69 61 52 62 68 63 53 64 56 65 67 66
REMARK SMILES IDX 83 67 54 68 55 69 66 71 84 72 57 73 44 74 45 75 50 76 46 77
REMARK SMILES IDX 47 78 49 79 51 80 48 81 70 82 71 83 76 84 72 85 73 86 75 87
REMARK SMILES IDX 77 88 74 89 58 90 59 91 64 92 60 93 61 94 63 95 65 96 62 97
REMARK H PARENT 27 5 4 22 32 40 82 59 56 70
REMARK Flexibility Score: inf
ROOT
ATOM      1  C   UNL A   1      35.732  34.740  33.649  1.00  0.00     0.116 C 
ENDROOT
BRANCH   1   2
ATOM      2  N   UNL A   1      36.131  33.669  34.546  1.00  0.00    -0.352 N 
ATOM      3  C   UNL A   1      37.285  32.931  34.674  1.00  0.00     0.251 C 
ATOM      4  O   UNL A   1      37.334  32.123  35.602  1.00  0.00    -0.269 OA
ATOM      5  H   UNL A   1      35.433  33.422  35.195  1.00  0.00     0.163 HD
BRANCH   3   6
ATOM      6  C   UNL A   1      38.485  33.101  33.800  1.00  0.00     0.039 A 
ATOM      7  C   UNL A   1      40.586  33.681  32.046  1.00  0.00     0.067 A 
ATOM      8  C   UNL A   1      40.327  34.556  33.101  1.00  0.00     0.029 A 
ATOM      9  C   UNL A   1      39.896  32.477  31.931  1.00  0.00     0.029 A 
ATOM     10  C   UNL A   1      39.257  34.270  33.959  1.00  0.00     0.016 A 
ATOM     11  C   UNL A   1      38.880  32.179  32.831  1.00  0.00     0.016 A 
BRANCH   7  12
ATOM     12  N   UNL A   1      41.431  34.066  30.993  1.00  0.00    -0.217 N 
ATOM     13  C   UNL A   1      42.215  34.927  29.159  1.00  0.00     0.132 A 
ATOM     14  N   UNL A   1      43.266  34.568  29.958  1.00  0.00    -0.128 NA
ATOM     15  C   UNL A   1      41.024  34.608  29.790  1.00  0.00     0.071 A 
ATOM     16  N   UNL A   1      42.772  34.122  31.109  1.00  0.00    -0.061 NA
ATOM     17  C   UNL A   1      39.618  34.958  29.448  1.00  0.00     0.069 C 
BRANCH  13  18
ATOM     18  C   UNL A   1      42.327  35.766  27.978  1.00  0.00     0.087 C 
ATOM     19  C   UNL A   1      42.765  35.016  26.742  1.00  0.00     0.071 C 
ATOM     20  N   UNL A   1      42.120  37.043  28.139  1.00  0.00    -0.176 NA
BRANCH  20  21
ATOM     21  N   UNL A   1      42.336  37.974  27.144  1.00  0.00    -0.252 N 
ATOM     22  H   UNL A   1      41.626  38.026  26.465  1.00  0.00     0.193 HD
BRANCH  21  23
ATOM     23  C   UNL A   1      43.374  38.828  26.955  1.00  0.00     0.203 A 
ATOM     24  N   UNL A   1      43.276  40.086  26.596  1.00  0.00    -0.219 NA
ATOM     25  S   UNL A   1      45.004  38.256  27.040  1.00  0.00    -0.103 S 
ATOM     26  C   UNL A   1      44.462  40.523  26.043  1.00  0.00     0.084 A 
ATOM     27  C   UNL A   1      45.524  39.655  26.182  1.00  0.00     0.097 A 
BRANCH  26  28
ATOM     28  C   UNL A   1      44.480  41.762  25.286  1.00  0.00     0.001 A 
ATOM     29  C   UNL A   1      45.630  42.560  25.310  1.00  0.00     0.012 A 
ATOM     30  C   UNL A   1      43.327  42.235  24.645  1.00  0.00     0.012 A 
ATOM     31  C   UNL A   1      45.642  43.803  24.671  1.00  0.00     0.021 A 
ATOM     32  C   UNL A   1      43.335  43.484  24.015  1.00  0.00     0.021 A 
ATOM     33  C   UNL A   1      44.495  44.258  24.025  1.00  0.00     0.041 A 
ATOM     34  Cl  UNL A   1      44.504  45.795  23.251  1.00  0.00    -0.084 Cl
ENDBRANCH  26  28
ENDBRANCH  21  23
ENDBRANCH  20  21
ENDBRANCH  13  18
ENDBRANCH   7  12
ENDBRANCH   3   6
ENDBRANCH   1   2
BRANCH   1  35
ATOM     35  C   UNL A   1      34.441  34.403  32.885  1.00  0.00     0.023 C 
BRANCH  35  36
ATOM     36  C   UNL A   1      34.326  32.970  32.348  1.00  0.00     0.023 C 
BRANCH  36  37
ATOM     37  C   UNL A   1      35.190  32.668  31.133  1.00  0.00     0.116 C 
BRANCH  37  38
ATOM     38  N   UNL A   1      34.434  32.160  29.975  1.00  0.00    -0.352 N 
ATOM     39  C   UNL A   1      34.936  31.657  28.783  1.00  0.00     0.251 C 
ATOM     40  H   UNL A   1      33.453  32.179  30.056  1.00  0.00     0.163 HD
ATOM     41  O   UNL A   1      34.256  31.617  27.757  1.00  0.00    -0.269 OA
BRANCH  39  42
ATOM     42  C   UNL A   1      36.302  31.122  28.791  1.00  0.00     0.039 A 
ATOM     43  C   UNL A   1      37.464  31.900  28.805  1.00  0.00     0.014 A 
ATOM     44  C   UNL A   1      36.369  29.743  28.894  1.00  0.00     0.014 A 
ATOM     45  C   UNL A   1      38.685  31.251  28.985  1.00  0.00     0.010 A 
ATOM     46  C   UNL A   1      37.489  29.189  29.423  1.00  0.00     0.010 A 
ATOM     47  C   UNL A   1      38.674  29.883  29.297  1.00  0.00    -0.014 A 
BRANCH  47  48
ATOM     48  C   UNL A   1      39.861  29.079  29.502  1.00  0.00     0.031 A 
ATOM     49  C   UNL A   1      40.216  28.819  30.911  1.00  0.00     0.074 A 
ATOM     50  C   UNL A   1      40.454  28.428  28.474  1.00  0.00     0.049 A 
ATOM     51  N   UNL A   1      41.204  29.334  31.561  1.00  0.00    -0.248 NA
ATOM     52  C   UNL A   1      39.307  28.016  31.739  1.00  0.00     0.031 C 
ATOM     53  C   UNL A   1      40.054  28.334  27.059  1.00  0.00     0.029 A 
ATOM     54  N   UNL A   1      41.543  27.622  28.519  1.00  0.00    -0.354 N 
ATOM     55  C   UNL A   1      41.164  28.775  32.832  1.00  0.00     0.074 A 
ATOM     56  C   UNL A   1      39.888  28.112  32.938  1.00  0.00     0.031 C 
ATOM     57  C   UNL A   1      40.756  27.355  26.447  1.00  0.00     0.029 A 
ATOM     58  C   UNL A   1      41.772  26.884  27.365  1.00  0.00     0.049 A 
ATOM     59  H   UNL A   1      42.126  27.564  29.309  1.00  0.00     0.167 HD
ATOM     60  C   UNL A   1      42.280  28.736  33.610  1.00  0.00     0.037 A 
ATOM     61  C   UNL A   1      42.736  25.946  27.198  1.00  0.00     0.037 A 
ATOM     62  C   UNL A   1      43.334  29.543  33.043  1.00  0.00     0.049 A 
ATOM     63  C   UNL A   1      43.784  26.227  28.217  1.00  0.00     0.074 A 
ATOM     64  C   UNL A   1      43.479  30.889  32.771  1.00  0.00     0.029 A 
ATOM     65  N   UNL A   1      44.277  28.901  32.274  1.00  0.00    -0.354 N 
ATOM     66  N   UNL A   1      44.525  27.303  28.194  1.00  0.00    -0.248 NA
ATOM     67  C   UNL A   1      43.644  25.598  29.523  1.00  0.00     0.031 C 
ATOM     68  C   UNL A   1      44.139  30.938  31.508  1.00  0.00     0.029 A 
ATOM     69  C   UNL A   1      44.432  29.629  31.120  1.00  0.00     0.049 A 
ATOM     70  H   UNL A   1      44.754  28.072  32.509  1.00  0.00     0.167 HD
ATOM     71  C   UNL A   1      44.587  27.726  29.516  1.00  0.00     0.074 A 
ATOM     72  C   UNL A   1      44.086  26.594  30.298  1.00  0.00     0.031 C 
ATOM     73  C   UNL A   1      44.746  29.046  29.835  1.00  0.00     0.037 A 
BRANCH  60  74
ATOM     74  C   UNL A   1      42.561  27.722  34.682  1.00  0.00     0.057 A 
ATOM     75  C   UNL A   1      42.975  26.431  34.310  1.00  0.00     0.134 A 
ATOM     76  C   UNL A   1      42.169  27.869  36.026  1.00  0.00     0.134 A 
ATOM     77  F   UNL A   1      43.372  26.171  33.055  1.00  0.00    -0.206 F 
ATOM     78  C   UNL A   1      42.922  25.346  35.191  1.00  0.00     0.040 A 
ATOM     79  C   UNL A   1      42.159  26.802  36.927  1.00  0.00     0.040 A 
ATOM     80  F   UNL A   1      41.679  29.018  36.506  1.00  0.00    -0.206 F 
ATOM     81  C   UNL A   1      42.502  25.527  36.502  1.00  0.00     0.006 A 
ENDBRANCH  60  74
BRANCH  61  82
ATOM     82  C   UNL A   1      42.636  24.672  26.452  1.00  0.00     0.057 A 
ATOM     83  C   UNL A   1      43.406  24.426  25.308  1.00  0.00     0.134 A 
ATOM     84  C   UNL A   1      41.973  23.558  26.998  1.00  0.00     0.134 A 
ATOM     85  F   UNL A   1      44.107  25.415  24.735  1.00  0.00    -0.206 F 
ATOM     86  C   UNL A   1      43.528  23.143  24.753  1.00  0.00     0.040 A 
ATOM     87  C   UNL A   1      42.084  22.273  26.454  1.00  0.00     0.040 A 
ATOM     88  F   UNL A   1      41.262  23.662  28.131  1.00  0.00    -0.206 F 
ATOM     89  C   UNL A   1      42.875  22.059  25.334  1.00  0.00     0.006 A 
ENDBRANCH  61  82
BRANCH  73  90
ATOM     90  C   UNL A   1      45.043  30.007  28.712  1.00  0.00     0.057 A 
ATOM     91  C   UNL A   1      44.058  30.725  28.015  1.00  0.00     0.134 A 
ATOM     92  C   UNL A   1      46.370  30.338  28.435  1.00  0.00     0.134 A 
ATOM     93  F   UNL A   1      42.760  30.563  28.285  1.00  0.00    -0.206 F 
ATOM     94  C   UNL A   1      44.378  31.691  27.055  1.00  0.00     0.040 A 
ATOM     95  C   UNL A   1      46.706  31.323  27.501  1.00  0.00     0.040 A 
ATOM     96  F   UNL A   1      47.369  29.745  29.108  1.00  0.00    -0.206 F 
ATOM     97  C   UNL A   1      45.709  31.996  26.799  1.00  0.00     0.006 A 
ENDBRANCH  73  90
ENDBRANCH  47  48
ENDBRANCH  39  42
ENDBRANCH  37  38
ENDBRANCH  36  37
ENDBRANCH  35  36
ENDBRANCH   1  35
TORSDOF 16
ENDMDL
MODEL 2
REMARK VINA RESULT:     -11.0      5.366     11.018
REMARK SMILES C/C(=N\Nc1nc(-c2ccc(Cl)cc2)cs1)c1nnn(-c2ccc(C(=O)NCCCCNC(=O)c3ccc(-c4c5nc(c(-c6c(F)cccc6F)c6ccc([nH]6)c(-c6c(F)cccc6F)c6nc(c(-c7c(F)cccc7F)c7ccc4[nH]7)C=C6)C=C5)cc3)cc2)c1C
REMARK SMILES IDX 28 1 27 2 25 3 26 4 24 6 21 7 22 8 90 9 23 10 89 11 20 12
REMARK SMILES IDX 17 13 18 14 91 15 19 16 92 17 2 18 1 19 3 20 4 21 5 23 6 24
REMARK SMILES IDX 16 25 7 26 15 27 8 28 9 29 14 30 10 31 13 32 11 33 12 34
REMARK SMILES IDX 29 35 30 36 31 37 32 38 33 39 34 41 35 42 36 43 88 44 37 45
REMARK SMILES IDX 87 46 38 47 39 48 40 49 81 50 41 51 86 52 80 53 82 54 42 55
REMARK SMILES IDX 85 56 79 57 78 58 43 60 69 61 52 62 68 63 53 64 56 65 67 66
REMARK SMILES IDX 83 67 54 68 55 69 66 71 84 72 57 73 44 74 45 75 50 76 46 77
REMARK SMILES IDX 47 78 49 79 51 80 48 81 70 82 71 83 76 84 72 85 73 86 75 87
REMARK SMILES IDX 77 88 74 89 58 90 59 91 64 92 60 93 61 94 63 95 65 96 62 97
REMARK H PARENT 27 5 4 22 32 40 82 59 56 70
REMARK Flexibility Score: inf
ROOT
ATOM      1  C   UNL A   1      32.568  29.975  26.836  1.00  0.00     0.116 C 
ENDROOT
BRANCH   1   2
ATOM      2  N   UNL A   1      31.535  30.333  25.880  1.00  0.00    -0.352 N 
ATOM      3  C   UNL A   1      31.117  29.775  24.693  1.00  0.00     0.251 C 
ATOM      4  O   UNL A   1      30.146  30.292  24.140  1.00  0.00    -0.269 OA
ATOM      5  H   UNL A   1      31.030  31.141  26.131  1.00  0.00     0.163 HD
BRANCH   3   6
ATOM      6  C   UNL A   1      31.731  28.555  24.084  1.00  0.00     0.039 A 
ATOM      7  C   UNL A   1      32.932  26.172  23.245  1.00  0.00     0.067 A 
ATOM      8  C   UNL A   1      31.708  26.113  23.910  1.00  0.00     0.029 A 
ATOM      9  C   UNL A   1      33.495  27.396  22.893  1.00  0.00     0.029 A 
ATOM     10  C   UNL A   1      31.126  27.310  24.349  1.00  0.00     0.016 A 
ATOM     11  C   UNL A   1      32.870  28.576  23.280  1.00  0.00     0.016 A 
BRANCH   7  12
ATOM     12  N   UNL A   1      33.697  25.010  23.058  1.00  0.00    -0.217 N 
ATOM     13  C   UNL A   1      34.965  23.275  23.381  1.00  0.00     0.132 A 
ATOM     14  N   UNL A   1      34.374  23.163  22.152  1.00  0.00    -0.128 NA
ATOM     15  C   UNL A   1      34.559  24.455  23.983  1.00  0.00     0.071 A 
ATOM     16  N   UNL A   1      33.538  24.186  22.003  1.00  0.00    -0.061 NA
ATOM     17  C   UNL A   1      34.749  24.953  25.372  1.00  0.00     0.069 C 
BRANCH  13  18
ATOM     18  C   UNL A   1      35.666  22.200  24.059  1.00  0.00     0.087 C 
ATOM     19  C   UNL A   1      34.748  21.205  24.729  1.00  0.00     0.071 C 
ATOM     20  N   UNL A   1      36.969  22.262  24.076  1.00  0.00    -0.176 NA
BRANCH  20  21
ATOM     21  N   UNL A   1      37.756  21.396  24.806  1.00  0.00    -0.252 N 
ATOM     22  H   UNL A   1      37.645  20.445  24.579  1.00  0.00     0.193 HD
BRANCH  21  23
ATOM     23  C   UNL A   1      38.661  21.649  25.785  1.00  0.00     0.203 A 
ATOM     24  N   UNL A   1      38.738  22.751  26.494  1.00  0.00    -0.219 NA
ATOM     25  S   UNL A   1      39.943  20.532  26.101  1.00  0.00    -0.103 S 
ATOM     26  C   UNL A   1      39.998  22.887  27.039  1.00  0.00     0.084 A 
ATOM     27  C   UNL A   1      40.806  21.776  26.919  1.00  0.00     0.097 A 
BRANCH  26  28
ATOM     28  C   UNL A   1      40.405  24.172  27.577  1.00  0.00     0.001 A 
ATOM     29  C   UNL A   1      41.745  24.370  27.933  1.00  0.00     0.012 A 
ATOM     30  C   UNL A   1      39.461  25.167  27.869  1.00  0.00     0.012 A 
ATOM     31  C   UNL A   1      42.146  25.562  28.542  1.00  0.00     0.021 A 
ATOM     32  C   UNL A   1      39.861  26.354  28.489  1.00  0.00     0.021 A 
ATOM     33  C   UNL A   1      41.203  26.549  28.816  1.00  0.00     0.041 A 
ATOM     34  Cl  UNL A   1      41.693  28.011  29.580  1.00  0.00    -0.084 Cl
ENDBRANCH  26  28
ENDBRANCH  21  23
ENDBRANCH  20  21
ENDBRANCH  13  18
ENDBRANCH   7  12
ENDBRANCH   3   6
ENDBRANCH   1   2
BRANCH   1  35
ATOM     35  C   UNL A   1      33.273  31.212  27.416  1.00  0.00     0.023 C 
BRANCH  35  36
ATOM     36  C   UNL A   1      34.697  30.995  27.945  1.00  0.00     0.023 C 
BRANCH  36  37
ATOM     37  C   UNL A   1      35.491  32.269  28.195  1.00  0.00     0.116 C 
BRANCH  37  38
ATOM     38  N   UNL A   1      34.667  33.407  28.638  1.00  0.00    -0.352 N 
ATOM     39  C   UNL A   1      34.348  33.775  29.937  1.00  0.00     0.251 C 
ATOM     40  H   UNL A   1      34.299  33.978  27.925  1.00  0.00     0.163 HD
ATOM     41  O   UNL A   1      33.374  34.485  30.191  1.00  0.00    -0.269 OA
BRANCH  39  42
ATOM     42  C   UNL A   1      35.242  33.328  31.011  1.00  0.00     0.039 A 
ATOM     43  C   UNL A   1      35.187  32.073  31.625  1.00  0.00     0.014 A 
ATOM     44  C   UNL A   1      36.252  34.225  31.316  1.00  0.00     0.014 A 
ATOM     45  C   UNL A   1      36.210  31.731  32.509  1.00  0.00     0.010 A 
ATOM     46  C   UNL A   1      37.394  33.747  31.870  1.00  0.00     0.010 A 
ATOM     47  C   UNL A   1      37.315  32.589  32.616  1.00  0.00    -0.014 A 
BRANCH  47  48
ATOM     48  C   UNL A   1      38.444  32.368  33.495  1.00  0.00     0.031 A 
ATOM     49  C   UNL A   1      38.387  33.071  34.792  1.00  0.00     0.074 A 
ATOM     50  C   UNL A   1      39.359  31.406  33.234  1.00  0.00     0.049 A 
ATOM     51  N   UNL A   1      39.099  34.085  35.148  1.00  0.00    -0.248 NA
ATOM     52  C   UNL A   1      37.335  32.711  35.752  1.00  0.00     0.031 C 
ATOM     53  C   UNL A   1      39.401  30.413  32.145  1.00  0.00     0.029 A 
ATOM     54  N   UNL A   1      40.442  31.065  33.975  1.00  0.00    -0.354 N 
ATOM     55  C   UNL A   1      38.727  34.382  36.453  1.00  0.00     0.074 A 
ATOM     56  C   UNL A   1      37.528  33.623  36.710  1.00  0.00     0.031 C 
ATOM     57  C   UNL A   1      40.322  29.464  32.424  1.00  0.00     0.029 A 
ATOM     58  C   UNL A   1      41.054  29.875  33.604  1.00  0.00     0.049 A 
ATOM     59  H   UNL A   1      40.769  31.620  34.719  1.00  0.00     0.167 HD
ATOM     60  C   UNL A   1      39.564  35.071  37.276  1.00  0.00     0.037 A 
ATOM     61  C   UNL A   1      42.090  29.279  34.243  1.00  0.00     0.037 A 
ATOM     62  C   UNL A   1      40.677  35.620  36.538  1.00  0.00     0.049 A 
ATOM     63  C   UNL A   1      42.768  30.341  35.036  1.00  0.00     0.074 A 
ATOM     64  C   UNL A   1      40.797  36.543  35.517  1.00  0.00     0.029 A 
ATOM     65  N   UNL A   1      41.849  34.899  36.532  1.00  0.00    -0.354 N 
ATOM     66  N   UNL A   1      43.403  31.342  34.484  1.00  0.00    -0.248 NA
ATOM     67  C   UNL A   1      42.295  30.579  36.393  1.00  0.00     0.031 C 
ATOM     68  C   UNL A   1      41.795  36.003  34.652  1.00  0.00     0.029 A 
ATOM     69  C   UNL A   1      42.283  34.830  35.231  1.00  0.00     0.049 A 
ATOM     70  H   UNL A   1      42.294  34.505  37.317  1.00  0.00     0.167 HD
ATOM     71  C   UNL A   1      43.042  32.454  35.233  1.00  0.00     0.074 A 
ATOM     72  C   UNL A   1      42.416  31.910  36.440  1.00  0.00     0.031 C 
ATOM     73  C   UNL A   1      43.003  33.704  34.680  1.00  0.00     0.037 A 
BRANCH  60  74
ATOM     74  C   UNL A   1      39.590  34.974  38.774  1.00  0.00     0.057 A 
ATOM     75  C   UNL A   1      39.391  36.138  39.537  1.00  0.00     0.134 A 
ATOM     76  C   UNL A   1      40.082  33.862  39.483  1.00  0.00     0.134 A 
ATOM     77  F   UNL A   1      38.924  37.261  38.970  1.00  0.00    -0.206 F 
ATOM     78  C   UNL A   1      39.737  36.213  40.890  1.00  0.00     0.040 A 
ATOM     79  C   UNL A   1      40.385  33.913  40.845  1.00  0.00     0.040 A 
ATOM     80  F   UNL A   1      40.394  32.710  38.877  1.00  0.00    -0.206 F 
ATOM     81  C   UNL A   1      40.246  35.101  41.546  1.00  0.00     0.006 A 
ENDBRANCH  60  74
BRANCH  61  82
ATOM     82  C   UNL A   1      42.307  27.831  34.455  1.00  0.00     0.057 A 
ATOM     83  C   UNL A   1      43.168  27.088  33.638  1.00  0.00     0.134 A 
ATOM     84  C   UNL A   1      41.876  27.194  35.634  1.00  0.00     0.134 A 
ATOM     85  F   UNL A   1      43.664  27.621  32.512  1.00  0.00    -0.206 F 
ATOM     86  C   UNL A   1      43.594  25.797  33.983  1.00  0.00     0.040 A 
ATOM     87  C   UNL A   1      42.291  25.906  35.990  1.00  0.00     0.040 A 
ATOM     88  F   UNL A   1      41.104  27.835  36.524  1.00  0.00    -0.206 F 
ATOM     89  C   UNL A   1      43.164  25.206  35.170  1.00  0.00     0.006 A 
ENDBRANCH  61  82
BRANCH  73  90
ATOM     90  C   UNL A   1      43.547  33.868  33.284  1.00  0.00     0.057 A 
ATOM     91  C   UNL A   1      42.756  33.820  32.124  1.00  0.00     0.134 A 
ATOM     92  C   UNL A   1      44.880  34.247  33.114  1.00  0.00     0.134 A 
ATOM     93  F   UNL A   1      41.445  33.576  32.190  1.00  0.00    -0.206 F 
ATOM     94  C   UNL A   1      43.277  34.088  30.854  1.00  0.00     0.040 A 
ATOM     95  C   UNL A   1      45.407  34.549  31.854  1.00  0.00     0.040 A 
ATOM     96  F   UNL A   1      45.684  34.383  34.180  1.00  0.00    -0.206 F 
ATOM     97  C   UNL A   1      44.609  34.458  30.717  1.00  0.00     0.006 A 
ENDBRANCH  73  90
ENDBRANCH  47  48
ENDBRANCH  39  42
ENDBRANCH  37  38
ENDBRANCH  36  37
ENDBRANCH  35  36
ENDBRANCH   1  35
TORSDOF 16
ENDMDL
MODEL 3
REMARK VINA RESULT:     -10.9      5.721     11.158
REMARK SMILES C/C(=N\Nc1nc(-c2ccc(Cl)cc2)cs1)c1nnn(-c2ccc(C(=O)NCCCCNC(=O)c3ccc(-c4c5nc(c(-c6c(F)cccc6F)c6ccc([nH]6)c(-c6c(F)cccc6F)c6nc(c(-c7c(F)cccc7F)c7ccc4[nH]7)C=C6)C=C5)cc3)cc2)c1C
REMARK SMILES IDX 28 1 27 2 25 3 26 4 24 6 21 7 22 8 90 9 23 10 89 11 20 12
REMARK SMILES IDX 17 13 18 14 91 15 19 16 92 17 2 18 1 19 3 20 4 21 5 23 6 24
REMARK SMILES IDX 16 25 7 26 15 27 8 28 9 29 14 30 10 31 13 32 11 33 12 34
REMARK SMILES IDX 29 35 30 36 31 37 32 38 33 39 34 41 35 42 36 43 88 44 37 45
REMARK SMILES IDX 87 46 38 47 39 48 40 49 81 50 41 51 86 52 80 53 82 54 42 55
REMARK SMILES IDX 85 56 79 57 78 58 43 60 69 61 52 62 68 63 53 64 56 65 67 66
REMARK SMILES IDX 83 67 54 68 55 69 66 71 84 72 57 73 44 74 45 75 50 76 46 77
REMARK SMILES IDX 47 78 49 79 51 80 48 81 70 82 71 83 76 84 72 85 73 86 75 87
REMARK SMILES IDX 77 88 74 89 58 90 59 91 64 92 60 93 61 94 63 95 65 96 62 97
REMARK H PARENT 27 5 4 22 32 40 82 59 56 70
REMARK Flexibility Score: inf
ROOT
ATOM      1  C   UNL A   1      35.254  33.492  30.749  1.00  0.00     0.116 C 
ENDROOT
BRANCH   1   2
ATOM      2  N   UNL A   1      34.910  34.518  29.779  1.00  0.00    -0.352 N 
ATOM      3  C   UNL A   1      34.265  34.486  28.564  1.00  0.00     0.251 C 
ATOM      4  O   UNL A   1      34.066  35.564  28.005  1.00  0.00    -0.269 OA
ATOM      5  H   UNL A   1      35.197  35.422  30.046  1.00  0.00     0.163 HD
BRANCH   3   6
ATOM      6  C   UNL A   1      33.747  33.236  27.928  1.00  0.00     0.039 A 
ATOM      7  C   UNL A   1      32.575  30.877  26.987  1.00  0.00     0.067 A 
ATOM      8  C   UNL A   1      31.808  32.041  27.028  1.00  0.00     0.029 A 
ATOM      9  C   UNL A   1      33.933  30.905  27.291  1.00  0.00     0.029 A 
ATOM     10  C   UNL A   1      32.396  33.212  27.525  1.00  0.00     0.016 A 
ATOM     11  C   UNL A   1      34.517  32.092  27.720  1.00  0.00     0.016 A 
BRANCH   7  12
ATOM     12  N   UNL A   1      31.963  29.628  26.793  1.00  0.00    -0.217 N 
ATOM     13  C   UNL A   1      31.283  27.752  25.935  1.00  0.00     0.132 A 
ATOM     14  N   UNL A   1      31.096  27.706  27.290  1.00  0.00    -0.128 NA
ATOM     15  C   UNL A   1      31.829  28.975  25.585  1.00  0.00     0.071 A 
ATOM     16  N   UNL A   1      31.594  28.824  27.810  1.00  0.00    -0.061 NA
ATOM     17  C   UNL A   1      32.395  29.454  24.293  1.00  0.00     0.069 C 
BRANCH  13  18
ATOM     18  C   UNL A   1      31.197  26.601  25.053  1.00  0.00     0.087 C 
ATOM     19  C   UNL A   1      30.084  26.700  24.036  1.00  0.00     0.071 C 
ATOM     20  N   UNL A   1      32.014  25.613  25.288  1.00  0.00    -0.176 NA
BRANCH  20  21
ATOM     21  N   UNL A   1      31.945  24.403  24.630  1.00  0.00    -0.252 N 
ATOM     22  H   UNL A   1      31.232  24.340  23.954  1.00  0.00     0.193 HD
BRANCH  21  23
ATOM     23  C   UNL A   1      32.705  23.287  24.766  1.00  0.00     0.203 A 
ATOM     24  N   UNL A   1      33.837  23.205  25.425  1.00  0.00    -0.219 NA
ATOM     25  S   UNL A   1      32.291  21.838  23.916  1.00  0.00    -0.103 S 
ATOM     26  C   UNL A   1      34.571  22.121  24.989  1.00  0.00     0.084 A 
ATOM     27  C   UNL A   1      33.895  21.260  24.150  1.00  0.00     0.097 A 
BRANCH  26  28
ATOM     28  C   UNL A   1      35.976  22.028  25.338  1.00  0.00     0.001 A 
ATOM     29  C   UNL A   1      36.633  23.158  25.840  1.00  0.00     0.012 A 
ATOM     30  C   UNL A   1      36.717  20.871  25.058  1.00  0.00     0.012 A 
ATOM     31  C   UNL A   1      38.006  23.126  26.093  1.00  0.00     0.021 A 
ATOM     32  C   UNL A   1      38.094  20.842  25.300  1.00  0.00     0.021 A 
ATOM     33  C   UNL A   1      38.730  21.967  25.823  1.00  0.00     0.041 A 
ATOM     34  Cl  UNL A   1      40.425  21.930  26.120  1.00  0.00    -0.084 Cl
ENDBRANCH  26  28
ENDBRANCH  21  23
ENDBRANCH  20  21
ENDBRANCH  13  18
ENDBRANCH   7  12
ENDBRANCH   3   6
ENDBRANCH   1   2
BRANCH   1  35
ATOM     35  C   UNL A   1      36.715  33.603  31.213  1.00  0.00     0.023 C 
BRANCH  35  36
ATOM     36  C   UNL A   1      37.448  32.278  31.465  1.00  0.00     0.023 C 
BRANCH  36  37
ATOM     37  C   UNL A   1      37.762  31.470  30.214  1.00  0.00     0.116 C 
BRANCH  37  38
ATOM     38  N   UNL A   1      36.757  30.439  29.902  1.00  0.00    -0.352 N 
ATOM     39  C   UNL A   1      36.847  29.416  28.969  1.00  0.00     0.251 C 
ATOM     40  H   UNL A   1      35.920  30.481  30.418  1.00  0.00     0.163 HD
ATOM     41  O   UNL A   1      35.846  28.857  28.519  1.00  0.00    -0.269 OA
BRANCH  39  42
ATOM     42  C   UNL A   1      38.188  28.978  28.564  1.00  0.00     0.039 A 
ATOM     43  C   UNL A   1      38.864  29.428  27.426  1.00  0.00     0.014 A 
ATOM     44  C   UNL A   1      38.809  28.140  29.475  1.00  0.00     0.014 A 
ATOM     45  C   UNL A   1      40.197  29.052  27.266  1.00  0.00     0.010 A 
ATOM     46  C   UNL A   1      40.164  28.096  29.493  1.00  0.00     0.010 A 
ATOM     47  C   UNL A   1      40.834  28.382  28.321  1.00  0.00    -0.014 A 
BRANCH  47  48
ATOM     48  C   UNL A   1      42.209  27.926  28.294  1.00  0.00     0.031 A 
ATOM     49  C   UNL A   1      42.459  26.713  27.491  1.00  0.00     0.074 A 
ATOM     50  C   UNL A   1      43.213  28.694  28.777  1.00  0.00     0.049 A 
ATOM     51  N   UNL A   1      42.726  25.535  27.942  1.00  0.00    -0.248 NA
ATOM     52  C   UNL A   1      42.256  26.765  26.037  1.00  0.00     0.031 C 
ATOM     53  C   UNL A   1      43.174  30.057  29.335  1.00  0.00     0.029 A 
ATOM     54  N   UNL A   1      44.539  28.415  28.791  1.00  0.00    -0.354 N 
ATOM     55  C   UNL A   1      42.918  24.727  26.829  1.00  0.00     0.074 A 
ATOM     56  C   UNL A   1      42.449  25.488  25.697  1.00  0.00     0.031 C 
ATOM     57  C   UNL A   1      44.428  30.553  29.424  1.00  0.00     0.029 A 
ATOM     58  C   UNL A   1      45.359  29.490  29.107  1.00  0.00     0.049 A 
ATOM     59  H   UNL A   1      44.893  27.519  28.592  1.00  0.00     0.167 HD
ATOM     60  C   UNL A   1      43.642  23.578  26.919  1.00  0.00     0.037 A 
ATOM     61  C   UNL A   1      46.715  29.488  29.098  1.00  0.00     0.037 A 
ATOM     62  C   UNL A   1      43.913  23.245  28.298  1.00  0.00     0.049 A 
ATOM     63  C   UNL A   1      47.138  28.066  29.217  1.00  0.00     0.074 A 
ATOM     64  C   UNL A   1      43.125  22.924  29.386  1.00  0.00     0.029 A 
ATOM     65  N   UNL A   1      45.127  23.633  28.814  1.00  0.00    -0.354 N 
ATOM     66  N   UNL A   1      46.930  27.352  30.292  1.00  0.00    -0.248 NA
ATOM     67  C   UNL A   1      47.302  27.303  27.987  1.00  0.00     0.031 C 
ATOM     68  C   UNL A   1      43.726  23.605  30.486  1.00  0.00     0.029 A 
ATOM     69  C   UNL A   1      44.886  24.232  30.026  1.00  0.00     0.049 A 
ATOM     70  H   UNL A   1      46.008  23.504  28.393  1.00  0.00     0.167 HD
ATOM     71  C   UNL A   1      46.513  26.112  29.825  1.00  0.00     0.074 A 
ATOM     72  C   UNL A   1      46.832  26.119  28.396  1.00  0.00     0.031 C 
ATOM     73  C   UNL A   1      45.677  25.318  30.561  1.00  0.00     0.037 A 
BRANCH  60  74
ATOM     74  C   UNL A   1      44.401  22.934  25.795  1.00  0.00     0.057 A 
ATOM     75  C   UNL A   1      44.279  21.548  25.593  1.00  0.00     0.134 A 
ATOM     76  C   UNL A   1      45.454  23.557  25.098  1.00  0.00     0.134 A 
ATOM     77  F   UNL A   1      43.313  20.847  26.204  1.00  0.00    -0.206 F 
ATOM     78  C   UNL A   1      45.190  20.822  24.820  1.00  0.00     0.040 A 
ATOM     79  C   UNL A   1      46.340  22.848  24.284  1.00  0.00     0.040 A 
ATOM     80  F   UNL A   1      45.741  24.856  25.250  1.00  0.00    -0.206 F 
ATOM     81  C   UNL A   1      46.232  21.471  24.170  1.00  0.00     0.006 A 
ENDBRANCH  60  74
BRANCH  61  82
ATOM     82  C   UNL A   1      47.616  30.580  28.669  1.00  0.00     0.057 A 
ATOM     83  C   UNL A   1      47.741  30.947  27.323  1.00  0.00     0.134 A 
ATOM     84  C   UNL A   1      48.179  31.469  29.604  1.00  0.00     0.134 A 
ATOM     85  F   UNL A   1      47.203  30.185  26.359  1.00  0.00    -0.206 F 
ATOM     86  C   UNL A   1      48.368  32.138  26.930  1.00  0.00     0.040 A 
ATOM     87  C   UNL A   1      48.810  32.660  29.225  1.00  0.00     0.040 A 
ATOM     88  F   UNL A   1      48.061  31.254  30.922  1.00  0.00    -0.206 F 
ATOM     89  C   UNL A   1      48.894  33.006  27.884  1.00  0.00     0.006 A 
ENDBRANCH  61  82
BRANCH  73  90
ATOM     90  C   UNL A   1      45.373  25.743  31.975  1.00  0.00     0.057 A 
ATOM     91  C   UNL A   1      46.223  25.500  33.066  1.00  0.00     0.134 A 
ATOM     92  C   UNL A   1      44.267  26.560  32.215  1.00  0.00     0.134 A 
ATOM     93  F   UNL A   1      47.365  24.823  32.917  1.00  0.00    -0.206 F 
ATOM     94  C   UNL A   1      45.961  26.006  34.343  1.00  0.00     0.040 A 
ATOM     95  C   UNL A   1      44.008  27.099  33.479  1.00  0.00     0.040 A 
ATOM     96  F   UNL A   1      43.443  26.895  31.209  1.00  0.00    -0.206 F 
ATOM     97  C   UNL A   1      44.849  26.813  34.552  1.00  0.00     0.006 A 
ENDBRANCH  73  90
ENDBRANCH  47  48
ENDBRANCH  39  42
ENDBRANCH  37  38
ENDBRANCH  36  37
ENDBRANCH  35  36
ENDBRANCH   1  35
TORSDOF 16
ENDMDL
