MODEL 1
REMARK VINA RESULT:     -13.0      0.000      0.000
REMARK SMILES CC(=O)Nc1cccc(-c2cc(F)ccc2C(=O)NCCCCNC(=O)c2ccc(-c3c4nc(c(-c5c(F)cccc5F)c5ccc([nH]5)c(-c5c(F)cccc5F)c5nc(c(-c6c(F)cccc6F)c6ccc3[nH]6)C=C5)C=C4)cc2)c1
REMARK SMILES IDX 21 1 20 2 19 3 17 4 18 5 16 7 10 8 11 9 12 10 15 11 13 12
REMARK SMILES IDX 14 13 9 14 5 15 6 16 81 17 7 18 8 19 4 20 1 21 2 22 3 23
REMARK SMILES IDX 22 25 23 26 24 27 25 28 26 30 27 31 28 32 80 33 29 34 79 35
REMARK SMILES IDX 30 36 31 37 32 38 73 39 33 40 78 41 72 42 74 43 34 44 77 45
REMARK SMILES IDX 71 46 70 47 35 49 61 50 44 51 60 52 45 53 48 54 59 55 75 56
REMARK SMILES IDX 46 57 47 58 58 60 76 61 49 62 36 63 37 64 42 65 38 66 39 67
REMARK SMILES IDX 41 68 43 69 40 70 62 71 63 72 68 73 64 74 65 75 67 76 69 77
REMARK SMILES IDX 66 78 50 79 51 80 56 81 52 82 53 83 55 84 57 85 54 86
REMARK H PARENT 19 6 4 24 24 29 74 48 48 59
REMARK Flexibility Score: inf
ROOT
ATOM      1  C   UNL A   1      31.939  30.136  26.282  1.00  0.00     0.023 C 
ENDROOT
BRANCH   1   2
ATOM      2  C   UNL A   1      32.108  29.012  27.292  1.00  0.00     0.116 C 
BRANCH   2   3
ATOM      3  N   UNL A   1      31.158  27.934  27.235  1.00  0.00    -0.352 N 
ATOM      4  C   UNL A   1      30.984  26.944  26.295  1.00  0.00     0.251 C 
ATOM      5  O   UNL A   1      30.181  26.052  26.588  1.00  0.00    -0.269 OA
ATOM      6  H   UNL A   1      30.530  27.897  27.992  1.00  0.00     0.163 HD
BRANCH   4   7
ATOM      7  C   UNL A   1      31.604  26.892  24.922  1.00  0.00     0.047 A 
ATOM      8  C   UNL A   1      31.154  27.469  23.706  1.00  0.00    -0.003 A 
ATOM      9  C   UNL A   1      31.985  27.344  22.562  1.00  0.00     0.048 A 
ATOM     10  C   UNL A   1      33.206  26.686  22.605  1.00  0.00     0.123 A 
ATOM     11  C   UNL A   1      32.863  26.232  24.927  1.00  0.00     0.017 A 
ATOM     12  F   UNL A   1      33.953  26.601  21.497  1.00  0.00    -0.207 F 
ATOM     13  C   UNL A   1      33.656  26.125  23.782  1.00  0.00     0.040 A 
BRANCH   8  14
ATOM     14  C   UNL A   1      29.889  28.195  23.495  1.00  0.00    -0.015 A 
ATOM     15  C   UNL A   1      28.610  30.262  23.308  1.00  0.00     0.041 A 
ATOM     16  C   UNL A   1      27.423  29.513  23.309  1.00  0.00     0.026 A 
ATOM     17  C   UNL A   1      29.840  29.594  23.366  1.00  0.00     0.034 A 
ATOM     18  C   UNL A   1      27.454  28.124  23.370  1.00  0.00     0.003 A 
ATOM     19  C   UNL A   1      28.679  27.471  23.463  1.00  0.00     0.009 A 
BRANCH  15  20
ATOM     20  N   UNL A   1      28.455  31.655  23.420  1.00  0.00    -0.326 N 
ATOM     21  C   UNL A   1      28.153  32.368  21.053  1.00  0.00     0.114 C 
ATOM     22  C   UNL A   1      28.442  32.658  22.499  1.00  0.00     0.221 C 
ATOM     23  O   UNL A   1      28.630  33.816  22.881  1.00  0.00    -0.275 OA
ATOM     24  H   UNL A   1      28.333  31.966  24.346  1.00  0.00     0.169 HD
ENDBRANCH  15  20
ENDBRANCH   8  14
ENDBRANCH   4   7
ENDBRANCH   2   3
ENDBRANCH   1   2
BRANCH   1  25
ATOM     25  C   UNL A   1      31.354  31.460  26.778  1.00  0.00     0.023 C 
BRANCH  25  26
ATOM     26  C   UNL A   1      32.081  32.764  26.443  1.00  0.00     0.116 C 
BRANCH  26  27
ATOM     27  N   UNL A   1      32.067  33.785  27.480  1.00  0.00    -0.352 N 
ATOM     28  C   UNL A   1      33.078  34.193  28.329  1.00  0.00     0.251 C 
ATOM     29  H   UNL A   1      31.210  34.256  27.592  1.00  0.00     0.163 HD
ATOM     30  O   UNL A   1      32.939  35.190  29.018  1.00  0.00    -0.269 OA
BRANCH  28  31
ATOM     31  C   UNL A   1      34.297  33.360  28.454  1.00  0.00     0.039 A 
ATOM     32  C   UNL A   1      35.535  33.959  28.203  1.00  0.00     0.014 A 
ATOM     33  C   UNL A   1      34.227  32.054  28.940  1.00  0.00     0.014 A 
ATOM     34  C   UNL A   1      36.706  33.308  28.594  1.00  0.00     0.010 A 
ATOM     35  C   UNL A   1      35.390  31.436  29.393  1.00  0.00     0.010 A 
ATOM     36  C   UNL A   1      36.633  32.083  29.277  1.00  0.00    -0.014 A 
BRANCH  36  37
ATOM     37  C   UNL A   1      37.811  31.529  29.997  1.00  0.00     0.031 A 
ATOM     38  C   UNL A   1      38.683  30.488  29.360  1.00  0.00     0.074 A 
ATOM     39  C   UNL A   1      38.013  31.878  31.286  1.00  0.00     0.049 A 
ATOM     40  N   UNL A   1      39.654  29.788  29.890  1.00  0.00    -0.248 NA
ATOM     41  C   UNL A   1      38.410  30.172  27.950  1.00  0.00     0.031 C 
ATOM     42  C   UNL A   1      37.200  32.834  32.043  1.00  0.00     0.029 A 
ATOM     43  N   UNL A   1      38.945  31.447  32.198  1.00  0.00    -0.354 N 
ATOM     44  C   UNL A   1      40.094  28.934  28.888  1.00  0.00     0.074 A 
ATOM     45  C   UNL A   1      39.265  29.183  27.727  1.00  0.00     0.031 C 
ATOM     46  C   UNL A   1      37.673  32.922  33.296  1.00  0.00     0.029 A 
ATOM     47  C   UNL A   1      38.790  31.999  33.448  1.00  0.00     0.049 A 
ATOM     48  H   UNL A   1      39.658  30.804  31.977  1.00  0.00     0.167 HD
ATOM     49  C   UNL A   1      41.104  28.033  28.930  1.00  0.00     0.037 A 
ATOM     50  C   UNL A   1      39.457  31.772  34.596  1.00  0.00     0.037 A 
ATOM     51  C   UNL A   1      41.944  27.803  30.077  1.00  0.00     0.049 A 
ATOM     52  C   UNL A   1      40.574  30.768  34.614  1.00  0.00     0.074 A 
ATOM     53  C   UNL A   1      43.044  26.969  30.186  1.00  0.00     0.029 A 
ATOM     54  N   UNL A   1      41.774  28.404  31.314  1.00  0.00    -0.354 N 
ATOM     55  N   UNL A   1      41.026  30.021  33.636  1.00  0.00    -0.248 NA
ATOM     56  C   UNL A   1      41.271  30.572  35.892  1.00  0.00     0.031 C 
ATOM     57  C   UNL A   1      43.517  27.038  31.501  1.00  0.00     0.029 A 
ATOM     58  C   UNL A   1      42.734  27.942  32.199  1.00  0.00     0.049 A 
ATOM     59  H   UNL A   1      41.076  29.064  31.531  1.00  0.00     0.167 HD
ATOM     60  C   UNL A   1      42.066  29.279  34.176  1.00  0.00     0.074 A 
ATOM     61  C   UNL A   1      42.193  29.678  35.562  1.00  0.00     0.031 C 
ATOM     62  C   UNL A   1      42.846  28.347  33.576  1.00  0.00     0.037 A 
BRANCH  49  63
ATOM     63  C   UNL A   1      41.359  27.225  27.693  1.00  0.00     0.057 A 
ATOM     64  C   UNL A   1      42.208  27.682  26.677  1.00  0.00     0.134 A 
ATOM     65  C   UNL A   1      40.784  25.958  27.535  1.00  0.00     0.134 A 
ATOM     66  F   UNL A   1      42.782  28.892  26.765  1.00  0.00    -0.206 F 
ATOM     67  C   UNL A   1      42.457  26.918  25.536  1.00  0.00     0.040 A 
ATOM     68  C   UNL A   1      41.043  25.175  26.410  1.00  0.00     0.040 A 
ATOM     69  F   UNL A   1      39.968  25.458  28.476  1.00  0.00    -0.206 F 
ATOM     70  C   UNL A   1      41.878  25.657  25.403  1.00  0.00     0.006 A 
ENDBRANCH  49  63
BRANCH  50  71
ATOM     71  C   UNL A   1      39.084  32.505  35.832  1.00  0.00     0.057 A 
ATOM     72  C   UNL A   1      39.567  33.795  36.077  1.00  0.00     0.134 A 
ATOM     73  C   UNL A   1      38.252  31.932  36.801  1.00  0.00     0.134 A 
ATOM     74  F   UNL A   1      40.385  34.388  35.195  1.00  0.00    -0.206 F 
ATOM     75  C   UNL A   1      39.250  34.484  37.249  1.00  0.00     0.040 A 
ATOM     76  C   UNL A   1      37.909  32.618  37.968  1.00  0.00     0.040 A 
ATOM     77  F   UNL A   1      37.752  30.700  36.623  1.00  0.00    -0.206 F 
ATOM     78  C   UNL A   1      38.415  33.896  38.198  1.00  0.00     0.006 A 
ENDBRANCH  50  71
BRANCH  62  79
ATOM     79  C   UNL A   1      43.911  27.708  34.414  1.00  0.00     0.057 A 
ATOM     80  C   UNL A   1      45.183  28.281  34.548  1.00  0.00     0.134 A 
ATOM     81  C   UNL A   1      43.652  26.530  35.124  1.00  0.00     0.134 A 
ATOM     82  F   UNL A   1      45.497  29.401  33.880  1.00  0.00    -0.206 F 
ATOM     83  C   UNL A   1      46.164  27.694  35.347  1.00  0.00     0.040 A 
ATOM     84  C   UNL A   1      44.618  25.945  35.943  1.00  0.00     0.040 A 
ATOM     85  F   UNL A   1      42.452  25.934  35.041  1.00  0.00    -0.206 F 
ATOM     86  C   UNL A   1      45.880  26.525  36.053  1.00  0.00     0.006 A 
ENDBRANCH  62  79
ENDBRANCH  36  37
ENDBRANCH  28  31
ENDBRANCH  26  27
ENDBRANCH  25  26
ENDBRANCH   1  25
TORSDOF 13
ENDMDL
MODEL 2
REMARK VINA RESULT:     -13.0      0.066      1.592
REMARK SMILES CC(=O)Nc1cccc(-c2cc(F)ccc2C(=O)NCCCCNC(=O)c2ccc(-c3c4nc(c(-c5c(F)cccc5F)c5ccc([nH]5)c(-c5c(F)cccc5F)c5nc(c(-c6c(F)cccc6F)c6ccc3[nH]6)C=C5)C=C4)cc2)c1
REMARK SMILES IDX 21 1 20 2 19 3 17 4 18 5 16 7 10 8 11 9 12 10 15 11 13 12
REMARK SMILES IDX 14 13 9 14 5 15 6 16 81 17 7 18 8 19 4 20 1 21 2 22 3 23
REMARK SMILES IDX 22 25 23 26 24 27 25 28 26 30 27 31 28 32 80 33 29 34 79 35
REMARK SMILES IDX 30 36 31 37 32 38 73 39 33 40 78 41 72 42 74 43 34 44 77 45
REMARK SMILES IDX 71 46 70 47 35 49 61 50 44 51 60 52 45 53 48 54 59 55 75 56
REMARK SMILES IDX 46 57 47 58 58 60 76 61 49 62 36 63 37 64 42 65 38 66 39 67
REMARK SMILES IDX 41 68 43 69 40 70 62 71 63 72 68 73 64 74 65 75 67 76 69 77
REMARK SMILES IDX 66 78 50 79 51 80 56 81 52 82 53 83 55 84 57 85 54 86
REMARK H PARENT 19 6 4 24 24 29 74 48 48 59
REMARK Flexibility Score: inf
ROOT
ATOM      1  C   UNL A   1      31.947  30.119  26.287  1.00  0.00     0.023 C 
ENDROOT
BRANCH   1   2
ATOM      2  C   UNL A   1      32.110  28.993  27.296  1.00  0.00     0.116 C 
BRANCH   2   3
ATOM      3  N   UNL A   1      31.155  27.919  27.236  1.00  0.00    -0.352 N 
ATOM      4  C   UNL A   1      30.975  26.934  26.291  1.00  0.00     0.251 C 
ATOM      5  O   UNL A   1      30.168  26.045  26.582  1.00  0.00    -0.269 OA
ATOM      6  H   UNL A   1      30.528  27.881  27.994  1.00  0.00     0.163 HD
BRANCH   4   7
ATOM      7  C   UNL A   1      31.591  26.886  24.917  1.00  0.00     0.047 A 
ATOM      8  C   UNL A   1      31.133  27.458  23.702  1.00  0.00    -0.003 A 
ATOM      9  C   UNL A   1      31.962  27.339  22.555  1.00  0.00     0.048 A 
ATOM     10  C   UNL A   1      33.189  26.692  22.596  1.00  0.00     0.123 A 
ATOM     11  C   UNL A   1      32.856  26.238  24.920  1.00  0.00     0.017 A 
ATOM     12  F   UNL A   1      33.933  26.613  21.486  1.00  0.00    -0.207 F 
ATOM     13  C   UNL A   1      33.647  26.137  23.773  1.00  0.00     0.040 A 
BRANCH   8  14
ATOM     14  C   UNL A   1      29.860  28.171  23.493  1.00  0.00    -0.015 A 
ATOM     15  C   UNL A   1      28.563  30.225  23.289  1.00  0.00     0.041 A 
ATOM     16  C   UNL A   1      27.383  29.468  23.313  1.00  0.00     0.026 A 
ATOM     17  C   UNL A   1      29.799  29.567  23.344  1.00  0.00     0.034 A 
ATOM     18  C   UNL A   1      27.425  28.080  23.394  1.00  0.00     0.003 A 
ATOM     19  C   UNL A   1      28.655  27.438  23.484  1.00  0.00     0.009 A 
BRANCH  15  20
ATOM     20  N   UNL A   1      28.399  31.618  23.382  1.00  0.00    -0.326 N 
ATOM     21  C   UNL A   1      28.115  32.300  21.004  1.00  0.00     0.114 C 
ATOM     22  C   UNL A   1      28.389  32.610  22.448  1.00  0.00     0.221 C 
ATOM     23  O   UNL A   1      28.567  33.774  22.818  1.00  0.00    -0.275 OA
ATOM     24  H   UNL A   1      28.266  31.940  24.303  1.00  0.00     0.169 HD
ENDBRANCH  15  20
ENDBRANCH   8  14
ENDBRANCH   4   7
ENDBRANCH   2   3
ENDBRANCH   1   2
BRANCH   1  25
ATOM     25  C   UNL A   1      31.363  31.443  26.784  1.00  0.00     0.023 C 
BRANCH  25  26
ATOM     26  C   UNL A   1      32.109  32.743  26.478  1.00  0.00     0.116 C 
BRANCH  26  27
ATOM     27  N   UNL A   1      32.083  33.753  27.526  1.00  0.00    -0.352 N 
ATOM     28  C   UNL A   1      33.088  34.157  28.385  1.00  0.00     0.251 C 
ATOM     29  H   UNL A   1      31.223  34.217  27.639  1.00  0.00     0.163 HD
ATOM     30  O   UNL A   1      32.939  35.146  29.084  1.00  0.00    -0.269 OA
BRANCH  28  31
ATOM     31  C   UNL A   1      34.310  33.330  28.508  1.00  0.00     0.039 A 
ATOM     32  C   UNL A   1      35.545  33.934  28.253  1.00  0.00     0.014 A 
ATOM     33  C   UNL A   1      34.248  32.024  28.993  1.00  0.00     0.014 A 
ATOM     34  C   UNL A   1      36.721  33.289  28.641  1.00  0.00     0.010 A 
ATOM     35  C   UNL A   1      35.416  31.411  29.444  1.00  0.00     0.010 A 
ATOM     36  C   UNL A   1      36.655  32.064  29.325  1.00  0.00    -0.014 A 
BRANCH  36  37
ATOM     37  C   UNL A   1      37.837  31.516  30.042  1.00  0.00     0.031 A 
ATOM     38  C   UNL A   1      38.707  30.471  29.407  1.00  0.00     0.074 A 
ATOM     39  C   UNL A   1      38.046  31.873  31.328  1.00  0.00     0.049 A 
ATOM     40  N   UNL A   1      39.681  29.776  29.936  1.00  0.00    -0.248 NA
ATOM     41  C   UNL A   1      38.426  30.147  28.000  1.00  0.00     0.031 C 
ATOM     42  C   UNL A   1      37.237  32.834  32.083  1.00  0.00     0.029 A 
ATOM     43  N   UNL A   1      38.984  31.450  32.237  1.00  0.00    -0.354 N 
ATOM     44  C   UNL A   1      40.116  28.916  28.938  1.00  0.00     0.074 A 
ATOM     45  C   UNL A   1      39.280  29.157  27.779  1.00  0.00     0.031 C 
ATOM     46  C   UNL A   1      37.715  32.930  33.332  1.00  0.00     0.029 A 
ATOM     47  C   UNL A   1      38.835  32.010  33.484  1.00  0.00     0.049 A 
ATOM     48  H   UNL A   1      39.696  30.806  32.017  1.00  0.00     0.167 HD
ATOM     49  C   UNL A   1      41.128  28.016  28.980  1.00  0.00     0.037 A 
ATOM     50  C   UNL A   1      39.508  31.790  34.630  1.00  0.00     0.037 A 
ATOM     51  C   UNL A   1      41.974  27.794  30.124  1.00  0.00     0.049 A 
ATOM     52  C   UNL A   1      40.626  30.788  34.648  1.00  0.00     0.074 A 
ATOM     53  C   UNL A   1      43.075  26.961  30.232  1.00  0.00     0.029 A 
ATOM     54  N   UNL A   1      41.810  28.403  31.358  1.00  0.00    -0.354 N 
ATOM     55  N   UNL A   1      41.073  30.035  33.673  1.00  0.00    -0.248 NA
ATOM     56  C   UNL A   1      41.330  30.600  35.925  1.00  0.00     0.031 C 
ATOM     57  C   UNL A   1      43.555  27.039  31.544  1.00  0.00     0.029 A 
ATOM     58  C   UNL A   1      42.775  27.947  32.241  1.00  0.00     0.049 A 
ATOM     59  H   UNL A   1      41.113  29.063  31.574  1.00  0.00     0.167 HD
ATOM     60  C   UNL A   1      42.117  29.297  34.213  1.00  0.00     0.074 A 
ATOM     61  C   UNL A   1      42.251  29.705  35.595  1.00  0.00     0.031 C 
ATOM     62  C   UNL A   1      42.894  28.362  33.614  1.00  0.00     0.037 A 
BRANCH  49  63
ATOM     63  C   UNL A   1      41.377  27.200  27.747  1.00  0.00     0.057 A 
ATOM     64  C   UNL A   1      40.761  25.957  27.550  1.00  0.00     0.134 A 
ATOM     65  C   UNL A   1      42.208  27.679  26.727  1.00  0.00     0.134 A 
ATOM     66  F   UNL A   1      39.961  25.439  28.495  1.00  0.00    -0.206 F 
ATOM     67  C   UNL A   1      40.981  25.210  26.392  1.00  0.00     0.040 A 
ATOM     68  C   UNL A   1      42.418  26.951  25.555  1.00  0.00     0.040 A 
ATOM     69  F   UNL A   1      42.822  28.866  26.850  1.00  0.00    -0.206 F 
ATOM     70  C   UNL A   1      41.807  25.710  25.387  1.00  0.00     0.006 A 
ENDBRANCH  49  63
BRANCH  50  71
ATOM     71  C   UNL A   1      39.141  32.531  35.864  1.00  0.00     0.057 A 
ATOM     72  C   UNL A   1      38.267  31.975  36.804  1.00  0.00     0.134 A 
ATOM     73  C   UNL A   1      39.640  33.813  36.124  1.00  0.00     0.134 A 
ATOM     74  F   UNL A   1      37.739  30.759  36.598  1.00  0.00    -0.206 F 
ATOM     75  C   UNL A   1      37.889  32.672  37.952  1.00  0.00     0.040 A 
ATOM     76  C   UNL A   1      39.287  34.513  37.280  1.00  0.00     0.040 A 
ATOM     77  F   UNL A   1      40.486  34.399  35.264  1.00  0.00    -0.206 F 
ATOM     78  C   UNL A   1      38.402  33.945  38.194  1.00  0.00     0.006 A 
ENDBRANCH  50  71
BRANCH  62  79
ATOM     79  C   UNL A   1      43.965  27.729  34.451  1.00  0.00     0.057 A 
ATOM     80  C   UNL A   1      43.746  26.528  35.137  1.00  0.00     0.134 A 
ATOM     81  C   UNL A   1      45.237  28.307  34.541  1.00  0.00     0.134 A 
ATOM     82  F   UNL A   1      42.544  25.935  35.103  1.00  0.00    -0.206 F 
ATOM     83  C   UNL A   1      44.753  25.931  35.897  1.00  0.00     0.040 A 
ATOM     84  C   UNL A   1      46.258  27.708  35.280  1.00  0.00     0.040 A 
ATOM     85  F   UNL A   1      45.510  29.456  33.904  1.00  0.00    -0.206 F 
ATOM     86  C   UNL A   1      46.016  26.519  35.964  1.00  0.00     0.006 A 
ENDBRANCH  62  79
ENDBRANCH  36  37
ENDBRANCH  28  31
ENDBRANCH  26  27
ENDBRANCH  25  26
ENDBRANCH   1  25
TORSDOF 13
ENDMDL
MODEL 3
REMARK VINA RESULT:     -12.9      0.419      6.299
REMARK SMILES CC(=O)Nc1cccc(-c2cc(F)ccc2C(=O)NCCCCNC(=O)c2ccc(-c3c4nc(c(-c5c(F)cccc5F)c5ccc([nH]5)c(-c5c(F)cccc5F)c5nc(c(-c6c(F)cccc6F)c6ccc3[nH]6)C=C5)C=C4)cc2)c1
REMARK SMILES IDX 21 1 20 2 19 3 17 4 18 5 16 7 10 8 11 9 12 10 15 11 13 12
REMARK SMILES IDX 14 13 9 14 5 15 6 16 81 17 7 18 8 19 4 20 1 21 2 22 3 23
REMARK SMILES IDX 22 25 23 26 24 27 25 28 26 30 27 31 28 32 80 33 29 34 79 35
REMARK SMILES IDX 30 36 31 37 32 38 73 39 33 40 78 41 72 42 74 43 34 44 77 45
REMARK SMILES IDX 71 46 70 47 35 49 61 50 44 51 60 52 45 53 48 54 59 55 75 56
REMARK SMILES IDX 46 57 47 58 58 60 76 61 49 62 36 63 37 64 42 65 38 66 39 67
REMARK SMILES IDX 41 68 43 69 40 70 62 71 63 72 68 73 64 74 65 75 67 76 69 77
REMARK SMILES IDX 66 78 50 79 51 80 56 81 52 82 53 83 55 84 57 85 54 86
REMARK H PARENT 19 6 4 24 24 29 74 48 48 59
REMARK Flexibility Score: inf
ROOT
ATOM      1  C   UNL A   1      31.929  30.226  26.316  1.00  0.00     0.023 C 
ENDROOT
BRANCH   1   2
ATOM      2  C   UNL A   1      32.126  29.104  27.324  1.00  0.00     0.116 C 
BRANCH   2   3
ATOM      3  N   UNL A   1      31.178  28.024  27.293  1.00  0.00    -0.352 N 
ATOM      4  C   UNL A   1      31.010  27.006  26.382  1.00  0.00     0.251 C 
ATOM      5  O   UNL A   1      30.205  26.123  26.697  1.00  0.00    -0.269 OA
ATOM      6  H   UNL A   1      30.545  28.009  28.047  1.00  0.00     0.163 HD
BRANCH   4   7
ATOM      7  C   UNL A   1      31.638  26.913  25.016  1.00  0.00     0.047 A 
ATOM      8  C   UNL A   1      31.198  27.459  23.782  1.00  0.00    -0.003 A 
ATOM      9  C   UNL A   1      32.035  27.299  22.646  1.00  0.00     0.048 A 
ATOM     10  C   UNL A   1      33.253  26.637  22.715  1.00  0.00     0.123 A 
ATOM     11  C   UNL A   1      32.894  26.249  25.047  1.00  0.00     0.017 A 
ATOM     12  F   UNL A   1      34.006  26.519  21.615  1.00  0.00    -0.207 F 
ATOM     13  C   UNL A   1      33.693  26.107  23.910  1.00  0.00     0.040 A 
BRANCH   8  14
ATOM     14  C   UNL A   1      29.937  28.183  23.543  1.00  0.00    -0.015 A 
ATOM     15  C   UNL A   1      28.660  30.249  23.327  1.00  0.00     0.041 A 
ATOM     16  C   UNL A   1      27.475  29.499  23.302  1.00  0.00     0.026 A 
ATOM     17  C   UNL A   1      29.889  29.582  23.412  1.00  0.00     0.034 A 
ATOM     18  C   UNL A   1      27.505  28.110  23.364  1.00  0.00     0.003 A 
ATOM     19  C   UNL A   1      28.728  27.458  23.483  1.00  0.00     0.009 A 
BRANCH  15  20
ATOM     20  N   UNL A   1      28.501  31.641  23.435  1.00  0.00    -0.326 N 
ATOM     21  C   UNL A   1      28.185  32.346  21.067  1.00  0.00     0.114 C 
ATOM     22  C   UNL A   1      28.480  32.641  22.511  1.00  0.00     0.221 C 
ATOM     23  O   UNL A   1      28.666  33.801  22.889  1.00  0.00    -0.275 OA
ATOM     24  H   UNL A   1      28.382  31.955  24.361  1.00  0.00     0.169 HD
ENDBRANCH  15  20
ENDBRANCH   8  14
ENDBRANCH   4   7
ENDBRANCH   2   3
ENDBRANCH   1   2
BRANCH   1  25
ATOM     25  C   UNL A   1      31.395  31.564  26.833  1.00  0.00     0.023 C 
BRANCH  25  26
ATOM     26  C   UNL A   1      32.129  32.851  26.454  1.00  0.00     0.116 C 
BRANCH  26  27
ATOM     27  N   UNL A   1      32.193  33.874  27.487  1.00  0.00    -0.352 N 
ATOM     28  C   UNL A   1      33.239  34.220  28.322  1.00  0.00     0.251 C 
ATOM     29  H   UNL A   1      31.369  34.398  27.610  1.00  0.00     0.163 HD
ATOM     30  O   UNL A   1      33.172  35.226  29.008  1.00  0.00    -0.269 OA
BRANCH  28  31
ATOM     31  C   UNL A   1      34.404  33.312  28.434  1.00  0.00     0.039 A 
ATOM     32  C   UNL A   1      35.683  33.878  28.446  1.00  0.00     0.014 A 
ATOM     33  C   UNL A   1      34.231  31.946  28.657  1.00  0.00     0.014 A 
ATOM     34  C   UNL A   1      36.774  33.104  28.846  1.00  0.00     0.010 A 
ATOM     35  C   UNL A   1      35.308  31.194  29.123  1.00  0.00     0.010 A 
ATOM     36  C   UNL A   1      36.576  31.782  29.277  1.00  0.00    -0.014 A 
BRANCH  36  37
ATOM     37  C   UNL A   1      37.635  31.044  30.016  1.00  0.00     0.031 A 
ATOM     38  C   UNL A   1      37.915  31.338  31.460  1.00  0.00     0.074 A 
ATOM     39  C   UNL A   1      38.434  30.193  29.336  1.00  0.00     0.049 A 
ATOM     40  N   UNL A   1      38.891  30.905  32.216  1.00  0.00    -0.248 NA
ATOM     41  C   UNL A   1      36.992  32.263  32.134  1.00  0.00     0.031 C 
ATOM     42  C   UNL A   1      38.307  29.864  27.913  1.00  0.00     0.029 A 
ATOM     43  N   UNL A   1      39.530  29.472  29.742  1.00  0.00    -0.354 N 
ATOM     44  C   UNL A   1      38.715  31.520  33.448  1.00  0.00     0.074 A 
ATOM     45  C   UNL A   1      37.555  32.379  33.329  1.00  0.00     0.031 C 
ATOM     46  C   UNL A   1      39.279  29.005  27.570  1.00  0.00     0.029 A 
ATOM     47  C   UNL A   1      40.124  28.755  28.730  1.00  0.00     0.049 A 
ATOM     48  H   UNL A   1      39.860  29.468  30.670  1.00  0.00     0.167 HD
ATOM     49  C   UNL A   1      39.448  31.371  34.577  1.00  0.00     0.037 A 
ATOM     50  C   UNL A   1      41.238  27.998  28.728  1.00  0.00     0.037 A 
ATOM     51  C   UNL A   1      40.587  30.499  34.702  1.00  0.00     0.049 A 
ATOM     52  C   UNL A   1      42.031  27.850  29.995  1.00  0.00     0.074 A 
ATOM     53  C   UNL A   1      41.341  30.223  35.829  1.00  0.00     0.029 A 
ATOM     54  N   UNL A   1      41.138  29.766  33.663  1.00  0.00    -0.354 N 
ATOM     55  N   UNL A   1      41.809  28.381  31.173  1.00  0.00    -0.248 NA
ATOM     56  C   UNL A   1      43.231  27.004  29.934  1.00  0.00     0.031 C 
ATOM     57  C   UNL A   1      42.372  29.351  35.463  1.00  0.00     0.029 A 
ATOM     58  C   UNL A   1      42.237  29.057  34.117  1.00  0.00     0.049 A 
ATOM     59  H   UNL A   1      40.798  29.751  32.739  1.00  0.00     0.167 HD
ATOM     60  C   UNL A   1      42.829  27.923  31.994  1.00  0.00     0.074 A 
ATOM     61  C   UNL A   1      43.661  27.055  31.187  1.00  0.00     0.031 C 
ATOM     62  C   UNL A   1      43.057  28.198  33.301  1.00  0.00     0.037 A 
BRANCH  49  63
ATOM     63  C   UNL A   1      39.038  32.175  35.775  1.00  0.00     0.057 A 
ATOM     64  C   UNL A   1      38.229  31.633  36.783  1.00  0.00     0.134 A 
ATOM     65  C   UNL A   1      39.491  33.489  35.944  1.00  0.00     0.134 A 
ATOM     66  F   UNL A   1      37.756  30.383  36.674  1.00  0.00    -0.206 F 
ATOM     67  C   UNL A   1      37.866  32.379  37.905  1.00  0.00     0.040 A 
ATOM     68  C   UNL A   1      39.153  34.237  37.073  1.00  0.00     0.040 A 
ATOM     69  F   UNL A   1      40.275  34.064  35.020  1.00  0.00    -0.206 F 
ATOM     70  C   UNL A   1      38.334  33.683  38.056  1.00  0.00     0.006 A 
ENDBRANCH  49  63
BRANCH  50  71
ATOM     71  C   UNL A   1      41.679  27.323  27.481  1.00  0.00     0.057 A 
ATOM     72  C   UNL A   1      41.328  25.994  27.220  1.00  0.00     0.134 A 
ATOM     73  C   UNL A   1      42.470  27.981  26.532  1.00  0.00     0.134 A 
ATOM     74  F   UNL A   1      40.588  25.305  28.103  1.00  0.00    -0.206 F 
ATOM     75  C   UNL A   1      41.760  25.336  26.067  1.00  0.00     0.040 A 
ATOM     76  C   UNL A   1      42.892  27.342  25.364  1.00  0.00     0.040 A 
ATOM     77  F   UNL A   1      42.836  29.257  26.721  1.00  0.00    -0.206 F 
ATOM     78  C   UNL A   1      42.543  26.012  25.133  1.00  0.00     0.006 A 
ENDBRANCH  50  71
BRANCH  62  79
ATOM     79  C   UNL A   1      44.244  27.544  33.939  1.00  0.00     0.057 A 
ATOM     80  C   UNL A   1      44.160  26.269  34.511  1.00  0.00     0.134 A 
ATOM     81  C   UNL A   1      45.492  28.179  33.947  1.00  0.00     0.134 A 
ATOM     82  F   UNL A   1      42.990  25.616  34.549  1.00  0.00    -0.206 F 
ATOM     83  C   UNL A   1      45.275  25.654  35.084  1.00  0.00     0.040 A 
ATOM     84  C   UNL A   1      46.618  27.566  34.497  1.00  0.00     0.040 A 
ATOM     85  F   UNL A   1      45.638  29.401  33.410  1.00  0.00    -0.206 F 
ATOM     86  C   UNL A   1      46.510  26.302  35.072  1.00  0.00     0.006 A 
ENDBRANCH  62  79
ENDBRANCH  36  37
ENDBRANCH  28  31
ENDBRANCH  26  27
ENDBRANCH  25  26
ENDBRANCH   1  25
TORSDOF 13
ENDMDL
