MODEL 1
REMARK VINA RESULT:     -11.3      0.000      0.000
REMARK SMILES O=C(NCCCCNC(=O)c1cc(SCC(=O)N2CCOCC2)ccn1)c1ccc(-c2c3nc(c(-c4c(F)cccc4F)c4ccc([nH]4)c(-c4c(F)cccc4F)c4nc(c(-c5c(F)cccc5F)c5ccc2[nH]5)C=C4)C=C3)cc1
REMARK SMILES IDX 6 1 5 2 4 3 3 4 1 5 2 6 27 8 28 9 80 10 29 11 79 12 30 13
REMARK SMILES IDX 31 14 32 15 73 16 33 17 78 18 72 19 74 20 34 21 77 22 71 23
REMARK SMILES IDX 70 24 35 26 61 27 44 28 60 29 45 30 48 31 59 32 75 33 46 34
REMARK SMILES IDX 47 35 58 37 76 38 49 39 36 40 37 41 42 42 38 43 39 44 41 45
REMARK SMILES IDX 43 46 40 47 62 48 63 49 68 50 64 51 65 52 67 53 69 54 66 55
REMARK SMILES IDX 50 56 51 57 56 58 52 59 53 60 55 61 57 62 54 63 7 64 8 65
REMARK SMILES IDX 9 66 10 68 11 69 12 70 26 71 13 72 25 73 24 74 14 75 15 76
REMARK SMILES IDX 16 77 17 78 18 79 19 80 23 81 20 82 22 83 21 84
REMARK H PARENT 3 7 74 25 48 36 8 67
REMARK Flexibility Score: inf
ROOT
ATOM      1  C   UNL A   1      36.457  20.264  24.996  1.00  0.00     0.023 C 
ENDROOT
BRANCH   1   2
ATOM      2  C   UNL A   1      37.858  19.718  24.734  1.00  0.00     0.023 C 
BRANCH   2   3
ATOM      3  C   UNL A   1      38.910  20.118  25.759  1.00  0.00     0.116 C 
BRANCH   3   4
ATOM      4  N   UNL A   1      40.031  19.192  25.812  1.00  0.00    -0.352 N 
ATOM      5  O   UNL A   1      42.204  18.587  25.950  1.00  0.00    -0.269 OA
ATOM      6  C   UNL A   1      41.349  19.455  26.096  1.00  0.00     0.251 C 
ATOM      7  H   UNL A   1      39.816  18.252  25.620  1.00  0.00     0.163 HD
BRANCH   6   8
ATOM      8  C   UNL A   1      41.734  20.804  26.569  1.00  0.00     0.039 A 
ATOM      9  C   UNL A   1      42.231  21.749  25.668  1.00  0.00     0.014 A 
ATOM     10  C   UNL A   1      41.588  21.128  27.920  1.00  0.00     0.014 A 
ATOM     11  C   UNL A   1      42.696  22.972  26.135  1.00  0.00     0.010 A 
ATOM     12  C   UNL A   1      41.978  22.391  28.376  1.00  0.00     0.010 A 
ATOM     13  C   UNL A   1      42.549  23.317  27.488  1.00  0.00    -0.014 A 
BRANCH  13  14
ATOM     14  C   UNL A   1      42.883  24.697  27.919  1.00  0.00     0.031 A 
ATOM     15  C   UNL A   1      41.817  25.712  28.214  1.00  0.00     0.074 A 
ATOM     16  C   UNL A   1      44.185  25.020  28.049  1.00  0.00     0.049 A 
ATOM     17  N   UNL A   1      41.955  26.957  28.596  1.00  0.00    -0.248 NA
ATOM     18  C   UNL A   1      40.418  25.284  28.057  1.00  0.00     0.031 C 
ATOM     19  C   UNL A   1      45.307  24.117  27.767  1.00  0.00     0.029 A 
ATOM     20  N   UNL A   1      44.790  26.182  28.452  1.00  0.00    -0.354 N 
ATOM     21  C   UNL A   1      40.669  27.468  28.707  1.00  0.00     0.074 A 
ATOM     22  C   UNL A   1      39.760  26.403  28.340  1.00  0.00     0.031 C 
ATOM     23  C   UNL A   1      46.458  24.748  28.036  1.00  0.00     0.029 A 
ATOM     24  C   UNL A   1      46.162  26.115  28.445  1.00  0.00     0.049 A 
ATOM     25  H   UNL A   1      44.289  26.985  28.721  1.00  0.00     0.167 HD
ATOM     26  C   UNL A   1      40.289  28.712  29.086  1.00  0.00     0.037 A 
ATOM     27  C   UNL A   1      47.084  27.058  28.710  1.00  0.00     0.037 A 
ATOM     28  C   UNL A   1      41.201  29.759  29.474  1.00  0.00     0.049 A 
ATOM     29  C   UNL A   1      46.628  28.431  29.101  1.00  0.00     0.074 A 
ATOM     30  C   UNL A   1      40.906  31.027  29.945  1.00  0.00     0.029 A 
ATOM     31  N   UNL A   1      42.584  29.663  29.425  1.00  0.00    -0.354 N 
ATOM     32  N   UNL A   1      45.406  28.879  29.262  1.00  0.00    -0.248 NA
ATOM     33  C   UNL A   1      47.674  29.433  29.337  1.00  0.00     0.031 C 
ATOM     34  C   UNL A   1      42.108  31.715  30.134  1.00  0.00     0.029 A 
ATOM     35  C   UNL A   1      43.154  30.863  29.821  1.00  0.00     0.049 A 
ATOM     36  H   UNL A   1      43.086  28.861  29.151  1.00  0.00     0.167 HD
ATOM     37  C   UNL A   1      45.537  30.211  29.623  1.00  0.00     0.074 A 
ATOM     38  C   UNL A   1      46.957  30.491  29.688  1.00  0.00     0.031 C 
ATOM     39  C   UNL A   1      44.568  31.125  29.869  1.00  0.00     0.037 A 
BRANCH  26  40
ATOM     40  C   UNL A   1      38.824  29.035  29.093  1.00  0.00     0.057 A 
ATOM     41  C   UNL A   1      38.048  28.926  30.253  1.00  0.00     0.134 A 
ATOM     42  C   UNL A   1      38.209  29.561  27.950  1.00  0.00     0.134 A 
ATOM     43  F   UNL A   1      38.577  28.426  31.381  1.00  0.00    -0.206 F 
ATOM     44  C   UNL A   1      36.710  29.328  30.275  1.00  0.00     0.040 A 
ATOM     45  C   UNL A   1      36.878  29.983  27.965  1.00  0.00     0.040 A 
ATOM     46  F   UNL A   1      38.899  29.700  26.808  1.00  0.00    -0.206 F 
ATOM     47  C   UNL A   1      36.125  29.868  29.132  1.00  0.00     0.006 A 
ENDBRANCH  26  40
BRANCH  27  48
ATOM     48  C   UNL A   1      48.527  26.742  28.572  1.00  0.00     0.057 A 
ATOM     49  C   UNL A   1      49.281  26.296  29.661  1.00  0.00     0.134 A 
ATOM     50  C   UNL A   1      49.186  26.889  27.344  1.00  0.00     0.134 A 
ATOM     51  F   UNL A   1      48.710  26.154  30.866  1.00  0.00    -0.206 F 
ATOM     52  C   UNL A   1      50.645  26.026  29.541  1.00  0.00     0.040 A 
ATOM     53  C   UNL A   1      50.542  26.594  27.203  1.00  0.00     0.040 A 
ATOM     54  F   UNL A   1      48.516  27.305  26.260  1.00  0.00    -0.206 F 
ATOM     55  C   UNL A   1      51.278  26.170  28.308  1.00  0.00     0.006 A 
ENDBRANCH  27  48
BRANCH  39  56
ATOM     56  C   UNL A   1      45.019  32.508  30.231  1.00  0.00     0.057 A 
ATOM     57  C   UNL A   1      45.167  33.507  29.261  1.00  0.00     0.134 A 
ATOM     58  C   UNL A   1      45.292  32.849  31.562  1.00  0.00     0.134 A 
ATOM     59  F   UNL A   1      44.938  33.237  27.967  1.00  0.00    -0.206 F 
ATOM     60  C   UNL A   1      45.592  34.791  29.598  1.00  0.00     0.040 A 
ATOM     61  C   UNL A   1      45.693  34.137  31.915  1.00  0.00     0.040 A 
ATOM     62  F   UNL A   1      45.165  31.938  32.539  1.00  0.00    -0.206 F 
ATOM     63  C   UNL A   1      45.851  35.112  30.931  1.00  0.00     0.006 A 
ENDBRANCH  39  56
ENDBRANCH  13  14
ENDBRANCH   6   8
ENDBRANCH   3   4
ENDBRANCH   2   3
ENDBRANCH   1   2
BRANCH   1  64
ATOM     64  C   UNL A   1      36.418  21.611  25.706  1.00  0.00     0.116 C 
BRANCH  64  65
ATOM     65  N   UNL A   1      35.459  21.659  26.797  1.00  0.00    -0.351 N 
ATOM     66  C   UNL A   1      34.113  21.950  26.747  1.00  0.00     0.269 C 
ATOM     67  H   UNL A   1      35.819  21.456  27.690  1.00  0.00     0.163 HD
ATOM     68  O   UNL A   1      33.451  21.949  27.782  1.00  0.00    -0.268 OA
BRANCH  66  69
ATOM     69  C   UNL A   1      33.482  22.263  25.436  1.00  0.00     0.129 A 
ATOM     70  C   UNL A   1      33.284  23.588  25.060  1.00  0.00     0.049 A 
ATOM     71  N   UNL A   1      33.081  21.192  24.708  1.00  0.00    -0.251 NA
ATOM     72  C   UNL A   1      32.561  23.829  23.900  1.00  0.00     0.012 A 
ATOM     73  C   UNL A   1      32.443  21.456  23.556  1.00  0.00     0.113 A 
ATOM     74  C   UNL A   1      32.154  22.738  23.125  1.00  0.00     0.035 A 
BRANCH  72  75
ATOM     75  S   UNL A   1      32.106  25.435  23.286  1.00  0.00    -0.116 SA
BRANCH  75  76
ATOM     76  C   UNL A   1      30.588  25.900  24.155  1.00  0.00     0.175 C 
BRANCH  76  77
ATOM     77  C   UNL A   1      30.666  26.481  25.559  1.00  0.00     0.233 C 
ATOM     78  O   UNL A   1      30.280  25.777  26.502  1.00  0.00    -0.274 OA
ATOM     79  N   UNL A   1      31.346  27.654  25.806  1.00  0.00    -0.337 N 
ATOM     80  C   UNL A   1      31.436  28.832  24.943  1.00  0.00     0.148 C 
ATOM     81  C   UNL A   1      32.005  27.849  27.106  1.00  0.00     0.148 C 
ATOM     82  C   UNL A   1      32.887  29.288  24.795  1.00  0.00     0.181 C 
ATOM     83  C   UNL A   1      33.452  28.312  26.879  1.00  0.00     0.181 C 
ATOM     84  O   UNL A   1      33.493  29.506  26.078  1.00  0.00    -0.378 OA
ENDBRANCH  76  77
ENDBRANCH  75  76
ENDBRANCH  72  75
ENDBRANCH  66  69
ENDBRANCH  64  65
ENDBRANCH   1  64
TORSDOF 14
ENDMDL
MODEL 2
REMARK VINA RESULT:     -11.2      0.232      6.275
REMARK SMILES O=C(NCCCCNC(=O)c1cc(SCC(=O)N2CCOCC2)ccn1)c1ccc(-c2c3nc(c(-c4c(F)cccc4F)c4ccc([nH]4)c(-c4c(F)cccc4F)c4nc(c(-c5c(F)cccc5F)c5ccc2[nH]5)C=C4)C=C3)cc1
REMARK SMILES IDX 6 1 5 2 4 3 3 4 1 5 2 6 27 8 28 9 80 10 29 11 79 12 30 13
REMARK SMILES IDX 31 14 32 15 73 16 33 17 78 18 72 19 74 20 34 21 77 22 71 23
REMARK SMILES IDX 70 24 35 26 61 27 44 28 60 29 45 30 48 31 59 32 75 33 46 34
REMARK SMILES IDX 47 35 58 37 76 38 49 39 36 40 37 41 42 42 38 43 39 44 41 45
REMARK SMILES IDX 43 46 40 47 62 48 63 49 68 50 64 51 65 52 67 53 69 54 66 55
REMARK SMILES IDX 50 56 51 57 56 58 52 59 53 60 55 61 57 62 54 63 7 64 8 65
REMARK SMILES IDX 9 66 10 68 11 69 12 70 26 71 13 72 25 73 24 74 14 75 15 76
REMARK SMILES IDX 16 77 17 78 18 79 19 80 23 81 20 82 22 83 21 84
REMARK H PARENT 3 7 74 25 48 36 8 67
REMARK Flexibility Score: inf
ROOT
ATOM      1  C   UNL A   1      36.443  20.317  25.001  1.00  0.00     0.023 C 
ENDROOT
BRANCH   1   2
ATOM      2  C   UNL A   1      37.867  19.864  24.693  1.00  0.00     0.023 C 
BRANCH   2   3
ATOM      3  C   UNL A   1      38.904  20.229  25.745  1.00  0.00     0.116 C 
BRANCH   3   4
ATOM      4  N   UNL A   1      39.989  19.264  25.832  1.00  0.00    -0.352 N 
ATOM      5  O   UNL A   1      42.137  18.582  26.009  1.00  0.00    -0.269 OA
ATOM      6  C   UNL A   1      41.313  19.484  26.126  1.00  0.00     0.251 C 
ATOM      7  H   UNL A   1      39.742  18.328  25.656  1.00  0.00     0.163 HD
BRANCH   6   8
ATOM      8  C   UNL A   1      41.742  20.827  26.575  1.00  0.00     0.039 A 
ATOM      9  C   UNL A   1      42.119  21.794  25.640  1.00  0.00     0.014 A 
ATOM     10  C   UNL A   1      41.759  21.124  27.941  1.00  0.00     0.014 A 
ATOM     11  C   UNL A   1      42.628  23.012  26.072  1.00  0.00     0.010 A 
ATOM     12  C   UNL A   1      42.192  22.382  28.371  1.00  0.00     0.010 A 
ATOM     13  C   UNL A   1      42.643  23.330  27.440  1.00  0.00    -0.014 A 
BRANCH  13  14
ATOM     14  C   UNL A   1      43.017  24.705  27.855  1.00  0.00     0.031 A 
ATOM     15  C   UNL A   1      44.451  25.123  28.004  1.00  0.00     0.074 A 
ATOM     16  C   UNL A   1      42.024  25.585  28.091  1.00  0.00     0.049 A 
ATOM     17  N   UNL A   1      44.933  26.287  28.362  1.00  0.00    -0.248 NA
ATOM     18  C   UNL A   1      45.480  24.109  27.723  1.00  0.00     0.031 C 
ATOM     19  C   UNL A   1      40.592  25.281  27.998  1.00  0.00     0.029 A 
ATOM     20  N   UNL A   1      42.057  26.907  28.448  1.00  0.00    -0.354 N 
ATOM     21  C   UNL A   1      46.313  26.144  28.368  1.00  0.00     0.074 A 
ATOM     22  C   UNL A   1      46.597  24.776  27.991  1.00  0.00     0.031 C 
ATOM     23  C   UNL A   1      39.887  26.390  28.260  1.00  0.00     0.029 A 
ATOM     24  C   UNL A   1      40.811  27.464  28.602  1.00  0.00     0.049 A 
ATOM     25  H   UNL A   1      42.893  27.409  28.582  1.00  0.00     0.167 HD
ATOM     26  C   UNL A   1      47.252  27.077  28.660  1.00  0.00     0.037 A 
ATOM     27  C   UNL A   1      40.447  28.696  29.002  1.00  0.00     0.037 A 
ATOM     28  C   UNL A   1      46.960  28.444  29.010  1.00  0.00     0.049 A 
ATOM     29  C   UNL A   1      41.513  29.694  29.341  1.00  0.00     0.074 A 
ATOM     30  C   UNL A   1      47.848  29.480  29.248  1.00  0.00     0.029 A 
ATOM     31  N   UNL A   1      45.686  28.963  29.184  1.00  0.00    -0.354 N 
ATOM     32  N   UNL A   1      42.816  29.561  29.281  1.00  0.00    -0.248 NA
ATOM     33  C   UNL A   1      41.061  31.009  29.813  1.00  0.00     0.031 C 
ATOM     34  C   UNL A   1      47.113  30.612  29.614  1.00  0.00     0.029 A 
ATOM     35  C   UNL A   1      45.766  30.293  29.564  1.00  0.00     0.049 A 
ATOM     36  H   UNL A   1      44.849  28.460  29.056  1.00  0.00     0.167 HD
ATOM     37  C   UNL A   1      43.338  30.774  29.702  1.00  0.00     0.074 A 
ATOM     38  C   UNL A   1      42.213  31.642  29.985  1.00  0.00     0.031 C 
ATOM     39  C   UNL A   1      44.636  31.136  29.851  1.00  0.00     0.037 A 
BRANCH  26  40
ATOM     40  C   UNL A   1      48.695  26.664  28.630  1.00  0.00     0.057 A 
ATOM     41  C   UNL A   1      49.484  26.817  27.484  1.00  0.00     0.134 A 
ATOM     42  C   UNL A   1      49.325  26.207  29.794  1.00  0.00     0.134 A 
ATOM     43  F   UNL A   1      48.939  27.246  26.335  1.00  0.00    -0.206 F 
ATOM     44  C   UNL A   1      50.851  26.527  27.496  1.00  0.00     0.040 A 
ATOM     45  C   UNL A   1      50.694  25.932  29.824  1.00  0.00     0.040 A 
ATOM     46  F   UNL A   1      48.627  26.048  30.929  1.00  0.00    -0.206 F 
ATOM     47  C   UNL A   1      51.460  26.094  28.672  1.00  0.00     0.006 A 
ENDBRANCH  26  40
BRANCH  27  48
ATOM     48  C   UNL A   1      39.009  29.035  29.142  1.00  0.00     0.057 A 
ATOM     49  C   UNL A   1      38.268  29.520  28.061  1.00  0.00     0.134 A 
ATOM     50  C   UNL A   1      38.347  28.887  30.368  1.00  0.00     0.134 A 
ATOM     51  F   UNL A   1      38.852  29.700  26.868  1.00  0.00    -0.206 F 
ATOM     52  C   UNL A   1      36.923  29.867  28.197  1.00  0.00     0.040 A 
ATOM     53  C   UNL A   1      36.996  29.202  30.511  1.00  0.00     0.040 A 
ATOM     54  F   UNL A   1      39.002  28.419  31.441  1.00  0.00    -0.206 F 
ATOM     55  C   UNL A   1      36.282  29.703  29.424  1.00  0.00     0.006 A 
ENDBRANCH  27  48
BRANCH  39  56
ATOM     56  C   UNL A   1      44.897  32.529  30.340  1.00  0.00     0.057 A 
ATOM     57  C   UNL A   1      44.982  33.611  29.455  1.00  0.00     0.134 A 
ATOM     58  C   UNL A   1      45.048  32.793  31.707  1.00  0.00     0.134 A 
ATOM     59  F   UNL A   1      44.864  33.419  28.132  1.00  0.00    -0.206 F 
ATOM     60  C   UNL A   1      45.230  34.905  29.911  1.00  0.00     0.040 A 
ATOM     61  C   UNL A   1      45.271  34.088  32.176  1.00  0.00     0.040 A 
ATOM     62  F   UNL A   1      44.972  31.800  32.605  1.00  0.00    -0.206 F 
ATOM     63  C   UNL A   1      45.369  35.148  31.277  1.00  0.00     0.006 A 
ENDBRANCH  39  56
ENDBRANCH  13  14
ENDBRANCH   6   8
ENDBRANCH   3   4
ENDBRANCH   2   3
ENDBRANCH   1   2
BRANCH   1  64
ATOM     64  C   UNL A   1      36.340  21.642  25.745  1.00  0.00     0.116 C 
BRANCH  64  65
ATOM     65  N   UNL A   1      35.350  21.629  26.808  1.00  0.00    -0.351 N 
ATOM     66  C   UNL A   1      33.997  21.876  26.727  1.00  0.00     0.269 C 
ATOM     67  H   UNL A   1      35.691  21.416  27.706  1.00  0.00     0.163 HD
ATOM     68  O   UNL A   1      33.306  21.827  27.742  1.00  0.00    -0.268 OA
BRANCH  66  69
ATOM     69  C   UNL A   1      33.392  22.201  25.406  1.00  0.00     0.129 A 
ATOM     70  C   UNL A   1      33.205  23.529  25.037  1.00  0.00     0.049 A 
ATOM     71  N   UNL A   1      33.002  21.136  24.663  1.00  0.00    -0.251 NA
ATOM     72  C   UNL A   1      32.505  23.781  23.865  1.00  0.00     0.012 A 
ATOM     73  C   UNL A   1      32.388  21.411  23.500  1.00  0.00     0.113 A 
ATOM     74  C   UNL A   1      32.111  22.697  23.073  1.00  0.00     0.035 A 
BRANCH  72  75
ATOM     75  S   UNL A   1      32.066  25.393  23.254  1.00  0.00    -0.116 SA
BRANCH  75  76
ATOM     76  C   UNL A   1      30.570  25.884  24.146  1.00  0.00     0.175 C 
BRANCH  76  77
ATOM     77  C   UNL A   1      30.680  26.489  25.537  1.00  0.00     0.233 C 
ATOM     78  O   UNL A   1      30.281  25.817  26.497  1.00  0.00    -0.274 OA
ATOM     79  N   UNL A   1      31.401  27.643  25.755  1.00  0.00    -0.337 N 
ATOM     80  C   UNL A   1      31.521  28.801  24.868  1.00  0.00     0.148 C 
ATOM     81  C   UNL A   1      32.080  27.841  27.044  1.00  0.00     0.148 C 
ATOM     82  C   UNL A   1      32.985  29.205  24.697  1.00  0.00     0.181 C 
ATOM     83  C   UNL A   1      33.539  28.252  26.795  1.00  0.00     0.181 C 
ATOM     84  O   UNL A   1      33.611  29.428  25.970  1.00  0.00    -0.378 OA
ENDBRANCH  76  77
ENDBRANCH  75  76
ENDBRANCH  72  75
ENDBRANCH  66  69
ENDBRANCH  64  65
ENDBRANCH   1  64
TORSDOF 14
ENDMDL
MODEL 3
REMARK VINA RESULT:     -11.2      0.814      1.705
REMARK SMILES O=C(NCCCCNC(=O)c1cc(SCC(=O)N2CCOCC2)ccn1)c1ccc(-c2c3nc(c(-c4c(F)cccc4F)c4ccc([nH]4)c(-c4c(F)cccc4F)c4nc(c(-c5c(F)cccc5F)c5ccc2[nH]5)C=C4)C=C3)cc1
REMARK SMILES IDX 6 1 5 2 4 3 3 4 1 5 2 6 27 8 28 9 80 10 29 11 79 12 30 13
REMARK SMILES IDX 31 14 32 15 73 16 33 17 78 18 72 19 74 20 34 21 77 22 71 23
REMARK SMILES IDX 70 24 35 26 61 27 44 28 60 29 45 30 48 31 59 32 75 33 46 34
REMARK SMILES IDX 47 35 58 37 76 38 49 39 36 40 37 41 42 42 38 43 39 44 41 45
REMARK SMILES IDX 43 46 40 47 62 48 63 49 68 50 64 51 65 52 67 53 69 54 66 55
REMARK SMILES IDX 50 56 51 57 56 58 52 59 53 60 55 61 57 62 54 63 7 64 8 65
REMARK SMILES IDX 9 66 10 68 11 69 12 70 26 71 13 72 25 73 24 74 14 75 15 76
REMARK SMILES IDX 16 77 17 78 18 79 19 80 23 81 20 82 22 83 21 84
REMARK H PARENT 3 7 74 25 48 36 8 67
REMARK Flexibility Score: inf
ROOT
ATOM      1  C   UNL A   1      36.647  20.201  24.899  1.00  0.00     0.023 C 
ENDROOT
BRANCH   1   2
ATOM      2  C   UNL A   1      38.075  19.721  24.654  1.00  0.00     0.023 C 
BRANCH   2   3
ATOM      3  C   UNL A   1      39.077  20.095  25.737  1.00  0.00     0.116 C 
BRANCH   3   4
ATOM      4  N   UNL A   1      40.190  19.162  25.827  1.00  0.00    -0.352 N 
ATOM      5  O   UNL A   1      42.355  18.543  26.011  1.00  0.00    -0.269 OA
ATOM      6  C   UNL A   1      41.506  19.421  26.126  1.00  0.00     0.251 C 
ATOM      7  H   UNL A   1      39.970  18.219  25.650  1.00  0.00     0.163 HD
BRANCH   6   8
ATOM      8  C   UNL A   1      41.893  20.776  26.577  1.00  0.00     0.039 A 
ATOM      9  C   UNL A   1      42.253  21.751  25.643  1.00  0.00     0.014 A 
ATOM     10  C   UNL A   1      41.888  21.076  27.942  1.00  0.00     0.014 A 
ATOM     11  C   UNL A   1      42.725  22.984  26.078  1.00  0.00     0.010 A 
ATOM     12  C   UNL A   1      42.282  22.346  28.373  1.00  0.00     0.010 A 
ATOM     13  C   UNL A   1      42.718  23.304  27.445  1.00  0.00    -0.014 A 
BRANCH  13  14
ATOM     14  C   UNL A   1      43.049  24.690  27.861  1.00  0.00     0.031 A 
ATOM     15  C   UNL A   1      41.982  25.698  28.172  1.00  0.00     0.074 A 
ATOM     16  C   UNL A   1      44.351  25.024  27.960  1.00  0.00     0.049 A 
ATOM     17  N   UNL A   1      42.117  26.947  28.543  1.00  0.00    -0.248 NA
ATOM     18  C   UNL A   1      40.583  25.258  28.047  1.00  0.00     0.031 C 
ATOM     19  C   UNL A   1      45.474  24.129  27.660  1.00  0.00     0.029 A 
ATOM     20  N   UNL A   1      44.954  26.193  28.344  1.00  0.00    -0.354 N 
ATOM     21  C   UNL A   1      40.829  27.447  28.679  1.00  0.00     0.074 A 
ATOM     22  C   UNL A   1      39.922  26.373  28.337  1.00  0.00     0.031 C 
ATOM     23  C   UNL A   1      46.626  24.771  27.901  1.00  0.00     0.029 A 
ATOM     24  C   UNL A   1      46.326  26.137  28.308  1.00  0.00     0.049 A 
ATOM     25  H   UNL A   1      44.453  26.994  28.619  1.00  0.00     0.167 HD
ATOM     26  C   UNL A   1      40.448  28.691  29.058  1.00  0.00     0.037 A 
ATOM     27  C   UNL A   1      47.246  27.089  28.548  1.00  0.00     0.037 A 
ATOM     28  C   UNL A   1      41.359  29.747  29.421  1.00  0.00     0.049 A 
ATOM     29  C   UNL A   1      46.787  28.461  28.941  1.00  0.00     0.074 A 
ATOM     30  C   UNL A   1      41.063  31.015  29.891  1.00  0.00     0.029 A 
ATOM     31  N   UNL A   1      42.741  29.662  29.343  1.00  0.00    -0.354 N 
ATOM     32  N   UNL A   1      45.565  28.900  29.125  1.00  0.00    -0.248 NA
ATOM     33  C   UNL A   1      47.830  29.473  29.148  1.00  0.00     0.031 C 
ATOM     34  C   UNL A   1      42.263  31.715  30.050  1.00  0.00     0.029 A 
ATOM     35  C   UNL A   1      43.309  30.869  29.720  1.00  0.00     0.049 A 
ATOM     36  H   UNL A   1      43.244  28.863  29.063  1.00  0.00     0.167 HD
ATOM     37  C   UNL A   1      45.693  30.236  29.475  1.00  0.00     0.074 A 
ATOM     38  C   UNL A   1      47.112  30.528  29.508  1.00  0.00     0.031 C 
ATOM     39  C   UNL A   1      44.722  31.143  29.737  1.00  0.00     0.037 A 
BRANCH  26  40
ATOM     40  C   UNL A   1      38.980  29.002  29.095  1.00  0.00     0.057 A 
ATOM     41  C   UNL A   1      38.229  28.892  30.271  1.00  0.00     0.134 A 
ATOM     42  C   UNL A   1      38.337  29.517  27.962  1.00  0.00     0.134 A 
ATOM     43  F   UNL A   1      38.786  28.401  31.389  1.00  0.00    -0.206 F 
ATOM     44  C   UNL A   1      36.889  29.283  30.320  1.00  0.00     0.040 A 
ATOM     45  C   UNL A   1      37.003  29.929  28.003  1.00  0.00     0.040 A 
ATOM     46  F   UNL A   1      39.002  29.656  26.805  1.00  0.00    -0.206 F 
ATOM     47  C   UNL A   1      36.276  29.812  29.186  1.00  0.00     0.006 A 
ENDBRANCH  26  40
BRANCH  27  48
ATOM     48  C   UNL A   1      48.689  26.785  28.381  1.00  0.00     0.057 A 
ATOM     49  C   UNL A   1      49.330  26.948  27.150  1.00  0.00     0.134 A 
ATOM     50  C   UNL A   1      49.458  26.314  29.454  1.00  0.00     0.134 A 
ATOM     51  F   UNL A   1      48.642  27.378  26.082  1.00  0.00    -0.206 F 
ATOM     52  C   UNL A   1      50.679  26.635  26.983  1.00  0.00     0.040 A 
ATOM     53  C   UNL A   1      50.814  26.025  29.309  1.00  0.00     0.040 A 
ATOM     54  F   UNL A   1      48.902  26.143  30.663  1.00  0.00    -0.206 F 
ATOM     55  C   UNL A   1      51.427  26.177  28.067  1.00  0.00     0.006 A 
ENDBRANCH  27  48
BRANCH  39  56
ATOM     56  C   UNL A   1      45.169  32.532  30.081  1.00  0.00     0.057 A 
ATOM     57  C   UNL A   1      45.300  33.523  29.100  1.00  0.00     0.134 A 
ATOM     58  C   UNL A   1      45.456  32.886  31.405  1.00  0.00     0.134 A 
ATOM     59  F   UNL A   1      45.058  33.240  27.811  1.00  0.00    -0.206 F 
ATOM     60  C   UNL A   1      45.721  34.813  29.421  1.00  0.00     0.040 A 
ATOM     61  C   UNL A   1      45.853  34.180  31.741  1.00  0.00     0.040 A 
ATOM     62  F   UNL A   1      45.345  31.984  32.391  1.00  0.00    -0.206 F 
ATOM     63  C   UNL A   1      45.994  35.146  30.747  1.00  0.00     0.006 A 
ENDBRANCH  39  56
ENDBRANCH  13  14
ENDBRANCH   6   8
ENDBRANCH   3   4
ENDBRANCH   2   3
ENDBRANCH   1   2
BRANCH   1  64
ATOM     64  C   UNL A   1      36.536  21.534  25.627  1.00  0.00     0.116 C 
BRANCH  64  65
ATOM     65  N   UNL A   1      35.436  21.581  26.575  1.00  0.00    -0.351 N 
ATOM     66  C   UNL A   1      34.127  21.952  26.356  1.00  0.00     0.269 C 
ATOM     67  H   UNL A   1      35.655  21.314  27.496  1.00  0.00     0.163 HD
ATOM     68  O   UNL A   1      33.326  21.938  27.288  1.00  0.00    -0.268 OA
BRANCH  66  69
ATOM     69  C   UNL A   1      33.704  22.368  24.991  1.00  0.00     0.129 A 
ATOM     70  C   UNL A   1      33.922  23.674  24.564  1.00  0.00     0.049 A 
ATOM     71  N   UNL A   1      33.062  21.421  24.263  1.00  0.00    -0.251 NA
ATOM     72  C   UNL A   1      33.381  24.054  23.344  1.00  0.00     0.012 A 
ATOM     73  C   UNL A   1      32.608  21.798  23.057  1.00  0.00     0.113 A 
ATOM     74  C   UNL A   1      32.731  23.087  22.569  1.00  0.00     0.035 A 
BRANCH  72  75
ATOM     75  S   UNL A   1      33.451  25.690  22.652  1.00  0.00    -0.116 SA
BRANCH  75  76
ATOM     76  C   UNL A   1      33.644  26.825  24.048  1.00  0.00     0.175 C 
BRANCH  76  77
ATOM     77  C   UNL A   1      32.783  28.076  24.133  1.00  0.00     0.233 C 
ATOM     78  O   UNL A   1      33.322  29.170  23.921  1.00  0.00    -0.274 OA
ATOM     79  N   UNL A   1      31.409  27.988  24.219  1.00  0.00    -0.337 N 
ATOM     80  C   UNL A   1      30.623  26.981  24.932  1.00  0.00     0.148 C 
ATOM     81  C   UNL A   1      30.578  29.045  23.627  1.00  0.00     0.148 C 
ATOM     82  C   UNL A   1      29.521  26.418  24.035  1.00  0.00     0.181 C 
ATOM     83  C   UNL A   1      29.491  28.407  22.748  1.00  0.00     0.181 C 
ATOM     84  O   UNL A   1      28.703  27.469  23.501  1.00  0.00    -0.378 OA
ENDBRANCH  76  77
ENDBRANCH  75  76
ENDBRANCH  72  75
ENDBRANCH  66  69
ENDBRANCH  64  65
ENDBRANCH   1  64
TORSDOF 14
ENDMDL
