MODEL 1
REMARK VINA RESULT:     -11.3      0.000      0.000
REMARK SMILES Cc1csc(CNC(=O)NC[C@H]2CC[C@@H](C(=O)NCCCCNC(=O)c3ccc(-c4c5nc(c(-c6c(F)cccc6F)c6ccc([nH]6)c(-c6c(F)cccc6F)c6nc(c(-c7c(F)cccc7F)c7ccc4[nH]7)C=C6)C=C5)cc3)CC2)n1
REMARK SMILES IDX 19 1 18 2 16 3 17 4 15 6 12 7 13 8 81 9 14 10 80 11 11 12
REMARK SMILES IDX 10 13 7 14 8 15 9 17 6 19 5 20 1 21 2 22 3 23 82 24 4 25
REMARK SMILES IDX 20 26 21 27 22 28 23 29 24 30 25 32 26 33 27 34 79 35 28 36
REMARK SMILES IDX 78 37 29 38 30 39 31 40 72 41 32 42 77 43 71 44 73 45 33 46
REMARK SMILES IDX 76 47 70 48 69 49 34 51 60 52 43 53 59 54 44 55 47 56 58 57
REMARK SMILES IDX 74 58 45 59 46 60 57 62 75 63 48 64 35 65 36 66 41 67 37 68
REMARK SMILES IDX 38 69 40 70 42 71 39 72 61 73 62 74 67 75 63 76 64 77 66 78
REMARK SMILES IDX 68 79 65 80 49 81 50 82 55 83 51 84 52 85 54 86 56 87 53 88
REMARK H PARENT 18 5 7 16 10 18 23 31 73 50 47 61
REMARK Flexibility Score: inf
ROOT
ATOM      1  C   UNL A   1      37.426  23.684  25.771  1.00  0.00     0.116 C 
ENDROOT
BRANCH   1   2
ATOM      2  N   UNL A   1      36.950  23.499  24.421  1.00  0.00    -0.356 N 
ATOM      3  C   UNL A   1      35.735  23.193  23.907  1.00  0.00     0.223 C 
ATOM      4  O   UNL A   1      35.638  23.302  22.677  1.00  0.00    -0.275 OA
ATOM      5  H   UNL A   1      37.647  23.620  23.738  1.00  0.00     0.163 HD
BRANCH   3   6
ATOM      6  C   UNL A   1      34.514  22.708  24.708  1.00  0.00     0.078 C 
ATOM      7  C   UNL A   1      31.705  23.712  24.212  1.00  0.00     0.008 C 
ATOM      8  C   UNL A   1      32.273  22.526  23.407  1.00  0.00     0.006 C 
ATOM      9  C   UNL A   1      32.719  24.513  25.041  1.00  0.00     0.006 C 
ATOM     10  C   UNL A   1      33.494  21.829  23.992  1.00  0.00     0.014 C 
ATOM     11  C   UNL A   1      33.876  23.734  25.635  1.00  0.00     0.014 C 
BRANCH   7  12
ATOM     12  C   UNL A   1      30.955  24.683  23.270  1.00  0.00     0.121 C 
BRANCH  12  13
ATOM     13  N   UNL A   1      31.590  24.785  21.975  1.00  0.00    -0.338 N 
ATOM     14  N   UNL A   1      32.440  26.980  21.876  1.00  0.00    -0.332 N 
ATOM     15  C   UNL A   1      32.426  25.707  21.478  1.00  0.00     0.315 C 
ATOM     16  H   UNL A   1      33.267  27.453  21.630  1.00  0.00     0.165 HD
ATOM     17  O   UNL A   1      33.210  25.356  20.595  1.00  0.00    -0.249 OA
ATOM     18  H   UNL A   1      31.372  24.053  21.354  1.00  0.00     0.165 HD
BRANCH  14  19
ATOM     19  C   UNL A   1      31.497  27.817  22.596  1.00  0.00     0.185 C 
BRANCH  19  20
ATOM     20  C   UNL A   1      32.033  28.127  23.966  1.00  0.00     0.112 A 
ATOM     21  C   UNL A   1      31.563  28.228  27.539  1.00  0.00     0.067 C 
ATOM     22  C   UNL A   1      32.156  28.304  26.179  1.00  0.00     0.049 A 
ATOM     23  C   UNL A   1      33.486  28.507  25.869  1.00  0.00     0.090 A 
ATOM     24  N   UNL A   1      31.328  28.142  25.079  1.00  0.00    -0.245 NA
ATOM     25  S   UNL A   1      33.712  28.458  24.172  1.00  0.00    -0.125 S 
ENDBRANCH  19  20
ENDBRANCH  14  19
ENDBRANCH  12  13
ENDBRANCH   7  12
ENDBRANCH   3   6
ENDBRANCH   1   2
BRANCH   1  26
ATOM     26  C   UNL A   1      38.741  22.957  26.063  1.00  0.00     0.023 C 
BRANCH  26  27
ATOM     27  C   UNL A   1      38.842  21.552  25.487  1.00  0.00     0.023 C 
BRANCH  27  28
ATOM     28  C   UNL A   1      39.308  20.477  26.464  1.00  0.00     0.116 C 
BRANCH  28  29
ATOM     29  N   UNL A   1      40.284  19.531  25.941  1.00  0.00    -0.352 N 
ATOM     30  C   UNL A   1      41.659  19.645  25.988  1.00  0.00     0.251 C 
ATOM     31  H   UNL A   1      39.925  18.721  25.508  1.00  0.00     0.163 HD
ATOM     32  O   UNL A   1      42.398  18.780  25.541  1.00  0.00    -0.269 OA
BRANCH  30  33
ATOM     33  C   UNL A   1      42.237  20.890  26.524  1.00  0.00     0.039 A 
ATOM     34  C   UNL A   1      42.662  21.867  25.621  1.00  0.00     0.014 A 
ATOM     35  C   UNL A   1      42.233  21.134  27.898  1.00  0.00     0.014 A 
ATOM     36  C   UNL A   1      42.989  23.137  26.093  1.00  0.00     0.010 A 
ATOM     37  C   UNL A   1      42.486  22.420  28.358  1.00  0.00     0.010 A 
ATOM     38  C   UNL A   1      42.848  23.436  27.458  1.00  0.00    -0.014 A 
BRANCH  38  39
ATOM     39  C   UNL A   1      43.062  24.810  27.971  1.00  0.00     0.031 A 
ATOM     40  C   UNL A   1      44.440  25.241  28.384  1.00  0.00     0.074 A 
ATOM     41  C   UNL A   1      42.011  25.636  28.137  1.00  0.00     0.049 A 
ATOM     42  N   UNL A   1      44.816  26.344  28.977  1.00  0.00    -0.248 NA
ATOM     43  C   UNL A   1      45.532  24.290  28.125  1.00  0.00     0.031 C 
ATOM     44  C   UNL A   1      40.617  25.317  27.813  1.00  0.00     0.029 A 
ATOM     45  N   UNL A   1      41.950  26.914  28.632  1.00  0.00    -0.354 N 
ATOM     46  C   UNL A   1      46.183  26.211  29.177  1.00  0.00     0.074 A 
ATOM     47  C   UNL A   1      46.562  24.904  28.688  1.00  0.00     0.031 C 
ATOM     48  C   UNL A   1      39.845  26.378  28.099  1.00  0.00     0.029 A 
ATOM     49  C   UNL A   1      40.680  27.437  28.658  1.00  0.00     0.049 A 
ATOM     50  H   UNL A   1      42.743  27.410  28.941  1.00  0.00     0.167 HD
ATOM     51  C   UNL A   1      47.050  27.109  29.702  1.00  0.00     0.037 A 
ATOM     52  C   UNL A   1      40.241  28.634  29.090  1.00  0.00     0.037 A 
ATOM     53  C   UNL A   1      46.680  28.421  30.156  1.00  0.00     0.049 A 
ATOM     54  C   UNL A   1      41.230  29.620  29.647  1.00  0.00     0.074 A 
ATOM     55  C   UNL A   1      47.488  29.412  30.686  1.00  0.00     0.029 A 
ATOM     56  N   UNL A   1      45.392  28.931  30.117  1.00  0.00    -0.354 N 
ATOM     57  N   UNL A   1      42.524  29.490  29.809  1.00  0.00    -0.248 NA
ATOM     58  C   UNL A   1      40.698  30.921  30.078  1.00  0.00     0.031 C 
ATOM     59  C   UNL A   1      46.686  30.520  30.978  1.00  0.00     0.029 A 
ATOM     60  C   UNL A   1      45.383  30.226  30.605  1.00  0.00     0.049 A 
ATOM     61  H   UNL A   1      44.600  28.445  29.790  1.00  0.00     0.167 HD
ATOM     62  C   UNL A   1      42.964  30.698  30.333  1.00  0.00     0.074 A 
ATOM     63  C   UNL A   1      41.802  31.553  30.452  1.00  0.00     0.031 C 
ATOM     64  C   UNL A   1      44.218  31.066  30.688  1.00  0.00     0.037 A 
BRANCH  51  65
ATOM     65  C   UNL A   1      48.488  26.700  29.789  1.00  0.00     0.057 A 
ATOM     66  C   UNL A   1      48.994  26.047  30.921  1.00  0.00     0.134 A 
ATOM     67  C   UNL A   1      49.371  26.941  28.729  1.00  0.00     0.134 A 
ATOM     68  F   UNL A   1      48.203  25.806  31.976  1.00  0.00    -0.206 F 
ATOM     69  C   UNL A   1      50.334  25.664  31.002  1.00  0.00     0.040 A 
ATOM     70  C   UNL A   1      50.707  26.541  28.790  1.00  0.00     0.040 A 
ATOM     71  F   UNL A   1      48.947  27.562  27.617  1.00  0.00    -0.206 F 
ATOM     72  C   UNL A   1      51.192  25.906  29.932  1.00  0.00     0.006 A 
ENDBRANCH  51  65
BRANCH  52  73
ATOM     73  C   UNL A   1      38.803  28.986  28.995  1.00  0.00     0.057 A 
ATOM     74  C   UNL A   1      38.256  29.454  27.795  1.00  0.00     0.134 A 
ATOM     75  C   UNL A   1      37.952  28.901  30.102  1.00  0.00     0.134 A 
ATOM     76  F   UNL A   1      39.028  29.576  26.705  1.00  0.00    -0.206 F 
ATOM     77  C   UNL A   1      36.921  29.848  27.703  1.00  0.00     0.040 A 
ATOM     78  C   UNL A   1      36.609  29.272  30.020  1.00  0.00     0.040 A 
ATOM     79  F   UNL A   1      38.414  28.454  31.280  1.00  0.00    -0.206 F 
ATOM     80  C   UNL A   1      36.092  29.756  28.820  1.00  0.00     0.006 A 
ENDBRANCH  52  73
BRANCH  64  81
ATOM     81  C   UNL A   1      44.402  32.464  31.191  1.00  0.00     0.057 A 
ATOM     82  C   UNL A   1      44.659  33.530  30.321  1.00  0.00     0.134 A 
ATOM     83  C   UNL A   1      44.282  32.750  32.556  1.00  0.00     0.134 A 
ATOM     84  F   UNL A   1      44.799  33.315  29.004  1.00  0.00    -0.206 F 
ATOM     85  C   UNL A   1      44.807  34.835  30.796  1.00  0.00     0.040 A 
ATOM     86  C   UNL A   1      44.407  34.052  33.040  1.00  0.00     0.040 A 
ATOM     87  F   UNL A   1      44.030  31.770  33.437  1.00  0.00    -0.206 F 
ATOM     88  C   UNL A   1      44.675  35.099  32.158  1.00  0.00     0.006 A 
ENDBRANCH  64  81
ENDBRANCH  38  39
ENDBRANCH  30  33
ENDBRANCH  28  29
ENDBRANCH  27  28
ENDBRANCH  26  27
ENDBRANCH   1  26
TORSDOF 15
ENDMDL
MODEL 2
REMARK VINA RESULT:     -11.3      5.207     10.091
REMARK SMILES Cc1csc(CNC(=O)NC[C@H]2CC[C@@H](C(=O)NCCCCNC(=O)c3ccc(-c4c5nc(c(-c6c(F)cccc6F)c6ccc([nH]6)c(-c6c(F)cccc6F)c6nc(c(-c7c(F)cccc7F)c7ccc4[nH]7)C=C6)C=C5)cc3)CC2)n1
REMARK SMILES IDX 19 1 18 2 16 3 17 4 15 6 12 7 13 8 81 9 14 10 80 11 11 12
REMARK SMILES IDX 10 13 7 14 8 15 9 17 6 19 5 20 1 21 2 22 3 23 82 24 4 25
REMARK SMILES IDX 20 26 21 27 22 28 23 29 24 30 25 32 26 33 27 34 79 35 28 36
REMARK SMILES IDX 78 37 29 38 30 39 31 40 72 41 32 42 77 43 71 44 73 45 33 46
REMARK SMILES IDX 76 47 70 48 69 49 34 51 60 52 43 53 59 54 44 55 47 56 58 57
REMARK SMILES IDX 74 58 45 59 46 60 57 62 75 63 48 64 35 65 36 66 41 67 37 68
REMARK SMILES IDX 38 69 40 70 42 71 39 72 61 73 62 74 67 75 63 76 64 77 66 78
REMARK SMILES IDX 68 79 65 80 49 81 50 82 55 83 51 84 52 85 54 86 56 87 53 88
REMARK H PARENT 18 5 7 16 10 18 23 31 73 50 47 61
REMARK Flexibility Score: inf
ROOT
ATOM      1  C   UNL A   1      34.253  32.061  28.821  1.00  0.00     0.116 C 
ENDROOT
BRANCH   1   2
ATOM      2  N   UNL A   1      34.682  30.883  28.105  1.00  0.00    -0.356 N 
ATOM      3  C   UNL A   1      34.019  29.968  27.357  1.00  0.00     0.223 C 
ATOM      4  O   UNL A   1      34.738  29.182  26.724  1.00  0.00    -0.275 OA
ATOM      5  H   UNL A   1      35.648  30.710  28.174  1.00  0.00     0.163 HD
BRANCH   3   6
ATOM      6  C   UNL A   1      32.492  29.819  27.261  1.00  0.00     0.078 C 
ATOM      7  C   UNL A   1      31.118  28.207  25.102  1.00  0.00     0.008 C 
ATOM      8  C   UNL A   1      31.602  27.534  26.403  1.00  0.00     0.006 C 
ATOM      9  C   UNL A   1      31.624  29.634  24.852  1.00  0.00     0.006 C 
ATOM     10  C   UNL A   1      31.887  28.456  27.581  1.00  0.00     0.014 C 
ATOM     11  C   UNL A   1      31.829  30.506  26.075  1.00  0.00     0.014 C 
BRANCH   7  12
ATOM     12  C   UNL A   1      31.483  27.328  23.883  1.00  0.00     0.121 C 
BRANCH  12  13
ATOM     13  N   UNL A   1      32.772  27.674  23.328  1.00  0.00    -0.338 N 
ATOM     14  N   UNL A   1      33.164  26.080  21.637  1.00  0.00    -0.332 N 
ATOM     15  C   UNL A   1      33.382  27.267  22.207  1.00  0.00     0.315 C 
ATOM     16  H   UNL A   1      33.464  26.039  20.701  1.00  0.00     0.165 HD
ATOM     17  O   UNL A   1      34.200  28.028  21.687  1.00  0.00    -0.249 OA
ATOM     18  H   UNL A   1      33.288  28.317  23.864  1.00  0.00     0.165 HD
BRANCH  14  19
ATOM     19  C   UNL A   1      32.578  24.836  22.103  1.00  0.00     0.185 C 
BRANCH  19  20
ATOM     20  C   UNL A   1      33.550  24.118  22.998  1.00  0.00     0.112 A 
ATOM     21  C   UNL A   1      36.774  22.581  23.489  1.00  0.00     0.067 C 
ATOM     22  C   UNL A   1      35.411  23.131  23.708  1.00  0.00     0.049 A 
ATOM     23  C   UNL A   1      34.769  23.286  24.921  1.00  0.00     0.090 A 
ATOM     24  N   UNL A   1      34.680  23.562  22.612  1.00  0.00    -0.245 NA
ATOM     25  S   UNL A   1      33.238  24.018  24.691  1.00  0.00    -0.125 S 
ENDBRANCH  19  20
ENDBRANCH  14  19
ENDBRANCH  12  13
ENDBRANCH   7  12
ENDBRANCH   3   6
ENDBRANCH   1   2
BRANCH   1  26
ATOM     26  C   UNL A   1      34.197  33.319  27.952  1.00  0.00     0.023 C 
BRANCH  26  27
ATOM     27  C   UNL A   1      33.225  34.389  28.429  1.00  0.00     0.023 C 
BRANCH  27  28
ATOM     28  C   UNL A   1      33.722  35.256  29.581  1.00  0.00     0.116 C 
BRANCH  28  29
ATOM     29  N   UNL A   1      32.692  35.763  30.478  1.00  0.00    -0.352 N 
ATOM     30  C   UNL A   1      32.723  35.773  31.858  1.00  0.00     0.251 C 
ATOM     31  H   UNL A   1      31.885  36.139  30.054  1.00  0.00     0.163 HD
ATOM     32  O   UNL A   1      31.814  36.245  32.525  1.00  0.00    -0.269 OA
BRANCH  30  33
ATOM     33  C   UNL A   1      33.857  35.118  32.534  1.00  0.00     0.039 A 
ATOM     34  C   UNL A   1      33.678  33.824  33.029  1.00  0.00     0.014 A 
ATOM     35  C   UNL A   1      35.112  35.728  32.555  1.00  0.00     0.014 A 
ATOM     36  C   UNL A   1      34.787  33.097  33.456  1.00  0.00     0.010 A 
ATOM     37  C   UNL A   1      36.225  34.975  32.910  1.00  0.00     0.010 A 
ATOM     38  C   UNL A   1      36.073  33.649  33.345  1.00  0.00    -0.014 A 
BRANCH  38  39
ATOM     39  C   UNL A   1      37.282  32.854  33.669  1.00  0.00     0.031 A 
ATOM     40  C   UNL A   1      38.021  33.116  34.949  1.00  0.00     0.074 A 
ATOM     41  C   UNL A   1      37.754  31.959  32.779  1.00  0.00     0.049 A 
ATOM     42  N   UNL A   1      39.165  32.629  35.356  1.00  0.00    -0.248 NA
ATOM     43  C   UNL A   1      37.408  34.078  35.878  1.00  0.00     0.031 C 
ATOM     44  C   UNL A   1      37.149  31.646  31.482  1.00  0.00     0.029 A 
ATOM     45  N   UNL A   1      38.863  31.152  32.828  1.00  0.00    -0.354 N 
ATOM     46  C   UNL A   1      39.416  33.239  36.577  1.00  0.00     0.074 A 
ATOM     47  C   UNL A   1      38.332  34.165  36.823  1.00  0.00     0.031 C 
ATOM     48  C   UNL A   1      37.882  30.702  30.870  1.00  0.00     0.029 A 
ATOM     49  C   UNL A   1      39.026  30.369  31.712  1.00  0.00     0.049 A 
ATOM     50  H   UNL A   1      39.485  31.138  33.592  1.00  0.00     0.167 HD
ATOM     51  C   UNL A   1      40.446  33.028  37.430  1.00  0.00     0.037 A 
ATOM     52  C   UNL A   1      39.995  29.485  31.404  1.00  0.00     0.037 A 
ATOM     53  C   UNL A   1      41.504  32.083  37.202  1.00  0.00     0.049 A 
ATOM     54  C   UNL A   1      41.114  29.255  32.379  1.00  0.00     0.074 A 
ATOM     55  C   UNL A   1      42.584  31.781  38.014  1.00  0.00     0.029 A 
ATOM     56  N   UNL A   1      41.605  31.271  36.083  1.00  0.00    -0.354 N 
ATOM     57  N   UNL A   1      41.327  29.822  33.542  1.00  0.00    -0.248 NA
ATOM     58  C   UNL A   1      42.129  28.260  32.002  1.00  0.00     0.031 C 
ATOM     59  C   UNL A   1      43.345  30.793  37.380  1.00  0.00     0.029 A 
ATOM     60  C   UNL A   1      42.723  30.463  36.186  1.00  0.00     0.049 A 
ATOM     61  H   UNL A   1      40.974  31.269  35.327  1.00  0.00     0.167 HD
ATOM     62  C   UNL A   1      42.479  29.234  34.047  1.00  0.00     0.074 A 
ATOM     63  C   UNL A   1      42.915  28.258  33.069  1.00  0.00     0.031 C 
ATOM     64  C   UNL A   1      43.121  29.481  35.212  1.00  0.00     0.037 A 
BRANCH  51  65
ATOM     65  C   UNL A   1      40.459  33.825  38.697  1.00  0.00     0.057 A 
ATOM     66  C   UNL A   1      39.752  33.404  39.831  1.00  0.00     0.134 A 
ATOM     67  C   UNL A   1      41.197  35.011  38.795  1.00  0.00     0.134 A 
ATOM     68  F   UNL A   1      39.011  32.287  39.793  1.00  0.00    -0.206 F 
ATOM     69  C   UNL A   1      39.764  34.145  41.014  1.00  0.00     0.040 A 
ATOM     70  C   UNL A   1      41.235  35.748  39.980  1.00  0.00     0.040 A 
ATOM     71  F   UNL A   1      41.896  35.468  37.744  1.00  0.00    -0.206 F 
ATOM     72  C   UNL A   1      40.513  35.318  41.091  1.00  0.00     0.006 A 
ENDBRANCH  51  65
BRANCH  52  73
ATOM     73  C   UNL A   1      39.944  28.730  30.128  1.00  0.00     0.057 A 
ATOM     74  C   UNL A   1      40.556  29.231  28.973  1.00  0.00     0.134 A 
ATOM     75  C   UNL A   1      39.257  27.516  30.019  1.00  0.00     0.134 A 
ATOM     76  F   UNL A   1      41.212  30.401  29.010  1.00  0.00    -0.206 F 
ATOM     77  C   UNL A   1      40.466  28.566  27.749  1.00  0.00     0.040 A 
ATOM     78  C   UNL A   1      39.177  26.829  28.807  1.00  0.00     0.040 A 
ATOM     79  F   UNL A   1      38.655  26.981  31.092  1.00  0.00    -0.206 F 
ATOM     80  C   UNL A   1      39.775  27.359  27.665  1.00  0.00     0.006 A 
ENDBRANCH  52  73
BRANCH  64  81
ATOM     81  C   UNL A   1      44.332  28.653  35.514  1.00  0.00     0.057 A 
ATOM     82  C   UNL A   1      44.241  27.449  36.222  1.00  0.00     0.134 A 
ATOM     83  C   UNL A   1      45.594  29.046  35.056  1.00  0.00     0.134 A 
ATOM     84  F   UNL A   1      43.059  27.027  36.699  1.00  0.00    -0.206 F 
ATOM     85  C   UNL A   1      45.371  26.671  36.479  1.00  0.00     0.040 A 
ATOM     86  C   UNL A   1      46.727  28.268  35.289  1.00  0.00     0.040 A 
ATOM     87  F   UNL A   1      45.743  30.187  34.366  1.00  0.00    -0.206 F 
ATOM     88  C   UNL A   1      46.618  27.078  36.007  1.00  0.00     0.006 A 
ENDBRANCH  64  81
ENDBRANCH  38  39
ENDBRANCH  30  33
ENDBRANCH  28  29
ENDBRANCH  27  28
ENDBRANCH  26  27
ENDBRANCH   1  26
TORSDOF 15
ENDMDL
MODEL 3
REMARK VINA RESULT:     -11.2      4.473      9.498
REMARK SMILES Cc1csc(CNC(=O)NC[C@H]2CC[C@@H](C(=O)NCCCCNC(=O)c3ccc(-c4c5nc(c(-c6c(F)cccc6F)c6ccc([nH]6)c(-c6c(F)cccc6F)c6nc(c(-c7c(F)cccc7F)c7ccc4[nH]7)C=C6)C=C5)cc3)CC2)n1
REMARK SMILES IDX 19 1 18 2 16 3 17 4 15 6 12 7 13 8 81 9 14 10 80 11 11 12
REMARK SMILES IDX 10 13 7 14 8 15 9 17 6 19 5 20 1 21 2 22 3 23 82 24 4 25
REMARK SMILES IDX 20 26 21 27 22 28 23 29 24 30 25 32 26 33 27 34 79 35 28 36
REMARK SMILES IDX 78 37 29 38 30 39 31 40 72 41 32 42 77 43 71 44 73 45 33 46
REMARK SMILES IDX 76 47 70 48 69 49 34 51 60 52 43 53 59 54 44 55 47 56 58 57
REMARK SMILES IDX 74 58 45 59 46 60 57 62 75 63 48 64 35 65 36 66 41 67 37 68
REMARK SMILES IDX 38 69 40 70 42 71 39 72 61 73 62 74 67 75 63 76 64 77 66 78
REMARK SMILES IDX 68 79 65 80 49 81 50 82 55 83 51 84 52 85 54 86 56 87 53 88
REMARK H PARENT 18 5 7 16 10 18 23 31 73 50 47 61
REMARK Flexibility Score: inf
ROOT
ATOM      1  C   UNL A   1      31.441  29.280  25.241  1.00  0.00     0.116 C 
ENDROOT
BRANCH   1   2
ATOM      2  N   UNL A   1      30.703  30.090  24.302  1.00  0.00    -0.356 N 
ATOM      3  C   UNL A   1      29.840  29.786  23.303  1.00  0.00     0.223 C 
ATOM      4  O   UNL A   1      29.236  30.751  22.814  1.00  0.00    -0.275 OA
ATOM      5  H   UNL A   1      30.857  31.056  24.408  1.00  0.00     0.163 HD
BRANCH   3   6
ATOM      6  C   UNL A   1      29.584  28.381  22.731  1.00  0.00     0.078 C 
ATOM      7  C   UNL A   1      30.215  25.839  24.243  1.00  0.00     0.008 C 
ATOM      8  C   UNL A   1      28.861  26.553  24.430  1.00  0.00     0.006 C 
ATOM      9  C   UNL A   1      31.298  26.630  23.496  1.00  0.00     0.006 C 
ATOM     10  C   UNL A   1      28.464  27.553  23.351  1.00  0.00     0.014 C 
ATOM     11  C   UNL A   1      30.823  27.562  22.399  1.00  0.00     0.014 C 
BRANCH   7  12
ATOM     12  C   UNL A   1      30.776  25.399  25.615  1.00  0.00     0.121 C 
BRANCH  12  13
ATOM     13  N   UNL A   1      29.961  24.380  26.237  1.00  0.00    -0.338 N 
ATOM     14  N   UNL A   1      31.410  22.553  26.578  1.00  0.00    -0.332 N 
ATOM     15  C   UNL A   1      30.301  23.241  26.856  1.00  0.00     0.315 C 
ATOM     16  H   UNL A   1      31.654  21.913  27.284  1.00  0.00     0.165 HD
ATOM     17  O   UNL A   1      29.535  22.803  27.716  1.00  0.00    -0.249 OA
ATOM     18  H   UNL A   1      28.993  24.552  26.200  1.00  0.00     0.165 HD
BRANCH  14  19
ATOM     19  C   UNL A   1      32.333  22.549  25.458  1.00  0.00     0.185 C 
BRANCH  19  20
ATOM     20  C   UNL A   1      32.868  21.160  25.244  1.00  0.00     0.112 A 
ATOM     21  C   UNL A   1      32.271  17.655  24.645  1.00  0.00     0.067 C 
ATOM     22  C   UNL A   1      32.927  18.974  24.843  1.00  0.00     0.049 A 
ATOM     23  C   UNL A   1      34.265  19.264  24.669  1.00  0.00     0.090 A 
ATOM     24  N   UNL A   1      32.149  20.056  25.224  1.00  0.00    -0.245 NA
ATOM     25  S   UNL A   1      34.551  20.929  24.950  1.00  0.00    -0.125 S 
ENDBRANCH  19  20
ENDBRANCH  14  19
ENDBRANCH  12  13
ENDBRANCH   7  12
ENDBRANCH   3   6
ENDBRANCH   1   2
BRANCH   1  26
ATOM     26  C   UNL A   1      32.396  30.084  26.126  1.00  0.00     0.023 C 
BRANCH  26  27
ATOM     27  C   UNL A   1      31.895  31.465  26.527  1.00  0.00     0.023 C 
BRANCH  27  28
ATOM     28  C   UNL A   1      32.914  32.349  27.240  1.00  0.00     0.116 C 
BRANCH  28  29
ATOM     29  N   UNL A   1      32.465  33.697  27.559  1.00  0.00    -0.352 N 
ATOM     30  C   UNL A   1      33.061  34.587  28.430  1.00  0.00     0.251 C 
ATOM     31  H   UNL A   1      31.647  34.008  27.105  1.00  0.00     0.163 HD
ATOM     32  O   UNL A   1      32.620  35.711  28.613  1.00  0.00    -0.269 OA
BRANCH  30  33
ATOM     33  C   UNL A   1      34.219  34.124  29.215  1.00  0.00     0.039 A 
ATOM     34  C   UNL A   1      33.983  33.353  30.356  1.00  0.00     0.014 A 
ATOM     35  C   UNL A   1      35.518  34.339  28.750  1.00  0.00     0.014 A 
ATOM     36  C   UNL A   1      35.050  32.708  30.977  1.00  0.00     0.010 A 
ATOM     37  C   UNL A   1      36.568  33.635  29.325  1.00  0.00     0.010 A 
ATOM     38  C   UNL A   1      36.341  32.801  30.431  1.00  0.00    -0.014 A 
BRANCH  38  39
ATOM     39  C   UNL A   1      37.471  32.024  30.993  1.00  0.00     0.031 A 
ATOM     40  C   UNL A   1      37.974  32.337  32.372  1.00  0.00     0.074 A 
ATOM     41  C   UNL A   1      38.090  31.097  30.235  1.00  0.00     0.049 A 
ATOM     42  N   UNL A   1      39.027  31.870  32.992  1.00  0.00    -0.248 NA
ATOM     43  C   UNL A   1      37.210  33.331  33.141  1.00  0.00     0.031 C 
ATOM     44  C   UNL A   1      37.721  30.733  28.864  1.00  0.00     0.029 A 
ATOM     45  N   UNL A   1      39.171  30.297  30.509  1.00  0.00    -0.354 N 
ATOM     46  C   UNL A   1      39.061  32.527  34.214  1.00  0.00     0.074 A 
ATOM     47  C   UNL A   1      37.953  33.458  34.230  1.00  0.00     0.031 C 
ATOM     48  C   UNL A   1      38.549  29.769  28.427  1.00  0.00     0.029 A 
ATOM     49  C   UNL A   1      39.526  29.472  29.470  1.00  0.00     0.049 A 
ATOM     50  H   UNL A   1      39.648  30.314  31.370  1.00  0.00     0.167 HD
ATOM     51  C   UNL A   1      39.924  32.354  35.242  1.00  0.00     0.037 A 
ATOM     52  C   UNL A   1      40.531  28.582  29.371  1.00  0.00     0.037 A 
ATOM     53  C   UNL A   1      41.003  31.405  35.240  1.00  0.00     0.049 A 
ATOM     54  C   UNL A   1      41.461  28.394  30.536  1.00  0.00     0.074 A 
ATOM     55  C   UNL A   1      41.922  31.138  36.240  1.00  0.00     0.029 A 
ATOM     56  N   UNL A   1      41.297  30.551  34.188  1.00  0.00    -0.354 N 
ATOM     57  N   UNL A   1      41.467  29.005  31.696  1.00  0.00    -0.248 NA
ATOM     58  C   UNL A   1      42.523  27.389  30.381  1.00  0.00     0.031 C 
ATOM     59  C   UNL A   1      42.780  30.130  35.789  1.00  0.00     0.029 A 
ATOM     60  C   UNL A   1      42.378  29.752  34.518  1.00  0.00     0.049 A 
ATOM     61  H   UNL A   1      40.809  30.518  33.334  1.00  0.00     0.167 HD
ATOM     62  C   UNL A   1      42.511  28.441  32.417  1.00  0.00     0.074 A 
ATOM     63  C   UNL A   1      43.109  27.431  31.569  1.00  0.00     0.031 C 
ATOM     64  C   UNL A   1      42.938  28.736  33.667  1.00  0.00     0.037 A 
BRANCH  51  65
ATOM     65  C   UNL A   1      39.716  33.198  36.461  1.00  0.00     0.057 A 
ATOM     66  C   UNL A   1      38.848  32.799  37.486  1.00  0.00     0.134 A 
ATOM     67  C   UNL A   1      40.400  34.409  36.623  1.00  0.00     0.134 A 
ATOM     68  F   UNL A   1      38.150  31.659  37.379  1.00  0.00    -0.206 F 
ATOM     69  C   UNL A   1      38.654  33.585  38.623  1.00  0.00     0.040 A 
ATOM     70  C   UNL A   1      40.231  35.192  37.767  1.00  0.00     0.040 A 
ATOM     71  F   UNL A   1      41.245  34.847  35.678  1.00  0.00    -0.206 F 
ATOM     72  C   UNL A   1      39.352  34.782  38.767  1.00  0.00     0.006 A 
ENDBRANCH  51  65
BRANCH  52  73
ATOM     73  C   UNL A   1      40.704  27.779  28.136  1.00  0.00     0.057 A 
ATOM     74  C   UNL A   1      40.118  26.513  28.014  1.00  0.00     0.134 A 
ATOM     75  C   UNL A   1      41.482  28.234  27.066  1.00  0.00     0.134 A 
ATOM     76  F   UNL A   1      39.377  26.015  29.015  1.00  0.00    -0.206 F 
ATOM     77  C   UNL A   1      40.321  25.717  26.886  1.00  0.00     0.040 A 
ATOM     78  C   UNL A   1      41.677  27.458  25.922  1.00  0.00     0.040 A 
ATOM     79  F   UNL A   1      42.065  29.442  27.119  1.00  0.00    -0.206 F 
ATOM     80  C   UNL A   1      41.103  26.192  25.834  1.00  0.00     0.006 A 
ENDBRANCH  52  73
BRANCH  64  81
ATOM     81  C   UNL A   1      44.074  27.924  34.208  1.00  0.00     0.057 A 
ATOM     82  C   UNL A   1      45.403  28.347  34.088  1.00  0.00     0.134 A 
ATOM     83  C   UNL A   1      43.830  26.726  34.890  1.00  0.00     0.134 A 
ATOM     84  F   UNL A   1      45.699  29.480  33.433  1.00  0.00    -0.206 F 
ATOM     85  C   UNL A   1      46.455  27.596  34.615  1.00  0.00     0.040 A 
ATOM     86  C   UNL A   1      44.871  25.977  35.438  1.00  0.00     0.040 A 
ATOM     87  F   UNL A   1      42.577  26.272  35.042  1.00  0.00    -0.206 F 
ATOM     88  C   UNL A   1      46.189  26.410  35.298  1.00  0.00     0.006 A 
ENDBRANCH  64  81
ENDBRANCH  38  39
ENDBRANCH  30  33
ENDBRANCH  28  29
ENDBRANCH  27  28
ENDBRANCH  26  27
ENDBRANCH   1  26
TORSDOF 15
ENDMDL
