MODEL 1
REMARK VINA RESULT:     -11.4      0.000      0.000
REMARK SMILES O=C(CCNC(=O)c1cc(S(=O)(=O)N2CCCCC2)cs1)NCCCCNC(=O)c1ccc(-c2c3nc(c(-c4c(F)cccc4F)c4ccc([nH]4)c(-c4c(F)cccc4F)c4nc(c(-c5c(F)cccc5F)c5ccc2[nH]5)C=C4)C=C3)cc1
REMARK SMILES IDX 23 1 22 2 1 3 2 4 3 6 4 7 5 8 6 9 7 11 8 12 9 13 21 14 10 15
REMARK SMILES IDX 20 16 11 17 12 18 13 19 14 20 15 21 19 22 16 23 18 24 17 25
REMARK SMILES IDX 24 26 25 27 26 28 27 29 28 30 29 32 30 33 31 34 83 35 32 36
REMARK SMILES IDX 82 37 33 38 34 39 35 40 76 41 36 42 81 43 75 44 77 45 37 46
REMARK SMILES IDX 80 47 74 48 73 49 38 51 64 52 47 53 63 54 48 55 51 56 62 57
REMARK SMILES IDX 78 58 49 59 50 60 61 62 79 63 52 64 39 65 40 66 45 67 41 68
REMARK SMILES IDX 42 69 44 70 46 71 43 72 65 73 66 74 71 75 67 76 68 77 70 78
REMARK SMILES IDX 72 79 69 80 53 81 54 82 59 83 55 84 56 85 58 86 60 87 57 88
REMARK H PARENT 22 5 5 10 27 31 77 50 51 61
REMARK Flexibility Score: inf
ROOT
ATOM      1  C   UNL A   1      37.060  21.796  25.557  1.00  0.00     0.116 C 
ENDROOT
BRANCH   1   2
ATOM      2  N   UNL A   1      35.842  21.919  26.331  1.00  0.00    -0.356 N 
ATOM      3  O   UNL A   1      35.215  23.976  25.512  1.00  0.00    -0.275 OA
ATOM      4  C   UNL A   1      35.020  23.018  26.249  1.00  0.00     0.221 C 
ATOM      5  H   UNL A   1      35.593  21.186  26.938  1.00  0.00     0.163 HD
BRANCH   4   6
ATOM      6  C   UNL A   1      33.801  22.916  27.129  1.00  0.00     0.121 C 
BRANCH   6   7
ATOM      7  C   UNL A   1      32.779  21.975  26.507  1.00  0.00     0.126 C 
BRANCH   7   8
ATOM      8  N   UNL A   1      31.407  22.331  26.858  1.00  0.00    -0.351 N 
ATOM      9  C   UNL A   1      30.681  23.467  26.562  1.00  0.00     0.261 C 
ATOM     10  H   UNL A   1      30.925  21.658  27.390  1.00  0.00     0.163 HD
ATOM     11  O   UNL A   1      29.685  23.683  27.249  1.00  0.00    -0.268 OA
BRANCH   9  12
ATOM     12  C   UNL A   1      31.108  24.289  25.445  1.00  0.00     0.093 A 
ATOM     13  C   UNL A   1      31.678  25.545  25.487  1.00  0.00     0.047 A 
ATOM     14  S   UNL A   1      31.016  23.714  23.837  1.00  0.00    -0.137 S 
ATOM     15  C   UNL A   1      31.903  26.101  24.199  1.00  0.00     0.094 A 
ATOM     16  C   UNL A   1      31.609  25.196  23.201  1.00  0.00     0.087 A 
BRANCH  15  17
ATOM     17  S   UNL A   1      32.465  27.723  23.900  1.00  0.00     0.243 S 
ATOM     18  O   UNL A   1      33.779  27.520  23.330  1.00  0.00    -0.207 OA
ATOM     19  O   UNL A   1      31.376  28.307  23.149  1.00  0.00    -0.207 OA
BRANCH  17  20
ATOM     20  N   UNL A   1      32.624  28.579  25.379  1.00  0.00    -0.198 NA
ATOM     21  C   UNL A   1      33.986  28.547  25.969  1.00  0.00     0.102 C 
ATOM     22  C   UNL A   1      31.854  29.847  25.456  1.00  0.00     0.102 C 
ATOM     23  C   UNL A   1      34.071  29.283  27.297  1.00  0.00     0.017 C 
ATOM     24  C   UNL A   1      32.020  30.563  26.789  1.00  0.00     0.017 C 
ATOM     25  C   UNL A   1      33.482  30.680  27.189  1.00  0.00     0.003 C 
ENDBRANCH  17  20
ENDBRANCH  15  17
ENDBRANCH   9  12
ENDBRANCH   7   8
ENDBRANCH   6   7
ENDBRANCH   4   6
ENDBRANCH   1   2
BRANCH   1  26
ATOM     26  C   UNL A   1      37.008  20.588  24.626  1.00  0.00     0.023 C 
BRANCH  26  27
ATOM     27  C   UNL A   1      38.096  19.538  24.869  1.00  0.00     0.023 C 
BRANCH  27  28
ATOM     28  C   UNL A   1      39.209  19.959  25.823  1.00  0.00     0.116 C 
BRANCH  28  29
ATOM     29  N   UNL A   1      40.285  18.984  25.888  1.00  0.00    -0.352 N 
ATOM     30  C   UNL A   1      41.633  19.182  26.071  1.00  0.00     0.251 C 
ATOM     31  H   UNL A   1      40.008  18.046  25.786  1.00  0.00     0.163 HD
ATOM     32  O   UNL A   1      42.413  18.245  25.927  1.00  0.00    -0.269 OA
BRANCH  30  33
ATOM     33  C   UNL A   1      42.152  20.525  26.413  1.00  0.00     0.039 A 
ATOM     34  C   UNL A   1      42.525  21.386  25.376  1.00  0.00     0.014 A 
ATOM     35  C   UNL A   1      42.279  20.936  27.742  1.00  0.00     0.014 A 
ATOM     36  C   UNL A   1      42.961  22.680  25.670  1.00  0.00     0.010 A 
ATOM     37  C   UNL A   1      42.641  22.251  28.030  1.00  0.00     0.010 A 
ATOM     38  C   UNL A   1      42.986  23.138  26.998  1.00  0.00    -0.014 A 
BRANCH  38  39
ATOM     39  C   UNL A   1      43.357  24.539  27.323  1.00  0.00     0.031 A 
ATOM     40  C   UNL A   1      44.797  24.973  27.289  1.00  0.00     0.074 A 
ATOM     41  C   UNL A   1      42.404  25.408  27.712  1.00  0.00     0.049 A 
ATOM     42  N   UNL A   1      45.320  26.131  27.606  1.00  0.00    -0.248 NA
ATOM     43  C   UNL A   1      45.782  23.966  26.865  1.00  0.00     0.031 C 
ATOM     44  C   UNL A   1      40.976  25.102  27.831  1.00  0.00     0.029 A 
ATOM     45  N   UNL A   1      42.492  26.725  28.090  1.00  0.00    -0.354 N 
ATOM     46  C   UNL A   1      46.690  25.988  27.430  1.00  0.00     0.074 A 
ATOM     47  C   UNL A   1      46.924  24.618  27.031  1.00  0.00     0.031 C 
ATOM     48  C   UNL A   1      40.323  26.202  28.237  1.00  0.00     0.029 A 
ATOM     49  C   UNL A   1      41.285  27.279  28.446  1.00  0.00     0.049 A 
ATOM     50  H   UNL A   1      43.340  27.226  28.106  1.00  0.00     0.167 HD
ATOM     51  C   UNL A   1      47.664  26.921  27.564  1.00  0.00     0.037 A 
ATOM     52  C   UNL A   1      40.989  28.511  28.901  1.00  0.00     0.037 A 
ATOM     53  C   UNL A   1      47.430  28.289  27.949  1.00  0.00     0.049 A 
ATOM     54  C   UNL A   1      42.090  29.522  29.061  1.00  0.00     0.074 A 
ATOM     55  C   UNL A   1      48.346  29.320  28.066  1.00  0.00     0.029 A 
ATOM     56  N   UNL A   1      46.192  28.814  28.286  1.00  0.00    -0.354 N 
ATOM     57  N   UNL A   1      43.373  29.393  28.826  1.00  0.00    -0.248 NA
ATOM     58  C   UNL A   1      41.701  30.855  29.544  1.00  0.00     0.031 C 
ATOM     59  C   UNL A   1      47.670  30.457  28.519  1.00  0.00     0.029 A 
ATOM     60  C   UNL A   1      46.324  30.150  28.632  1.00  0.00     0.049 A 
ATOM     61  H   UNL A   1      45.345  28.313  28.281  1.00  0.00     0.167 HD
ATOM     62  C   UNL A   1      43.939  30.631  29.103  1.00  0.00     0.074 A 
ATOM     63  C   UNL A   1      42.856  31.503  29.510  1.00  0.00     0.031 C 
ATOM     64  C   UNL A   1      45.238  31.010  29.029  1.00  0.00     0.037 A 
BRANCH  51  65
ATOM     65  C   UNL A   1      49.077  26.490  27.288  1.00  0.00     0.057 A 
ATOM     66  C   UNL A   1      49.919  26.025  28.306  1.00  0.00     0.134 A 
ATOM     67  C   UNL A   1      49.590  26.505  25.984  1.00  0.00     0.134 A 
ATOM     68  F   UNL A   1      49.494  25.994  29.579  1.00  0.00    -0.206 F 
ATOM     69  C   UNL A   1      51.228  25.617  28.045  1.00  0.00     0.040 A 
ATOM     70  C   UNL A   1      50.887  26.071  25.705  1.00  0.00     0.040 A 
ATOM     71  F   UNL A   1      48.835  26.930  24.959  1.00  0.00    -0.206 F 
ATOM     72  C   UNL A   1      51.713  25.633  26.738  1.00  0.00     0.006 A 
ENDBRANCH  51  65
BRANCH  52  73
ATOM     73  C   UNL A   1      39.584  28.864  29.227  1.00  0.00     0.057 A 
ATOM     74  C   UNL A   1      38.732  29.413  28.261  1.00  0.00     0.134 A 
ATOM     75  C   UNL A   1      39.062  28.673  30.512  1.00  0.00     0.134 A 
ATOM     76  F   UNL A   1      39.179  29.639  27.017  1.00  0.00    -0.206 F 
ATOM     77  C   UNL A   1      37.420  29.779  28.565  1.00  0.00     0.040 A 
ATOM     78  C   UNL A   1      37.743  29.008  30.824  1.00  0.00     0.040 A 
ATOM     79  F   UNL A   1      39.823  28.144  31.481  1.00  0.00    -0.206 F 
ATOM     80  C   UNL A   1      36.920  29.572  29.850  1.00  0.00     0.006 A 
ENDBRANCH  52  73
BRANCH  64  81
ATOM     81  C   UNL A   1      45.558  32.441  29.355  1.00  0.00     0.057 A 
ATOM     82  C   UNL A   1      45.955  32.838  30.638  1.00  0.00     0.134 A 
ATOM     83  C   UNL A   1      45.502  33.427  28.361  1.00  0.00     0.134 A 
ATOM     84  F   UNL A   1      46.016  31.947  31.638  1.00  0.00    -0.206 F 
ATOM     85  C   UNL A   1      46.263  34.169  30.927  1.00  0.00     0.040 A 
ATOM     86  C   UNL A   1      45.836  34.755  28.630  1.00  0.00     0.040 A 
ATOM     87  F   UNL A   1      45.138  33.113  27.108  1.00  0.00    -0.206 F 
ATOM     88  C   UNL A   1      46.211  35.131  29.918  1.00  0.00     0.006 A 
ENDBRANCH  64  81
ENDBRANCH  38  39
ENDBRANCH  30  33
ENDBRANCH  28  29
ENDBRANCH  27  28
ENDBRANCH  26  27
ENDBRANCH   1  26
TORSDOF 16
ENDMDL
MODEL 2
REMARK VINA RESULT:     -11.2      0.751      6.053
REMARK SMILES O=C(CCNC(=O)c1cc(S(=O)(=O)N2CCCCC2)cs1)NCCCCNC(=O)c1ccc(-c2c3nc(c(-c4c(F)cccc4F)c4ccc([nH]4)c(-c4c(F)cccc4F)c4nc(c(-c5c(F)cccc5F)c5ccc2[nH]5)C=C4)C=C3)cc1
REMARK SMILES IDX 23 1 22 2 1 3 2 4 3 6 4 7 5 8 6 9 7 11 8 12 9 13 21 14 10 15
REMARK SMILES IDX 20 16 11 17 12 18 13 19 14 20 15 21 19 22 16 23 18 24 17 25
REMARK SMILES IDX 24 26 25 27 26 28 27 29 28 30 29 32 30 33 31 34 83 35 32 36
REMARK SMILES IDX 82 37 33 38 34 39 35 40 76 41 36 42 81 43 75 44 77 45 37 46
REMARK SMILES IDX 80 47 74 48 73 49 38 51 64 52 47 53 63 54 48 55 51 56 62 57
REMARK SMILES IDX 78 58 49 59 50 60 61 62 79 63 52 64 39 65 40 66 45 67 41 68
REMARK SMILES IDX 42 69 44 70 46 71 43 72 65 73 66 74 71 75 67 76 68 77 70 78
REMARK SMILES IDX 72 79 69 80 53 81 54 82 59 83 55 84 56 85 58 86 60 87 57 88
REMARK H PARENT 22 5 5 10 27 31 77 50 51 61
REMARK Flexibility Score: inf
ROOT
ATOM      1  C   UNL A   1      37.097  22.549  25.329  1.00  0.00     0.116 C 
ENDROOT
BRANCH   1   2
ATOM      2  N   UNL A   1      35.933  22.378  26.174  1.00  0.00    -0.356 N 
ATOM      3  O   UNL A   1      34.559  23.824  25.026  1.00  0.00    -0.275 OA
ATOM      4  C   UNL A   1      34.753  23.048  25.953  1.00  0.00     0.221 C 
ATOM      5  H   UNL A   1      35.989  21.757  26.935  1.00  0.00     0.163 HD
BRANCH   4   6
ATOM      6  C   UNL A   1      33.675  22.697  26.946  1.00  0.00     0.121 C 
BRANCH   6   7
ATOM      7  C   UNL A   1      32.580  21.884  26.270  1.00  0.00     0.126 C 
BRANCH   7   8
ATOM      8  N   UNL A   1      31.250  22.206  26.781  1.00  0.00    -0.351 N 
ATOM      9  C   UNL A   1      30.489  23.346  26.619  1.00  0.00     0.261 C 
ATOM     10  H   UNL A   1      30.832  21.502  27.327  1.00  0.00     0.163 HD
ATOM     11  O   UNL A   1      29.569  23.517  27.417  1.00  0.00    -0.268 OA
BRANCH   9  12
ATOM     12  C   UNL A   1      30.789  24.226  25.504  1.00  0.00     0.093 A 
ATOM     13  C   UNL A   1      31.069  25.576  25.543  1.00  0.00     0.047 A 
ATOM     14  S   UNL A   1      30.912  23.622  23.909  1.00  0.00    -0.137 S 
ATOM     15  C   UNL A   1      31.240  26.150  24.255  1.00  0.00     0.094 A 
ATOM     16  C   UNL A   1      31.204  25.189  23.266  1.00  0.00     0.087 A 
BRANCH  15  17
ATOM     17  S   UNL A   1      31.453  27.850  23.943  1.00  0.00     0.243 S 
ATOM     18  O   UNL A   1      32.537  27.880  22.984  1.00  0.00    -0.207 OA
ATOM     19  O   UNL A   1      30.115  28.288  23.614  1.00  0.00    -0.207 OA
BRANCH  17  20
ATOM     20  N   UNL A   1      31.951  28.659  25.373  1.00  0.00    -0.198 NA
ATOM     21  C   UNL A   1      33.290  28.261  25.874  1.00  0.00     0.102 C 
ATOM     22  C   UNL A   1      31.569  30.093  25.448  1.00  0.00     0.102 C 
ATOM     23  C   UNL A   1      33.672  28.972  27.164  1.00  0.00     0.017 C 
ATOM     24  C   UNL A   1      32.023  30.762  26.738  1.00  0.00     0.017 C 
ATOM     25  C   UNL A   1      33.486  30.475  27.037  1.00  0.00     0.003 C 
ENDBRANCH  17  20
ENDBRANCH  15  17
ENDBRANCH   9  12
ENDBRANCH   7   8
ENDBRANCH   6   7
ENDBRANCH   4   6
ENDBRANCH   1   2
BRANCH   1  26
ATOM     26  C   UNL A   1      37.223  21.413  24.319  1.00  0.00     0.023 C 
BRANCH  26  27
ATOM     27  C   UNL A   1      37.889  20.142  24.855  1.00  0.00     0.023 C 
BRANCH  27  28
ATOM     28  C   UNL A   1      38.957  20.365  25.920  1.00  0.00     0.116 C 
BRANCH  28  29
ATOM     29  N   UNL A   1      40.010  19.364  25.871  1.00  0.00    -0.352 N 
ATOM     30  C   UNL A   1      41.362  19.509  26.073  1.00  0.00     0.251 C 
ATOM     31  H   UNL A   1      39.711  18.450  25.663  1.00  0.00     0.163 HD
ATOM     32  O   UNL A   1      42.120  18.576  25.821  1.00  0.00    -0.269 OA
BRANCH  30  33
ATOM     33  C   UNL A   1      41.912  20.791  26.565  1.00  0.00     0.039 A 
ATOM     34  C   UNL A   1      42.406  21.712  25.635  1.00  0.00     0.014 A 
ATOM     35  C   UNL A   1      41.950  21.088  27.930  1.00  0.00     0.014 A 
ATOM     36  C   UNL A   1      42.875  22.954  26.069  1.00  0.00     0.010 A 
ATOM     37  C   UNL A   1      42.347  22.355  28.354  1.00  0.00     0.010 A 
ATOM     38  C   UNL A   1      42.814  23.302  27.429  1.00  0.00    -0.014 A 
BRANCH  38  39
ATOM     39  C   UNL A   1      43.221  24.652  27.898  1.00  0.00     0.031 A 
ATOM     40  C   UNL A   1      42.183  25.691  28.221  1.00  0.00     0.074 A 
ATOM     41  C   UNL A   1      44.530  24.964  27.973  1.00  0.00     0.049 A 
ATOM     42  N   UNL A   1      42.347  26.941  28.577  1.00  0.00    -0.248 NA
ATOM     43  C   UNL A   1      40.776  25.279  28.106  1.00  0.00     0.031 C 
ATOM     44  C   UNL A   1      45.636  24.063  27.644  1.00  0.00     0.029 A 
ATOM     45  N   UNL A   1      45.152  26.133  28.338  1.00  0.00    -0.354 N 
ATOM     46  C   UNL A   1      41.068  27.464  28.718  1.00  0.00     0.074 A 
ATOM     47  C   UNL A   1      40.140  26.414  28.358  1.00  0.00     0.031 C 
ATOM     48  C   UNL A   1      46.799  24.705  27.838  1.00  0.00     0.029 A 
ATOM     49  C   UNL A   1      46.524  26.072  28.265  1.00  0.00     0.049 A 
ATOM     50  H   UNL A   1      44.663  26.937  28.625  1.00  0.00     0.167 HD
ATOM     51  C   UNL A   1      40.698  28.700  29.135  1.00  0.00     0.037 A 
ATOM     52  C   UNL A   1      47.454  27.016  28.503  1.00  0.00     0.037 A 
ATOM     53  C   UNL A   1      41.622  29.741  29.505  1.00  0.00     0.049 A 
ATOM     54  C   UNL A   1      47.018  28.386  28.944  1.00  0.00     0.074 A 
ATOM     55  C   UNL A   1      41.343  31.009  29.985  1.00  0.00     0.029 A 
ATOM     56  N   UNL A   1      43.002  29.635  29.432  1.00  0.00    -0.354 N 
ATOM     57  N   UNL A   1      45.806  28.847  29.138  1.00  0.00    -0.248 NA
ATOM     58  C   UNL A   1      48.081  29.367  29.206  1.00  0.00     0.031 C 
ATOM     59  C   UNL A   1      42.554  31.688  30.157  1.00  0.00     0.029 A 
ATOM     60  C   UNL A   1      43.588  30.824  29.837  1.00  0.00     0.049 A 
ATOM     61  H   UNL A   1      43.494  28.836  29.136  1.00  0.00     0.167 HD
ATOM     62  C   UNL A   1      45.960  30.157  29.572  1.00  0.00     0.074 A 
ATOM     63  C   UNL A   1      47.385  30.414  29.626  1.00  0.00     0.031 C 
ATOM     64  C   UNL A   1      45.008  31.066  29.894  1.00  0.00     0.037 A 
BRANCH  51  65
ATOM     65  C   UNL A   1      39.227  28.991  29.214  1.00  0.00     0.057 A 
ATOM     66  C   UNL A   1      38.510  28.855  30.410  1.00  0.00     0.134 A 
ATOM     67  C   UNL A   1      38.525  29.450  28.091  1.00  0.00     0.134 A 
ATOM     68  F   UNL A   1      39.118  28.411  31.520  1.00  0.00    -0.206 F 
ATOM     69  C   UNL A   1      37.145  29.136  30.481  1.00  0.00     0.040 A 
ATOM     70  C   UNL A   1      37.166  29.763  28.156  1.00  0.00     0.040 A 
ATOM     71  F   UNL A   1      39.151  29.612  26.915  1.00  0.00    -0.206 F 
ATOM     72  C   UNL A   1      36.470  29.598  29.352  1.00  0.00     0.006 A 
ENDBRANCH  51  65
BRANCH  52  73
ATOM     73  C   UNL A   1      48.895  26.696  28.341  1.00  0.00     0.057 A 
ATOM     74  C   UNL A   1      49.541  26.866  27.111  1.00  0.00     0.134 A 
ATOM     75  C   UNL A   1      49.658  26.202  29.406  1.00  0.00     0.134 A 
ATOM     76  F   UNL A   1      48.859  27.317  26.047  1.00  0.00    -0.206 F 
ATOM     77  C   UNL A   1      50.887  26.537  26.939  1.00  0.00     0.040 A 
ATOM     78  C   UNL A   1      51.011  25.895  29.256  1.00  0.00     0.040 A 
ATOM     79  F   UNL A   1      49.101  26.023  30.613  1.00  0.00    -0.206 F 
ATOM     80  C   UNL A   1      51.628  26.055  28.016  1.00  0.00     0.006 A 
ENDBRANCH  52  73
BRANCH  64  81
ATOM     81  C   UNL A   1      45.474  32.411  30.374  1.00  0.00     0.057 A 
ATOM     82  C   UNL A   1      45.747  32.663  31.724  1.00  0.00     0.134 A 
ATOM     83  C   UNL A   1      45.687  33.456  29.465  1.00  0.00     0.134 A 
ATOM     84  F   UNL A   1      45.552  31.710  32.647  1.00  0.00    -0.206 F 
ATOM     85  C   UNL A   1      46.193  33.914  32.157  1.00  0.00     0.040 A 
ATOM     86  C   UNL A   1      46.159  34.701  29.881  1.00  0.00     0.040 A 
ATOM     87  F   UNL A   1      45.453  33.279  28.155  1.00  0.00    -0.206 F 
ATOM     88  C   UNL A   1      46.407  34.935  31.232  1.00  0.00     0.006 A 
ENDBRANCH  64  81
ENDBRANCH  38  39
ENDBRANCH  30  33
ENDBRANCH  28  29
ENDBRANCH  27  28
ENDBRANCH  26  27
ENDBRANCH   1  26
TORSDOF 16
ENDMDL
MODEL 3
REMARK VINA RESULT:     -11.0      1.592      6.409
REMARK SMILES O=C(CCNC(=O)c1cc(S(=O)(=O)N2CCCCC2)cs1)NCCCCNC(=O)c1ccc(-c2c3nc(c(-c4c(F)cccc4F)c4ccc([nH]4)c(-c4c(F)cccc4F)c4nc(c(-c5c(F)cccc5F)c5ccc2[nH]5)C=C4)C=C3)cc1
REMARK SMILES IDX 23 1 22 2 1 3 2 4 3 6 4 7 5 8 6 9 7 11 8 12 9 13 21 14 10 15
REMARK SMILES IDX 20 16 11 17 12 18 13 19 14 20 15 21 19 22 16 23 18 24 17 25
REMARK SMILES IDX 24 26 25 27 26 28 27 29 28 30 29 32 30 33 31 34 83 35 32 36
REMARK SMILES IDX 82 37 33 38 34 39 35 40 76 41 36 42 81 43 75 44 77 45 37 46
REMARK SMILES IDX 80 47 74 48 73 49 38 51 64 52 47 53 63 54 48 55 51 56 62 57
REMARK SMILES IDX 78 58 49 59 50 60 61 62 79 63 52 64 39 65 40 66 45 67 41 68
REMARK SMILES IDX 42 69 44 70 46 71 43 72 65 73 66 74 71 75 67 76 68 77 70 78
REMARK SMILES IDX 72 79 69 80 53 81 54 82 59 83 55 84 56 85 58 86 60 87 57 88
REMARK H PARENT 22 5 5 10 27 31 77 50 51 61
REMARK Flexibility Score: inf
ROOT
ATOM      1  C   UNL A   1      35.777  21.581  24.358  1.00  0.00     0.116 C 
ENDROOT
BRANCH   1   2
ATOM      2  N   UNL A   1      34.345  21.719  24.534  1.00  0.00    -0.356 N 
ATOM      3  O   UNL A   1      33.834  19.488  24.299  1.00  0.00    -0.275 OA
ATOM      4  C   UNL A   1      33.486  20.648  24.477  1.00  0.00     0.221 C 
ATOM      5  H   UNL A   1      33.975  22.615  24.701  1.00  0.00     0.163 HD
BRANCH   4   6
ATOM      6  C   UNL A   1      32.046  21.028  24.708  1.00  0.00     0.121 C 
BRANCH   6   7
ATOM      7  C   UNL A   1      31.935  22.516  25.008  1.00  0.00     0.126 C 
BRANCH   7   8
ATOM      8  N   UNL A   1      30.767  22.834  25.827  1.00  0.00    -0.351 N 
ATOM      9  C   UNL A   1      30.325  24.050  26.308  1.00  0.00     0.261 C 
ATOM     10  H   UNL A   1      30.210  22.062  26.074  1.00  0.00     0.163 HD
ATOM     11  O   UNL A   1      29.529  24.018  27.245  1.00  0.00    -0.268 OA
BRANCH   9  12
ATOM     12  C   UNL A   1      30.784  25.261  25.655  1.00  0.00     0.093 A 
ATOM     13  C   UNL A   1      30.489  25.699  24.380  1.00  0.00     0.047 A 
ATOM     14  S   UNL A   1      31.750  26.403  26.484  1.00  0.00    -0.137 S 
ATOM     15  C   UNL A   1      31.171  26.895  24.027  1.00  0.00     0.094 A 
ATOM     16  C   UNL A   1      31.880  27.405  25.094  1.00  0.00     0.087 A 
BRANCH  15  17
ATOM     17  S   UNL A   1      31.140  27.628  22.447  1.00  0.00     0.243 S 
ATOM     18  O   UNL A   1      32.291  28.505  22.464  1.00  0.00    -0.207 OA
ATOM     19  O   UNL A   1      31.049  26.487  21.564  1.00  0.00    -0.207 OA
BRANCH  17  20
ATOM     20  N   UNL A   1      29.720  28.574  22.259  1.00  0.00    -0.198 NA
ATOM     21  C   UNL A   1      28.601  28.196  23.157  1.00  0.00     0.102 C 
ATOM     22  C   UNL A   1      29.959  30.018  22.001  1.00  0.00     0.102 C 
ATOM     23  C   UNL A   1      27.352  29.033  22.928  1.00  0.00     0.017 C 
ATOM     24  C   UNL A   1      28.671  30.812  21.832  1.00  0.00     0.017 C 
ATOM     25  C   UNL A   1      27.676  30.518  22.944  1.00  0.00     0.003 C 
ENDBRANCH  17  20
ENDBRANCH  15  17
ENDBRANCH   9  12
ENDBRANCH   7   8
ENDBRANCH   6   7
ENDBRANCH   4   6
ENDBRANCH   1   2
BRANCH   1  26
ATOM     26  C   UNL A   1      36.351  20.516  25.288  1.00  0.00     0.023 C 
BRANCH  26  27
ATOM     27  C   UNL A   1      37.678  19.904  24.828  1.00  0.00     0.023 C 
BRANCH  27  28
ATOM     28  C   UNL A   1      38.901  20.310  25.644  1.00  0.00     0.116 C 
BRANCH  28  29
ATOM     29  N   UNL A   1      39.868  19.233  25.769  1.00  0.00    -0.352 N 
ATOM     30  C   UNL A   1      41.217  19.296  26.029  1.00  0.00     0.251 C 
ATOM     31  H   UNL A   1      39.506  18.326  25.650  1.00  0.00     0.163 HD
ATOM     32  O   UNL A   1      41.907  18.285  25.928  1.00  0.00    -0.269 OA
BRANCH  30  33
ATOM     33  C   UNL A   1      41.847  20.582  26.401  1.00  0.00     0.039 A 
ATOM     34  C   UNL A   1      42.255  21.451  25.384  1.00  0.00     0.014 A 
ATOM     35  C   UNL A   1      42.043  20.932  27.740  1.00  0.00     0.014 A 
ATOM     36  C   UNL A   1      42.796  22.696  25.710  1.00  0.00     0.010 A 
ATOM     37  C   UNL A   1      42.513  22.205  28.063  1.00  0.00     0.010 A 
ATOM     38  C   UNL A   1      42.895  23.101  27.052  1.00  0.00    -0.014 A 
BRANCH  38  39
ATOM     39  C   UNL A   1      43.382  24.457  27.415  1.00  0.00     0.031 A 
ATOM     40  C   UNL A   1      42.413  25.525  27.843  1.00  0.00     0.074 A 
ATOM     41  C   UNL A   1      44.693  24.747  27.297  1.00  0.00     0.049 A 
ATOM     42  N   UNL A   1      42.642  26.782  28.132  1.00  0.00    -0.248 NA
ATOM     43  C   UNL A   1      40.999  25.135  27.938  1.00  0.00     0.031 C 
ATOM     44  C   UNL A   1      45.730  23.816  26.848  1.00  0.00     0.029 A 
ATOM     45  N   UNL A   1      45.376  25.915  27.534  1.00  0.00    -0.354 N 
ATOM     46  C   UNL A   1      41.403  27.332  28.430  1.00  0.00     0.074 A 
ATOM     47  C   UNL A   1      40.420  26.289  28.237  1.00  0.00     0.031 C 
ATOM     48  C   UNL A   1      46.918  24.443  26.858  1.00  0.00     0.029 A 
ATOM     49  C   UNL A   1      46.723  25.827  27.273  1.00  0.00     0.049 A 
ATOM     50  H   UNL A   1      44.943  26.737  27.858  1.00  0.00     0.167 HD
ATOM     51  C   UNL A   1      41.112  28.587  28.853  1.00  0.00     0.037 A 
ATOM     52  C   UNL A   1      47.691  26.761  27.348  1.00  0.00     0.037 A 
ATOM     53  C   UNL A   1      42.092  29.622  29.057  1.00  0.00     0.049 A 
ATOM     54  C   UNL A   1      47.339  28.152  27.799  1.00  0.00     0.074 A 
ATOM     55  C   UNL A   1      41.900  30.909  29.528  1.00  0.00     0.029 A 
ATOM     56  N   UNL A   1      43.448  29.489  28.797  1.00  0.00    -0.354 N 
ATOM     57  N   UNL A   1      46.172  28.640  28.144  1.00  0.00    -0.248 NA
ATOM     58  C   UNL A   1      48.442  29.121  27.879  1.00  0.00     0.031 C 
ATOM     59  C   UNL A   1      43.133  31.571  29.508  1.00  0.00     0.029 A 
ATOM     60  C   UNL A   1      44.101  30.679  29.077  1.00  0.00     0.049 A 
ATOM     61  H   UNL A   1      43.882  28.671  28.463  1.00  0.00     0.167 HD
ATOM     62  C   UNL A   1      46.403  29.960  28.508  1.00  0.00     0.074 A 
ATOM     63  C   UNL A   1      47.825  30.193  28.356  1.00  0.00     0.031 C 
ATOM     64  C   UNL A   1      45.518  30.896  28.928  1.00  0.00     0.037 A 
BRANCH  51  65
ATOM     65  C   UNL A   1      39.670  28.908  29.124  1.00  0.00     0.057 A 
ATOM     66  C   UNL A   1      38.803  29.329  28.107  1.00  0.00     0.134 A 
ATOM     67  C   UNL A   1      39.131  28.758  30.409  1.00  0.00     0.134 A 
ATOM     68  F   UNL A   1      39.256  29.502  26.856  1.00  0.00    -0.206 F 
ATOM     69  C   UNL A   1      37.461  29.617  28.362  1.00  0.00     0.040 A 
ATOM     70  C   UNL A   1      37.784  29.015  30.671  1.00  0.00     0.040 A 
ATOM     71  F   UNL A   1      39.902  28.350  31.429  1.00  0.00    -0.206 F 
ATOM     72  C   UNL A   1      36.946  29.453  29.647  1.00  0.00     0.006 A 
ENDBRANCH  51  65
BRANCH  52  73
ATOM     73  C   UNL A   1      49.090  26.409  27.000  1.00  0.00     0.057 A 
ATOM     74  C   UNL A   1      49.562  26.528  25.687  1.00  0.00     0.134 A 
ATOM     75  C   UNL A   1      49.988  25.936  27.965  1.00  0.00     0.134 A 
ATOM     76  F   UNL A   1      48.745  26.957  24.713  1.00  0.00    -0.206 F 
ATOM     77  C   UNL A   1      50.865  26.169  25.341  1.00  0.00     0.040 A 
ATOM     78  C   UNL A   1      51.302  25.600  27.640  1.00  0.00     0.040 A 
ATOM     79  F   UNL A   1      49.602  25.806  29.243  1.00  0.00    -0.206 F 
ATOM     80  C   UNL A   1      51.742  25.708  26.321  1.00  0.00     0.006 A 
ENDBRANCH  52  73
BRANCH  64  81
ATOM     81  C   UNL A   1      46.064  32.247  29.294  1.00  0.00     0.057 A 
ATOM     82  C   UNL A   1      46.455  32.560  30.602  1.00  0.00     0.134 A 
ATOM     83  C   UNL A   1      46.235  33.234  28.314  1.00  0.00     0.134 A 
ATOM     84  F   UNL A   1      46.305  31.664  31.589  1.00  0.00    -0.206 F 
ATOM     85  C   UNL A   1      46.975  33.814  30.928  1.00  0.00     0.040 A 
ATOM     86  C   UNL A   1      46.780  34.481  28.622  1.00  0.00     0.040 A 
ATOM     87  F   UNL A   1      45.890  32.997  27.039  1.00  0.00    -0.206 F 
ATOM     88  C   UNL A   1      47.145  34.777  29.933  1.00  0.00     0.006 A 
ENDBRANCH  64  81
ENDBRANCH  38  39
ENDBRANCH  30  33
ENDBRANCH  28  29
ENDBRANCH  27  28
ENDBRANCH  26  27
ENDBRANCH   1  26
TORSDOF 16
ENDMDL
