MODEL 1
REMARK VINA RESULT:     -13.1      0.000      0.000
REMARK SMILES O=C(NCCCCNC(=O)c1ccc(-c2c3nc(c(-c4c(F)cccc4F)c4ccc([nH]4)c(-c4c(F)cccc4F)c4nc(c(-c5c(F)cccc5F)c5ccc2[nH]5)C=C4)C=C3)cc1)C1=Cc2cc(S(F)(F)(F)(F)F)cc(Br)c2O[C@@H]1C(F)(F)F
REMARK SMILES IDX 6 1 5 2 4 3 3 4 1 5 2 6 65 8 66 9 81 10 67 11 80 12 68 13
REMARK SMILES IDX 79 14 69 15 77 16 76 17 78 18 82 19 83 20 84 21 85 22 70 23
REMARK SMILES IDX 71 24 72 25 73 26 74 27 75 28 7 29 8 30 9 31 10 33 11 34
REMARK SMILES IDX 12 35 64 36 13 37 63 38 14 39 15 40 16 41 57 42 17 43 62 44
REMARK SMILES IDX 56 45 58 46 18 47 61 48 55 49 54 50 19 52 45 53 28 54 44 55
REMARK SMILES IDX 29 56 32 57 43 58 59 59 30 60 31 61 42 63 60 64 33 65 20 66
REMARK SMILES IDX 21 67 26 68 22 69 23 70 25 71 27 72 24 73 46 74 47 75 52 76
REMARK SMILES IDX 48 77 49 78 51 79 53 80 50 81 34 82 35 83 40 84 36 85 37 86
REMARK SMILES IDX 39 87 41 88 38 89
REMARK H PARENT 3 7 8 32 58 51 32 62
REMARK Flexibility Score: inf
ROOT
ATOM      1  C   UNL A   1      32.855  28.328  26.182  1.00  0.00     0.023 C 
ENDROOT
BRANCH   1   2
ATOM      2  C   UNL A   1      33.414  27.555  24.999  1.00  0.00     0.023 C 
BRANCH   2   3
ATOM      3  C   UNL A   1      33.644  26.108  25.402  1.00  0.00     0.116 C 
BRANCH   3   4
ATOM      4  N   UNL A   1      34.064  25.333  24.226  1.00  0.00    -0.352 N 
ATOM      5  O   UNL A   1      33.646  23.493  22.782  1.00  0.00    -0.270 OA
ATOM      6  C   UNL A   1      33.282  24.163  23.799  1.00  0.00     0.251 C 
ATOM      7  H   UNL A   1      34.870  25.597  23.724  1.00  0.00     0.163 HD
BRANCH   6   8
ATOM      8  C   UNL A   1      32.039  23.756  24.572  1.00  0.00     0.067 C 
ATOM      9  C   UNL A   1      31.963  22.521  25.136  1.00  0.00     0.025 C 
ATOM     10  C   UNL A   1      30.880  24.730  24.714  1.00  0.00     0.314 C 
ATOM     11  C   UNL A   1      33.121  21.548  24.994  1.00  0.00     0.020 A 
ATOM     12  O   UNL A   1      34.727  23.241  25.445  1.00  0.00    -0.474 OA
ATOM     13  C   UNL A   1      32.771  20.278  24.567  1.00  0.00     0.036 A 
ATOM     14  C   UNL A   1      34.393  21.890  25.166  1.00  0.00     0.142 A 
ATOM     15  C   UNL A   1      33.829  19.340  24.626  1.00  0.00     0.109 A 
ATOM     16  C   UNL A   1      35.389  20.948  25.074  1.00  0.00     0.062 A 
ATOM     17  C   UNL A   1      35.107  19.659  24.715  1.00  0.00     0.044 A 
ATOM     18  Br  UNL A   1      37.241  21.459  25.463  1.00  0.00    -0.047 Br
BRANCH  10  19
ATOM     19  C   UNL A   1      30.635  25.013  26.187  1.00  0.00     0.429 C 
ATOM     20  F   UNL A   1      29.633  24.255  26.623  1.00  0.00    -0.167 F 
ATOM     21  F   UNL A   1      31.735  24.737  26.881  1.00  0.00    -0.167 F 
ATOM     22  F   UNL A   1      30.321  26.295  26.345  1.00  0.00    -0.167 F 
ENDBRANCH  10  19
BRANCH  15  23
ATOM     23  S   UNL A   1      33.400  17.582  24.575  1.00  0.00     0.310 S 
ATOM     24  F   UNL A   1      31.909  17.912  24.148  1.00  0.00    -0.094 F 
ATOM     25  F   UNL A   1      32.919  17.673  26.072  1.00  0.00    -0.094 F 
ATOM     26  F   UNL A   1      33.020  16.076  24.515  1.00  0.00    -0.094 F 
ATOM     27  F   UNL A   1      33.756  17.546  23.037  1.00  0.00    -0.094 F 
ATOM     28  F   UNL A   1      33.684  19.138  24.590  1.00  0.00    -0.094 F 
ENDBRANCH  15  23
ENDBRANCH   6   8
ENDBRANCH   3   4
ENDBRANCH   2   3
ENDBRANCH   1   2
BRANCH   1  29
ATOM     29  C   UNL A   1      33.990  28.725  27.112  1.00  0.00     0.116 C 
BRANCH  29  30
ATOM     30  N   UNL A   1      33.671  30.008  27.753  1.00  0.00    -0.352 N 
ATOM     31  C   UNL A   1      34.722  30.763  28.449  1.00  0.00     0.251 C 
ATOM     32  H   UNL A   1      32.753  30.362  27.718  1.00  0.00     0.163 HD
ATOM     33  O   UNL A   1      34.446  31.873  29.004  1.00  0.00    -0.269 OA
BRANCH  31  34
ATOM     34  C   UNL A   1      36.140  30.217  28.505  1.00  0.00     0.039 A 
ATOM     35  C   UNL A   1      37.060  30.384  27.483  1.00  0.00     0.014 A 
ATOM     36  C   UNL A   1      36.482  29.645  29.653  1.00  0.00     0.014 A 
ATOM     37  C   UNL A   1      38.256  29.649  27.663  1.00  0.00     0.010 A 
ATOM     38  C   UNL A   1      37.718  29.065  29.805  1.00  0.00     0.010 A 
ATOM     39  C   UNL A   1      38.657  29.141  28.814  1.00  0.00    -0.014 A 
BRANCH  39  40
ATOM     40  C   UNL A   1      40.084  28.664  29.026  1.00  0.00     0.031 A 
ATOM     41  C   UNL A   1      40.952  29.628  29.540  1.00  0.00     0.074 A 
ATOM     42  C   UNL A   1      40.478  27.391  28.648  1.00  0.00     0.049 A 
ATOM     43  N   UNL A   1      42.257  29.500  29.786  1.00  0.00    -0.248 NA
ATOM     44  C   UNL A   1      40.543  30.992  29.910  1.00  0.00     0.031 C 
ATOM     45  C   UNL A   1      39.606  26.410  28.136  1.00  0.00     0.029 A 
ATOM     46  N   UNL A   1      41.743  26.849  28.693  1.00  0.00    -0.354 N 
ATOM     47  C   UNL A   1      42.743  30.635  30.295  1.00  0.00     0.074 A 
ATOM     48  C   UNL A   1      41.649  31.612  30.376  1.00  0.00     0.031 C 
ATOM     49  C   UNL A   1      40.339  25.297  27.865  1.00  0.00     0.029 A 
ATOM     50  C   UNL A   1      41.678  25.563  28.204  1.00  0.00     0.049 A 
ATOM     51  H   UNL A   1      42.554  27.303  29.018  1.00  0.00     0.167 HD
ATOM     52  C   UNL A   1      44.055  30.891  30.695  1.00  0.00     0.037 A 
ATOM     53  C   UNL A   1      42.717  24.659  28.053  1.00  0.00     0.037 A 
ATOM     54  C   UNL A   1      45.087  29.972  30.585  1.00  0.00     0.049 A 
ATOM     55  C   UNL A   1      44.042  24.937  28.399  1.00  0.00     0.074 A 
ATOM     56  C   UNL A   1      46.413  30.213  30.991  1.00  0.00     0.029 A 
ATOM     57  N   UNL A   1      45.027  28.695  30.073  1.00  0.00    -0.354 N 
ATOM     58  N   UNL A   1      44.521  26.056  28.944  1.00  0.00    -0.248 NA
ATOM     59  C   UNL A   1      45.157  23.999  28.214  1.00  0.00     0.031 C 
ATOM     60  C   UNL A   1      47.145  29.099  30.720  1.00  0.00     0.029 A 
ATOM     61  C   UNL A   1      46.287  28.145  30.139  1.00  0.00     0.049 A 
ATOM     62  H   UNL A   1      44.221  28.251  29.720  1.00  0.00     0.167 HD
ATOM     63  C   UNL A   1      45.834  25.942  29.151  1.00  0.00     0.074 A 
ATOM     64  C   UNL A   1      46.264  24.619  28.678  1.00  0.00     0.031 C 
ATOM     65  C   UNL A   1      46.690  26.886  29.720  1.00  0.00     0.037 A 
BRANCH  52  66
ATOM     66  C   UNL A   1      44.371  32.255  31.287  1.00  0.00     0.057 A 
ATOM     67  C   UNL A   1      44.673  33.350  30.495  1.00  0.00     0.134 A 
ATOM     68  C   UNL A   1      44.204  32.380  32.599  1.00  0.00     0.134 A 
ATOM     69  F   UNL A   1      44.600  33.326  29.167  1.00  0.00    -0.206 F 
ATOM     70  C   UNL A   1      45.065  34.497  31.225  1.00  0.00     0.040 A 
ATOM     71  C   UNL A   1      44.476  33.570  33.229  1.00  0.00     0.040 A 
ATOM     72  F   UNL A   1      43.769  31.343  33.309  1.00  0.00    -0.206 F 
ATOM     73  C   UNL A   1      44.837  34.678  32.513  1.00  0.00     0.006 A 
ENDBRANCH  52  66
BRANCH  53  74
ATOM     74  C   UNL A   1      42.399  23.290  27.476  1.00  0.00     0.057 A 
ATOM     75  C   UNL A   1      42.331  23.124  26.102  1.00  0.00     0.134 A 
ATOM     76  C   UNL A   1      42.041  22.316  28.305  1.00  0.00     0.134 A 
ATOM     77  F   UNL A   1      42.907  23.960  25.242  1.00  0.00    -0.206 F 
ATOM     78  C   UNL A   1      41.594  21.987  25.698  1.00  0.00     0.040 A 
ATOM     79  C   UNL A   1      41.447  21.173  27.827  1.00  0.00     0.040 A 
ATOM     80  F   UNL A   1      42.258  22.451  29.610  1.00  0.00    -0.206 F 
ATOM     81  C   UNL A   1      41.295  20.969  26.483  1.00  0.00     0.006 A 
ENDBRANCH  53  74
BRANCH  65  82
ATOM     82  C   UNL A   1      48.153  26.511  29.891  1.00  0.00     0.057 A 
ATOM     83  C   UNL A   1      49.118  26.856  28.958  1.00  0.00     0.134 A 
ATOM     84  C   UNL A   1      48.478  25.898  31.023  1.00  0.00     0.134 A 
ATOM     85  F   UNL A   1      48.884  27.684  27.944  1.00  0.00    -0.206 F 
ATOM     86  C   UNL A   1      50.376  26.248  29.184  1.00  0.00     0.040 A 
ATOM     87  C   UNL A   1      49.760  25.450  31.233  1.00  0.00     0.040 A 
ATOM     88  F   UNL A   1      47.554  25.715  31.962  1.00  0.00    -0.206 F 
ATOM     89  C   UNL A   1      50.751  25.703  30.326  1.00  0.00     0.006 A 
ENDBRANCH  65  82
ENDBRANCH  39  40
ENDBRANCH  31  34
ENDBRANCH  29  30
ENDBRANCH   1  29
TORSDOF 13
ENDMDL
MODEL 2
REMARK VINA RESULT:     -12.9      0.347      1.442
REMARK SMILES O=C(NCCCCNC(=O)c1ccc(-c2c3nc(c(-c4c(F)cccc4F)c4ccc([nH]4)c(-c4c(F)cccc4F)c4nc(c(-c5c(F)cccc5F)c5ccc2[nH]5)C=C4)C=C3)cc1)C1=Cc2cc(S(F)(F)(F)(F)F)cc(Br)c2O[C@@H]1C(F)(F)F
REMARK SMILES IDX 6 1 5 2 4 3 3 4 1 5 2 6 65 8 66 9 81 10 67 11 80 12 68 13
REMARK SMILES IDX 79 14 69 15 77 16 76 17 78 18 82 19 83 20 84 21 85 22 70 23
REMARK SMILES IDX 71 24 72 25 73 26 74 27 75 28 7 29 8 30 9 31 10 33 11 34
REMARK SMILES IDX 12 35 64 36 13 37 63 38 14 39 15 40 16 41 57 42 17 43 62 44
REMARK SMILES IDX 56 45 58 46 18 47 61 48 55 49 54 50 19 52 45 53 28 54 44 55
REMARK SMILES IDX 29 56 32 57 43 58 59 59 30 60 31 61 42 63 60 64 33 65 20 66
REMARK SMILES IDX 21 67 26 68 22 69 23 70 25 71 27 72 24 73 46 74 47 75 52 76
REMARK SMILES IDX 48 77 49 78 51 79 53 80 50 81 34 82 35 83 40 84 36 85 37 86
REMARK SMILES IDX 39 87 41 88 38 89
REMARK H PARENT 3 7 8 32 58 51 32 62
REMARK Flexibility Score: inf
ROOT
ATOM      1  C   UNL A   1      32.929  28.464  26.015  1.00  0.00     0.023 C 
ENDROOT
BRANCH   1   2
ATOM      2  C   UNL A   1      33.536  27.658  24.879  1.00  0.00     0.023 C 
BRANCH   2   3
ATOM      3  C   UNL A   1      33.618  26.196  25.282  1.00  0.00     0.116 C 
BRANCH   3   4
ATOM      4  N   UNL A   1      34.038  25.392  24.126  1.00  0.00    -0.352 N 
ATOM      5  O   UNL A   1      33.607  23.529  22.715  1.00  0.00    -0.270 OA
ATOM      6  C   UNL A   1      33.244  24.224  23.715  1.00  0.00     0.251 C 
ATOM      7  H   UNL A   1      34.851  25.635  23.625  1.00  0.00     0.163 HD
BRANCH   6   8
ATOM      8  C   UNL A   1      31.989  23.849  24.486  1.00  0.00     0.067 C 
ATOM      9  C   UNL A   1      31.882  22.618  25.054  1.00  0.00     0.025 C 
ATOM     10  C   UNL A   1      30.853  24.850  24.622  1.00  0.00     0.314 C 
ATOM     11  C   UNL A   1      33.017  21.617  24.917  1.00  0.00     0.020 A 
ATOM     12  O   UNL A   1      34.661  23.273  25.369  1.00  0.00    -0.474 OA
ATOM     13  C   UNL A   1      32.638  20.354  24.494  1.00  0.00     0.036 A 
ATOM     14  C   UNL A   1      34.296  21.928  25.092  1.00  0.00     0.142 A 
ATOM     15  C   UNL A   1      33.673  19.391  24.558  1.00  0.00     0.109 A 
ATOM     16  C   UNL A   1      35.270  20.963  25.006  1.00  0.00     0.062 A 
ATOM     17  C   UNL A   1      34.958  19.680  24.650  1.00  0.00     0.044 A 
ATOM     18  Br  UNL A   1      37.132  21.431  25.399  1.00  0.00    -0.047 Br
BRANCH  10  19
ATOM     19  C   UNL A   1      30.611  25.144  26.093  1.00  0.00     0.429 C 
ATOM     20  F   UNL A   1      31.701  24.839  26.792  1.00  0.00    -0.167 F 
ATOM     21  F   UNL A   1      30.332  26.435  26.248  1.00  0.00    -0.167 F 
ATOM     22  F   UNL A   1      29.588  24.415  26.529  1.00  0.00    -0.167 F 
ENDBRANCH  10  19
BRANCH  15  23
ATOM     23  S   UNL A   1      33.203  17.644  24.512  1.00  0.00     0.310 S 
ATOM     24  F   UNL A   1      34.675  17.191  24.889  1.00  0.00    -0.094 F 
ATOM     25  F   UNL A   1      33.644  17.582  23.001  1.00  0.00    -0.094 F 
ATOM     26  F   UNL A   1      32.811  16.140  24.489  1.00  0.00    -0.094 F 
ATOM     27  F   UNL A   1      32.898  17.692  26.061  1.00  0.00    -0.094 F 
ATOM     28  F   UNL A   1      33.702  19.143  24.579  1.00  0.00    -0.094 F 
ENDBRANCH  15  23
ENDBRANCH   6   8
ENDBRANCH   3   4
ENDBRANCH   2   3
ENDBRANCH   1   2
BRANCH   1  29
ATOM     29  C   UNL A   1      33.996  28.755  27.057  1.00  0.00     0.116 C 
BRANCH  29  30
ATOM     30  N   UNL A   1      33.675  30.013  27.748  1.00  0.00    -0.352 N 
ATOM     31  C   UNL A   1      34.726  30.743  28.470  1.00  0.00     0.251 C 
ATOM     32  H   UNL A   1      32.756  30.367  27.727  1.00  0.00     0.163 HD
ATOM     33  O   UNL A   1      34.449  31.831  29.067  1.00  0.00    -0.269 OA
BRANCH  31  34
ATOM     34  C   UNL A   1      36.145  30.198  28.503  1.00  0.00     0.039 A 
ATOM     35  C   UNL A   1      37.044  30.355  27.462  1.00  0.00     0.014 A 
ATOM     36  C   UNL A   1      36.510  29.639  29.650  1.00  0.00     0.014 A 
ATOM     37  C   UNL A   1      38.244  29.621  27.626  1.00  0.00     0.010 A 
ATOM     38  C   UNL A   1      37.749  29.060  29.784  1.00  0.00     0.010 A 
ATOM     39  C   UNL A   1      38.668  29.126  28.774  1.00  0.00    -0.014 A 
BRANCH  39  40
ATOM     40  C   UNL A   1      40.099  28.652  28.962  1.00  0.00     0.031 A 
ATOM     41  C   UNL A   1      40.981  29.626  29.432  1.00  0.00     0.074 A 
ATOM     42  C   UNL A   1      40.483  27.370  28.605  1.00  0.00     0.049 A 
ATOM     43  N   UNL A   1      42.291  29.502  29.650  1.00  0.00    -0.248 NA
ATOM     44  C   UNL A   1      40.582  30.999  29.781  1.00  0.00     0.031 C 
ATOM     45  C   UNL A   1      39.598  26.378  28.136  1.00  0.00     0.029 A 
ATOM     46  N   UNL A   1      41.748  26.827  28.632  1.00  0.00    -0.354 N 
ATOM     47  C   UNL A   1      42.791  30.647  30.121  1.00  0.00     0.074 A 
ATOM     48  C   UNL A   1      41.699  31.628  30.205  1.00  0.00     0.031 C 
ATOM     49  C   UNL A   1      40.322  25.258  27.875  1.00  0.00     0.029 A 
ATOM     50  C   UNL A   1      41.669  25.530  28.175  1.00  0.00     0.049 A 
ATOM     51  H   UNL A   1      42.567  27.287  28.926  1.00  0.00     0.167 HD
ATOM     52  C   UNL A   1      44.112  30.910  30.483  1.00  0.00     0.037 A 
ATOM     53  C   UNL A   1      42.704  24.621  28.019  1.00  0.00     0.037 A 
ATOM     54  C   UNL A   1      45.140  29.988  30.369  1.00  0.00     0.049 A 
ATOM     55  C   UNL A   1      44.037  24.904  28.327  1.00  0.00     0.074 A 
ATOM     56  C   UNL A   1      46.476  30.235  30.738  1.00  0.00     0.029 A 
ATOM     57  N   UNL A   1      45.066  28.699  29.889  1.00  0.00    -0.354 N 
ATOM     58  N   UNL A   1      44.530  26.036  28.835  1.00  0.00    -0.248 NA
ATOM     59  C   UNL A   1      45.146  23.961  28.137  1.00  0.00     0.031 C 
ATOM     60  C   UNL A   1      47.200  29.114  30.475  1.00  0.00     0.029 A 
ATOM     61  C   UNL A   1      46.327  28.149  29.937  1.00  0.00     0.049 A 
ATOM     62  H   UNL A   1      44.251  28.248  29.566  1.00  0.00     0.167 HD
ATOM     63  C   UNL A   1      45.848  25.924  29.012  1.00  0.00     0.074 A 
ATOM     64  C   UNL A   1      46.265  24.590  28.559  1.00  0.00     0.031 C 
ATOM     65  C   UNL A   1      46.718  26.880  29.538  1.00  0.00     0.037 A 
BRANCH  52  66
ATOM     66  C   UNL A   1      44.444  32.288  31.036  1.00  0.00     0.057 A 
ATOM     67  C   UNL A   1      44.488  32.544  32.396  1.00  0.00     0.134 A 
ATOM     68  C   UNL A   1      44.828  33.200  30.150  1.00  0.00     0.134 A 
ATOM     69  F   UNL A   1      44.359  31.593  33.317  1.00  0.00    -0.206 F 
ATOM     70  C   UNL A   1      44.684  33.908  32.717  1.00  0.00     0.040 A 
ATOM     71  C   UNL A   1      45.135  34.477  30.551  1.00  0.00     0.040 A 
ATOM     72  F   UNL A   1      44.916  32.873  28.865  1.00  0.00    -0.206 F 
ATOM     73  C   UNL A   1      45.142  34.816  31.876  1.00  0.00     0.006 A 
ENDBRANCH  52  66
BRANCH  53  74
ATOM     74  C   UNL A   1      42.370  23.240  27.483  1.00  0.00     0.057 A 
ATOM     75  C   UNL A   1      42.290  23.037  26.114  1.00  0.00     0.134 A 
ATOM     76  C   UNL A   1      42.011  22.292  28.341  1.00  0.00     0.134 A 
ATOM     77  F   UNL A   1      42.865  23.844  25.227  1.00  0.00    -0.206 F 
ATOM     78  C   UNL A   1      41.540  21.896  25.746  1.00  0.00     0.040 A 
ATOM     79  C   UNL A   1      41.405  21.140  27.898  1.00  0.00     0.040 A 
ATOM     80  F   UNL A   1      42.240  22.459  29.640  1.00  0.00    -0.206 F 
ATOM     81  C   UNL A   1      41.240  20.901  26.562  1.00  0.00     0.006 A 
ENDBRANCH  53  74
BRANCH  65  82
ATOM     82  C   UNL A   1      48.184  26.507  29.682  1.00  0.00     0.057 A 
ATOM     83  C   UNL A   1      48.685  25.907  30.827  1.00  0.00     0.134 A 
ATOM     84  C   UNL A   1      48.955  26.715  28.621  1.00  0.00     0.134 A 
ATOM     85  F   UNL A   1      47.909  25.450  31.806  1.00  0.00    -0.206 F 
ATOM     86  C   UNL A   1      50.097  25.824  30.859  1.00  0.00     0.040 A 
ATOM     87  C   UNL A   1      50.308  26.483  28.682  1.00  0.00     0.040 A 
ATOM     88  F   UNL A   1      48.412  27.154  27.489  1.00  0.00    -0.206 F 
ATOM     89  C   UNL A   1      50.880  25.948  29.803  1.00  0.00     0.006 A 
ENDBRANCH  65  82
ENDBRANCH  39  40
ENDBRANCH  31  34
ENDBRANCH  29  30
ENDBRANCH   1  29
TORSDOF 13
ENDMDL
MODEL 3
REMARK VINA RESULT:     -12.9      3.948      7.544
REMARK SMILES O=C(NCCCCNC(=O)c1ccc(-c2c3nc(c(-c4c(F)cccc4F)c4ccc([nH]4)c(-c4c(F)cccc4F)c4nc(c(-c5c(F)cccc5F)c5ccc2[nH]5)C=C4)C=C3)cc1)C1=Cc2cc(S(F)(F)(F)(F)F)cc(Br)c2O[C@@H]1C(F)(F)F
REMARK SMILES IDX 6 1 5 2 4 3 3 4 1 5 2 6 65 8 66 9 81 10 67 11 80 12 68 13
REMARK SMILES IDX 79 14 69 15 77 16 76 17 78 18 82 19 83 20 84 21 85 22 70 23
REMARK SMILES IDX 71 24 72 25 73 26 74 27 75 28 7 29 8 30 9 31 10 33 11 34
REMARK SMILES IDX 12 35 64 36 13 37 63 38 14 39 15 40 16 41 57 42 17 43 62 44
REMARK SMILES IDX 56 45 58 46 18 47 61 48 55 49 54 50 19 52 45 53 28 54 44 55
REMARK SMILES IDX 29 56 32 57 43 58 59 59 30 60 31 61 42 63 60 64 33 65 20 66
REMARK SMILES IDX 21 67 26 68 22 69 23 70 25 71 27 72 24 73 46 74 47 75 52 76
REMARK SMILES IDX 48 77 49 78 51 79 53 80 50 81 34 82 35 83 40 84 36 85 37 86
REMARK SMILES IDX 39 87 41 88 38 89
REMARK H PARENT 3 7 8 32 58 51 32 62
REMARK Flexibility Score: inf
ROOT
ATOM      1  C   UNL A   1      31.318  31.677  26.878  1.00  0.00     0.023 C 
ENDROOT
BRANCH   1   2
ATOM      2  C   UNL A   1      31.035  31.196  25.465  1.00  0.00     0.023 C 
BRANCH   2   3
ATOM      3  C   UNL A   1      31.957  30.037  25.128  1.00  0.00     0.116 C 
BRANCH   3   4
ATOM      4  N   UNL A   1      31.157  28.824  24.906  1.00  0.00    -0.352 N 
ATOM      5  O   UNL A   1      30.883  26.499  25.317  1.00  0.00    -0.270 OA
ATOM      6  C   UNL A   1      31.574  27.548  25.509  1.00  0.00     0.251 C 
ATOM      7  H   UNL A   1      30.343  28.864  24.354  1.00  0.00     0.163 HD
BRANCH   6   8
ATOM      8  C   UNL A   1      32.831  27.485  26.361  1.00  0.00     0.067 C 
ATOM      9  C   UNL A   1      33.787  26.555  26.095  1.00  0.00     0.025 C 
ATOM     10  C   UNL A   1      33.019  28.461  27.511  1.00  0.00     0.314 C 
ATOM     11  C   UNL A   1      33.598  25.578  24.946  1.00  0.00     0.020 A 
ATOM     12  O   UNL A   1      32.810  27.288  23.495  1.00  0.00    -0.474 OA
ATOM     13  C   UNL A   1      33.810  24.248  25.267  1.00  0.00     0.036 A 
ATOM     14  C   UNL A   1      33.171  25.937  23.741  1.00  0.00     0.142 A 
ATOM     15  C   UNL A   1      33.819  23.382  24.148  1.00  0.00     0.109 A 
ATOM     16  C   UNL A   1      33.073  25.012  22.730  1.00  0.00     0.062 A 
ATOM     17  C   UNL A   1      33.325  23.688  22.962  1.00  0.00     0.044 A 
ATOM     18  Br  UNL A   1      32.566  25.598  20.930  1.00  0.00    -0.047 Br
BRANCH  10  19
ATOM     19  C   UNL A   1      34.276  29.283  27.277  1.00  0.00     0.429 C 
ATOM     20  F   UNL A   1      34.458  29.453  25.970  1.00  0.00    -0.167 F 
ATOM     21  F   UNL A   1      34.146  30.469  27.865  1.00  0.00    -0.167 F 
ATOM     22  F   UNL A   1      35.324  28.646  27.791  1.00  0.00    -0.167 F 
ENDBRANCH  10  19
BRANCH  15  23
ATOM     23  S   UNL A   1      34.557  21.743  24.357  1.00  0.00     0.310 S 
ATOM     24  F   UNL A   1      34.990  22.078  25.845  1.00  0.00    -0.094 F 
ATOM     25  F   UNL A   1      35.945  22.326  23.894  1.00  0.00    -0.094 F 
ATOM     26  F   UNL A   1      35.183  20.334  24.556  1.00  0.00    -0.094 F 
ATOM     27  F   UNL A   1      33.193  21.211  24.950  1.00  0.00    -0.094 F 
ATOM     28  F   UNL A   1      33.935  23.194  24.267  1.00  0.00    -0.094 F 
ENDBRANCH  15  23
ENDBRANCH   6   8
ENDBRANCH   3   4
ENDBRANCH   2   3
ENDBRANCH   1   2
BRANCH   1  29
ATOM     29  C   UNL A   1      32.520  32.608  26.866  1.00  0.00     0.116 C 
BRANCH  29  30
ATOM     30  N   UNL A   1      32.122  33.927  27.379  1.00  0.00    -0.352 N 
ATOM     31  C   UNL A   1      32.951  34.604  28.386  1.00  0.00     0.251 C 
ATOM     32  H   UNL A   1      31.299  34.357  27.049  1.00  0.00     0.163 HD
ATOM     33  O   UNL A   1      32.607  35.744  28.830  1.00  0.00    -0.269 OA
BRANCH  31  34
ATOM     34  C   UNL A   1      34.220  33.941  28.896  1.00  0.00     0.039 A 
ATOM     35  C   UNL A   1      35.491  34.323  28.498  1.00  0.00     0.014 A 
ATOM     36  C   UNL A   1      34.041  33.024  29.838  1.00  0.00     0.014 A 
ATOM     37  C   UNL A   1      36.517  33.463  28.956  1.00  0.00     0.010 A 
ATOM     38  C   UNL A   1      35.107  32.316  30.339  1.00  0.00     0.010 A 
ATOM     39  C   UNL A   1      36.385  32.600  29.946  1.00  0.00    -0.014 A 
BRANCH  39  40
ATOM     40  C   UNL A   1      37.589  31.956  30.613  1.00  0.00     0.031 A 
ATOM     41  C   UNL A   1      38.215  30.964  29.858  1.00  0.00     0.074 A 
ATOM     42  C   UNL A   1      37.956  32.292  31.906  1.00  0.00     0.049 A 
ATOM     43  N   UNL A   1      39.260  30.212  30.208  1.00  0.00    -0.248 NA
ATOM     44  C   UNL A   1      37.805  30.582  28.498  1.00  0.00     0.031 C 
ATOM     45  C   UNL A   1      37.334  33.297  32.672  1.00  0.00     0.029 A 
ATOM     46  N   UNL A   1      38.958  31.738  32.671  1.00  0.00    -0.354 N 
ATOM     47  C   UNL A   1      39.588  29.386  29.211  1.00  0.00     0.074 A 
ATOM     48  C   UNL A   1      38.653  29.608  28.100  1.00  0.00     0.031 C 
ATOM     49  C   UNL A   1      37.945  33.340  33.886  1.00  0.00     0.029 A 
ATOM     50  C   UNL A   1      38.958  32.364  33.898  1.00  0.00     0.049 A 
ATOM     51  H   UNL A   1      39.568  31.018  32.390  1.00  0.00     0.167 HD
ATOM     52  C   UNL A   1      40.631  28.459  29.187  1.00  0.00     0.037 A 
ATOM     53  C   UNL A   1      39.787  32.110  34.980  1.00  0.00     0.037 A 
ATOM     54  C   UNL A   1      41.487  28.235  30.252  1.00  0.00     0.049 A 
ATOM     55  C   UNL A   1      40.793  31.141  34.975  1.00  0.00     0.074 A 
ATOM     56  C   UNL A   1      42.548  27.310  30.240  1.00  0.00     0.029 A 
ATOM     57  N   UNL A   1      41.471  28.843  31.488  1.00  0.00    -0.354 N 
ATOM     58  N   UNL A   1      41.146  30.343  33.966  1.00  0.00    -0.248 NA
ATOM     59  C   UNL A   1      41.655  30.840  36.126  1.00  0.00     0.031 C 
ATOM     60  C   UNL A   1      43.158  27.352  31.455  1.00  0.00     0.029 A 
ATOM     61  C   UNL A   1      42.488  28.305  32.245  1.00  0.00     0.049 A 
ATOM     62  H   UNL A   1      40.843  29.543  31.780  1.00  0.00     0.167 HD
ATOM     63  C   UNL A   1      42.164  29.562  34.332  1.00  0.00     0.074 A 
ATOM     64  C   UNL A   1      42.502  29.865  35.729  1.00  0.00     0.031 C 
ATOM     65  C   UNL A   1      42.828  28.612  33.554  1.00  0.00     0.037 A 
BRANCH  52  66
ATOM     66  C   UNL A   1      40.840  27.649  27.917  1.00  0.00     0.057 A 
ATOM     67  C   UNL A   1      41.741  28.034  26.938  1.00  0.00     0.134 A 
ATOM     68  C   UNL A   1      40.217  26.477  27.857  1.00  0.00     0.134 A 
ATOM     69  F   UNL A   1      42.568  29.066  27.080  1.00  0.00    -0.206 F 
ATOM     70  C   UNL A   1      41.703  27.229  25.775  1.00  0.00     0.040 A 
ATOM     71  C   UNL A   1      40.333  25.679  26.746  1.00  0.00     0.040 A 
ATOM     72  F   UNL A   1      39.475  26.074  28.884  1.00  0.00    -0.206 F 
ATOM     73  C   UNL A   1      41.161  26.026  25.714  1.00  0.00     0.006 A 
ENDBRANCH  52  66
BRANCH  53  74
ATOM     74  C   UNL A   1      39.588  32.931  36.243  1.00  0.00     0.057 A 
ATOM     75  C   UNL A   1      38.575  32.595  37.126  1.00  0.00     0.134 A 
ATOM     76  C   UNL A   1      40.293  34.046  36.396  1.00  0.00     0.134 A 
ATOM     77  F   UNL A   1      38.019  31.387  37.166  1.00  0.00    -0.206 F 
ATOM     78  C   UNL A   1      38.186  33.652  37.981  1.00  0.00     0.040 A 
ATOM     79  C   UNL A   1      39.936  34.975  37.344  1.00  0.00     0.040 A 
ATOM     80  F   UNL A   1      41.353  34.266  35.624  1.00  0.00    -0.206 F 
ATOM     81  C   UNL A   1      38.907  34.734  38.212  1.00  0.00     0.006 A 
ENDBRANCH  53  74
BRANCH  65  82
ATOM     82  C   UNL A   1      43.994  27.866  34.182  1.00  0.00     0.057 A 
ATOM     83  C   UNL A   1      45.280  28.383  34.195  1.00  0.00     0.134 A 
ATOM     84  C   UNL A   1      43.707  26.720  34.788  1.00  0.00     0.134 A 
ATOM     85  F   UNL A   1      45.565  29.630  33.830  1.00  0.00    -0.206 F 
ATOM     86  C   UNL A   1      46.262  27.464  34.634  1.00  0.00     0.040 A 
ATOM     87  C   UNL A   1      44.705  25.937  35.314  1.00  0.00     0.040 A 
ATOM     88  F   UNL A   1      42.440  26.326  34.885  1.00  0.00    -0.206 F 
ATOM     89  C   UNL A   1      46.006  26.358  35.309  1.00  0.00     0.006 A 
ENDBRANCH  65  82
ENDBRANCH  39  40
ENDBRANCH  31  34
ENDBRANCH  29  30
ENDBRANCH   1  29
TORSDOF 13
ENDMDL
