MODEL 1
REMARK VINA RESULT:     -11.8      0.000      0.000
REMARK SMILES C[NH2+][C@]1(C(=O)NCCCCNC(=O)c2ccc(-c3c4nc(c(-c5c(F)cccc5F)c5ccc([nH]5)c(-c5c(F)cccc5F)c5nc(c(-c6c(F)cccc6F)c6ccc3[nH]6)C=C5)C=C4)cc2)CCC[C@@H](Sc2nccs2)C1
REMARK SMILES IDX 8 1 7 2 6 3 4 4 5 5 3 7 68 8 78 9 69 10 71 11 70 12 2 13
REMARK SMILES IDX 1 14 72 17 73 18 74 19 77 20 75 21 76 22 9 23 10 24 11 25
REMARK SMILES IDX 12 26 13 28 14 29 15 30 67 31 16 32 66 33 17 34 18 35 19 36
REMARK SMILES IDX 60 37 20 38 65 39 59 40 61 41 21 42 64 43 58 44 57 45 22 47
REMARK SMILES IDX 48 48 31 49 47 50 32 51 35 52 46 53 62 54 33 55 34 56 45 58
REMARK SMILES IDX 63 59 36 60 23 61 24 62 29 63 25 64 26 65 28 66 30 67 27 68
REMARK SMILES IDX 49 69 50 70 55 71 51 72 52 73 54 74 56 75 53 76 37 77 38 78
REMARK SMILES IDX 43 79 39 80 40 81 42 82 44 83 41 84
REMARK H PARENT 6 6 2 15 2 16 11 27 61 46 35 57
REMARK Flexibility Score: inf
ROOT
ATOM      1  C   UNL A   1      31.998  30.465  26.675  1.00  0.00     0.023 C 
ENDROOT
BRANCH   1   2
ATOM      2  C   UNL A   1      31.447  29.866  25.383  1.00  0.00     0.116 C 
BRANCH   2   3
ATOM      3  N   UNL A   1      32.502  29.631  24.413  1.00  0.00    -0.351 N 
ATOM      4  C   UNL A   1      32.631  28.701  23.424  1.00  0.00     0.281 C 
ATOM      5  O   UNL A   1      33.719  28.682  22.831  1.00  0.00    -0.268 OA
ATOM      6  H   UNL A   1      33.261  30.255  24.481  1.00  0.00     0.163 HD
BRANCH   4   7
ATOM      7  C   UNL A   1      31.490  27.671  23.049  1.00  0.00     0.176 C 
ATOM      8  C   UNL A   1      31.518  26.522  24.091  1.00  0.00     0.079 C 
ATOM      9  C   UNL A   1      30.143  28.440  22.970  1.00  0.00     0.094 C 
ATOM     10  C   UNL A   1      30.230  25.720  24.236  1.00  0.00     0.008 C 
ATOM     11  C   UNL A   1      28.907  27.555  23.137  1.00  0.00     0.061 C 
ATOM     12  C   UNL A   1      29.006  26.619  24.342  1.00  0.00     0.015 C 
BRANCH   7  13
ATOM     13  N   UNL A   1      31.784  27.243  21.646  1.00  0.00    -0.336 N 
ATOM     14  C   UNL A   1      32.218  25.887  21.388  1.00  0.00     0.331 C 
ATOM     15  H   UNL A   1      30.931  27.388  21.106  1.00  0.00     0.346 HD
ATOM     16  H   UNL A   1      32.596  27.805  21.391  1.00  0.00     0.346 HD
ENDBRANCH   7  13
BRANCH  11  17
ATOM     17  S   UNL A   1      27.357  28.536  23.150  1.00  0.00    -0.092 SA
BRANCH  17  18
ATOM     18  C   UNL A   1      27.834  30.059  22.434  1.00  0.00     0.150 A 
ATOM     19  N   UNL A   1      28.006  30.208  21.139  1.00  0.00    -0.238 NA
ATOM     20  S   UNL A   1      28.085  31.467  23.384  1.00  0.00    -0.116 S 
ATOM     21  C   UNL A   1      28.321  31.525  20.864  1.00  0.00     0.124 A 
ATOM     22  C   UNL A   1      28.431  32.353  21.959  1.00  0.00     0.087 A 
ENDBRANCH  17  18
ENDBRANCH  11  17
ENDBRANCH   4   7
ENDBRANCH   2   3
ENDBRANCH   1   2
BRANCH   1  23
ATOM     23  C   UNL A   1      31.675  31.943  26.882  1.00  0.00     0.023 C 
BRANCH  23  24
ATOM     24  C   UNL A   1      32.858  32.810  27.292  1.00  0.00     0.116 C 
BRANCH  24  25
ATOM     25  N   UNL A   1      32.475  34.168  27.646  1.00  0.00    -0.352 N 
ATOM     26  C   UNL A   1      33.009  34.993  28.606  1.00  0.00     0.251 C 
ATOM     27  H   UNL A   1      31.730  34.549  27.126  1.00  0.00     0.163 HD
ATOM     28  O   UNL A   1      32.494  36.080  28.848  1.00  0.00    -0.269 OA
BRANCH  26  29
ATOM     29  C   UNL A   1      34.191  34.544  29.370  1.00  0.00     0.039 A 
ATOM     30  C   UNL A   1      34.007  34.000  30.643  1.00  0.00     0.014 A 
ATOM     31  C   UNL A   1      35.470  34.623  28.812  1.00  0.00     0.014 A 
ATOM     32  C   UNL A   1      35.100  33.470  31.330  1.00  0.00     0.010 A 
ATOM     33  C   UNL A   1      36.544  34.028  29.465  1.00  0.00     0.010 A 
ATOM     34  C   UNL A   1      36.369  33.444  30.729  1.00  0.00    -0.014 A 
BRANCH  34  35
ATOM     35  C   UNL A   1      37.529  32.811  31.405  1.00  0.00     0.031 A 
ATOM     36  C   UNL A   1      38.199  31.616  30.787  1.00  0.00     0.074 A 
ATOM     37  C   UNL A   1      37.933  33.268  32.606  1.00  0.00     0.049 A 
ATOM     38  N   UNL A   1      39.171  30.877  31.260  1.00  0.00    -0.248 NA
ATOM     39  C   UNL A   1      37.691  31.175  29.479  1.00  0.00     0.031 C 
ATOM     40  C   UNL A   1      37.335  34.390  33.333  1.00  0.00     0.029 A 
ATOM     41  N   UNL A   1      38.938  32.835  33.434  1.00  0.00    -0.354 N 
ATOM     42  C   UNL A   1      39.379  29.880  30.316  1.00  0.00     0.074 A 
ATOM     43  C   UNL A   1      38.398  30.075  29.270  1.00  0.00     0.031 C 
ATOM     44  C   UNL A   1      38.000  34.571  34.485  1.00  0.00     0.029 A 
ATOM     45  C   UNL A   1      39.045  33.558  34.597  1.00  0.00     0.049 A 
ATOM     46  H   UNL A   1      39.528  32.076  33.215  1.00  0.00     0.167 HD
ATOM     47  C   UNL A   1      40.317  28.903  30.308  1.00  0.00     0.037 A 
ATOM     48  C   UNL A   1      39.887  33.417  35.638  1.00  0.00     0.037 A 
ATOM     49  C   UNL A   1      41.308  28.726  31.336  1.00  0.00     0.049 A 
ATOM     50  C   UNL A   1      40.918  32.323  35.607  1.00  0.00     0.074 A 
ATOM     51  C   UNL A   1      42.337  27.802  31.391  1.00  0.00     0.029 A 
ATOM     52  N   UNL A   1      41.395  29.492  32.488  1.00  0.00    -0.354 N 
ATOM     53  N   UNL A   1      41.142  31.424  34.679  1.00  0.00    -0.248 NA
ATOM     54  C   UNL A   1      41.815  32.225  36.767  1.00  0.00     0.031 C 
ATOM     55  C   UNL A   1      43.024  27.984  32.596  1.00  0.00     0.029 A 
ATOM     56  C   UNL A   1      42.450  29.050  33.270  1.00  0.00     0.049 A 
ATOM     57  H   UNL A   1      40.796  30.239  32.717  1.00  0.00     0.167 HD
ATOM     58  C   UNL A   1      42.222  30.675  35.128  1.00  0.00     0.074 A 
ATOM     59  C   UNL A   1      42.614  31.232  36.406  1.00  0.00     0.031 C 
ATOM     60  C   UNL A   1      42.834  29.622  34.535  1.00  0.00     0.037 A 
BRANCH  47  61
ATOM     61  C   UNL A   1      40.317  27.957  29.144  1.00  0.00     0.057 A 
ATOM     62  C   UNL A   1      39.553  26.783  29.147  1.00  0.00     0.134 A 
ATOM     63  C   UNL A   1      41.067  28.237  27.995  1.00  0.00     0.134 A 
ATOM     64  F   UNL A   1      38.824  26.450  30.223  1.00  0.00    -0.206 F 
ATOM     65  C   UNL A   1      39.554  25.908  28.059  1.00  0.00     0.040 A 
ATOM     66  C   UNL A   1      41.055  27.383  26.890  1.00  0.00     0.040 A 
ATOM     67  F   UNL A   1      41.817  29.347  27.923  1.00  0.00    -0.206 F 
ATOM     68  C   UNL A   1      40.301  26.211  26.924  1.00  0.00     0.006 A 
ENDBRANCH  47  61
BRANCH  48  69
ATOM     69  C   UNL A   1      39.814  34.354  36.787  1.00  0.00     0.057 A 
ATOM     70  C   UNL A   1      39.118  34.009  37.951  1.00  0.00     0.134 A 
ATOM     71  C   UNL A   1      40.424  35.613  36.748  1.00  0.00     0.134 A 
ATOM     72  F   UNL A   1      38.497  32.823  38.040  1.00  0.00    -0.206 F 
ATOM     73  C   UNL A   1      39.015  34.888  39.029  1.00  0.00     0.040 A 
ATOM     74  C   UNL A   1      40.348  36.494  37.828  1.00  0.00     0.040 A 
ATOM     75  F   UNL A   1      41.111  35.999  35.663  1.00  0.00    -0.206 F 
ATOM     76  C   UNL A   1      39.635  36.135  38.971  1.00  0.00     0.006 A 
ENDBRANCH  48  69
BRANCH  60  77
ATOM     77  C   UNL A   1      44.014  29.026  35.242  1.00  0.00     0.057 A 
ATOM     78  C   UNL A   1      43.875  27.975  36.157  1.00  0.00     0.134 A 
ATOM     79  C   UNL A   1      45.310  29.485  34.975  1.00  0.00     0.134 A 
ATOM     80  F   UNL A   1      42.660  27.500  36.467  1.00  0.00    -0.206 F 
ATOM     81  C   UNL A   1      44.983  27.415  36.796  1.00  0.00     0.040 A 
ATOM     82  C   UNL A   1      46.427  28.916  35.589  1.00  0.00     0.040 A 
ATOM     83  F   UNL A   1      45.512  30.485  34.102  1.00  0.00    -0.206 F 
ATOM     84  C   UNL A   1      46.264  27.881  36.506  1.00  0.00     0.006 A 
ENDBRANCH  60  77
ENDBRANCH  34  35
ENDBRANCH  26  29
ENDBRANCH  24  25
ENDBRANCH  23  24
ENDBRANCH   1  23
TORSDOF 14
ENDMDL
MODEL 2
REMARK VINA RESULT:     -11.7      0.853      6.401
REMARK SMILES C[NH2+][C@]1(C(=O)NCCCCNC(=O)c2ccc(-c3c4nc(c(-c5c(F)cccc5F)c5ccc([nH]5)c(-c5c(F)cccc5F)c5nc(c(-c6c(F)cccc6F)c6ccc3[nH]6)C=C5)C=C4)cc2)CCC[C@@H](Sc2nccs2)C1
REMARK SMILES IDX 8 1 7 2 6 3 4 4 5 5 3 7 68 8 78 9 69 10 71 11 70 12 2 13
REMARK SMILES IDX 1 14 72 17 73 18 74 19 77 20 75 21 76 22 9 23 10 24 11 25
REMARK SMILES IDX 12 26 13 28 14 29 15 30 67 31 16 32 66 33 17 34 18 35 19 36
REMARK SMILES IDX 60 37 20 38 65 39 59 40 61 41 21 42 64 43 58 44 57 45 22 47
REMARK SMILES IDX 48 48 31 49 47 50 32 51 35 52 46 53 62 54 33 55 34 56 45 58
REMARK SMILES IDX 63 59 36 60 23 61 24 62 29 63 25 64 26 65 28 66 30 67 27 68
REMARK SMILES IDX 49 69 50 70 55 71 51 72 52 73 54 74 56 75 53 76 37 77 38 78
REMARK SMILES IDX 43 79 39 80 40 81 42 82 44 83 41 84
REMARK H PARENT 6 6 2 15 2 16 11 27 61 46 35 57
REMARK Flexibility Score: inf
ROOT
ATOM      1  C   UNL A   1      32.052  30.490  26.915  1.00  0.00     0.023 C 
ENDROOT
BRANCH   1   2
ATOM      2  C   UNL A   1      31.537  29.728  25.695  1.00  0.00     0.116 C 
BRANCH   2   3
ATOM      3  N   UNL A   1      32.539  29.667  24.645  1.00  0.00    -0.351 N 
ATOM      4  C   UNL A   1      32.660  28.852  23.557  1.00  0.00     0.281 C 
ATOM      5  O   UNL A   1      33.705  28.970  22.902  1.00  0.00    -0.268 OA
ATOM      6  H   UNL A   1      33.259  30.332  24.733  1.00  0.00     0.163 HD
BRANCH   4   7
ATOM      7  C   UNL A   1      31.563  27.789  23.145  1.00  0.00     0.176 C 
ATOM      8  C   UNL A   1      31.607  26.630  24.175  1.00  0.00     0.079 C 
ATOM      9  C   UNL A   1      30.194  28.513  23.042  1.00  0.00     0.094 C 
ATOM     10  C   UNL A   1      30.343  25.782  24.281  1.00  0.00     0.008 C 
ATOM     11  C   UNL A   1      28.985  27.584  23.170  1.00  0.00     0.061 C 
ATOM     12  C   UNL A   1      29.087  26.639  24.367  1.00  0.00     0.015 C 
BRANCH   7  13
ATOM     13  N   UNL A   1      31.905  27.386  21.745  1.00  0.00    -0.336 N 
ATOM     14  C   UNL A   1      32.405  26.054  21.486  1.00  0.00     0.331 C 
ATOM     15  H   UNL A   1      31.057  27.498  21.189  1.00  0.00     0.346 HD
ATOM     16  H   UNL A   1      32.696  27.987  21.510  1.00  0.00     0.346 HD
ENDBRANCH   7  13
BRANCH  11  17
ATOM     17  S   UNL A   1      27.402  28.511  23.156  1.00  0.00    -0.092 SA
BRANCH  17  18
ATOM     18  C   UNL A   1      27.833  30.038  22.419  1.00  0.00     0.150 A 
ATOM     19  N   UNL A   1      28.027  30.167  21.124  1.00  0.00    -0.238 NA
ATOM     20  S   UNL A   1      28.004  31.475  23.343  1.00  0.00    -0.116 S 
ATOM     21  C   UNL A   1      28.294  31.490  20.827  1.00  0.00     0.124 A 
ATOM     22  C   UNL A   1      28.345  32.344  21.907  1.00  0.00     0.087 A 
ENDBRANCH  17  18
ENDBRANCH  11  17
ENDBRANCH   4   7
ENDBRANCH   2   3
ENDBRANCH   1   2
BRANCH   1  23
ATOM     23  C   UNL A   1      31.692  31.973  26.939  1.00  0.00     0.023 C 
BRANCH  23  24
ATOM     24  C   UNL A   1      32.873  32.921  27.106  1.00  0.00     0.116 C 
BRANCH  24  25
ATOM     25  N   UNL A   1      32.497  34.209  27.667  1.00  0.00    -0.352 N 
ATOM     26  C   UNL A   1      33.057  34.889  28.720  1.00  0.00     0.251 C 
ATOM     27  H   UNL A   1      31.736  34.657  27.231  1.00  0.00     0.163 HD
ATOM     28  O   UNL A   1      32.546  35.924  29.134  1.00  0.00    -0.269 OA
BRANCH  26  29
ATOM     29  C   UNL A   1      34.263  34.342  29.375  1.00  0.00     0.039 A 
ATOM     30  C   UNL A   1      34.114  33.545  30.512  1.00  0.00     0.014 A 
ATOM     31  C   UNL A   1      35.533  34.581  28.841  1.00  0.00     0.014 A 
ATOM     32  C   UNL A   1      35.233  32.930  31.075  1.00  0.00     0.010 A 
ATOM     33  C   UNL A   1      36.636  33.910  29.357  1.00  0.00     0.010 A 
ATOM     34  C   UNL A   1      36.496  33.076  30.478  1.00  0.00    -0.014 A 
BRANCH  34  35
ATOM     35  C   UNL A   1      37.687  32.366  31.008  1.00  0.00     0.031 A 
ATOM     36  C   UNL A   1      38.383  32.878  32.237  1.00  0.00     0.074 A 
ATOM     37  C   UNL A   1      38.181  31.303  30.343  1.00  0.00     0.049 A 
ATOM     38  N   UNL A   1      39.480  32.446  32.807  1.00  0.00    -0.248 NA
ATOM     39  C   UNL A   1      37.785  34.048  32.898  1.00  0.00     0.031 C 
ATOM     40  C   UNL A   1      37.624  30.738  29.113  1.00  0.00     0.029 A 
ATOM     41  N   UNL A   1      39.273  30.515  30.605  1.00  0.00    -0.354 N 
ATOM     42  C   UNL A   1      39.708  33.298  33.879  1.00  0.00     0.074 A 
ATOM     43  C   UNL A   1      38.669  34.303  33.850  1.00  0.00     0.031 C 
ATOM     44  C   UNL A   1      38.364  29.681  28.742  1.00  0.00     0.029 A 
ATOM     45  C   UNL A   1      39.466  29.515  29.683  1.00  0.00     0.049 A 
ATOM     46  H   UNL A   1      39.864  30.653  31.382  1.00  0.00     0.167 HD
ATOM     47  C   UNL A   1      40.683  33.236  34.818  1.00  0.00     0.037 A 
ATOM     48  C   UNL A   1      40.426  28.574  29.605  1.00  0.00     0.037 A 
ATOM     49  C   UNL A   1      41.701  32.220  34.860  1.00  0.00     0.049 A 
ATOM     50  C   UNL A   1      41.498  28.528  30.657  1.00  0.00     0.074 A 
ATOM     51  C   UNL A   1      42.698  32.037  35.803  1.00  0.00     0.029 A 
ATOM     52  N   UNL A   1      41.850  31.213  33.919  1.00  0.00    -0.354 N 
ATOM     53  N   UNL A   1      41.667  29.304  31.701  1.00  0.00    -0.248 NA
ATOM     54  C   UNL A   1      42.513  27.473  30.523  1.00  0.00     0.031 C 
ATOM     55  C   UNL A   1      43.475  30.942  35.411  1.00  0.00     0.029 A 
ATOM     56  C   UNL A   1      42.934  30.416  34.249  1.00  0.00     0.049 A 
ATOM     57  H   UNL A   1      41.272  31.084  33.132  1.00  0.00     0.167 HD
ATOM     58  C   UNL A   1      42.785  28.814  32.363  1.00  0.00     0.074 A 
ATOM     59  C   UNL A   1      43.248  27.667  31.608  1.00  0.00     0.031 C 
ATOM     60  C   UNL A   1      43.376  29.272  33.493  1.00  0.00     0.037 A 
BRANCH  47  61
ATOM     61  C   UNL A   1      40.684  34.294  35.881  1.00  0.00     0.057 A 
ATOM     62  C   UNL A   1      41.397  35.490  35.730  1.00  0.00     0.134 A 
ATOM     63  C   UNL A   1      39.940  34.129  37.056  1.00  0.00     0.134 A 
ATOM     64  F   UNL A   1      42.141  35.704  34.634  1.00  0.00    -0.206 F 
ATOM     65  C   UNL A   1      41.392  36.474  36.721  1.00  0.00     0.040 A 
ATOM     66  C   UNL A   1      39.906  35.117  38.042  1.00  0.00     0.040 A 
ATOM     67  F   UNL A   1      39.230  33.010  37.262  1.00  0.00    -0.206 F 
ATOM     68  C   UNL A   1      40.639  36.290  37.878  1.00  0.00     0.006 A 
ENDBRANCH  47  61
BRANCH  48  69
ATOM     69  C   UNL A   1      40.403  27.578  28.505  1.00  0.00     0.057 A 
ATOM     70  C   UNL A   1      41.061  27.829  27.295  1.00  0.00     0.134 A 
ATOM     71  C   UNL A   1      39.720  26.363  28.629  1.00  0.00     0.134 A 
ATOM     72  F   UNL A   1      41.717  28.984  27.110  1.00  0.00    -0.206 F 
ATOM     73  C   UNL A   1      41.025  26.916  26.240  1.00  0.00     0.040 A 
ATOM     74  C   UNL A   1      39.695  25.430  27.590  1.00  0.00     0.040 A 
ATOM     75  F   UNL A   1      39.076  26.061  29.766  1.00  0.00    -0.206 F 
ATOM     76  C   UNL A   1      40.344  25.710  26.389  1.00  0.00     0.006 A 
ENDBRANCH  48  69
BRANCH  60  77
ATOM     77  C   UNL A   1      44.563  28.511  34.004  1.00  0.00     0.057 A 
ATOM     78  C   UNL A   1      44.423  27.411  34.860  1.00  0.00     0.134 A 
ATOM     79  C   UNL A   1      45.858  28.860  33.602  1.00  0.00     0.134 A 
ATOM     80  F   UNL A   1      43.211  27.036  35.292  1.00  0.00    -0.206 F 
ATOM     81  C   UNL A   1      45.535  26.698  35.314  1.00  0.00     0.040 A 
ATOM     82  C   UNL A   1      46.974  28.139  34.029  1.00  0.00     0.040 A 
ATOM     83  F   UNL A   1      46.059  29.899  32.776  1.00  0.00    -0.206 F 
ATOM     84  C   UNL A   1      46.813  27.058  34.892  1.00  0.00     0.006 A 
ENDBRANCH  60  77
ENDBRANCH  34  35
ENDBRANCH  26  29
ENDBRANCH  24  25
ENDBRANCH  23  24
ENDBRANCH   1  23
TORSDOF 14
ENDMDL
MODEL 3
REMARK VINA RESULT:     -11.3      1.158      6.416
REMARK SMILES C[NH2+][C@]1(C(=O)NCCCCNC(=O)c2ccc(-c3c4nc(c(-c5c(F)cccc5F)c5ccc([nH]5)c(-c5c(F)cccc5F)c5nc(c(-c6c(F)cccc6F)c6ccc3[nH]6)C=C5)C=C4)cc2)CCC[C@@H](Sc2nccs2)C1
REMARK SMILES IDX 8 1 7 2 6 3 4 4 5 5 3 7 68 8 78 9 69 10 71 11 70 12 2 13
REMARK SMILES IDX 1 14 72 17 73 18 74 19 77 20 75 21 76 22 9 23 10 24 11 25
REMARK SMILES IDX 12 26 13 28 14 29 15 30 67 31 16 32 66 33 17 34 18 35 19 36
REMARK SMILES IDX 60 37 20 38 65 39 59 40 61 41 21 42 64 43 58 44 57 45 22 47
REMARK SMILES IDX 48 48 31 49 47 50 32 51 35 52 46 53 62 54 33 55 34 56 45 58
REMARK SMILES IDX 63 59 36 60 23 61 24 62 29 63 25 64 26 65 28 66 30 67 27 68
REMARK SMILES IDX 49 69 50 70 55 71 51 72 52 73 54 74 56 75 53 76 37 77 38 78
REMARK SMILES IDX 43 79 39 80 40 81 42 82 44 83 41 84
REMARK H PARENT 6 6 2 15 2 16 11 27 61 46 35 57
REMARK Flexibility Score: inf
ROOT
ATOM      1  C   UNL A   1      31.782  30.555  26.873  1.00  0.00     0.023 C 
ENDROOT
BRANCH   1   2
ATOM      2  C   UNL A   1      33.209  30.120  26.542  1.00  0.00     0.116 C 
BRANCH   2   3
ATOM      3  N   UNL A   1      33.381  28.688  26.715  1.00  0.00    -0.351 N 
ATOM      4  C   UNL A   1      33.150  27.641  25.872  1.00  0.00     0.281 C 
ATOM      5  O   UNL A   1      33.284  26.510  26.359  1.00  0.00    -0.268 OA
ATOM      6  H   UNL A   1      33.727  28.426  27.599  1.00  0.00     0.163 HD
BRANCH   4   7
ATOM      7  C   UNL A   1      32.707  27.824  24.365  1.00  0.00     0.176 C 
ATOM      8  C   UNL A   1      33.077  26.531  23.594  1.00  0.00     0.079 C 
ATOM      9  C   UNL A   1      31.197  28.184  24.338  1.00  0.00     0.094 C 
ATOM     10  C   UNL A   1      32.307  26.278  22.302  1.00  0.00     0.008 C 
ATOM     11  C   UNL A   1      30.506  27.887  23.006  1.00  0.00     0.061 C 
ATOM     12  C   UNL A   1      30.809  26.483  22.481  1.00  0.00     0.015 C 
BRANCH   7  13
ATOM     13  N   UNL A   1      33.416  29.054  23.888  1.00  0.00    -0.336 N 
ATOM     14  C   UNL A   1      34.444  28.939  22.877  1.00  0.00     0.331 C 
ATOM     15  H   UNL A   1      32.702  29.681  23.516  1.00  0.00     0.346 HD
ATOM     16  H   UNL A   1      33.926  29.369  24.713  1.00  0.00     0.346 HD
ENDBRANCH   7  13
BRANCH  11  17
ATOM     17  S   UNL A   1      28.705  28.224  23.075  1.00  0.00    -0.092 SA
BRANCH  17  18
ATOM     18  C   UNL A   1      28.571  29.846  22.432  1.00  0.00     0.150 A 
ATOM     19  N   UNL A   1      28.242  30.085  21.181  1.00  0.00    -0.238 NA
ATOM     20  S   UNL A   1      28.840  31.233  23.407  1.00  0.00    -0.116 S 
ATOM     21  C   UNL A   1      28.158  31.449  20.978  1.00  0.00     0.124 A 
ATOM     22  C   UNL A   1      28.470  32.233  22.067  1.00  0.00     0.087 A 
ENDBRANCH  17  18
ENDBRANCH  11  17
ENDBRANCH   4   7
ENDBRANCH   2   3
ENDBRANCH   1   2
BRANCH   1  23
ATOM     23  C   UNL A   1      31.558  32.065  26.869  1.00  0.00     0.023 C 
BRANCH  23  24
ATOM     24  C   UNL A   1      32.805  32.902  27.124  1.00  0.00     0.116 C 
BRANCH  24  25
ATOM     25  N   UNL A   1      32.505  34.231  27.636  1.00  0.00    -0.352 N 
ATOM     26  C   UNL A   1      33.092  34.906  28.678  1.00  0.00     0.251 C 
ATOM     27  H   UNL A   1      31.783  34.713  27.171  1.00  0.00     0.163 HD
ATOM     28  O   UNL A   1      32.644  35.986  29.049  1.00  0.00    -0.269 OA
BRANCH  26  29
ATOM     29  C   UNL A   1      34.247  34.303  29.373  1.00  0.00     0.039 A 
ATOM     30  C   UNL A   1      34.015  33.414  30.425  1.00  0.00     0.014 A 
ATOM     31  C   UNL A   1      35.552  34.583  28.958  1.00  0.00     0.014 A 
ATOM     32  C   UNL A   1      35.091  32.751  31.017  1.00  0.00     0.010 A 
ATOM     33  C   UNL A   1      36.615  33.867  29.497  1.00  0.00     0.010 A 
ATOM     34  C   UNL A   1      36.395  32.943  30.531  1.00  0.00    -0.014 A 
BRANCH  34  35
ATOM     35  C   UNL A   1      37.545  32.187  31.087  1.00  0.00     0.031 A 
ATOM     36  C   UNL A   1      38.086  32.533  32.446  1.00  0.00     0.074 A 
ATOM     37  C   UNL A   1      38.144  31.238  30.341  1.00  0.00     0.049 A 
ATOM     38  N   UNL A   1      39.129  32.045  33.069  1.00  0.00    -0.248 NA
ATOM     39  C   UNL A   1      37.380  33.586  33.191  1.00  0.00     0.031 C 
ATOM     40  C   UNL A   1      37.744  30.843  28.990  1.00  0.00     0.029 A 
ATOM     41  N   UNL A   1      39.228  30.442  30.612  1.00  0.00    -0.354 N 
ATOM     42  C   UNL A   1      39.211  32.741  34.268  1.00  0.00     0.074 A 
ATOM     43  C   UNL A   1      38.146  33.721  34.263  1.00  0.00     0.031 C 
ATOM     44  C   UNL A   1      38.555  29.863  28.561  1.00  0.00     0.029 A 
ATOM     45  C   UNL A   1      39.554  29.586  29.588  1.00  0.00     0.049 A 
ATOM     46  H   UNL A   1      39.726  30.480  31.462  1.00  0.00     0.167 HD
ATOM     47  C   UNL A   1      40.079  32.565  35.292  1.00  0.00     0.037 A 
ATOM     48  C   UNL A   1      40.548  28.684  29.488  1.00  0.00     0.037 A 
ATOM     49  C   UNL A   1      41.121  31.572  35.307  1.00  0.00     0.049 A 
ATOM     50  C   UNL A   1      41.501  28.509  30.637  1.00  0.00     0.074 A 
ATOM     51  C   UNL A   1      42.016  31.277  36.321  1.00  0.00     0.029 A 
ATOM     52  N   UNL A   1      41.406  30.712  34.258  1.00  0.00    -0.354 N 
ATOM     53  N   UNL A   1      41.529  29.133  31.791  1.00  0.00    -0.248 NA
ATOM     54  C   UNL A   1      42.560  27.503  30.473  1.00  0.00     0.031 C 
ATOM     55  C   UNL A   1      42.867  30.263  35.871  1.00  0.00     0.029 A 
ATOM     56  C   UNL A   1      42.474  29.896  34.594  1.00  0.00     0.049 A 
ATOM     57  H   UNL A   1      40.921  30.684  33.402  1.00  0.00     0.167 HD
ATOM     58  C   UNL A   1      42.585  28.575  32.499  1.00  0.00     0.074 A 
ATOM     59  C   UNL A   1      43.166  27.556  31.650  1.00  0.00     0.031 C 
ATOM     60  C   UNL A   1      43.034  28.879  33.741  1.00  0.00     0.037 A 
BRANCH  47  61
ATOM     61  C   UNL A   1      39.929  33.462  36.486  1.00  0.00     0.057 A 
ATOM     62  C   UNL A   1      39.065  33.145  37.541  1.00  0.00     0.134 A 
ATOM     63  C   UNL A   1      40.678  34.640  36.594  1.00  0.00     0.134 A 
ATOM     64  F   UNL A   1      38.309  32.037  37.492  1.00  0.00    -0.206 F 
ATOM     65  C   UNL A   1      38.932  33.980  38.652  1.00  0.00     0.040 A 
ATOM     66  C   UNL A   1      40.573  35.470  37.713  1.00  0.00     0.040 A 
ATOM     67  F   UNL A   1      41.529  35.000  35.622  1.00  0.00    -0.206 F 
ATOM     68  C   UNL A   1      39.693  35.144  38.742  1.00  0.00     0.006 A 
ENDBRANCH  47  61
BRANCH  48  69
ATOM     69  C   UNL A   1      40.678  27.853  28.265  1.00  0.00     0.057 A 
ATOM     70  C   UNL A   1      40.066  26.597  28.182  1.00  0.00     0.134 A 
ATOM     71  C   UNL A   1      41.421  28.283  27.161  1.00  0.00     0.134 A 
ATOM     72  F   UNL A   1      39.356  26.122  29.216  1.00  0.00    -0.206 F 
ATOM     73  C   UNL A   1      40.201  25.790  27.052  1.00  0.00     0.040 A 
ATOM     74  C   UNL A   1      41.547  27.497  26.014  1.00  0.00     0.040 A 
ATOM     75  F   UNL A   1      42.026  29.480  27.176  1.00  0.00    -0.206 F 
ATOM     76  C   UNL A   1      40.941  26.242  25.961  1.00  0.00     0.006 A 
ENDBRANCH  48  69
BRANCH  60  77
ATOM     77  C   UNL A   1      44.184  28.077  34.271  1.00  0.00     0.057 A 
ATOM     78  C   UNL A   1      45.511  28.502  34.129  1.00  0.00     0.134 A 
ATOM     79  C   UNL A   1      43.957  26.883  34.968  1.00  0.00     0.134 A 
ATOM     80  F   UNL A   1      45.795  29.629  33.460  1.00  0.00    -0.206 F 
ATOM     81  C   UNL A   1      46.573  27.756  34.643  1.00  0.00     0.040 A 
ATOM     82  C   UNL A   1      45.009  26.142  35.508  1.00  0.00     0.040 A 
ATOM     83  F   UNL A   1      42.708  26.425  35.146  1.00  0.00    -0.206 F 
ATOM     84  C   UNL A   1      46.322  26.577  35.342  1.00  0.00     0.006 A 
ENDBRANCH  60  77
ENDBRANCH  34  35
ENDBRANCH  26  29
ENDBRANCH  24  25
ENDBRANCH  23  24
ENDBRANCH   1  23
TORSDOF 14
ENDMDL
