MODEL 1
REMARK VINA RESULT:     -12.0      0.000      0.000
REMARK SMILES CCOC(=O)c1c(NC(=O)c2ncccc2C(=O)NCCCCNC(=O)c2ccc(-c3c4nc(c(-c5c(F)cccc5F)c5ccc([nH]5)c(-c5c(F)cccc5F)c5nc(c(-c6c(F)cccc6F)c6ccc3[nH]6)C=C5)C=C4)cc2)sc2c1CC[C@H](C)C2
REMARK SMILES IDX 20 1 19 2 17 3 18 4 16 6 11 7 12 8 13 9 15 10 14 11 9 12
REMARK SMILES IDX 8 13 10 15 7 16 6 17 83 18 81 19 82 20 84 21 88 22 85 23
REMARK SMILES IDX 86 24 87 25 4 26 5 27 3 28 2 29 1 30 21 31 22 32 23 33 24 34
REMARK SMILES IDX 25 35 26 37 27 38 28 39 80 40 29 41 79 42 30 43 31 44 32 45
REMARK SMILES IDX 73 46 33 47 78 48 72 49 74 50 34 51 77 52 71 53 70 54 35 56
REMARK SMILES IDX 61 57 44 58 60 59 45 60 48 61 59 62 75 63 46 64 47 65 58 67
REMARK SMILES IDX 76 68 49 69 36 70 37 71 42 72 38 73 39 74 41 75 43 76 40 77
REMARK SMILES IDX 62 78 63 79 68 80 64 81 65 82 67 83 69 84 66 85 50 86 51 87
REMARK SMILES IDX 56 88 52 89 53 90 55 91 57 92 54 93
REMARK H PARENT 19 5 8 14 24 36 74 55 48 66
REMARK Flexibility Score: inf
ROOT
ATOM      1  C   UNL A   1      34.283  28.400  26.571  1.00  0.00     0.116 C 
ENDROOT
BRANCH   1   2
ATOM      2  N   UNL A   1      33.047  28.051  27.256  1.00  0.00    -0.352 N 
ATOM      3  C   UNL A   1      31.761  27.867  26.797  1.00  0.00     0.253 C 
ATOM      4  O   UNL A   1      30.886  27.602  27.618  1.00  0.00    -0.269 OA
ATOM      5  H   UNL A   1      33.148  27.922  28.227  1.00  0.00     0.163 HD
BRANCH   3   6
ATOM      6  C   UNL A   1      31.403  27.948  25.363  1.00  0.00     0.071 A 
ATOM      7  C   UNL A   1      30.804  26.883  24.690  1.00  0.00     0.141 A 
ATOM      8  N   UNL A   1      30.591  26.869  23.336  1.00  0.00    -0.250 NA
ATOM      9  C   UNL A   1      30.991  27.938  22.626  1.00  0.00     0.112 A 
ATOM     10  C   UNL A   1      31.800  29.041  24.581  1.00  0.00     0.018 A 
ATOM     11  C   UNL A   1      31.571  29.049  23.203  1.00  0.00     0.021 A 
BRANCH   7  12
ATOM     12  C   UNL A   1      30.486  25.582  25.312  1.00  0.00     0.275 C 
ATOM     13  N   UNL A   1      31.331  24.511  25.347  1.00  0.00    -0.311 N 
ATOM     14  H   UNL A   1      30.913  23.721  25.759  1.00  0.00     0.171 HD
ATOM     15  O   UNL A   1      29.369  25.444  25.825  1.00  0.00    -0.267 OA
BRANCH  13  16
ATOM     16  C   UNL A   1      32.618  24.266  24.949  1.00  0.00     0.110 A 
ATOM     17  C   UNL A   1      33.357  23.911  23.829  1.00  0.00     0.098 A 
ATOM     18  C   UNL A   1      34.745  23.642  24.223  1.00  0.00    -0.017 A 
ATOM     19  S   UNL A   1      33.589  24.441  26.352  1.00  0.00    -0.122 S 
ATOM     20  C   UNL A   1      34.950  23.832  25.575  1.00  0.00     0.011 A 
ATOM     21  C   UNL A   1      35.894  23.227  23.336  1.00  0.00     0.038 C 
ATOM     22  C   UNL A   1      36.209  23.541  26.331  1.00  0.00     0.050 C 
ATOM     23  C   UNL A   1      37.020  22.555  24.150  1.00  0.00     0.008 C 
ATOM     24  C   UNL A   1      37.403  23.422  25.366  1.00  0.00    -0.009 C 
ATOM     25  C   UNL A   1      38.621  22.866  26.097  1.00  0.00     0.008 C 
BRANCH  17  26
ATOM     26  C   UNL A   1      32.888  23.772  22.453  1.00  0.00     0.341 C 
ATOM     27  O   UNL A   1      32.615  24.758  21.766  1.00  0.00    -0.246 OA
BRANCH  26  28
ATOM     28  O   UNL A   1      32.720  22.495  22.045  1.00  0.00    -0.462 OA
BRANCH  28  29
ATOM     29  C   UNL A   1      31.879  21.583  22.792  1.00  0.00     0.230 C 
ATOM     30  C   UNL A   1      32.525  20.408  23.516  1.00  0.00     0.049 C 
ENDBRANCH  28  29
ENDBRANCH  26  28
ENDBRANCH  17  26
ENDBRANCH  13  16
ENDBRANCH   7  12
ENDBRANCH   3   6
ENDBRANCH   1   2
BRANCH   1  31
ATOM     31  C   UNL A   1      34.839  29.766  26.977  1.00  0.00     0.023 C 
BRANCH  31  32
ATOM     32  C   UNL A   1      33.906  30.794  27.613  1.00  0.00     0.023 C 
BRANCH  32  33
ATOM     33  C   UNL A   1      34.544  32.134  27.906  1.00  0.00     0.116 C 
BRANCH  33  34
ATOM     34  N   UNL A   1      34.490  32.512  29.319  1.00  0.00    -0.352 N 
ATOM     35  C   UNL A   1      35.239  31.973  30.352  1.00  0.00     0.251 C 
ATOM     36  H   UNL A   1      33.853  33.223  29.561  1.00  0.00     0.163 HD
ATOM     37  O   UNL A   1      34.892  32.065  31.521  1.00  0.00    -0.269 OA
BRANCH  35  38
ATOM     38  C   UNL A   1      36.489  31.287  29.989  1.00  0.00     0.039 A 
ATOM     39  C   UNL A   1      37.658  31.982  29.677  1.00  0.00     0.014 A 
ATOM     40  C   UNL A   1      36.480  29.900  30.095  1.00  0.00     0.014 A 
ATOM     41  C   UNL A   1      38.846  31.263  29.569  1.00  0.00     0.010 A 
ATOM     42  C   UNL A   1      37.668  29.233  30.191  1.00  0.00     0.010 A 
ATOM     43  C   UNL A   1      38.846  29.888  29.861  1.00  0.00    -0.014 A 
BRANCH  43  44
ATOM     44  C   UNL A   1      40.087  29.125  29.932  1.00  0.00     0.031 A 
ATOM     45  C   UNL A   1      40.638  28.959  31.304  1.00  0.00     0.074 A 
ATOM     46  C   UNL A   1      40.579  28.440  28.876  1.00  0.00     0.049 A 
ATOM     47  N   UNL A   1      41.717  29.482  31.781  1.00  0.00    -0.248 NA
ATOM     48  C   UNL A   1      39.831  28.247  32.311  1.00  0.00     0.031 C 
ATOM     49  C   UNL A   1      39.986  28.251  27.544  1.00  0.00     0.029 A 
ATOM     50  N   UNL A   1      41.696  27.669  28.806  1.00  0.00    -0.354 N 
ATOM     51  C   UNL A   1      41.846  28.991  33.078  1.00  0.00     0.074 A 
ATOM     52  C   UNL A   1      40.577  28.400  33.408  1.00  0.00     0.031 C 
ATOM     53  C   UNL A   1      40.615  27.243  26.902  1.00  0.00     0.029 A 
ATOM     54  C   UNL A   1      41.765  26.845  27.689  1.00  0.00     0.049 A 
ATOM     55  H   UNL A   1      42.402  27.694  29.493  1.00  0.00     0.167 HD
ATOM     56  C   UNL A   1      43.071  28.900  33.668  1.00  0.00     0.037 A 
ATOM     57  C   UNL A   1      42.699  25.895  27.436  1.00  0.00     0.037 A 
ATOM     58  C   UNL A   1      44.048  29.680  32.947  1.00  0.00     0.049 A 
ATOM     59  C   UNL A   1      43.877  26.210  28.282  1.00  0.00     0.074 A 
ATOM     60  C   UNL A   1      44.177  31.014  32.615  1.00  0.00     0.029 A 
ATOM     61  N   UNL A   1      44.900  29.004  32.105  1.00  0.00    -0.354 N 
ATOM     62  N   UNL A   1      44.628  27.261  28.109  1.00  0.00    -0.248 NA
ATOM     63  C   UNL A   1      43.927  25.618  29.610  1.00  0.00     0.031 C 
ATOM     64  C   UNL A   1      44.698  31.013  31.287  1.00  0.00     0.029 A 
ATOM     65  C   UNL A   1      44.934  29.688  30.918  1.00  0.00     0.049 A 
ATOM     66  H   UNL A   1      45.394  28.180  32.317  1.00  0.00     0.167 HD
ATOM     67  C   UNL A   1      44.885  27.724  29.391  1.00  0.00     0.074 A 
ATOM     68  C   UNL A   1      44.500  26.624  30.276  1.00  0.00     0.031 C 
ATOM     69  C   UNL A   1      45.101  29.051  29.632  1.00  0.00     0.037 A 
BRANCH  56  70
ATOM     70  C   UNL A   1      43.487  27.813  34.633  1.00  0.00     0.057 A 
ATOM     71  C   UNL A   1      43.500  26.476  34.187  1.00  0.00     0.134 A 
ATOM     72  C   UNL A   1      43.569  27.974  36.030  1.00  0.00     0.134 A 
ATOM     73  F   UNL A   1      43.429  26.186  32.879  1.00  0.00    -0.206 F 
ATOM     74  C   UNL A   1      43.491  25.389  35.068  1.00  0.00     0.040 A 
ATOM     75  C   UNL A   1      43.611  26.893  36.916  1.00  0.00     0.040 A 
ATOM     76  F   UNL A   1      43.511  29.171  36.623  1.00  0.00    -0.206 F 
ATOM     77  C   UNL A   1      43.532  25.596  36.440  1.00  0.00     0.006 A 
ENDBRANCH  56  70
BRANCH  57  78
ATOM     78  C   UNL A   1      42.534  24.586  26.765  1.00  0.00     0.057 A 
ATOM     79  C   UNL A   1      43.088  24.346  25.500  1.00  0.00     0.134 A 
ATOM     80  C   UNL A   1      42.085  23.453  27.467  1.00  0.00     0.134 A 
ATOM     81  F   UNL A   1      43.576  25.358  24.768  1.00  0.00    -0.206 F 
ATOM     82  C   UNL A   1      43.224  23.052  24.978  1.00  0.00     0.040 A 
ATOM     83  C   UNL A   1      42.210  22.156  26.957  1.00  0.00     0.040 A 
ATOM     84  F   UNL A   1      41.595  23.559  28.711  1.00  0.00    -0.206 F 
ATOM     85  C   UNL A   1      42.798  21.950  25.714  1.00  0.00     0.006 A 
ENDBRANCH  57  78
BRANCH  69  86
ATOM     86  C   UNL A   1      45.305  29.960  28.449  1.00  0.00     0.057 A 
ATOM     87  C   UNL A   1      44.276  30.649  27.788  1.00  0.00     0.134 A 
ATOM     88  C   UNL A   1      46.615  30.264  28.061  1.00  0.00     0.134 A 
ATOM     89  F   UNL A   1      42.997  30.502  28.149  1.00  0.00    -0.206 F 
ATOM     90  C   UNL A   1      44.538  31.565  26.763  1.00  0.00     0.040 A 
ATOM     91  C   UNL A   1      46.891  31.202  27.064  1.00  0.00     0.040 A 
ATOM     92  F   UNL A   1      47.655  29.688  28.685  1.00  0.00    -0.206 F 
ATOM     93  C   UNL A   1      45.851  31.849  26.403  1.00  0.00     0.006 A 
ENDBRANCH  69  86
ENDBRANCH  43  44
ENDBRANCH  35  38
ENDBRANCH  33  34
ENDBRANCH  32  33
ENDBRANCH  31  32
ENDBRANCH   1  31
TORSDOF 16
ENDMDL
MODEL 2
REMARK VINA RESULT:     -11.9      2.716      7.921
REMARK SMILES CCOC(=O)c1c(NC(=O)c2ncccc2C(=O)NCCCCNC(=O)c2ccc(-c3c4nc(c(-c5c(F)cccc5F)c5ccc([nH]5)c(-c5c(F)cccc5F)c5nc(c(-c6c(F)cccc6F)c6ccc3[nH]6)C=C5)C=C4)cc2)sc2c1CC[C@H](C)C2
REMARK SMILES IDX 20 1 19 2 17 3 18 4 16 6 11 7 12 8 13 9 15 10 14 11 9 12
REMARK SMILES IDX 8 13 10 15 7 16 6 17 83 18 81 19 82 20 84 21 88 22 85 23
REMARK SMILES IDX 86 24 87 25 4 26 5 27 3 28 2 29 1 30 21 31 22 32 23 33 24 34
REMARK SMILES IDX 25 35 26 37 27 38 28 39 80 40 29 41 79 42 30 43 31 44 32 45
REMARK SMILES IDX 73 46 33 47 78 48 72 49 74 50 34 51 77 52 71 53 70 54 35 56
REMARK SMILES IDX 61 57 44 58 60 59 45 60 48 61 59 62 75 63 46 64 47 65 58 67
REMARK SMILES IDX 76 68 49 69 36 70 37 71 42 72 38 73 39 74 41 75 43 76 40 77
REMARK SMILES IDX 62 78 63 79 68 80 64 81 65 82 67 83 69 84 66 85 50 86 51 87
REMARK SMILES IDX 56 88 52 89 53 90 55 91 57 92 54 93
REMARK H PARENT 19 5 8 14 24 36 74 55 48 66
REMARK Flexibility Score: inf
ROOT
ATOM      1  C   UNL A   1      36.918  20.841  25.125  1.00  0.00     0.116 C 
ENDROOT
BRANCH   1   2
ATOM      2  N   UNL A   1      35.935  21.305  26.095  1.00  0.00    -0.352 N 
ATOM      3  C   UNL A   1      34.625  21.705  25.957  1.00  0.00     0.253 C 
ATOM      4  O   UNL A   1      34.027  22.085  26.961  1.00  0.00    -0.269 OA
ATOM      5  H   UNL A   1      36.269  21.338  27.020  1.00  0.00     0.163 HD
BRANCH   3   6
ATOM      6  C   UNL A   1      33.907  21.669  24.663  1.00  0.00     0.071 A 
ATOM      7  C   UNL A   1      34.007  22.705  23.733  1.00  0.00     0.141 A 
ATOM      8  N   UNL A   1      33.249  22.774  22.594  1.00  0.00    -0.250 NA
ATOM      9  C   UNL A   1      32.358  21.793  22.373  1.00  0.00     0.112 A 
ATOM     10  C   UNL A   1      32.967  20.667  24.387  1.00  0.00     0.018 A 
ATOM     11  C   UNL A   1      32.201  20.715  23.219  1.00  0.00     0.021 A 
BRANCH   7  12
ATOM     12  C   UNL A   1      34.806  23.930  23.940  1.00  0.00     0.275 C 
ATOM     13  N   UNL A   1      34.281  25.179  24.111  1.00  0.00    -0.311 N 
ATOM     14  H   UNL A   1      34.980  25.869  24.180  1.00  0.00     0.171 HD
ATOM     15  O   UNL A   1      36.038  23.825  23.943  1.00  0.00    -0.267 OA
BRANCH  13  16
ATOM     16  C   UNL A   1      33.022  25.707  24.210  1.00  0.00     0.110 A 
ATOM     17  C   UNL A   1      31.803  25.491  24.837  1.00  0.00     0.098 A 
ATOM     18  C   UNL A   1      30.803  26.419  24.294  1.00  0.00    -0.017 A 
ATOM     19  S   UNL A   1      32.997  27.069  23.167  1.00  0.00    -0.122 S 
ATOM     20  C   UNL A   1      31.335  27.260  23.338  1.00  0.00     0.011 A 
ATOM     21  C   UNL A   1      29.348  26.540  24.680  1.00  0.00     0.038 C 
ATOM     22  C   UNL A   1      30.579  28.245  22.502  1.00  0.00     0.050 C 
ATOM     23  C   UNL A   1      28.527  27.230  23.572  1.00  0.00     0.008 C 
ATOM     24  C   UNL A   1      29.205  28.543  23.130  1.00  0.00    -0.009 C 
ATOM     25  C   UNL A   1      28.335  29.329  22.154  1.00  0.00     0.008 C 
BRANCH  17  26
ATOM     26  C   UNL A   1      31.483  24.497  25.856  1.00  0.00     0.341 C 
ATOM     27  O   UNL A   1      31.809  24.657  27.034  1.00  0.00    -0.246 OA
BRANCH  26  28
ATOM     28  O   UNL A   1      30.876  23.386  25.383  1.00  0.00    -0.462 OA
BRANCH  28  29
ATOM     29  C   UNL A   1      30.417  22.352  26.286  1.00  0.00     0.230 C 
ATOM     30  C   UNL A   1      29.272  22.662  27.243  1.00  0.00     0.049 C 
ENDBRANCH  28  29
ENDBRANCH  26  28
ENDBRANCH  17  26
ENDBRANCH  13  16
ENDBRANCH   7  12
ENDBRANCH   3   6
ENDBRANCH   1   2
BRANCH   1  31
ATOM     31  C   UNL A   1      38.335  21.341  25.408  1.00  0.00     0.023 C 
BRANCH  31  32
ATOM     32  C   UNL A   1      38.528  22.687  26.103  1.00  0.00     0.023 C 
BRANCH  32  33
ATOM     33  C   UNL A   1      39.721  22.756  27.030  1.00  0.00     0.116 C 
BRANCH  33  34
ATOM     34  N   UNL A   1      40.968  22.298  26.414  1.00  0.00    -0.352 N 
ATOM     35  C   UNL A   1      41.978  23.091  25.896  1.00  0.00     0.251 C 
ATOM     36  H   UNL A   1      41.102  21.323  26.361  1.00  0.00     0.163 HD
ATOM     37  O   UNL A   1      42.790  22.662  25.089  1.00  0.00    -0.269 OA
BRANCH  35  38
ATOM     38  C   UNL A   1      42.048  24.483  26.367  1.00  0.00     0.039 A 
ATOM     39  C   UNL A   1      41.325  25.512  25.763  1.00  0.00     0.014 A 
ATOM     40  C   UNL A   1      42.783  24.701  27.527  1.00  0.00     0.014 A 
ATOM     41  C   UNL A   1      41.271  26.748  26.406  1.00  0.00     0.010 A 
ATOM     42  C   UNL A   1      42.560  25.838  28.251  1.00  0.00     0.010 A 
ATOM     43  C   UNL A   1      41.867  26.891  27.670  1.00  0.00    -0.014 A 
BRANCH  43  44
ATOM     44  C   UNL A   1      41.694  28.104  28.461  1.00  0.00     0.031 A 
ATOM     45  C   UNL A   1      42.739  29.141  28.246  1.00  0.00     0.074 A 
ATOM     46  C   UNL A   1      40.567  28.359  29.162  1.00  0.00     0.049 A 
ATOM     47  N   UNL A   1      43.642  29.525  29.085  1.00  0.00    -0.248 NA
ATOM     48  C   UNL A   1      42.897  29.722  26.901  1.00  0.00     0.031 C 
ATOM     49  C   UNL A   1      39.324  27.578  29.222  1.00  0.00     0.029 A 
ATOM     50  N   UNL A   1      40.259  29.450  29.912  1.00  0.00    -0.354 N 
ATOM     51  C   UNL A   1      44.344  30.551  28.457  1.00  0.00     0.074 A 
ATOM     52  C   UNL A   1      43.971  30.497  27.068  1.00  0.00     0.031 C 
ATOM     53  C   UNL A   1      38.336  28.330  29.755  1.00  0.00     0.029 A 
ATOM     54  C   UNL A   1      38.914  29.564  30.246  1.00  0.00     0.049 A 
ATOM     55  H   UNL A   1      40.935  30.107  30.197  1.00  0.00     0.167 HD
ATOM     56  C   UNL A   1      44.979  31.509  29.189  1.00  0.00     0.037 A 
ATOM     57  C   UNL A   1      38.319  30.608  30.874  1.00  0.00     0.037 A 
ATOM     58  C   UNL A   1      45.114  31.098  30.566  1.00  0.00     0.049 A 
ATOM     59  C   UNL A   1      39.391  31.366  31.566  1.00  0.00     0.074 A 
ATOM     60  C   UNL A   1      45.720  30.037  31.210  1.00  0.00     0.029 A 
ATOM     61  N   UNL A   1      44.228  31.626  31.473  1.00  0.00    -0.354 N 
ATOM     62  N   UNL A   1      40.065  30.898  32.579  1.00  0.00    -0.248 NA
ATOM     63  C   UNL A   1      40.037  32.440  30.828  1.00  0.00     0.031 C 
ATOM     64  C   UNL A   1      44.818  29.682  32.258  1.00  0.00     0.029 A 
ATOM     65  C   UNL A   1      43.763  30.594  32.244  1.00  0.00     0.049 A 
ATOM     66  H   UNL A   1      43.974  32.574  31.555  1.00  0.00     0.167 HD
ATOM     67  C   UNL A   1      41.375  31.288  32.340  1.00  0.00     0.074 A 
ATOM     68  C   UNL A   1      41.282  32.306  31.293  1.00  0.00     0.031 C 
ATOM     69  C   UNL A   1      42.427  30.542  32.792  1.00  0.00     0.037 A 
BRANCH  56  70
ATOM     70  C   UNL A   1      45.116  32.959  28.783  1.00  0.00     0.057 A 
ATOM     71  C   UNL A   1      43.949  33.710  28.537  1.00  0.00     0.134 A 
ATOM     72  C   UNL A   1      46.310  33.552  28.327  1.00  0.00     0.134 A 
ATOM     73  F   UNL A   1      42.746  33.258  28.923  1.00  0.00    -0.206 F 
ATOM     74  C   UNL A   1      43.961  34.902  27.805  1.00  0.00     0.040 A 
ATOM     75  C   UNL A   1      46.337  34.768  27.638  1.00  0.00     0.040 A 
ATOM     76  F   UNL A   1      47.499  32.948  28.427  1.00  0.00    -0.206 F 
ATOM     77  C   UNL A   1      45.158  35.429  27.341  1.00  0.00     0.006 A 
ENDBRANCH  56  70
BRANCH  57  78
ATOM     78  C   UNL A   1      36.964  31.166  30.667  1.00  0.00     0.057 A 
ATOM     79  C   UNL A   1      36.121  31.443  31.752  1.00  0.00     0.134 A 
ATOM     80  C   UNL A   1      36.576  31.712  29.430  1.00  0.00     0.134 A 
ATOM     81  F   UNL A   1      36.424  30.995  32.980  1.00  0.00    -0.206 F 
ATOM     82  C   UNL A   1      34.980  32.246  31.625  1.00  0.00     0.040 A 
ATOM     83  C   UNL A   1      35.437  32.513  29.288  1.00  0.00     0.040 A 
ATOM     84  F   UNL A   1      37.340  31.563  28.338  1.00  0.00    -0.206 F 
ATOM     85  C   UNL A   1      34.643  32.797  30.392  1.00  0.00     0.006 A 
ENDBRANCH  57  78
BRANCH  69  86
ATOM     86  C   UNL A   1      42.138  29.433  33.768  1.00  0.00     0.057 A 
ATOM     87  C   UNL A   1      41.884  28.100  33.406  1.00  0.00     0.134 A 
ATOM     88  C   UNL A   1      42.272  29.697  35.135  1.00  0.00     0.134 A 
ATOM     89  F   UNL A   1      41.834  27.726  32.124  1.00  0.00    -0.206 F 
ATOM     90  C   UNL A   1      41.730  27.090  34.362  1.00  0.00     0.040 A 
ATOM     91  C   UNL A   1      42.155  28.692  36.098  1.00  0.00     0.040 A 
ATOM     92  F   UNL A   1      42.570  30.936  35.558  1.00  0.00    -0.206 F 
ATOM     93  C   UNL A   1      41.872  27.384  35.714  1.00  0.00     0.006 A 
ENDBRANCH  69  86
ENDBRANCH  43  44
ENDBRANCH  35  38
ENDBRANCH  33  34
ENDBRANCH  32  33
ENDBRANCH  31  32
ENDBRANCH   1  31
TORSDOF 16
ENDMDL
MODEL 3
REMARK VINA RESULT:     -11.7      2.685      7.758
REMARK SMILES CCOC(=O)c1c(NC(=O)c2ncccc2C(=O)NCCCCNC(=O)c2ccc(-c3c4nc(c(-c5c(F)cccc5F)c5ccc([nH]5)c(-c5c(F)cccc5F)c5nc(c(-c6c(F)cccc6F)c6ccc3[nH]6)C=C5)C=C4)cc2)sc2c1CC[C@H](C)C2
REMARK SMILES IDX 20 1 19 2 17 3 18 4 16 6 11 7 12 8 13 9 15 10 14 11 9 12
REMARK SMILES IDX 8 13 10 15 7 16 6 17 83 18 81 19 82 20 84 21 88 22 85 23
REMARK SMILES IDX 86 24 87 25 4 26 5 27 3 28 2 29 1 30 21 31 22 32 23 33 24 34
REMARK SMILES IDX 25 35 26 37 27 38 28 39 80 40 29 41 79 42 30 43 31 44 32 45
REMARK SMILES IDX 73 46 33 47 78 48 72 49 74 50 34 51 77 52 71 53 70 54 35 56
REMARK SMILES IDX 61 57 44 58 60 59 45 60 48 61 59 62 75 63 46 64 47 65 58 67
REMARK SMILES IDX 76 68 49 69 36 70 37 71 42 72 38 73 39 74 41 75 43 76 40 77
REMARK SMILES IDX 62 78 63 79 68 80 64 81 65 82 67 83 69 84 66 85 50 86 51 87
REMARK SMILES IDX 56 88 52 89 53 90 55 91 57 92 54 93
REMARK H PARENT 19 5 8 14 24 36 74 55 48 66
REMARK Flexibility Score: inf
ROOT
ATOM      1  C   UNL A   1      36.686  23.989  25.852  1.00  0.00     0.116 C 
ENDROOT
BRANCH   1   2
ATOM      2  N   UNL A   1      36.809  23.736  24.423  1.00  0.00    -0.352 N 
ATOM      3  C   UNL A   1      36.058  22.973  23.557  1.00  0.00     0.253 C 
ATOM      4  O   UNL A   1      36.414  22.912  22.383  1.00  0.00    -0.269 OA
ATOM      5  H   UNL A   1      37.569  24.195  23.998  1.00  0.00     0.163 HD
BRANCH   3   6
ATOM      6  C   UNL A   1      34.834  22.254  23.977  1.00  0.00     0.071 A 
ATOM      7  C   UNL A   1      33.579  22.561  23.450  1.00  0.00     0.141 A 
ATOM      8  N   UNL A   1      32.410  22.018  23.917  1.00  0.00    -0.250 NA
ATOM      9  C   UNL A   1      32.485  21.154  24.942  1.00  0.00     0.112 A 
ATOM     10  C   UNL A   1      34.862  21.345  25.043  1.00  0.00     0.018 A 
ATOM     11  C   UNL A   1      33.680  20.770  25.516  1.00  0.00     0.021 A 
BRANCH   7  12
ATOM     12  C   UNL A   1      33.335  23.622  22.452  1.00  0.00     0.275 C 
ATOM     13  N   UNL A   1      32.977  24.904  22.756  1.00  0.00    -0.311 N 
ATOM     14  H   UNL A   1      32.810  25.443  21.950  1.00  0.00     0.171 HD
ATOM     15  O   UNL A   1      33.447  23.330  21.256  1.00  0.00    -0.267 OA
BRANCH  13  16
ATOM     16  C   UNL A   1      32.793  25.624  23.906  1.00  0.00     0.110 A 
ATOM     17  C   UNL A   1      31.918  25.752  24.976  1.00  0.00     0.098 A 
ATOM     18  C   UNL A   1      32.292  26.924  25.776  1.00  0.00    -0.017 A 
ATOM     19  S   UNL A   1      34.091  26.743  23.976  1.00  0.00    -0.122 S 
ATOM     20  C   UNL A   1      33.408  27.564  25.275  1.00  0.00     0.011 A 
ATOM     21  C   UNL A   1      31.622  27.442  27.026  1.00  0.00     0.038 C 
ATOM     22  C   UNL A   1      33.993  28.849  25.773  1.00  0.00     0.050 C 
ATOM     23  C   UNL A   1      31.960  28.928  27.271  1.00  0.00     0.008 C 
ATOM     24  C   UNL A   1      33.482  29.160  27.192  1.00  0.00    -0.009 C 
ATOM     25  C   UNL A   1      33.859  30.584  27.591  1.00  0.00     0.008 C 
BRANCH  17  26
ATOM     26  C   UNL A   1      30.767  24.914  25.297  1.00  0.00     0.341 C 
ATOM     27  O   UNL A   1      29.913  24.644  24.451  1.00  0.00    -0.246 OA
BRANCH  26  28
ATOM     28  O   UNL A   1      30.696  24.534  26.593  1.00  0.00    -0.462 OA
BRANCH  28  29
ATOM     29  C   UNL A   1      30.563  23.137  26.948  1.00  0.00     0.230 C 
ATOM     30  C   UNL A   1      29.192  22.603  27.345  1.00  0.00     0.049 C 
ENDBRANCH  28  29
ENDBRANCH  26  28
ENDBRANCH  17  26
ENDBRANCH  13  16
ENDBRANCH   7  12
ENDBRANCH   3   6
ENDBRANCH   1   2
BRANCH   1  31
ATOM     31  C   UNL A   1      38.028  23.992  26.587  1.00  0.00     0.023 C 
BRANCH  31  32
ATOM     32  C   UNL A   1      38.950  22.782  26.464  1.00  0.00     0.023 C 
BRANCH  32  33
ATOM     33  C   UNL A   1      40.237  22.883  27.253  1.00  0.00     0.116 C 
BRANCH  33  34
ATOM     34  N   UNL A   1      41.431  22.560  26.470  1.00  0.00    -0.352 N 
ATOM     35  C   UNL A   1      42.262  23.454  25.816  1.00  0.00     0.251 C 
ATOM     36  H   UNL A   1      41.667  21.606  26.400  1.00  0.00     0.163 HD
ATOM     37  O   UNL A   1      42.999  23.107  24.904  1.00  0.00    -0.269 OA
BRANCH  35  38
ATOM     38  C   UNL A   1      42.237  24.853  26.272  1.00  0.00     0.039 A 
ATOM     39  C   UNL A   1      41.293  25.771  25.810  1.00  0.00     0.014 A 
ATOM     40  C   UNL A   1      43.131  25.183  27.285  1.00  0.00     0.014 A 
ATOM     41  C   UNL A   1      41.197  27.002  26.457  1.00  0.00     0.010 A 
ATOM     42  C   UNL A   1      42.896  26.297  28.041  1.00  0.00     0.010 A 
ATOM     43  C   UNL A   1      41.984  27.243  27.596  1.00  0.00    -0.014 A 
BRANCH  43  44
ATOM     44  C   UNL A   1      41.800  28.439  28.409  1.00  0.00     0.031 A 
ATOM     45  C   UNL A   1      42.860  29.471  28.246  1.00  0.00     0.074 A 
ATOM     46  C   UNL A   1      40.657  28.689  29.085  1.00  0.00     0.049 A 
ATOM     47  N   UNL A   1      43.743  29.827  29.118  1.00  0.00    -0.248 NA
ATOM     48  C   UNL A   1      43.059  30.080  26.920  1.00  0.00     0.031 C 
ATOM     49  C   UNL A   1      39.405  27.919  29.093  1.00  0.00     0.029 A 
ATOM     50  N   UNL A   1      40.338  29.766  29.851  1.00  0.00    -0.354 N 
ATOM     51  C   UNL A   1      44.470  30.860  28.533  1.00  0.00     0.074 A 
ATOM     52  C   UNL A   1      44.135  30.841  27.134  1.00  0.00     0.031 C 
ATOM     53  C   UNL A   1      38.410  28.668  29.616  1.00  0.00     0.029 A 
ATOM     54  C   UNL A   1      38.985  29.885  30.151  1.00  0.00     0.049 A 
ATOM     55  H   UNL A   1      41.011  30.409  30.169  1.00  0.00     0.167 HD
ATOM     56  C   UNL A   1      45.094  31.795  29.303  1.00  0.00     0.037 A 
ATOM     57  C   UNL A   1      38.383  30.920  30.786  1.00  0.00     0.037 A 
ATOM     58  C   UNL A   1      45.188  31.351  30.674  1.00  0.00     0.049 A 
ATOM     59  C   UNL A   1      39.442  31.652  31.524  1.00  0.00     0.074 A 
ATOM     60  C   UNL A   1      45.766  30.270  31.310  1.00  0.00     0.029 A 
ATOM     61  N   UNL A   1      44.282  31.868  31.569  1.00  0.00    -0.354 N 
ATOM     62  N   UNL A   1      40.084  31.155  32.544  1.00  0.00    -0.248 NA
ATOM     63  C   UNL A   1      40.117  32.736  30.829  1.00  0.00     0.031 C 
ATOM     64  C   UNL A   1      44.833  29.901  32.324  1.00  0.00     0.029 A 
ATOM     65  C   UNL A   1      43.786  30.822  32.303  1.00  0.00     0.049 A 
ATOM     66  H   UNL A   1      44.034  32.816  31.665  1.00  0.00     0.167 HD
ATOM     67  C   UNL A   1      41.403  31.537  32.349  1.00  0.00     0.074 A 
ATOM     68  C   UNL A   1      41.348  32.580  31.324  1.00  0.00     0.031 C 
ATOM     69  C   UNL A   1      42.435  30.772  32.813  1.00  0.00     0.037 A 
BRANCH  56  70
ATOM     70  C   UNL A   1      45.255  33.252  28.935  1.00  0.00     0.057 A 
ATOM     71  C   UNL A   1      46.528  33.847  29.051  1.00  0.00     0.134 A 
ATOM     72  C   UNL A   1      44.189  34.159  28.776  1.00  0.00     0.134 A 
ATOM     73  F   UNL A   1      47.628  33.094  29.205  1.00  0.00    -0.206 F 
ATOM     74  C   UNL A   1      46.709  35.233  29.110  1.00  0.00     0.040 A 
ATOM     75  C   UNL A   1      44.366  35.546  28.784  1.00  0.00     0.040 A 
ATOM     76  F   UNL A   1      42.912  33.766  28.710  1.00  0.00    -0.206 F 
ATOM     77  C   UNL A   1      45.622  36.089  28.989  1.00  0.00     0.006 A 
ENDBRANCH  56  70
BRANCH  57  78
ATOM     78  C   UNL A   1      37.039  31.495  30.554  1.00  0.00     0.057 A 
ATOM     79  C   UNL A   1      36.061  31.478  31.559  1.00  0.00     0.134 A 
ATOM     80  C   UNL A   1      36.777  32.331  29.455  1.00  0.00     0.134 A 
ATOM     81  F   UNL A   1      36.235  30.738  32.664  1.00  0.00    -0.206 F 
ATOM     82  C   UNL A   1      34.909  32.273  31.494  1.00  0.00     0.040 A 
ATOM     83  C   UNL A   1      35.630  33.128  29.374  1.00  0.00     0.040 A 
ATOM     84  F   UNL A   1      37.672  32.474  28.465  1.00  0.00    -0.206 F 
ATOM     85  C   UNL A   1      34.698  33.114  30.405  1.00  0.00     0.006 A 
ENDBRANCH  57  78
BRANCH  69  86
ATOM     86  C   UNL A   1      42.110  29.643  33.755  1.00  0.00     0.057 A 
ATOM     87  C   UNL A   1      41.852  28.322  33.356  1.00  0.00     0.134 A 
ATOM     88  C   UNL A   1      42.211  29.875  35.131  1.00  0.00     0.134 A 
ATOM     89  F   UNL A   1      41.831  27.978  32.064  1.00  0.00    -0.206 F 
ATOM     90  C   UNL A   1      41.663  27.292  34.284  1.00  0.00     0.040 A 
ATOM     91  C   UNL A   1      42.059  28.849  36.067  1.00  0.00     0.040 A 
ATOM     92  F   UNL A   1      42.511  31.100  35.590  1.00  0.00    -0.206 F 
ATOM     93  C   UNL A   1      41.773  27.553  35.645  1.00  0.00     0.006 A 
ENDBRANCH  69  86
ENDBRANCH  43  44
ENDBRANCH  35  38
ENDBRANCH  33  34
ENDBRANCH  32  33
ENDBRANCH  31  32
ENDBRANCH   1  31
TORSDOF 16
ENDMDL
