MODEL 1
REMARK VINA RESULT:     -10.3      0.000      0.000
REMARK SMILES CC1(C(=O)N[C@H](C(=O)NCCCCNC(=O)c2ccc(-c3c4nc(c(-c5c(F)cccc5F)c5ccc([nH]5)c(-c5c(F)cccc5F)c5nc(c(-c6c(F)cccc6F)c6ccc3[nH]6)C=C5)C=C4)cc2)C2CC2)CCCC1
REMARK SMILES IDX 11 1 10 2 9 3 7 4 8 5 6 7 5 8 3 9 4 10 2 12 1 13 74 14 77 15
REMARK SMILES IDX 75 16 76 17 71 18 72 19 73 20 12 21 13 22 14 23 15 24 16 26
REMARK SMILES IDX 17 27 18 28 70 29 19 30 69 31 20 32 21 33 22 34 63 35 23 36
REMARK SMILES IDX 68 37 62 38 64 39 24 40 67 41 61 42 60 43 25 45 51 46 34 47
REMARK SMILES IDX 50 48 35 49 38 50 49 51 65 52 36 53 37 54 48 56 66 57 39 58
REMARK SMILES IDX 26 59 27 60 32 61 28 62 29 63 31 64 33 65 30 66 52 67 53 68
REMARK SMILES IDX 58 69 54 70 55 71 57 72 59 73 56 74 40 75 41 76 46 77 42 78
REMARK SMILES IDX 43 79 45 80 47 81 44 82
REMARK H PARENT 9 6 5 11 14 25 64 44 38 55
REMARK Flexibility Score: inf
ROOT
ATOM      1  C   UNL A   1      38.701  22.679  26.289  1.00  0.00     0.023 C 
ENDROOT
BRANCH   1   2
ATOM      2  C   UNL A   1      37.610  23.565  25.694  1.00  0.00     0.116 C 
BRANCH   2   3
ATOM      3  N   UNL A   1      37.362  23.252  24.302  1.00  0.00    -0.354 N 
ATOM      4  C   UNL A   1      36.185  23.088  23.635  1.00  0.00     0.242 C 
ATOM      5  O   UNL A   1      36.248  23.004  22.404  1.00  0.00    -0.273 OA
ATOM      6  H   UNL A   1      38.171  23.140  23.751  1.00  0.00     0.163 HD
BRANCH   4   7
ATOM      7  C   UNL A   1      34.810  23.198  24.353  1.00  0.00     0.174 C 
BRANCH   7   8
ATOM      8  N   UNL A   1      33.784  23.844  23.540  1.00  0.00    -0.344 N 
ATOM      9  C   UNL A   1      32.940  24.877  23.783  1.00  0.00     0.226 C 
ATOM     10  O   UNL A   1      32.228  25.220  22.834  1.00  0.00    -0.274 OA
ATOM     11  H   UNL A   1      33.685  23.453  22.642  1.00  0.00     0.164 HD
BRANCH   9  12
ATOM     12  C   UNL A   1      32.817  25.550  25.157  1.00  0.00     0.046 C 
ATOM     13  C   UNL A   1      32.416  24.510  26.214  1.00  0.00     0.022 C 
ATOM     14  C   UNL A   1      31.749  26.668  25.094  1.00  0.00     0.016 C 
ATOM     15  C   UNL A   1      34.054  26.362  25.562  1.00  0.00     0.016 C 
ATOM     16  C   UNL A   1      32.052  27.577  26.275  1.00  0.00     0.001 C 
ATOM     17  C   UNL A   1      33.560  27.491  26.470  1.00  0.00     0.001 C 
ENDBRANCH   9  12
ENDBRANCH   7   8
BRANCH   7  18
ATOM     18  C   UNL A   1      34.360  21.820  24.816  1.00  0.00     0.021 C 
ATOM     19  C   UNL A   1      35.397  20.755  25.097  1.00  0.00     0.006 C 
ATOM     20  C   UNL A   1      34.547  21.271  26.218  1.00  0.00     0.006 C 
ENDBRANCH   7  18
ENDBRANCH   4   7
ENDBRANCH   2   3
ENDBRANCH   1   2
BRANCH   1  21
ATOM     21  C   UNL A   1      38.950  21.376  25.523  1.00  0.00     0.023 C 
BRANCH  21  22
ATOM     22  C   UNL A   1      39.285  20.164  26.384  1.00  0.00     0.116 C 
BRANCH  22  23
ATOM     23  N   UNL A   1      40.422  19.404  25.890  1.00  0.00    -0.352 N 
ATOM     24  C   UNL A   1      41.745  19.770  25.848  1.00  0.00     0.251 C 
ATOM     25  H   UNL A   1      40.216  18.508  25.540  1.00  0.00     0.163 HD
ATOM     26  O   UNL A   1      42.573  19.047  25.301  1.00  0.00    -0.269 OA
BRANCH  24  27
ATOM     27  C   UNL A   1      42.162  21.062  26.430  1.00  0.00     0.039 A 
ATOM     28  C   UNL A   1      42.523  22.101  25.568  1.00  0.00     0.014 A 
ATOM     29  C   UNL A   1      42.167  21.256  27.814  1.00  0.00     0.014 A 
ATOM     30  C   UNL A   1      42.824  23.359  26.093  1.00  0.00     0.010 A 
ATOM     31  C   UNL A   1      42.402  22.528  28.330  1.00  0.00     0.010 A 
ATOM     32  C   UNL A   1      42.730  23.592  27.476  1.00  0.00    -0.014 A 
BRANCH  32  33
ATOM     33  C   UNL A   1      42.961  24.943  28.044  1.00  0.00     0.031 A 
ATOM     34  C   UNL A   1      44.332  25.340  28.517  1.00  0.00     0.074 A 
ATOM     35  C   UNL A   1      41.923  25.789  28.195  1.00  0.00     0.049 A 
ATOM     36  N   UNL A   1      44.715  26.445  29.104  1.00  0.00    -0.248 NA
ATOM     37  C   UNL A   1      45.407  24.354  28.330  1.00  0.00     0.031 C 
ATOM     38  C   UNL A   1      40.536  25.504  27.821  1.00  0.00     0.029 A 
ATOM     39  N   UNL A   1      41.871  27.058  28.717  1.00  0.00    -0.354 N 
ATOM     40  C   UNL A   1      46.069  26.281  29.368  1.00  0.00     0.074 A 
ATOM     41  C   UNL A   1      46.428  24.952  28.924  1.00  0.00     0.031 C 
ATOM     42  C   UNL A   1      39.775  26.573  28.105  1.00  0.00     0.029 A 
ATOM     43  C   UNL A   1      40.610  27.603  28.715  1.00  0.00     0.049 A 
ATOM     44  H   UNL A   1      42.663  27.531  29.060  1.00  0.00     0.167 HD
ATOM     45  C   UNL A   1      46.938  27.167  29.909  1.00  0.00     0.037 A 
ATOM     46  C   UNL A   1      40.176  28.797  29.161  1.00  0.00     0.037 A 
ATOM     47  C   UNL A   1      46.585  28.498  30.327  1.00  0.00     0.049 A 
ATOM     48  C   UNL A   1      41.161  29.761  29.761  1.00  0.00     0.074 A 
ATOM     49  C   UNL A   1      47.407  29.491  30.830  1.00  0.00     0.029 A 
ATOM     50  N   UNL A   1      45.300  29.022  30.289  1.00  0.00    -0.354 N 
ATOM     51  N   UNL A   1      42.452  29.618  29.941  1.00  0.00    -0.248 NA
ATOM     52  C   UNL A   1      40.630  31.054  30.215  1.00  0.00     0.031 C 
ATOM     53  C   UNL A   1      46.613  30.602  31.138  1.00  0.00     0.029 A 
ATOM     54  C   UNL A   1      45.305  30.317  30.781  1.00  0.00     0.049 A 
ATOM     55  H   UNL A   1      44.504  28.544  29.963  1.00  0.00     0.167 HD
ATOM     56  C   UNL A   1      42.891  30.811  30.501  1.00  0.00     0.074 A 
ATOM     57  C   UNL A   1      41.732  31.671  30.619  1.00  0.00     0.031 C 
ATOM     58  C   UNL A   1      44.144  31.163  30.883  1.00  0.00     0.037 A 
BRANCH  45  59
ATOM     59  C   UNL A   1      48.364  26.725  30.076  1.00  0.00     0.057 A 
ATOM     60  C   UNL A   1      48.791  26.026  31.212  1.00  0.00     0.134 A 
ATOM     61  C   UNL A   1      49.311  26.968  29.073  1.00  0.00     0.134 A 
ATOM     62  F   UNL A   1      47.936  25.771  32.214  1.00  0.00    -0.206 F 
ATOM     63  C   UNL A   1      50.114  25.607  31.358  1.00  0.00     0.040 A 
ATOM     64  C   UNL A   1      50.630  26.532  29.196  1.00  0.00     0.040 A 
ATOM     65  F   UNL A   1      48.968  27.628  27.956  1.00  0.00    -0.206 F 
ATOM     66  C   UNL A   1      51.037  25.854  30.344  1.00  0.00     0.006 A 
ENDBRANCH  45  59
BRANCH  46  67
ATOM     67  C   UNL A   1      38.741  29.160  29.038  1.00  0.00     0.057 A 
ATOM     68  C   UNL A   1      37.878  29.068  30.136  1.00  0.00     0.134 A 
ATOM     69  C   UNL A   1      38.196  29.591  27.823  1.00  0.00     0.134 A 
ATOM     70  F   UNL A   1      38.338  28.642  31.322  1.00  0.00    -0.206 F 
ATOM     71  C   UNL A   1      36.520  29.373  30.026  1.00  0.00     0.040 A 
ATOM     72  C   UNL A   1      36.846  29.923  27.705  1.00  0.00     0.040 A 
ATOM     73  F   UNL A   1      38.971  29.707  26.736  1.00  0.00    -0.206 F 
ATOM     74  C   UNL A   1      36.001  29.806  28.808  1.00  0.00     0.006 A 
ENDBRANCH  46  67
BRANCH  58  75
ATOM     75  C   UNL A   1      44.331  32.547  31.430  1.00  0.00     0.057 A 
ATOM     76  C   UNL A   1      44.609  33.640  30.600  1.00  0.00     0.134 A 
ATOM     77  C   UNL A   1      44.194  32.796  32.802  1.00  0.00     0.134 A 
ATOM     78  F   UNL A   1      44.766  33.467  29.279  1.00  0.00    -0.206 F 
ATOM     79  C   UNL A   1      44.764  34.927  31.117  1.00  0.00     0.040 A 
ATOM     80  C   UNL A   1      44.321  34.081  33.328  1.00  0.00     0.040 A 
ATOM     81  F   UNL A   1      43.921  31.793  33.652  1.00  0.00    -0.206 F 
ATOM     82  C   UNL A   1      44.613  35.151  32.484  1.00  0.00     0.006 A 
ENDBRANCH  58  75
ENDBRANCH  32  33
ENDBRANCH  24  27
ENDBRANCH  22  23
ENDBRANCH  21  22
ENDBRANCH   1  21
TORSDOF 14
ENDMDL
MODEL 2
REMARK VINA RESULT:     -10.3      2.179      7.543
REMARK SMILES CC1(C(=O)N[C@H](C(=O)NCCCCNC(=O)c2ccc(-c3c4nc(c(-c5c(F)cccc5F)c5ccc([nH]5)c(-c5c(F)cccc5F)c5nc(c(-c6c(F)cccc6F)c6ccc3[nH]6)C=C5)C=C4)cc2)C2CC2)CCCC1
REMARK SMILES IDX 11 1 10 2 9 3 7 4 8 5 6 7 5 8 3 9 4 10 2 12 1 13 74 14 77 15
REMARK SMILES IDX 75 16 76 17 71 18 72 19 73 20 12 21 13 22 14 23 15 24 16 26
REMARK SMILES IDX 17 27 18 28 70 29 19 30 69 31 20 32 21 33 22 34 63 35 23 36
REMARK SMILES IDX 68 37 62 38 64 39 24 40 67 41 61 42 60 43 25 45 51 46 34 47
REMARK SMILES IDX 50 48 35 49 38 50 49 51 65 52 36 53 37 54 48 56 66 57 39 58
REMARK SMILES IDX 26 59 27 60 32 61 28 62 29 63 31 64 33 65 30 66 52 67 53 68
REMARK SMILES IDX 58 69 54 70 55 71 57 72 59 73 56 74 40 75 41 76 46 77 42 78
REMARK SMILES IDX 43 79 45 80 47 81 44 82
REMARK H PARENT 9 6 5 11 14 25 64 44 38 55
REMARK Flexibility Score: inf
ROOT
ATOM      1  C   UNL A   1      32.267  27.578  25.690  1.00  0.00     0.023 C 
ENDROOT
BRANCH   1   2
ATOM      2  C   UNL A   1      32.830  26.315  26.336  1.00  0.00     0.116 C 
BRANCH   2   3
ATOM      3  N   UNL A   1      31.781  25.467  26.863  1.00  0.00    -0.354 N 
ATOM      4  C   UNL A   1      31.374  24.226  26.471  1.00  0.00     0.242 C 
ATOM      5  O   UNL A   1      30.572  23.643  27.208  1.00  0.00    -0.273 OA
ATOM      6  H   UNL A   1      31.284  25.846  27.625  1.00  0.00     0.163 HD
BRANCH   4   7
ATOM      7  C   UNL A   1      32.025  23.489  25.267  1.00  0.00     0.174 C 
BRANCH   7   8
ATOM      8  N   UNL A   1      32.449  22.129  25.584  1.00  0.00    -0.344 N 
ATOM      9  C   UNL A   1      33.666  21.528  25.594  1.00  0.00     0.226 C 
ATOM     10  O   UNL A   1      33.679  20.356  25.983  1.00  0.00    -0.274 OA
ATOM     11  H   UNL A   1      31.709  21.531  25.839  1.00  0.00     0.164 HD
BRANCH   9  12
ATOM     12  C   UNL A   1      34.943  22.221  25.101  1.00  0.00     0.046 C 
ATOM     13  C   UNL A   1      34.772  22.652  23.636  1.00  0.00     0.022 C 
ATOM     14  C   UNL A   1      36.140  21.249  25.221  1.00  0.00     0.016 C 
ATOM     15  C   UNL A   1      35.416  23.367  26.005  1.00  0.00     0.016 C 
ATOM     16  C   UNL A   1      37.377  22.134  25.213  1.00  0.00     0.001 C 
ATOM     17  C   UNL A   1      36.937  23.441  25.860  1.00  0.00     0.001 C 
ENDBRANCH   9  12
ENDBRANCH   7   8
BRANCH   7  18
ATOM     18  C   UNL A   1      31.075  23.507  24.079  1.00  0.00     0.021 C 
ATOM     19  C   UNL A   1      30.449  24.814  23.647  1.00  0.00     0.006 C 
ATOM     20  C   UNL A   1      31.393  24.108  22.722  1.00  0.00     0.006 C 
ENDBRANCH   7  18
ENDBRANCH   4   7
ENDBRANCH   2   3
ENDBRANCH   1   2
BRANCH   1  21
ATOM     21  C   UNL A   1      33.104  28.839  25.925  1.00  0.00     0.023 C 
BRANCH  21  22
ATOM     22  C   UNL A   1      33.850  28.892  27.254  1.00  0.00     0.116 C 
BRANCH  22  23
ATOM     23  N   UNL A   1      33.795  30.198  27.892  1.00  0.00    -0.352 N 
ATOM     24  C   UNL A   1      34.775  30.848  28.601  1.00  0.00     0.251 C 
ATOM     25  H   UNL A   1      32.942  30.681  27.801  1.00  0.00     0.163 HD
ATOM     26  O   UNL A   1      34.532  31.909  29.167  1.00  0.00    -0.269 OA
BRANCH  24  27
ATOM     27  C   UNL A   1      36.115  30.239  28.716  1.00  0.00     0.039 A 
ATOM     28  C   UNL A   1      36.973  30.292  27.614  1.00  0.00     0.014 A 
ATOM     29  C   UNL A   1      36.534  29.647  29.910  1.00  0.00     0.014 A 
ATOM     30  C   UNL A   1      38.278  29.813  27.732  1.00  0.00     0.010 A 
ATOM     31  C   UNL A   1      37.856  29.230  30.046  1.00  0.00     0.010 A 
ATOM     32  C   UNL A   1      38.741  29.312  28.961  1.00  0.00    -0.014 A 
BRANCH  32  33
ATOM     33  C   UNL A   1      40.150  28.877  29.131  1.00  0.00     0.031 A 
ATOM     34  C   UNL A   1      41.173  29.825  29.691  1.00  0.00     0.074 A 
ATOM     35  C   UNL A   1      40.521  27.648  28.719  1.00  0.00     0.049 A 
ATOM     36  N   UNL A   1      42.460  29.653  29.849  1.00  0.00    -0.248 NA
ATOM     37  C   UNL A   1      40.689  31.151  30.102  1.00  0.00     0.031 C 
ATOM     38  C   UNL A   1      39.635  26.652  28.115  1.00  0.00     0.029 A 
ATOM     39  N   UNL A   1      41.749  27.032  28.735  1.00  0.00    -0.354 N 
ATOM     40  C   UNL A   1      42.940  30.851  30.363  1.00  0.00     0.074 A 
ATOM     41  C   UNL A   1      41.816  31.757  30.442  1.00  0.00     0.031 C 
ATOM     42  C   UNL A   1      40.341  25.545  27.837  1.00  0.00     0.029 A 
ATOM     43  C   UNL A   1      41.735  25.763  28.208  1.00  0.00     0.049 A 
ATOM     44  H   UNL A   1      42.561  27.460  29.090  1.00  0.00     0.167 HD
ATOM     45  C   UNL A   1      44.199  31.158  30.755  1.00  0.00     0.037 A 
ATOM     46  C   UNL A   1      42.736  24.879  28.038  1.00  0.00     0.037 A 
ATOM     47  C   UNL A   1      45.312  30.247  30.699  1.00  0.00     0.049 A 
ATOM     48  C   UNL A   1      44.126  25.247  28.479  1.00  0.00     0.074 A 
ATOM     49  C   UNL A   1      46.612  30.445  31.129  1.00  0.00     0.029 A 
ATOM     50  N   UNL A   1      45.253  28.962  30.178  1.00  0.00    -0.354 N 
ATOM     51  N   UNL A   1      44.551  26.359  29.027  1.00  0.00    -0.248 NA
ATOM     52  C   UNL A   1      45.173  24.235  28.281  1.00  0.00     0.031 C 
ATOM     53  C   UNL A   1      47.351  29.296  30.830  1.00  0.00     0.029 A 
ATOM     54  C   UNL A   1      46.500  28.365  30.258  1.00  0.00     0.049 A 
ATOM     55  H   UNL A   1      44.446  28.538  29.807  1.00  0.00     0.167 HD
ATOM     56  C   UNL A   1      45.906  26.171  29.267  1.00  0.00     0.074 A 
ATOM     57  C   UNL A   1      46.229  24.832  28.816  1.00  0.00     0.031 C 
ATOM     58  C   UNL A   1      46.803  27.029  29.812  1.00  0.00     0.037 A 
BRANCH  45  59
ATOM     59  C   UNL A   1      44.440  32.542  31.287  1.00  0.00     0.057 A 
ATOM     60  C   UNL A   1      44.796  33.604  30.446  1.00  0.00     0.134 A 
ATOM     61  C   UNL A   1      44.278  32.823  32.649  1.00  0.00     0.134 A 
ATOM     62  F   UNL A   1      44.979  33.399  29.133  1.00  0.00    -0.206 F 
ATOM     63  C   UNL A   1      45.008  34.890  30.943  1.00  0.00     0.040 A 
ATOM     64  C   UNL A   1      44.462  34.111  33.154  1.00  0.00     0.040 A 
ATOM     65  F   UNL A   1      43.933  31.853  33.510  1.00  0.00    -0.206 F 
ATOM     66  C   UNL A   1      44.834  35.149  32.301  1.00  0.00     0.006 A 
ENDBRANCH  45  59
BRANCH  46  67
ATOM     67  C   UNL A   1      42.460  23.548  27.441  1.00  0.00     0.057 A 
ATOM     68  C   UNL A   1      42.178  22.440  28.248  1.00  0.00     0.134 A 
ATOM     69  C   UNL A   1      42.485  23.348  26.056  1.00  0.00     0.134 A 
ATOM     70  F   UNL A   1      42.159  22.565  29.584  1.00  0.00    -0.206 F 
ATOM     71  C   UNL A   1      41.951  21.176  27.701  1.00  0.00     0.040 A 
ATOM     72  C   UNL A   1      42.234  22.095  25.494  1.00  0.00     0.040 A 
ATOM     73  F   UNL A   1      42.741  24.370  25.227  1.00  0.00    -0.206 F 
ATOM     74  C   UNL A   1      41.974  21.002  26.319  1.00  0.00     0.006 A 
ENDBRANCH  46  67
BRANCH  58  75
ATOM     75  C   UNL A   1      48.209  26.534  29.985  1.00  0.00     0.057 A 
ATOM     76  C   UNL A   1      49.197  26.756  29.018  1.00  0.00     0.134 A 
ATOM     77  C   UNL A   1      48.588  25.859  31.154  1.00  0.00     0.134 A 
ATOM     78  F   UNL A   1      48.895  27.383  27.871  1.00  0.00    -0.206 F 
ATOM     79  C   UNL A   1      50.506  26.306  29.197  1.00  0.00     0.040 A 
ATOM     80  C   UNL A   1      49.899  25.429  31.356  1.00  0.00     0.040 A 
ATOM     81  F   UNL A   1      47.691  25.621  32.124  1.00  0.00    -0.206 F 
ATOM     82  C   UNL A   1      50.861  25.647  30.372  1.00  0.00     0.006 A 
ENDBRANCH  58  75
ENDBRANCH  32  33
ENDBRANCH  24  27
ENDBRANCH  22  23
ENDBRANCH  21  22
ENDBRANCH   1  21
TORSDOF 14
ENDMDL
MODEL 3
REMARK VINA RESULT:     -10.2      1.989      2.940
REMARK SMILES CC1(C(=O)N[C@H](C(=O)NCCCCNC(=O)c2ccc(-c3c4nc(c(-c5c(F)cccc5F)c5ccc([nH]5)c(-c5c(F)cccc5F)c5nc(c(-c6c(F)cccc6F)c6ccc3[nH]6)C=C5)C=C4)cc2)C2CC2)CCCC1
REMARK SMILES IDX 11 1 10 2 9 3 7 4 8 5 6 7 5 8 3 9 4 10 2 12 1 13 74 14 77 15
REMARK SMILES IDX 75 16 76 17 71 18 72 19 73 20 12 21 13 22 14 23 15 24 16 26
REMARK SMILES IDX 17 27 18 28 70 29 19 30 69 31 20 32 21 33 22 34 63 35 23 36
REMARK SMILES IDX 68 37 62 38 64 39 24 40 67 41 61 42 60 43 25 45 51 46 34 47
REMARK SMILES IDX 50 48 35 49 38 50 49 51 65 52 36 53 37 54 48 56 66 57 39 58
REMARK SMILES IDX 26 59 27 60 32 61 28 62 29 63 31 64 33 65 30 66 52 67 53 68
REMARK SMILES IDX 58 69 54 70 55 71 57 72 59 73 56 74 40 75 41 76 46 77 42 78
REMARK SMILES IDX 43 79 45 80 47 81 44 82
REMARK H PARENT 9 6 5 11 14 25 64 44 38 55
REMARK Flexibility Score: inf
ROOT
ATOM      1  C   UNL A   1      36.991  20.400  24.997  1.00  0.00     0.023 C 
ENDROOT
BRANCH   1   2
ATOM      2  C   UNL A   1      37.217  21.638  24.132  1.00  0.00     0.116 C 
BRANCH   2   3
ATOM      3  N   UNL A   1      37.626  22.779  24.924  1.00  0.00    -0.354 N 
ATOM      4  C   UNL A   1      36.875  23.711  25.576  1.00  0.00     0.242 C 
ATOM      5  O   UNL A   1      37.475  24.481  26.333  1.00  0.00    -0.273 OA
ATOM      6  H   UNL A   1      38.600  22.902  25.004  1.00  0.00     0.163 HD
BRANCH   4   7
ATOM      7  C   UNL A   1      35.321  23.691  25.533  1.00  0.00     0.174 C 
BRANCH   7   8
ATOM      8  N   UNL A   1      34.729  22.758  26.487  1.00  0.00    -0.344 N 
ATOM      9  C   UNL A   1      33.753  21.824  26.368  1.00  0.00     0.226 C 
ATOM     10  O   UNL A   1      33.536  21.147  27.378  1.00  0.00    -0.274 OA
ATOM     11  H   UNL A   1      35.111  22.820  27.392  1.00  0.00     0.164 HD
BRANCH   9  12
ATOM     12  C   UNL A   1      32.919  21.645  25.092  1.00  0.00     0.046 C 
ATOM     13  C   UNL A   1      32.513  20.172  24.936  1.00  0.00     0.022 C 
ATOM     14  C   UNL A   1      33.749  22.089  23.864  1.00  0.00     0.016 C 
ATOM     15  C   UNL A   1      31.727  22.604  24.991  1.00  0.00     0.016 C 
ATOM     16  C   UNL A   1      32.728  22.363  22.770  1.00  0.00     0.001 C 
ATOM     17  C   UNL A   1      31.479  22.841  23.500  1.00  0.00     0.001 C 
ENDBRANCH   9  12
ENDBRANCH   7   8
BRANCH   7  18
ATOM     18  C   UNL A   1      34.783  25.100  25.735  1.00  0.00     0.021 C 
ATOM     19  C   UNL A   1      34.099  25.806  24.585  1.00  0.00     0.006 C 
ATOM     20  C   UNL A   1      33.312  25.465  25.814  1.00  0.00     0.006 C 
ENDBRANCH   7  18
ENDBRANCH   4   7
ENDBRANCH   2   3
ENDBRANCH   1   2
BRANCH   1  21
ATOM     21  C   UNL A   1      38.156  19.407  25.001  1.00  0.00     0.023 C 
BRANCH  21  22
ATOM     22  C   UNL A   1      39.400  19.859  25.758  1.00  0.00     0.116 C 
BRANCH  22  23
ATOM     23  N   UNL A   1      40.431  18.837  25.832  1.00  0.00    -0.352 N 
ATOM     24  C   UNL A   1      41.769  18.986  26.104  1.00  0.00     0.251 C 
ATOM     25  H   UNL A   1      40.130  17.915  25.667  1.00  0.00     0.163 HD
ATOM     26  O   UNL A   1      42.529  18.026  26.027  1.00  0.00    -0.269 OA
BRANCH  24  27
ATOM     27  C   UNL A   1      42.297  20.321  26.449  1.00  0.00     0.039 A 
ATOM     28  C   UNL A   1      42.871  21.099  25.440  1.00  0.00     0.014 A 
ATOM     29  C   UNL A   1      42.199  20.815  27.753  1.00  0.00     0.014 A 
ATOM     30  C   UNL A   1      43.286  22.400  25.723  1.00  0.00     0.010 A 
ATOM     31  C   UNL A   1      42.552  22.136  28.018  1.00  0.00     0.010 A 
ATOM     32  C   UNL A   1      43.095  22.942  27.006  1.00  0.00    -0.014 A 
BRANCH  32  33
ATOM     33  C   UNL A   1      43.450  24.352  27.304  1.00  0.00     0.031 A 
ATOM     34  C   UNL A   1      44.880  24.805  27.226  1.00  0.00     0.074 A 
ATOM     35  C   UNL A   1      42.490  25.208  27.709  1.00  0.00     0.049 A 
ATOM     36  N   UNL A   1      45.394  25.974  27.517  1.00  0.00    -0.248 NA
ATOM     37  C   UNL A   1      45.868  23.806  26.791  1.00  0.00     0.031 C 
ATOM     38  C   UNL A   1      41.073  24.879  27.872  1.00  0.00     0.029 A 
ATOM     39  N   UNL A   1      42.567  26.531  28.072  1.00  0.00    -0.354 N 
ATOM     40  C   UNL A   1      46.762  25.844  27.313  1.00  0.00     0.074 A 
ATOM     41  C   UNL A   1      47.004  24.472  26.924  1.00  0.00     0.031 C 
ATOM     42  C   UNL A   1      40.411  25.972  28.281  1.00  0.00     0.029 A 
ATOM     43  C   UNL A   1      41.359  27.070  28.445  1.00  0.00     0.049 A 
ATOM     44  H   UNL A   1      43.407  27.043  28.064  1.00  0.00     0.167 HD
ATOM     45  C   UNL A   1      47.726  26.790  27.417  1.00  0.00     0.037 A 
ATOM     46  C   UNL A   1      41.054  28.308  28.877  1.00  0.00     0.037 A 
ATOM     47  C   UNL A   1      47.480  28.161  27.780  1.00  0.00     0.049 A 
ATOM     48  C   UNL A   1      42.143  29.338  28.988  1.00  0.00     0.074 A 
ATOM     49  C   UNL A   1      48.382  29.208  27.854  1.00  0.00     0.029 A 
ATOM     50  N   UNL A   1      46.240  28.674  28.131  1.00  0.00    -0.354 N 
ATOM     51  N   UNL A   1      43.422  29.220  28.725  1.00  0.00    -0.248 NA
ATOM     52  C   UNL A   1      41.745  30.676  29.450  1.00  0.00     0.031 C 
ATOM     53  C   UNL A   1      47.694  30.346  28.291  1.00  0.00     0.029 A 
ATOM     54  C   UNL A   1      46.357  30.019  28.442  1.00  0.00     0.049 A 
ATOM     55  H   UNL A   1      45.401  28.160  28.156  1.00  0.00     0.167 HD
ATOM     56  C   UNL A   1      43.975  30.472  28.962  1.00  0.00     0.074 A 
ATOM     57  C   UNL A   1      42.891  31.338  29.376  1.00  0.00     0.031 C 
ATOM     58  C   UNL A   1      45.267  30.869  28.845  1.00  0.00     0.037 A 
BRANCH  45  59
ATOM     59  C   UNL A   1      49.139  26.373  27.129  1.00  0.00     0.057 A 
ATOM     60  C   UNL A   1      49.996  25.921  28.141  1.00  0.00     0.134 A 
ATOM     61  C   UNL A   1      49.638  26.389  25.821  1.00  0.00     0.134 A 
ATOM     62  F   UNL A   1      49.584  25.892  29.418  1.00  0.00    -0.206 F 
ATOM     63  C   UNL A   1      51.305  25.524  27.867  1.00  0.00     0.040 A 
ATOM     64  C   UNL A   1      50.937  25.970  25.531  1.00  0.00     0.040 A 
ATOM     65  F   UNL A   1      48.869  26.806  24.803  1.00  0.00    -0.206 F 
ATOM     66  C   UNL A   1      51.777  25.541  26.556  1.00  0.00     0.006 A 
ENDBRANCH  45  59
BRANCH  46  67
ATOM     67  C   UNL A   1      39.650  28.651  29.219  1.00  0.00     0.057 A 
ATOM     68  C   UNL A   1      39.151  28.446  30.510  1.00  0.00     0.134 A 
ATOM     69  C   UNL A   1      38.772  29.176  28.264  1.00  0.00     0.134 A 
ATOM     70  F   UNL A   1      39.940  27.926  31.463  1.00  0.00    -0.206 F 
ATOM     71  C   UNL A   1      37.824  28.731  30.836  1.00  0.00     0.040 A 
ATOM     72  C   UNL A   1      37.449  29.490  28.582  1.00  0.00     0.040 A 
ATOM     73  F   UNL A   1      39.190  29.404  27.011  1.00  0.00    -0.206 F 
ATOM     74  C   UNL A   1      36.970  29.259  29.870  1.00  0.00     0.006 A 
ENDBRANCH  46  67
BRANCH  58  75
ATOM     75  C   UNL A   1      45.571  32.309  29.135  1.00  0.00     0.057 A 
ATOM     76  C   UNL A   1      45.970  32.742  30.405  1.00  0.00     0.134 A 
ATOM     77  C   UNL A   1      45.499  33.270  28.117  1.00  0.00     0.134 A 
ATOM     78  F   UNL A   1      46.044  31.873  31.426  1.00  0.00    -0.206 F 
ATOM     79  C   UNL A   1      46.267  34.081  30.659  1.00  0.00     0.040 A 
ATOM     80  C   UNL A   1      45.820  34.607  28.352  1.00  0.00     0.040 A 
ATOM     81  F   UNL A   1      45.131  32.921  26.875  1.00  0.00    -0.206 F 
ATOM     82  C   UNL A   1      46.199  35.017  29.629  1.00  0.00     0.006 A 
ENDBRANCH  58  75
ENDBRANCH  32  33
ENDBRANCH  24  27
ENDBRANCH  22  23
ENDBRANCH  21  22
ENDBRANCH   1  21
TORSDOF 14
ENDMDL
