MODEL 1
REMARK VINA RESULT:     -12.9      0.000      0.000
REMARK SMILES Cc1ccc(-c2cc(Cl)ccc2Cl)c(C(=O)NCCCCNC(=O)c2ccc(-c3c4nc(c(-c5c(F)cccc5F)c5ccc([nH]5)c(-c5c(F)cccc5F)c5nc(c(-c6c(F)cccc6F)c6ccc3[nH]6)C=C5)C=C4)cc2)c1
REMARK SMILES IDX 20 1 19 2 18 3 17 4 15 5 16 6 14 8 1 9 2 10 3 11 79 12 4 13
REMARK SMILES IDX 5 14 6 15 7 16 12 17 8 18 11 19 13 20 9 21 10 22 21 23 22 24
REMARK SMILES IDX 23 25 24 27 25 28 26 29 78 30 27 31 77 32 28 33 29 34 30 35
REMARK SMILES IDX 71 36 31 37 76 38 70 39 72 40 32 41 75 42 69 43 68 44 33 46
REMARK SMILES IDX 59 47 42 48 58 49 43 50 46 51 57 52 73 53 44 54 45 55 56 57
REMARK SMILES IDX 74 58 47 59 34 60 35 61 40 62 36 63 37 64 39 65 41 66 38 67
REMARK SMILES IDX 60 68 61 69 66 70 62 71 63 72 65 73 67 74 64 75 48 76 49 77
REMARK SMILES IDX 54 78 50 79 51 80 53 81 55 82 52 83
REMARK H PARENT 17 7 22 26 72 45 46 56
REMARK Flexibility Score: inf
ROOT
ATOM      1  C   UNL A   1      32.840  31.207  27.288  1.00  0.00     0.023 C 
ENDROOT
BRANCH   1   2
ATOM      2  C   UNL A   1      31.912  30.138  26.696  1.00  0.00     0.023 C 
BRANCH   2   3
ATOM      3  C   UNL A   1      32.615  28.836  26.279  1.00  0.00     0.116 C 
BRANCH   3   4
ATOM      4  N   UNL A   1      32.918  28.797  24.859  1.00  0.00    -0.352 N 
ATOM      5  C   UNL A   1      32.203  28.774  23.686  1.00  0.00     0.251 C 
ATOM      6  O   UNL A   1      32.917  28.806  22.682  1.00  0.00    -0.269 OA
ATOM      7  H   UNL A   1      33.889  28.783  24.694  1.00  0.00     0.163 HD
BRANCH   5   8
ATOM      8  C   UNL A   1      30.697  28.730  23.561  1.00  0.00     0.047 A 
ATOM      9  C   UNL A   1      27.795  31.179  23.025  1.00  0.00     0.044 C 
ATOM     10  C   UNL A   1      28.548  29.895  23.216  1.00  0.00    -0.050 A 
ATOM     11  C   UNL A   1      27.880  28.679  23.182  1.00  0.00     0.004 A 
ATOM     12  C   UNL A   1      29.935  29.904  23.433  1.00  0.00     0.018 A 
ATOM     13  C   UNL A   1      28.591  27.498  23.372  1.00  0.00     0.010 A 
ATOM     14  C   UNL A   1      29.995  27.488  23.559  1.00  0.00    -0.004 A 
BRANCH  14  15
ATOM     15  C   UNL A   1      30.616  26.160  23.782  1.00  0.00     0.003 A 
ATOM     16  C   UNL A   1      30.445  25.522  25.028  1.00  0.00     0.030 A 
ATOM     17  C   UNL A   1      31.340  25.470  22.787  1.00  0.00     0.049 A 
ATOM     18  C   UNL A   1      31.011  24.272  25.281  1.00  0.00     0.041 A 
ATOM     19  C   UNL A   1      31.880  24.201  23.038  1.00  0.00     0.023 A 
ATOM     20  Cl  UNL A   1      31.600  26.138  21.211  1.00  0.00    -0.084 Cl
ATOM     21  Cl  UNL A   1      30.829  23.548  26.832  1.00  0.00    -0.084 Cl
ATOM     22  C   UNL A   1      31.722  23.605  24.289  1.00  0.00     0.022 A 
ENDBRANCH  14  15
ENDBRANCH   5   8
ENDBRANCH   3   4
ENDBRANCH   2   3
ENDBRANCH   1   2
BRANCH   1  23
ATOM     23  C   UNL A   1      34.238  30.701  27.622  1.00  0.00     0.116 C 
BRANCH  23  24
ATOM     24  N   UNL A   1      34.977  31.523  28.572  1.00  0.00    -0.352 N 
ATOM     25  C   UNL A   1      36.117  31.228  29.307  1.00  0.00     0.251 C 
ATOM     26  H   UNL A   1      34.611  32.427  28.714  1.00  0.00     0.163 HD
ATOM     27  O   UNL A   1      36.541  32.031  30.120  1.00  0.00    -0.269 OA
BRANCH  25  28
ATOM     28  C   UNL A   1      36.907  30.006  28.991  1.00  0.00     0.039 A 
ATOM     29  C   UNL A   1      37.059  29.061  30.013  1.00  0.00     0.014 A 
ATOM     30  C   UNL A   1      37.672  29.905  27.833  1.00  0.00     0.014 A 
ATOM     31  C   UNL A   1      38.167  28.219  30.005  1.00  0.00     0.010 A 
ATOM     32  C   UNL A   1      38.828  29.148  27.867  1.00  0.00     0.010 A 
ATOM     33  C   UNL A   1      39.116  28.378  28.998  1.00  0.00    -0.014 A 
BRANCH  33  34
ATOM     34  C   UNL A   1      40.499  27.935  29.138  1.00  0.00     0.031 A 
ATOM     35  C   UNL A   1      40.927  26.616  28.631  1.00  0.00     0.074 A 
ATOM     36  C   UNL A   1      41.404  28.791  29.667  1.00  0.00     0.049 A 
ATOM     37  N   UNL A   1      42.033  26.046  28.969  1.00  0.00    -0.248 NA
ATOM     38  C   UNL A   1      40.098  25.783  27.763  1.00  0.00     0.031 C 
ATOM     39  C   UNL A   1      42.861  28.695  29.614  1.00  0.00     0.029 A 
ATOM     40  N   UNL A   1      41.160  29.841  30.566  1.00  0.00    -0.354 N 
ATOM     41  C   UNL A   1      42.201  24.949  28.163  1.00  0.00     0.074 A 
ATOM     42  C   UNL A   1      40.919  24.750  27.538  1.00  0.00     0.031 C 
ATOM     43  C   UNL A   1      43.381  29.419  30.616  1.00  0.00     0.029 A 
ATOM     44  C   UNL A   1      42.273  29.877  31.435  1.00  0.00     0.049 A 
ATOM     45  H   UNL A   1      40.372  30.432  30.588  1.00  0.00     0.167 HD
ATOM     46  C   UNL A   1      43.450  24.425  28.026  1.00  0.00     0.037 A 
ATOM     47  C   UNL A   1      42.144  29.634  32.771  1.00  0.00     0.037 A 
ATOM     48  C   UNL A   1      44.342  24.934  29.068  1.00  0.00     0.049 A 
ATOM     49  C   UNL A   1      42.947  28.452  33.264  1.00  0.00     0.074 A 
ATOM     50  C   UNL A   1      45.382  25.847  29.076  1.00  0.00     0.029 A 
ATOM     51  N   UNL A   1      44.037  24.671  30.401  1.00  0.00    -0.354 N 
ATOM     52  N   UNL A   1      43.454  27.538  32.484  1.00  0.00    -0.248 NA
ATOM     53  C   UNL A   1      43.211  28.187  34.677  1.00  0.00     0.031 C 
ATOM     54  C   UNL A   1      45.622  26.214  30.430  1.00  0.00     0.029 A 
ATOM     55  C   UNL A   1      44.767  25.486  31.241  1.00  0.00     0.049 A 
ATOM     56  H   UNL A   1      43.388  23.994  30.703  1.00  0.00     0.167 HD
ATOM     57  C   UNL A   1      44.041  26.561  33.244  1.00  0.00     0.074 A 
ATOM     58  C   UNL A   1      43.894  27.030  34.609  1.00  0.00     0.031 C 
ATOM     59  C   UNL A   1      44.569  25.431  32.685  1.00  0.00     0.037 A 
BRANCH  46  60
ATOM     60  C   UNL A   1      43.930  23.595  26.852  1.00  0.00     0.057 A 
ATOM     61  C   UNL A   1      44.683  24.194  25.821  1.00  0.00     0.134 A 
ATOM     62  C   UNL A   1      43.577  22.252  26.597  1.00  0.00     0.134 A 
ATOM     63  F   UNL A   1      45.084  25.471  25.901  1.00  0.00    -0.206 F 
ATOM     64  C   UNL A   1      45.041  23.522  24.642  1.00  0.00     0.040 A 
ATOM     65  C   UNL A   1      43.973  21.555  25.446  1.00  0.00     0.040 A 
ATOM     66  F   UNL A   1      42.778  21.550  27.404  1.00  0.00    -0.206 F 
ATOM     67  C   UNL A   1      44.696  22.192  24.454  1.00  0.00     0.006 A 
ENDBRANCH  46  60
BRANCH  47  68
ATOM     68  C   UNL A   1      40.840  30.074  33.330  1.00  0.00     0.057 A 
ATOM     69  C   UNL A   1      40.666  31.435  33.636  1.00  0.00     0.134 A 
ATOM     70  C   UNL A   1      39.687  29.294  33.213  1.00  0.00     0.134 A 
ATOM     71  F   UNL A   1      41.734  32.238  33.763  1.00  0.00    -0.206 F 
ATOM     72  C   UNL A   1      39.400  32.019  33.708  1.00  0.00     0.040 A 
ATOM     73  C   UNL A   1      38.412  29.869  33.291  1.00  0.00     0.040 A 
ATOM     74  F   UNL A   1      39.771  27.993  32.899  1.00  0.00    -0.206 F 
ATOM     75  C   UNL A   1      38.266  31.240  33.500  1.00  0.00     0.006 A 
ENDBRANCH  47  68
BRANCH  59  76
ATOM     76  C   UNL A   1      44.996  24.196  33.441  1.00  0.00     0.057 A 
ATOM     77  C   UNL A   1      46.314  23.930  33.848  1.00  0.00     0.134 A 
ATOM     78  C   UNL A   1      44.030  23.282  33.922  1.00  0.00     0.134 A 
ATOM     79  F   UNL A   1      47.318  24.772  33.570  1.00  0.00    -0.206 F 
ATOM     80  C   UNL A   1      46.654  22.808  34.618  1.00  0.00     0.040 A 
ATOM     81  C   UNL A   1      44.351  22.192  34.736  1.00  0.00     0.040 A 
ATOM     82  F   UNL A   1      42.727  23.427  33.640  1.00  0.00    -0.206 F 
ATOM     83  C   UNL A   1      45.671  21.940  35.074  1.00  0.00     0.006 A 
ENDBRANCH  59  76
ENDBRANCH  33  34
ENDBRANCH  25  28
ENDBRANCH  23  24
ENDBRANCH   1  23
TORSDOF 12
ENDMDL
MODEL 2
REMARK VINA RESULT:     -12.9      4.369      9.720
REMARK SMILES Cc1ccc(-c2cc(Cl)ccc2Cl)c(C(=O)NCCCCNC(=O)c2ccc(-c3c4nc(c(-c5c(F)cccc5F)c5ccc([nH]5)c(-c5c(F)cccc5F)c5nc(c(-c6c(F)cccc6F)c6ccc3[nH]6)C=C5)C=C4)cc2)c1
REMARK SMILES IDX 20 1 19 2 18 3 17 4 15 5 16 6 14 8 1 9 2 10 3 11 79 12 4 13
REMARK SMILES IDX 5 14 6 15 7 16 12 17 8 18 11 19 13 20 9 21 10 22 21 23 22 24
REMARK SMILES IDX 23 25 24 27 25 28 26 29 78 30 27 31 77 32 28 33 29 34 30 35
REMARK SMILES IDX 71 36 31 37 76 38 70 39 72 40 32 41 75 42 69 43 68 44 33 46
REMARK SMILES IDX 59 47 42 48 58 49 43 50 46 51 57 52 73 53 44 54 45 55 56 57
REMARK SMILES IDX 74 58 47 59 34 60 35 61 40 62 36 63 37 64 39 65 41 66 38 67
REMARK SMILES IDX 60 68 61 69 66 70 62 71 63 72 65 73 67 74 64 75 48 76 49 77
REMARK SMILES IDX 54 78 50 79 51 80 53 81 55 82 52 83
REMARK H PARENT 17 7 22 26 72 45 46 56
REMARK Flexibility Score: inf
ROOT
ATOM      1  C   UNL A   1      38.816  21.406  25.751  1.00  0.00     0.023 C 
ENDROOT
BRANCH   1   2
ATOM      2  C   UNL A   1      37.392  21.243  25.202  1.00  0.00     0.023 C 
BRANCH   2   3
ATOM      3  C   UNL A   1      36.474  22.455  25.427  1.00  0.00     0.116 C 
BRANCH   3   4
ATOM      4  N   UNL A   1      35.404  22.176  26.369  1.00  0.00    -0.352 N 
ATOM      5  C   UNL A   1      34.242  21.442  26.371  1.00  0.00     0.251 C 
ATOM      6  O   UNL A   1      33.663  21.455  27.458  1.00  0.00    -0.269 OA
ATOM      7  H   UNL A   1      35.548  22.633  27.229  1.00  0.00     0.163 HD
BRANCH   5   8
ATOM      8  C   UNL A   1      33.678  20.662  25.205  1.00  0.00     0.047 A 
ATOM      9  C   UNL A   1      33.764  17.076  23.849  1.00  0.00     0.044 C 
ATOM     10  C   UNL A   1      33.424  18.531  23.985  1.00  0.00    -0.050 A 
ATOM     11  C   UNL A   1      32.528  19.126  23.107  1.00  0.00     0.004 A 
ATOM     12  C   UNL A   1      34.005  19.311  24.997  1.00  0.00     0.018 A 
ATOM     13  C   UNL A   1      32.231  20.479  23.240  1.00  0.00     0.010 A 
ATOM     14  C   UNL A   1      32.783  21.272  24.276  1.00  0.00    -0.004 A 
BRANCH  14  15
ATOM     15  C   UNL A   1      32.404  22.705  24.275  1.00  0.00     0.003 A 
ATOM     16  C   UNL A   1      33.087  23.596  23.421  1.00  0.00     0.030 A 
ATOM     17  C   UNL A   1      31.354  23.226  25.060  1.00  0.00     0.049 A 
ATOM     18  C   UNL A   1      32.763  24.953  23.388  1.00  0.00     0.041 A 
ATOM     19  C   UNL A   1      31.013  24.584  24.999  1.00  0.00     0.023 A 
ATOM     20  Cl  UNL A   1      30.428  22.230  26.132  1.00  0.00    -0.084 Cl
ATOM     21  Cl  UNL A   1      33.653  26.021  22.374  1.00  0.00    -0.084 Cl
ATOM     22  C   UNL A   1      31.724  25.450  24.169  1.00  0.00     0.022 A 
ENDBRANCH  14  15
ENDBRANCH   5   8
ENDBRANCH   3   4
ENDBRANCH   2   3
ENDBRANCH   1   2
BRANCH   1  23
ATOM     23  C   UNL A   1      39.140  22.816  26.230  1.00  0.00     0.116 C 
BRANCH  23  24
ATOM     24  N   UNL A   1      40.543  23.048  26.547  1.00  0.00    -0.352 N 
ATOM     25  C   UNL A   1      41.199  24.228  26.869  1.00  0.00     0.251 C 
ATOM     26  H   UNL A   1      41.113  22.245  26.530  1.00  0.00     0.163 HD
ATOM     27  O   UNL A   1      42.409  24.228  27.023  1.00  0.00    -0.269 OA
BRANCH  25  28
ATOM     28  C   UNL A   1      40.412  25.454  27.181  1.00  0.00     0.039 A 
ATOM     29  C   UNL A   1      40.655  26.587  26.395  1.00  0.00     0.014 A 
ATOM     30  C   UNL A   1      39.656  25.564  28.343  1.00  0.00     0.014 A 
ATOM     31  C   UNL A   1      40.408  27.850  26.923  1.00  0.00     0.010 A 
ATOM     32  C   UNL A   1      39.503  26.813  28.917  1.00  0.00     0.010 A 
ATOM     33  C   UNL A   1      39.968  27.945  28.241  1.00  0.00    -0.014 A 
BRANCH  33  34
ATOM     34  C   UNL A   1      40.140  29.149  29.046  1.00  0.00     0.031 A 
ATOM     35  C   UNL A   1      39.084  30.179  29.105  1.00  0.00     0.074 A 
ATOM     36  C   UNL A   1      41.253  29.266  29.808  1.00  0.00     0.049 A 
ATOM     37  N   UNL A   1      39.277  31.374  29.548  1.00  0.00    -0.248 NA
ATOM     38  C   UNL A   1      37.735  29.975  28.584  1.00  0.00     0.031 C 
ATOM     39  C   UNL A   1      41.488  30.199  30.907  1.00  0.00     0.029 A 
ATOM     40  N   UNL A   1      42.506  28.675  29.582  1.00  0.00    -0.354 N 
ATOM     41  C   UNL A   1      38.053  31.985  29.649  1.00  0.00     0.074 A 
ATOM     42  C   UNL A   1      37.155  31.136  28.911  1.00  0.00     0.031 C 
ATOM     43  C   UNL A   1      42.811  30.340  31.082  1.00  0.00     0.029 A 
ATOM     44  C   UNL A   1      43.465  29.622  30.003  1.00  0.00     0.049 A 
ATOM     45  H   UNL A   1      42.682  27.782  29.207  1.00  0.00     0.167 HD
ATOM     46  C   UNL A   1      37.931  33.070  30.462  1.00  0.00     0.037 A 
ATOM     47  C   UNL A   1      44.350  30.179  29.126  1.00  0.00     0.037 A 
ATOM     48  C   UNL A   1      39.247  33.605  30.815  1.00  0.00     0.049 A 
ATOM     49  C   UNL A   1      44.246  31.683  29.015  1.00  0.00     0.074 A 
ATOM     50  C   UNL A   1      40.012  33.583  31.966  1.00  0.00     0.029 A 
ATOM     51  N   UNL A   1      40.077  34.068  29.797  1.00  0.00    -0.354 N 
ATOM     52  N   UNL A   1      43.225  32.377  29.435  1.00  0.00    -0.248 NA
ATOM     53  C   UNL A   1      45.269  32.520  28.390  1.00  0.00     0.031 C 
ATOM     54  C   UNL A   1      41.343  33.931  31.606  1.00  0.00     0.029 A 
ATOM     55  C   UNL A   1      41.372  34.215  30.250  1.00  0.00     0.049 A 
ATOM     56  H   UNL A   1      39.781  34.264  28.879  1.00  0.00     0.167 HD
ATOM     57  C   UNL A   1      43.399  33.695  29.104  1.00  0.00     0.074 A 
ATOM     58  C   UNL A   1      44.710  33.740  28.485  1.00  0.00     0.031 C 
ATOM     59  C   UNL A   1      42.434  34.632  29.341  1.00  0.00     0.037 A 
BRANCH  46  60
ATOM     60  C   UNL A   1      36.640  33.552  31.095  1.00  0.00     0.057 A 
ATOM     61  C   UNL A   1      36.336  33.212  32.430  1.00  0.00     0.134 A 
ATOM     62  C   UNL A   1      35.597  34.224  30.424  1.00  0.00     0.134 A 
ATOM     63  F   UNL A   1      37.214  32.554  33.201  1.00  0.00    -0.206 F 
ATOM     64  C   UNL A   1      35.102  33.504  33.034  1.00  0.00     0.040 A 
ATOM     65  C   UNL A   1      34.381  34.568  31.033  1.00  0.00     0.040 A 
ATOM     66  F   UNL A   1      35.656  34.534  29.126  1.00  0.00    -0.206 F 
ATOM     67  C   UNL A   1      34.122  34.195  32.339  1.00  0.00     0.006 A 
ENDBRANCH  46  60
BRANCH  47  68
ATOM     68  C   UNL A   1      44.745  29.267  28.023  1.00  0.00     0.057 A 
ATOM     69  C   UNL A   1      45.708  28.277  28.284  1.00  0.00     0.134 A 
ATOM     70  C   UNL A   1      43.954  29.102  26.883  1.00  0.00     0.134 A 
ATOM     71  F   UNL A   1      46.501  28.376  29.362  1.00  0.00    -0.206 F 
ATOM     72  C   UNL A   1      45.803  27.118  27.510  1.00  0.00     0.040 A 
ATOM     73  C   UNL A   1      44.047  27.947  26.096  1.00  0.00     0.040 A 
ATOM     74  F   UNL A   1      42.998  29.992  26.582  1.00  0.00    -0.206 F 
ATOM     75  C   UNL A   1      44.945  26.935  26.431  1.00  0.00     0.006 A 
ENDBRANCH  47  68
BRANCH  59  76
ATOM     76  C   UNL A   1      42.421  36.038  28.788  1.00  0.00     0.057 A 
ATOM     77  C   UNL A   1      43.028  37.141  29.410  1.00  0.00     0.134 A 
ATOM     78  C   UNL A   1      41.903  36.294  27.498  1.00  0.00     0.134 A 
ATOM     79  F   UNL A   1      43.667  37.023  30.582  1.00  0.00    -0.206 F 
ATOM     80  C   UNL A   1      43.062  38.414  28.823  1.00  0.00     0.040 A 
ATOM     81  C   UNL A   1      41.980  37.545  26.881  1.00  0.00     0.040 A 
ATOM     82  F   UNL A   1      41.322  35.328  26.771  1.00  0.00    -0.206 F 
ATOM     83  C   UNL A   1      42.546  38.618  27.550  1.00  0.00     0.006 A 
ENDBRANCH  59  76
ENDBRANCH  33  34
ENDBRANCH  25  28
ENDBRANCH  23  24
ENDBRANCH   1  23
TORSDOF 12
ENDMDL
MODEL 3
REMARK VINA RESULT:     -12.7      1.064      1.926
REMARK SMILES Cc1ccc(-c2cc(Cl)ccc2Cl)c(C(=O)NCCCCNC(=O)c2ccc(-c3c4nc(c(-c5c(F)cccc5F)c5ccc([nH]5)c(-c5c(F)cccc5F)c5nc(c(-c6c(F)cccc6F)c6ccc3[nH]6)C=C5)C=C4)cc2)c1
REMARK SMILES IDX 20 1 19 2 18 3 17 4 15 5 16 6 14 8 1 9 2 10 3 11 79 12 4 13
REMARK SMILES IDX 5 14 6 15 7 16 12 17 8 18 11 19 13 20 9 21 10 22 21 23 22 24
REMARK SMILES IDX 23 25 24 27 25 28 26 29 78 30 27 31 77 32 28 33 29 34 30 35
REMARK SMILES IDX 71 36 31 37 76 38 70 39 72 40 32 41 75 42 69 43 68 44 33 46
REMARK SMILES IDX 59 47 42 48 58 49 43 50 46 51 57 52 73 53 44 54 45 55 56 57
REMARK SMILES IDX 74 58 47 59 34 60 35 61 40 62 36 63 37 64 39 65 41 66 38 67
REMARK SMILES IDX 60 68 61 69 66 70 62 71 63 72 65 73 67 74 64 75 48 76 49 77
REMARK SMILES IDX 54 78 50 79 51 80 53 81 55 82 52 83
REMARK H PARENT 17 7 22 26 72 45 46 56
REMARK Flexibility Score: inf
ROOT
ATOM      1  C   UNL A   1      33.922  30.673  27.935  1.00  0.00     0.023 C 
ENDROOT
BRANCH   1   2
ATOM      2  C   UNL A   1      33.678  29.646  26.822  1.00  0.00     0.023 C 
BRANCH   2   3
ATOM      3  C   UNL A   1      32.689  30.099  25.735  1.00  0.00     0.116 C 
BRANCH   3   4
ATOM      4  N   UNL A   1      33.029  29.579  24.421  1.00  0.00    -0.352 N 
ATOM      5  C   UNL A   1      32.405  28.835  23.450  1.00  0.00     0.251 C 
ATOM      6  O   UNL A   1      33.092  28.685  22.438  1.00  0.00    -0.269 OA
ATOM      7  H   UNL A   1      33.947  29.823  24.160  1.00  0.00     0.163 HD
BRANCH   5   8
ATOM      8  C   UNL A   1      31.016  28.242  23.536  1.00  0.00     0.047 A 
ATOM      9  C   UNL A   1      27.408  29.276  22.751  1.00  0.00     0.044 C 
ATOM     10  C   UNL A   1      28.583  28.444  23.175  1.00  0.00    -0.050 A 
ATOM     11  C   UNL A   1      28.404  27.119  23.550  1.00  0.00     0.004 A 
ATOM     12  C   UNL A   1      29.875  28.991  23.202  1.00  0.00     0.018 A 
ATOM     13  C   UNL A   1      29.503  26.364  23.952  1.00  0.00     0.010 A 
ATOM     14  C   UNL A   1      30.818  26.892  23.952  1.00  0.00    -0.004 A 
BRANCH  14  15
ATOM     15  C   UNL A   1      31.886  25.985  24.435  1.00  0.00     0.003 A 
ATOM     16  C   UNL A   1      32.548  25.149  23.511  1.00  0.00     0.030 A 
ATOM     17  C   UNL A   1      32.312  25.942  25.779  1.00  0.00     0.049 A 
ATOM     18  C   UNL A   1      33.559  24.280  23.922  1.00  0.00     0.041 A 
ATOM     19  C   UNL A   1      33.349  25.088  26.180  1.00  0.00     0.023 A 
ATOM     20  Cl  UNL A   1      31.593  26.933  27.003  1.00  0.00    -0.084 Cl
ATOM     21  Cl  UNL A   1      34.307  23.235  22.778  1.00  0.00    -0.084 Cl
ATOM     22  C   UNL A   1      33.967  24.250  25.252  1.00  0.00     0.022 A 
ENDBRANCH  14  15
ENDBRANCH   5   8
ENDBRANCH   3   4
ENDBRANCH   2   3
ENDBRANCH   1   2
BRANCH   1  23
ATOM     23  C   UNL A   1      35.103  31.600  27.678  1.00  0.00     0.116 C 
BRANCH  23  24
ATOM     24  N   UNL A   1      35.749  32.118  28.877  1.00  0.00    -0.352 N 
ATOM     25  C   UNL A   1      36.675  31.518  29.719  1.00  0.00     0.251 C 
ATOM     26  H   UNL A   1      35.488  33.034  29.128  1.00  0.00     0.163 HD
ATOM     27  O   UNL A   1      37.038  32.094  30.731  1.00  0.00    -0.269 OA
BRANCH  25  28
ATOM     28  C   UNL A   1      37.340  30.251  29.308  1.00  0.00     0.039 A 
ATOM     29  C   UNL A   1      37.409  29.227  30.261  1.00  0.00     0.014 A 
ATOM     30  C   UNL A   1      38.079  30.157  28.133  1.00  0.00     0.014 A 
ATOM     31  C   UNL A   1      38.430  28.285  30.177  1.00  0.00     0.010 A 
ATOM     32  C   UNL A   1      39.156  29.291  28.097  1.00  0.00     0.010 A 
ATOM     33  C   UNL A   1      39.380  28.422  29.168  1.00  0.00    -0.014 A 
BRANCH  33  34
ATOM     34  C   UNL A   1      40.714  27.838  29.255  1.00  0.00     0.031 A 
ATOM     35  C   UNL A   1      40.964  26.450  28.820  1.00  0.00     0.074 A 
ATOM     36  C   UNL A   1      41.739  28.622  29.663  1.00  0.00     0.049 A 
ATOM     37  N   UNL A   1      42.024  25.785  29.130  1.00  0.00    -0.248 NA
ATOM     38  C   UNL A   1      39.994  25.658  28.067  1.00  0.00     0.031 C 
ATOM     39  C   UNL A   1      43.170  28.362  29.529  1.00  0.00     0.029 A 
ATOM     40  N   UNL A   1      41.670  29.749  30.498  1.00  0.00    -0.354 N 
ATOM     41  C   UNL A   1      42.019  24.625  28.397  1.00  0.00     0.074 A 
ATOM     42  C   UNL A   1      40.683  24.528  27.869  1.00  0.00     0.031 C 
ATOM     43  C   UNL A   1      43.832  29.089  30.441  1.00  0.00     0.029 A 
ATOM     44  C   UNL A   1      42.838  29.719  31.291  1.00  0.00     0.049 A 
ATOM     45  H   UNL A   1      40.953  30.424  30.525  1.00  0.00     0.167 HD
ATOM     46  C   UNL A   1      43.193  23.958  28.222  1.00  0.00     0.037 A 
ATOM     47  C   UNL A   1      42.777  29.580  32.647  1.00  0.00     0.037 A 
ATOM     48  C   UNL A   1      44.204  24.433  29.167  1.00  0.00     0.049 A 
ATOM     49  C   UNL A   1      43.482  28.351  33.174  1.00  0.00     0.074 A 
ATOM     50  C   UNL A   1      45.332  25.224  29.045  1.00  0.00     0.029 A 
ATOM     51  N   UNL A   1      43.965  24.294  30.532  1.00  0.00    -0.354 N 
ATOM     52  N   UNL A   1      43.835  27.338  32.433  1.00  0.00    -0.248 NA
ATOM     53  C   UNL A   1      43.813  28.152  34.584  1.00  0.00     0.031 C 
ATOM     54  C   UNL A   1      45.703  25.651  30.351  1.00  0.00     0.029 A 
ATOM     55  C   UNL A   1      44.833  25.077  31.264  1.00  0.00     0.049 A 
ATOM     56  H   UNL A   1      43.271  23.714  30.922  1.00  0.00     0.167 HD
ATOM     57  C   UNL A   1      44.365  26.354  33.225  1.00  0.00     0.074 A 
ATOM     58  C   UNL A   1      44.364  26.925  34.558  1.00  0.00     0.031 C 
ATOM     59  C   UNL A   1      44.731  25.139  32.718  1.00  0.00     0.037 A 
BRANCH  46  60
ATOM     60  C   UNL A   1      43.500  23.005  27.084  1.00  0.00     0.057 A 
ATOM     61  C   UNL A   1      42.901  21.728  27.050  1.00  0.00     0.134 A 
ATOM     62  C   UNL A   1      44.466  23.211  26.077  1.00  0.00     0.134 A 
ATOM     63  F   UNL A   1      41.975  21.366  27.949  1.00  0.00    -0.206 F 
ATOM     64  C   UNL A   1      43.244  20.745  26.107  1.00  0.00     0.040 A 
ATOM     65  C   UNL A   1      44.779  22.256  25.098  1.00  0.00     0.040 A 
ATOM     66  F   UNL A   1      45.215  24.315  26.011  1.00  0.00    -0.206 F 
ATOM     67  C   UNL A   1      44.178  21.010  25.118  1.00  0.00     0.006 A 
ENDBRANCH  46  60
BRANCH  47  68
ATOM     68  C   UNL A   1      41.569  30.197  33.252  1.00  0.00     0.057 A 
ATOM     69  C   UNL A   1      41.559  31.587  33.461  1.00  0.00     0.134 A 
ATOM     70  C   UNL A   1      40.335  29.541  33.268  1.00  0.00     0.134 A 
ATOM     71  F   UNL A   1      42.710  32.277  33.458  1.00  0.00    -0.206 F 
ATOM     72  C   UNL A   1      40.368  32.308  33.567  1.00  0.00     0.040 A 
ATOM     73  C   UNL A   1      39.136  30.254  33.382  1.00  0.00     0.040 A 
ATOM     74  F   UNL A   1      40.262  28.220  33.052  1.00  0.00    -0.206 F 
ATOM     75  C   UNL A   1      39.148  31.644  33.493  1.00  0.00     0.006 A 
ENDBRANCH  47  68
BRANCH  59  76
ATOM     76  C   UNL A   1      45.076  23.916  33.534  1.00  0.00     0.057 A 
ATOM     77  C   UNL A   1      44.201  22.841  33.761  1.00  0.00     0.134 A 
ATOM     78  C   UNL A   1      46.393  23.718  34.005  1.00  0.00     0.134 A 
ATOM     79  F   UNL A   1      42.954  22.833  33.268  1.00  0.00    -0.206 F 
ATOM     80  C   UNL A   1      44.587  21.687  34.458  1.00  0.00     0.040 A 
ATOM     81  C   UNL A   1      46.804  22.550  34.653  1.00  0.00     0.040 A 
ATOM     82  F   UNL A   1      47.346  24.646  33.832  1.00  0.00    -0.206 F 
ATOM     83  C   UNL A   1      45.895  21.533  34.898  1.00  0.00     0.006 A 
ENDBRANCH  59  76
ENDBRANCH  33  34
ENDBRANCH  25  28
ENDBRANCH  23  24
ENDBRANCH   1  23
TORSDOF 12
ENDMDL
