MODEL 1
REMARK VINA RESULT:     -12.6      0.000      0.000
REMARK SMILES Cc1ccc2cc(C[N@H+]3CC[NH2+][C@H](C(=O)NCCCCNC(=O)c4ccc(-c5c6nc(c(-c7c(F)cccc7F)c7ccc([nH]7)c(-c7c(F)cccc7F)c7nc(c(-c8c(F)cccc8F)c8ccc5[nH]8)C=C7)C=C6)cc4)C3)c(N3CCOCC3)nc2c1
REMARK SMILES IDX 18 1 17 2 16 3 14 4 15 5 13 7 9 8 10 9 78 10 11 12 12 13
REMARK SMILES IDX 8 16 7 17 1 18 2 19 3 20 88 21 4 22 87 23 5 24 86 25 6 26
REMARK SMILES IDX 79 27 80 28 81 29 85 30 82 31 84 32 83 33 19 34 20 35 21 36
REMARK SMILES IDX 22 37 23 39 24 40 25 41 77 42 26 43 76 44 27 45 28 46 29 47
REMARK SMILES IDX 70 48 30 49 75 50 69 51 71 52 31 53 74 54 68 55 67 56 32 58
REMARK SMILES IDX 58 59 41 60 57 61 42 62 45 63 56 64 72 65 43 66 44 67 55 69
REMARK SMILES IDX 73 70 46 71 33 72 34 73 39 74 35 75 36 76 38 77 40 78 37 79
REMARK SMILES IDX 59 80 60 81 65 82 61 83 62 84 64 85 66 86 63 87 47 88 48 89
REMARK SMILES IDX 53 90 49 91 50 92 52 93 54 94 51 95
REMARK H PARENT 16 6 9 11 12 14 12 15 21 38 71 57 45 68
REMARK Flexibility Score: inf
ROOT
ATOM      1  C   UNL A   1      31.816  27.470  27.012  1.00  0.00     0.023 C 
ENDROOT
BRANCH   1   2
ATOM      2  C   UNL A   1      31.829  26.180  26.200  1.00  0.00     0.116 C 
BRANCH   2   3
ATOM      3  N   UNL A   1      30.706  25.300  26.468  1.00  0.00    -0.351 N 
ATOM      4  C   UNL A   1      30.746  23.967  26.789  1.00  0.00     0.284 C 
ATOM      5  O   UNL A   1      29.704  23.434  27.176  1.00  0.00    -0.268 OA
ATOM      6  H   UNL A   1      29.812  25.707  26.413  1.00  0.00     0.163 HD
BRANCH   4   7
ATOM      7  C   UNL A   1      32.043  23.183  26.549  1.00  0.00     0.328 C 
ATOM      8  N   UNL A   1      32.969  21.077  25.459  1.00  0.00    -0.321 N 
ATOM      9  C   UNL A   1      33.935  21.036  26.571  1.00  0.00     0.324 C 
ATOM     10  C   UNL A   1      31.768  21.868  25.778  1.00  0.00     0.339 C 
ATOM     11  H   UNL A   1      32.632  20.118  25.366  1.00  0.00     0.348 HD
ATOM     12  C   UNL A   1      34.066  22.314  27.434  1.00  0.00     0.323 C 
ATOM     13  N   UNL A   1      32.760  22.887  27.820  1.00  0.00    -0.327 N 
ATOM     14  H   UNL A   1      32.897  23.744  28.356  1.00  0.00     0.347 HD
ATOM     15  H   UNL A   1      32.230  22.242  28.406  1.00  0.00     0.347 HD
BRANCH   8  16
ATOM     16  C   UNL A   1      33.549  21.313  24.127  1.00  0.00     0.303 C 
BRANCH  16  17
ATOM     17  C   UNL A   1      33.685  22.749  23.667  1.00  0.00     0.049 A 
ATOM     18  C   UNL A   1      32.274  28.994  22.676  1.00  0.00     0.044 C 
ATOM     19  C   UNL A   1      32.363  27.496  22.719  1.00  0.00    -0.049 A 
ATOM     20  C   UNL A   1      31.308  26.716  22.246  1.00  0.00     0.004 A 
ATOM     21  C   UNL A   1      33.521  26.861  23.205  1.00  0.00     0.032 A 
ATOM     22  C   UNL A   1      31.400  25.329  22.294  1.00  0.00     0.010 A 
ATOM     23  C   UNL A   1      33.629  25.476  23.286  1.00  0.00     0.073 A 
ATOM     24  C   UNL A   1      32.547  24.714  22.823  1.00  0.00     0.001 A 
ATOM     25  N   UNL A   1      34.728  24.907  23.826  1.00  0.00    -0.230 NA
ATOM     26  C   UNL A   1      32.614  23.332  22.975  1.00  0.00     0.023 A 
ATOM     27  C   UNL A   1      34.773  23.564  24.005  1.00  0.00     0.138 A 
BRANCH  27  28
ATOM     28  N   UNL A   1      35.907  23.019  24.584  1.00  0.00    -0.352 N 
ATOM     29  C   UNL A   1      36.702  22.083  23.772  1.00  0.00     0.146 C 
ATOM     30  C   UNL A   1      36.747  23.884  25.420  1.00  0.00     0.146 C 
ATOM     31  C   UNL A   1      37.549  21.225  24.725  1.00  0.00     0.181 C 
ATOM     32  C   UNL A   1      37.624  22.984  26.314  1.00  0.00     0.181 C 
ATOM     33  O   UNL A   1      38.403  22.047  25.544  1.00  0.00    -0.378 OA
ENDBRANCH  27  28
ENDBRANCH  16  17
ENDBRANCH   8  16
ENDBRANCH   4   7
ENDBRANCH   2   3
ENDBRANCH   1   2
BRANCH   1  34
ATOM     34  C   UNL A   1      31.602  28.761  26.231  1.00  0.00     0.023 C 
BRANCH  34  35
ATOM     35  C   UNL A   1      32.785  29.717  26.179  1.00  0.00     0.116 C 
BRANCH  35  36
ATOM     36  N   UNL A   1      32.495  31.060  26.659  1.00  0.00    -0.352 N 
ATOM     37  C   UNL A   1      33.310  31.910  27.373  1.00  0.00     0.251 C 
ATOM     38  H   UNL A   1      31.598  31.406  26.446  1.00  0.00     0.163 HD
ATOM     39  O   UNL A   1      32.907  33.009  27.740  1.00  0.00    -0.269 OA
BRANCH  37  40
ATOM     40  C   UNL A   1      34.663  31.450  27.751  1.00  0.00     0.039 A 
ATOM     41  C   UNL A   1      34.899  30.101  28.024  1.00  0.00     0.014 A 
ATOM     42  C   UNL A   1      35.666  32.401  27.948  1.00  0.00     0.014 A 
ATOM     43  C   UNL A   1      36.064  29.738  28.687  1.00  0.00     0.010 A 
ATOM     44  C   UNL A   1      36.875  32.015  28.531  1.00  0.00     0.010 A 
ATOM     45  C   UNL A   1      37.056  30.693  28.968  1.00  0.00    -0.014 A 
BRANCH  45  46
ATOM     46  C   UNL A   1      38.250  30.295  29.756  1.00  0.00     0.031 A 
ATOM     47  C   UNL A   1      38.419  30.746  31.183  1.00  0.00     0.074 A 
ATOM     48  C   UNL A   1      39.155  29.465  29.203  1.00  0.00     0.049 A 
ATOM     49  N   UNL A   1      39.392  30.489  32.022  1.00  0.00    -0.248 NA
ATOM     50  C   UNL A   1      37.362  31.604  31.742  1.00  0.00     0.031 C 
ATOM     51  C   UNL A   1      39.096  28.946  27.836  1.00  0.00     0.029 A 
ATOM     52  N   UNL A   1      40.284  28.893  29.730  1.00  0.00    -0.354 N 
ATOM     53  C   UNL A   1      39.077  31.168  33.193  1.00  0.00     0.074 A 
ATOM     54  C   UNL A   1      37.836  31.871  32.950  1.00  0.00     0.031 C 
ATOM     55  C   UNL A   1      40.111  28.091  27.648  1.00  0.00     0.029 A 
ATOM     56  C   UNL A   1      40.926  28.052  28.857  1.00  0.00     0.049 A 
ATOM     57  H   UNL A   1      40.601  29.068  30.645  1.00  0.00     0.167 HD
ATOM     58  C   UNL A   1      39.754  31.195  34.368  1.00  0.00     0.037 A 
ATOM     59  C   UNL A   1      42.058  27.339  29.006  1.00  0.00     0.037 A 
ATOM     60  C   UNL A   1      40.978  30.478  34.618  1.00  0.00     0.049 A 
ATOM     61  C   UNL A   1      42.805  27.413  30.303  1.00  0.00     0.074 A 
ATOM     62  C   UNL A   1      41.733  30.432  35.777  1.00  0.00     0.029 A 
ATOM     63  N   UNL A   1      41.626  29.678  33.688  1.00  0.00    -0.354 N 
ATOM     64  N   UNL A   1      42.499  28.067  31.397  1.00  0.00    -0.248 NA
ATOM     65  C   UNL A   1      44.062  26.657  30.382  1.00  0.00     0.031 C 
ATOM     66  C   UNL A   1      42.855  29.629  35.538  1.00  0.00     0.029 A 
ATOM     67  C   UNL A   1      42.780  29.146  34.242  1.00  0.00     0.049 A 
ATOM     68  H   UNL A   1      41.312  29.512  32.770  1.00  0.00     0.167 HD
ATOM     69  C   UNL A   1      43.524  27.802  32.295  1.00  0.00     0.074 A 
ATOM     70  C   UNL A   1      44.444  26.904  31.627  1.00  0.00     0.031 C 
ATOM     71  C   UNL A   1      43.690  28.267  33.556  1.00  0.00     0.037 A 
BRANCH  58  72
ATOM     72  C   UNL A   1      39.189  32.046  35.469  1.00  0.00     0.057 A 
ATOM     73  C   UNL A   1      39.505  33.408  35.551  1.00  0.00     0.134 A 
ATOM     74  C   UNL A   1      38.347  31.518  36.456  1.00  0.00     0.134 A 
ATOM     75  F   UNL A   1      40.309  33.978  34.641  1.00  0.00    -0.206 F 
ATOM     76  C   UNL A   1      39.001  34.214  36.574  1.00  0.00     0.040 A 
ATOM     77  C   UNL A   1      37.819  32.318  37.471  1.00  0.00     0.040 A 
ATOM     78  F   UNL A   1      37.994  30.224  36.426  1.00  0.00    -0.206 F 
ATOM     79  C   UNL A   1      38.150  33.671  37.534  1.00  0.00     0.006 A 
ENDBRANCH  58  72
BRANCH  59  80
ATOM     80  C   UNL A   1      42.554  26.509  27.882  1.00  0.00     0.057 A 
ATOM     81  C   UNL A   1      42.214  25.156  27.773  1.00  0.00     0.134 A 
ATOM     82  C   UNL A   1      43.396  27.047  26.903  1.00  0.00     0.134 A 
ATOM     83  F   UNL A   1      41.414  24.583  28.686  1.00  0.00    -0.206 F 
ATOM     84  C   UNL A   1      42.706  24.360  26.739  1.00  0.00     0.040 A 
ATOM     85  C   UNL A   1      43.877  26.268  25.850  1.00  0.00     0.040 A 
ATOM     86  F   UNL A   1      43.742  28.342  26.947  1.00  0.00    -0.206 F 
ATOM     87  C   UNL A   1      43.538  24.919  25.771  1.00  0.00     0.006 A 
ENDBRANCH  59  80
BRANCH  71  88
ATOM     88  C   UNL A   1      44.915  27.803  34.287  1.00  0.00     0.057 A 
ATOM     89  C   UNL A   1      44.897  26.621  35.038  1.00  0.00     0.134 A 
ATOM     90  C   UNL A   1      46.112  28.529  34.244  1.00  0.00     0.134 A 
ATOM     91  F   UNL A   1      43.780  25.883  35.121  1.00  0.00    -0.206 F 
ATOM     92  C   UNL A   1      46.030  26.177  35.720  1.00  0.00     0.040 A 
ATOM     93  C   UNL A   1      47.258  28.082  34.904  1.00  0.00     0.040 A 
ATOM     94  F   UNL A   1      46.196  29.659  33.527  1.00  0.00    -0.206 F 
ATOM     95  C   UNL A   1      47.216  26.904  35.647  1.00  0.00     0.006 A 
ENDBRANCH  71  88
ENDBRANCH  45  46
ENDBRANCH  37  40
ENDBRANCH  35  36
ENDBRANCH  34  35
ENDBRANCH   1  34
TORSDOF 14
ENDMDL
MODEL 2
REMARK VINA RESULT:     -12.6      0.207      5.915
REMARK SMILES Cc1ccc2cc(C[N@H+]3CC[NH2+][C@H](C(=O)NCCCCNC(=O)c4ccc(-c5c6nc(c(-c7c(F)cccc7F)c7ccc([nH]7)c(-c7c(F)cccc7F)c7nc(c(-c8c(F)cccc8F)c8ccc5[nH]8)C=C7)C=C6)cc4)C3)c(N3CCOCC3)nc2c1
REMARK SMILES IDX 18 1 17 2 16 3 14 4 15 5 13 7 9 8 10 9 78 10 11 12 12 13
REMARK SMILES IDX 8 16 7 17 1 18 2 19 3 20 88 21 4 22 87 23 5 24 86 25 6 26
REMARK SMILES IDX 79 27 80 28 81 29 85 30 82 31 84 32 83 33 19 34 20 35 21 36
REMARK SMILES IDX 22 37 23 39 24 40 25 41 77 42 26 43 76 44 27 45 28 46 29 47
REMARK SMILES IDX 70 48 30 49 75 50 69 51 71 52 31 53 74 54 68 55 67 56 32 58
REMARK SMILES IDX 58 59 41 60 57 61 42 62 45 63 56 64 72 65 43 66 44 67 55 69
REMARK SMILES IDX 73 70 46 71 33 72 34 73 39 74 35 75 36 76 38 77 40 78 37 79
REMARK SMILES IDX 59 80 60 81 65 82 61 83 62 84 64 85 66 86 63 87 47 88 48 89
REMARK SMILES IDX 53 90 49 91 50 92 52 93 54 94 51 95
REMARK H PARENT 16 6 9 11 12 14 12 15 21 38 71 57 45 68
REMARK Flexibility Score: inf
ROOT
ATOM      1  C   UNL A   1      32.030  27.504  27.074  1.00  0.00     0.023 C 
ENDROOT
BRANCH   1   2
ATOM      2  C   UNL A   1      32.013  26.205  26.276  1.00  0.00     0.116 C 
BRANCH   2   3
ATOM      3  N   UNL A   1      30.846  25.376  26.519  1.00  0.00    -0.351 N 
ATOM      4  C   UNL A   1      30.818  24.036  26.809  1.00  0.00     0.284 C 
ATOM      5  O   UNL A   1      29.749  23.547  27.180  1.00  0.00    -0.268 OA
ATOM      6  H   UNL A   1      29.973  25.829  26.471  1.00  0.00     0.163 HD
BRANCH   4   7
ATOM      7  C   UNL A   1      32.075  23.193  26.557  1.00  0.00     0.328 C 
ATOM      8  N   UNL A   1      32.904  21.079  25.406  1.00  0.00    -0.321 N 
ATOM      9  C   UNL A   1      33.853  20.951  26.525  1.00  0.00     0.324 C 
ATOM     10  C   UNL A   1      31.742  21.921  25.739  1.00  0.00     0.339 C 
ATOM     11  H   UNL A   1      32.519  20.143  25.277  1.00  0.00     0.348 HD
ATOM     12  C   UNL A   1      34.040  22.192  27.432  1.00  0.00     0.323 C 
ATOM     13  N   UNL A   1      32.761  22.819  27.825  1.00  0.00    -0.327 N 
ATOM     14  H   UNL A   1      32.935  23.649  28.391  1.00  0.00     0.347 HD
ATOM     15  H   UNL A   1      32.191  22.183  28.382  1.00  0.00     0.347 HD
BRANCH   8  16
ATOM     16  C   UNL A   1      33.511  21.329  24.088  1.00  0.00     0.303 C 
BRANCH  16  17
ATOM     17  C   UNL A   1      33.645  22.769  23.640  1.00  0.00     0.049 A 
ATOM     18  C   UNL A   1      32.218  29.017  22.694  1.00  0.00     0.044 C 
ATOM     19  C   UNL A   1      32.311  27.520  22.726  1.00  0.00    -0.049 A 
ATOM     20  C   UNL A   1      31.260  26.740  22.244  1.00  0.00     0.004 A 
ATOM     21  C   UNL A   1      33.469  26.884  23.210  1.00  0.00     0.032 A 
ATOM     22  C   UNL A   1      31.356  25.353  22.280  1.00  0.00     0.010 A 
ATOM     23  C   UNL A   1      33.581  25.499  23.281  1.00  0.00     0.073 A 
ATOM     24  C   UNL A   1      32.503  24.737  22.808  1.00  0.00     0.001 A 
ATOM     25  N   UNL A   1      34.680  24.929  23.819  1.00  0.00    -0.230 NA
ATOM     26  C   UNL A   1      32.574  23.354  22.950  1.00  0.00     0.023 A 
ATOM     27  C   UNL A   1      34.729  23.585  23.988  1.00  0.00     0.138 A 
BRANCH  27  28
ATOM     28  N   UNL A   1      35.863  23.039  24.567  1.00  0.00    -0.352 N 
ATOM     29  C   UNL A   1      36.689  22.150  23.734  1.00  0.00     0.146 C 
ATOM     30  C   UNL A   1      36.672  23.886  25.451  1.00  0.00     0.146 C 
ATOM     31  C   UNL A   1      37.536  21.271  24.669  1.00  0.00     0.181 C 
ATOM     32  C   UNL A   1      37.550  22.968  26.325  1.00  0.00     0.181 C 
ATOM     33  O   UNL A   1      38.359  22.076  25.534  1.00  0.00    -0.378 OA
ENDBRANCH  27  28
ENDBRANCH  16  17
ENDBRANCH   8  16
ENDBRANCH   4   7
ENDBRANCH   2   3
ENDBRANCH   1   2
BRANCH   1  34
ATOM     34  C   UNL A   1      31.625  28.766  26.322  1.00  0.00     0.023 C 
BRANCH  34  35
ATOM     35  C   UNL A   1      32.736  29.771  26.051  1.00  0.00     0.116 C 
BRANCH  35  36
ATOM     36  N   UNL A   1      32.462  31.116  26.535  1.00  0.00    -0.352 N 
ATOM     37  C   UNL A   1      33.269  31.934  27.293  1.00  0.00     0.251 C 
ATOM     38  H   UNL A   1      31.586  31.489  26.287  1.00  0.00     0.163 HD
ATOM     39  O   UNL A   1      32.881  33.040  27.657  1.00  0.00    -0.269 OA
BRANCH  37  40
ATOM     40  C   UNL A   1      34.591  31.433  27.725  1.00  0.00     0.039 A 
ATOM     41  C   UNL A   1      34.769  30.081  28.023  1.00  0.00     0.014 A 
ATOM     42  C   UNL A   1      35.620  32.350  27.942  1.00  0.00     0.014 A 
ATOM     43  C   UNL A   1      35.898  29.686  28.731  1.00  0.00     0.010 A 
ATOM     44  C   UNL A   1      36.794  31.930  28.572  1.00  0.00     0.010 A 
ATOM     45  C   UNL A   1      36.913  30.610  29.033  1.00  0.00    -0.014 A 
BRANCH  45  46
ATOM     46  C   UNL A   1      38.064  30.181  29.867  1.00  0.00     0.031 A 
ATOM     47  C   UNL A   1      39.142  29.295  29.298  1.00  0.00     0.074 A 
ATOM     48  C   UNL A   1      38.174  30.647  31.126  1.00  0.00     0.049 A 
ATOM     49  N   UNL A   1      40.220  28.829  29.877  1.00  0.00    -0.248 NA
ATOM     50  C   UNL A   1      38.987  28.871  27.897  1.00  0.00     0.031 C 
ATOM     51  C   UNL A   1      37.205  31.523  31.786  1.00  0.00     0.029 A 
ATOM     52  N   UNL A   1      39.160  30.472  32.062  1.00  0.00    -0.354 N 
ATOM     53  C   UNL A   1      40.858  28.043  28.925  1.00  0.00     0.074 A 
ATOM     54  C   UNL A   1      40.032  28.072  27.736  1.00  0.00     0.031 C 
ATOM     55  C   UNL A   1      37.668  31.851  33.000  1.00  0.00     0.029 A 
ATOM     56  C   UNL A   1      38.932  31.160  33.227  1.00  0.00     0.049 A 
ATOM     57  H   UNL A   1      39.952  29.907  31.913  1.00  0.00     0.167 HD
ATOM     58  C   UNL A   1      42.029  27.367  29.026  1.00  0.00     0.037 A 
ATOM     59  C   UNL A   1      39.653  31.216  34.362  1.00  0.00     0.037 A 
ATOM     60  C   UNL A   1      42.862  27.355  30.201  1.00  0.00     0.049 A 
ATOM     61  C   UNL A   1      40.928  30.432  34.460  1.00  0.00     0.074 A 
ATOM     62  C   UNL A   1      44.071  26.712  30.398  1.00  0.00     0.029 A 
ATOM     63  N   UNL A   1      42.569  28.023  31.380  1.00  0.00    -0.354 N 
ATOM     64  N   UNL A   1      41.511  29.687  33.553  1.00  0.00    -0.248 NA
ATOM     65  C   UNL A   1      41.638  30.490  35.744  1.00  0.00     0.031 C 
ATOM     66  C   UNL A   1      44.495  26.964  31.708  1.00  0.00     0.029 A 
ATOM     67  C   UNL A   1      43.567  27.795  32.315  1.00  0.00     0.049 A 
ATOM     68  H   UNL A   1      41.770  28.579  31.531  1.00  0.00     0.167 HD
ATOM     69  C   UNL A   1      42.657  29.186  34.155  1.00  0.00     0.074 A 
ATOM     70  C   UNL A   1      42.700  29.738  35.494  1.00  0.00     0.031 C 
ATOM     71  C   UNL A   1      43.585  28.341  33.647  1.00  0.00     0.037 A 
BRANCH  58  72
ATOM     72  C   UNL A   1      42.467  26.567  27.833  1.00  0.00     0.057 A 
ATOM     73  C   UNL A   1      42.090  25.225  27.695  1.00  0.00     0.134 A 
ATOM     74  C   UNL A   1      43.275  27.117  26.828  1.00  0.00     0.134 A 
ATOM     75  F   UNL A   1      41.321  24.635  28.622  1.00  0.00    -0.206 F 
ATOM     76  C   UNL A   1      42.498  24.461  26.600  1.00  0.00     0.040 A 
ATOM     77  C   UNL A   1      43.671  26.369  25.718  1.00  0.00     0.040 A 
ATOM     78  F   UNL A   1      43.659  28.401  26.892  1.00  0.00    -0.206 F 
ATOM     79  C   UNL A   1      43.286  25.034  25.604  1.00  0.00     0.006 A 
ENDBRANCH  58  72
BRANCH  59  80
ATOM     80  C   UNL A   1      39.168  32.035  35.499  1.00  0.00     0.057 A 
ATOM     81  C   UNL A   1      38.344  31.487  36.488  1.00  0.00     0.134 A 
ATOM     82  C   UNL A   1      39.502  33.388  35.608  1.00  0.00     0.134 A 
ATOM     83  F   UNL A   1      37.985  30.195  36.432  1.00  0.00    -0.206 F 
ATOM     84  C   UNL A   1      37.854  32.260  37.540  1.00  0.00     0.040 A 
ATOM     85  C   UNL A   1      39.038  34.168  36.669  1.00  0.00     0.040 A 
ATOM     86  F   UNL A   1      40.302  33.963  34.698  1.00  0.00    -0.206 F 
ATOM     87  C   UNL A   1      38.205  33.605  37.634  1.00  0.00     0.006 A 
ENDBRANCH  59  80
BRANCH  71  88
ATOM     88  C   UNL A   1      44.723  27.970  34.551  1.00  0.00     0.057 A 
ATOM     89  C   UNL A   1      44.645  26.840  35.374  1.00  0.00     0.134 A 
ATOM     90  C   UNL A   1      45.895  28.734  34.602  1.00  0.00     0.134 A 
ATOM     91  F   UNL A   1      43.547  26.070  35.373  1.00  0.00    -0.206 F 
ATOM     92  C   UNL A   1      45.698  26.482  36.217  1.00  0.00     0.040 A 
ATOM     93  C   UNL A   1      46.963  28.373  35.425  1.00  0.00     0.040 A 
ATOM     94  F   UNL A   1      46.036  29.817  33.824  1.00  0.00    -0.206 F 
ATOM     95  C   UNL A   1      46.863  27.245  36.238  1.00  0.00     0.006 A 
ENDBRANCH  71  88
ENDBRANCH  45  46
ENDBRANCH  37  40
ENDBRANCH  35  36
ENDBRANCH  34  35
ENDBRANCH   1  34
TORSDOF 14
ENDMDL
MODEL 3
REMARK VINA RESULT:     -12.6      2.680      7.807
REMARK SMILES Cc1ccc2cc(C[N@H+]3CC[NH2+][C@H](C(=O)NCCCCNC(=O)c4ccc(-c5c6nc(c(-c7c(F)cccc7F)c7ccc([nH]7)c(-c7c(F)cccc7F)c7nc(c(-c8c(F)cccc8F)c8ccc5[nH]8)C=C7)C=C6)cc4)C3)c(N3CCOCC3)nc2c1
REMARK SMILES IDX 18 1 17 2 16 3 14 4 15 5 13 7 9 8 10 9 78 10 11 12 12 13
REMARK SMILES IDX 8 16 7 17 1 18 2 19 3 20 88 21 4 22 87 23 5 24 86 25 6 26
REMARK SMILES IDX 79 27 80 28 81 29 85 30 82 31 84 32 83 33 19 34 20 35 21 36
REMARK SMILES IDX 22 37 23 39 24 40 25 41 77 42 26 43 76 44 27 45 28 46 29 47
REMARK SMILES IDX 70 48 30 49 75 50 69 51 71 52 31 53 74 54 68 55 67 56 32 58
REMARK SMILES IDX 58 59 41 60 57 61 42 62 45 63 56 64 72 65 43 66 44 67 55 69
REMARK SMILES IDX 73 70 46 71 33 72 34 73 39 74 35 75 36 76 38 77 40 78 37 79
REMARK SMILES IDX 59 80 60 81 65 82 61 83 62 84 64 85 66 86 63 87 47 88 48 89
REMARK SMILES IDX 53 90 49 91 50 92 52 93 54 94 51 95
REMARK H PARENT 16 6 9 11 12 14 12 15 21 38 71 57 45 68
REMARK Flexibility Score: inf
ROOT
ATOM      1  C   UNL A   1      35.228  22.899  23.515  1.00  0.00     0.023 C 
ENDROOT
BRANCH   1   2
ATOM      2  C   UNL A   1      34.355  24.140  23.355  1.00  0.00     0.116 C 
BRANCH   2   3
ATOM      3  N   UNL A   1      33.643  24.203  22.093  1.00  0.00    -0.351 N 
ATOM      4  C   UNL A   1      33.080  25.308  21.505  1.00  0.00     0.284 C 
ATOM      5  O   UNL A   1      32.690  25.208  20.339  1.00  0.00    -0.268 OA
ATOM      6  H   UNL A   1      33.553  23.356  21.600  1.00  0.00     0.163 HD
BRANCH   4   7
ATOM      7  C   UNL A   1      32.861  26.570  22.350  1.00  0.00     0.328 C 
ATOM      8  N   UNL A   1      31.097  28.272  23.036  1.00  0.00    -0.321 N 
ATOM      9  C   UNL A   1      32.188  29.264  23.043  1.00  0.00     0.324 C 
ATOM     10  C   UNL A   1      31.409  27.090  22.215  1.00  0.00     0.339 C 
ATOM     11  H   UNL A   1      30.326  28.731  22.551  1.00  0.00     0.348 HD
ATOM     12  C   UNL A   1      33.635  28.715  23.006  1.00  0.00     0.323 C 
ATOM     13  N   UNL A   1      33.824  27.651  21.999  1.00  0.00    -0.327 N 
ATOM     14  H   UNL A   1      34.780  27.298  22.035  1.00  0.00     0.347 HD
ATOM     15  H   UNL A   1      33.663  28.000  21.054  1.00  0.00     0.347 HD
BRANCH   8  16
ATOM     16  C   UNL A   1      30.491  27.992  24.349  1.00  0.00     0.303 C 
BRANCH  16  17
ATOM     17  C   UNL A   1      31.067  26.846  25.155  1.00  0.00     0.049 A 
ATOM     18  C   UNL A   1      33.657  21.078  26.565  1.00  0.00     0.044 C 
ATOM     19  C   UNL A   1      32.814  22.249  26.152  1.00  0.00    -0.049 A 
ATOM     20  C   UNL A   1      31.658  22.052  25.398  1.00  0.00     0.004 A 
ATOM     21  C   UNL A   1      33.159  23.555  26.548  1.00  0.00     0.032 A 
ATOM     22  C   UNL A   1      30.885  23.144  25.019  1.00  0.00     0.010 A 
ATOM     23  C   UNL A   1      32.416  24.668  26.162  1.00  0.00     0.073 A 
ATOM     24  C   UNL A   1      31.270  24.444  25.387  1.00  0.00     0.001 A 
ATOM     25  N   UNL A   1      32.821  25.910  26.501  1.00  0.00    -0.230 NA
ATOM     26  C   UNL A   1      30.569  25.556  24.929  1.00  0.00     0.023 A 
ATOM     27  C   UNL A   1      32.156  26.990  26.024  1.00  0.00     0.138 A 
BRANCH  27  28
ATOM     28  N   UNL A   1      32.616  28.249  26.374  1.00  0.00    -0.352 N 
ATOM     29  C   UNL A   1      31.731  29.090  27.197  1.00  0.00     0.146 C 
ATOM     30  C   UNL A   1      34.028  28.398  26.742  1.00  0.00     0.146 C 
ATOM     31  C   UNL A   1      32.166  30.554  27.020  1.00  0.00     0.181 C 
ATOM     32  C   UNL A   1      34.404  29.888  26.612  1.00  0.00     0.181 C 
ATOM     33  O   UNL A   1      33.544  30.736  27.397  1.00  0.00    -0.378 OA
ENDBRANCH  27  28
ENDBRANCH  16  17
ENDBRANCH   8  16
ENDBRANCH   4   7
ENDBRANCH   2   3
ENDBRANCH   1   2
BRANCH   1  34
ATOM     34  C   UNL A   1      36.723  23.140  23.685  1.00  0.00     0.023 C 
BRANCH  34  35
ATOM     35  C   UNL A   1      37.226  23.250  25.117  1.00  0.00     0.116 C 
BRANCH  35  36
ATOM     36  N   UNL A   1      38.467  22.534  25.375  1.00  0.00    -0.352 N 
ATOM     37  C   UNL A   1      39.546  22.935  26.129  1.00  0.00     0.251 C 
ATOM     38  H   UNL A   1      38.544  21.647  24.956  1.00  0.00     0.163 HD
ATOM     39  O   UNL A   1      40.545  22.229  26.226  1.00  0.00    -0.269 OA
BRANCH  37  40
ATOM     40  C   UNL A   1      39.514  24.266  26.771  1.00  0.00     0.039 A 
ATOM     41  C   UNL A   1      40.174  25.348  26.184  1.00  0.00     0.014 A 
ATOM     42  C   UNL A   1      38.917  24.395  28.026  1.00  0.00     0.014 A 
ATOM     43  C   UNL A   1      40.415  26.487  26.942  1.00  0.00     0.010 A 
ATOM     44  C   UNL A   1      39.083  25.578  28.749  1.00  0.00     0.010 A 
ATOM     45  C   UNL A   1      39.892  26.607  28.240  1.00  0.00    -0.014 A 
BRANCH  45  46
ATOM     46  C   UNL A   1      40.239  27.796  29.059  1.00  0.00     0.031 A 
ATOM     47  C   UNL A   1      41.607  27.936  29.675  1.00  0.00     0.074 A 
ATOM     48  C   UNL A   1      39.338  28.788  29.194  1.00  0.00     0.049 A 
ATOM     49  N   UNL A   1      42.086  28.907  30.412  1.00  0.00    -0.248 NA
ATOM     50  C   UNL A   1      42.561  26.842  29.438  1.00  0.00     0.031 C 
ATOM     51  C   UNL A   1      37.986  28.777  28.634  1.00  0.00     0.029 A 
ATOM     52  N   UNL A   1      39.432  30.004  29.819  1.00  0.00    -0.354 N 
ATOM     53  C   UNL A   1      43.382  28.532  30.744  1.00  0.00     0.074 A 
ATOM     54  C   UNL A   1      43.608  27.232  30.151  1.00  0.00     0.031 C 
ATOM     55  C   UNL A   1      37.395  29.952  28.895  1.00  0.00     0.029 A 
ATOM     56  C   UNL A   1      38.301  30.770  29.693  1.00  0.00     0.049 A 
ATOM     57  H   UNL A   1      40.233  30.298  30.311  1.00  0.00     0.167 HD
ATOM     58  C   UNL A   1      44.305  29.213  31.468  1.00  0.00     0.037 A 
ATOM     59  C   UNL A   1      38.017  31.992  30.180  1.00  0.00     0.037 A 
ATOM     60  C   UNL A   1      44.089  30.517  32.041  1.00  0.00     0.049 A 
ATOM     61  C   UNL A   1      39.042  32.709  31.006  1.00  0.00     0.074 A 
ATOM     62  C   UNL A   1      44.964  31.293  32.780  1.00  0.00     0.029 A 
ATOM     63  N   UNL A   1      42.909  31.237  31.935  1.00  0.00    -0.354 N 
ATOM     64  N   UNL A   1      40.259  32.336  31.318  1.00  0.00    -0.248 NA
ATOM     65  C   UNL A   1      38.649  34.013  31.555  1.00  0.00     0.031 C 
ATOM     66  C   UNL A   1      44.303  32.471  33.148  1.00  0.00     0.029 A 
ATOM     67  C   UNL A   1      43.028  32.443  32.608  1.00  0.00     0.049 A 
ATOM     68  H   UNL A   1      42.106  30.937  31.452  1.00  0.00     0.167 HD
ATOM     69  C   UNL A   1      40.778  33.358  32.100  1.00  0.00     0.074 A 
ATOM     70  C   UNL A   1      39.754  34.378  32.189  1.00  0.00     0.031 C 
ATOM     71  C   UNL A   1      41.992  33.440  32.697  1.00  0.00     0.037 A 
BRANCH  58  72
ATOM     72  C   UNL A   1      45.631  28.545  31.696  1.00  0.00     0.057 A 
ATOM     73  C   UNL A   1      45.834  27.723  32.812  1.00  0.00     0.134 A 
ATOM     74  C   UNL A   1      46.712  28.727  30.822  1.00  0.00     0.134 A 
ATOM     75  F   UNL A   1      44.843  27.509  33.690  1.00  0.00    -0.206 F 
ATOM     76  C   UNL A   1      47.063  27.103  33.048  1.00  0.00     0.040 A 
ATOM     77  C   UNL A   1      47.938  28.095  31.037  1.00  0.00     0.040 A 
ATOM     78  F   UNL A   1      46.579  29.490  29.727  1.00  0.00    -0.206 F 
ATOM     79  C   UNL A   1      48.117  27.284  32.156  1.00  0.00     0.006 A 
ENDBRANCH  58  72
BRANCH  59  80
ATOM     80  C   UNL A   1      36.691  32.598  29.908  1.00  0.00     0.057 A 
ATOM     81  C   UNL A   1      36.448  33.313  28.729  1.00  0.00     0.134 A 
ATOM     82  C   UNL A   1      35.645  32.494  30.830  1.00  0.00     0.134 A 
ATOM     83  F   UNL A   1      37.416  33.452  27.810  1.00  0.00    -0.206 F 
ATOM     84  C   UNL A   1      35.216  33.918  28.483  1.00  0.00     0.040 A 
ATOM     85  C   UNL A   1      34.400  33.073  30.586  1.00  0.00     0.040 A 
ATOM     86  F   UNL A   1      35.815  31.806  31.969  1.00  0.00    -0.206 F 
ATOM     87  C   UNL A   1      34.185  33.795  29.413  1.00  0.00     0.006 A 
ENDBRANCH  59  80
BRANCH  71  88
ATOM     88  C   UNL A   1      42.267  34.680  33.493  1.00  0.00     0.057 A 
ATOM     89  C   UNL A   1      42.912  35.777  32.909  1.00  0.00     0.134 A 
ATOM     90  C   UNL A   1      41.891  34.785  34.838  1.00  0.00     0.134 A 
ATOM     91  F   UNL A   1      43.301  35.737  31.627  1.00  0.00    -0.206 F 
ATOM     92  C   UNL A   1      43.171  36.939  33.638  1.00  0.00     0.040 A 
ATOM     93  C   UNL A   1      42.125  35.951  35.570  1.00  0.00     0.040 A 
ATOM     94  F   UNL A   1      41.254  33.775  35.447  1.00  0.00    -0.206 F 
ATOM     95  C   UNL A   1      42.771  37.030  34.969  1.00  0.00     0.006 A 
ENDBRANCH  71  88
ENDBRANCH  45  46
ENDBRANCH  37  40
ENDBRANCH  35  36
ENDBRANCH  34  35
ENDBRANCH   1  34
TORSDOF 14
ENDMDL
