MODEL 1
REMARK VINA RESULT:     -10.7      0.000      0.000
REMARK SMILES C=CC[NH+](CC=C)[C@@H](C(=O)NCCCCNC(=O)c1ccc(-c2c3nc(c(-c4c(F)cccc4F)c4ccc([nH]4)c(-c4c(F)cccc4F)c4nc(c(-c5c(F)cccc5F)c5ccc2[nH]5)C=C4)C=C3)cc1)c1ccc(F)c(C)c1
REMARK SMILES IDX 13 1 12 2 11 3 9 4 10 5 8 7 4 8 3 10 2 11 1 12 5 13 6 14
REMARK SMILES IDX 7 15 73 16 74 17 80 18 75 19 78 20 76 21 79 22 77 23 14 24
REMARK SMILES IDX 15 25 16 26 17 27 18 29 19 30 20 31 72 32 21 33 71 34 22 35
REMARK SMILES IDX 23 36 24 37 65 38 25 39 70 40 64 41 66 42 26 43 69 44 63 45
REMARK SMILES IDX 62 46 27 48 53 49 36 50 52 51 37 52 40 53 51 54 67 55 38 56
REMARK SMILES IDX 39 57 50 59 68 60 41 61 28 62 29 63 34 64 30 65 31 66 33 67
REMARK SMILES IDX 35 68 32 69 54 70 55 71 60 72 56 73 57 74 59 75 61 76 58 77
REMARK SMILES IDX 42 78 43 79 48 80 44 81 45 82 47 83 49 84 46 85
REMARK H PARENT 11 6 4 9 16 28 66 47 40 58
REMARK Flexibility Score: inf
ROOT
ATOM      1  C   UNL A   1      31.105  30.708  25.368  1.00  0.00     0.023 C 
ENDROOT
BRANCH   1   2
ATOM      2  C   UNL A   1      32.205  29.631  25.506  1.00  0.00     0.116 C 
BRANCH   2   3
ATOM      3  N   UNL A   1      33.201  29.507  24.447  1.00  0.00    -0.351 N 
ATOM      4  C   UNL A   1      33.337  28.701  23.338  1.00  0.00     0.283 C 
ATOM      5  O   UNL A   1      34.146  29.114  22.496  1.00  0.00    -0.268 OA
ATOM      6  H   UNL A   1      33.945  30.145  24.548  1.00  0.00     0.163 HD
BRANCH   4   7
ATOM      7  C   UNL A   1      32.583  27.317  23.166  1.00  0.00     0.306 C 
BRANCH   7   8
ATOM      8  N   UNL A   1      31.119  27.476  23.574  1.00  0.00    -0.314 N 
ATOM      9  H   UNL A   1      31.168  27.988  24.455  1.00  0.00     0.349 HD
BRANCH   8  10
ATOM     10  C   UNL A   1      30.392  26.221  23.852  1.00  0.00     0.291 C 
BRANCH  10  11
ATOM     11  C   UNL A   1      30.018  25.959  25.286  1.00  0.00     0.025 C 
ATOM     12  C   UNL A   1      30.321  24.854  25.987  1.00  0.00     0.010 C 
ENDBRANCH  10  11
ENDBRANCH   8  10
BRANCH   8  13
ATOM     13  C   UNL A   1      30.372  28.212  22.548  1.00  0.00     0.291 C 
BRANCH  13  14
ATOM     14  C   UNL A   1      28.989  28.560  23.000  1.00  0.00     0.025 C 
ATOM     15  C   UNL A   1      28.327  29.660  22.612  1.00  0.00     0.010 C 
ENDBRANCH  13  14
ENDBRANCH   8  13
ENDBRANCH   7   8
BRANCH   7  16
ATOM     16  C   UNL A   1      33.363  26.226  23.946  1.00  0.00     0.020 A 
ATOM     17  C   UNL A   1      33.619  26.370  25.320  1.00  0.00     0.013 A 
ATOM     18  C   UNL A   1      33.838  25.054  23.330  1.00  0.00     0.017 A 
ATOM     19  C   UNL A   1      34.401  25.430  26.008  1.00  0.00     0.040 A 
ATOM     20  C   UNL A   1      34.752  24.194  23.963  1.00  0.00    -0.015 A 
ATOM     21  C   UNL A   1      34.994  24.377  25.318  1.00  0.00     0.126 A 
ATOM     22  C   UNL A   1      35.468  23.132  23.182  1.00  0.00     0.047 C 
ATOM     23  F   UNL A   1      35.812  23.543  25.975  1.00  0.00    -0.207 F 
ENDBRANCH   7  16
ENDBRANCH   4   7
ENDBRANCH   2   3
ENDBRANCH   1   2
BRANCH   1  24
ATOM     24  C   UNL A   1      31.074  31.885  26.355  1.00  0.00     0.023 C 
BRANCH  24  25
ATOM     25  C   UNL A   1      32.408  32.418  26.868  1.00  0.00     0.116 C 
BRANCH  25  26
ATOM     26  N   UNL A   1      32.312  33.786  27.351  1.00  0.00    -0.352 N 
ATOM     27  C   UNL A   1      33.013  34.420  28.347  1.00  0.00     0.251 C 
ATOM     28  H   UNL A   1      31.642  34.344  26.894  1.00  0.00     0.163 HD
ATOM     29  O   UNL A   1      32.633  35.532  28.734  1.00  0.00    -0.269 OA
BRANCH  27  30
ATOM     30  C   UNL A   1      34.211  33.812  28.977  1.00  0.00     0.039 A 
ATOM     31  C   UNL A   1      35.482  34.280  28.617  1.00  0.00     0.014 A 
ATOM     32  C   UNL A   1      34.102  32.730  29.858  1.00  0.00     0.014 A 
ATOM     33  C   UNL A   1      36.632  33.701  29.167  1.00  0.00     0.010 A 
ATOM     34  C   UNL A   1      35.247  32.186  30.444  1.00  0.00     0.010 A 
ATOM     35  C   UNL A   1      36.523  32.659  30.100  1.00  0.00    -0.014 A 
BRANCH  35  36
ATOM     36  C   UNL A   1      37.725  32.038  30.721  1.00  0.00     0.031 A 
ATOM     37  C   UNL A   1      38.481  30.961  29.989  1.00  0.00     0.074 A 
ATOM     38  C   UNL A   1      38.085  32.380  31.973  1.00  0.00     0.049 A 
ATOM     39  N   UNL A   1      39.473  30.216  30.407  1.00  0.00    -0.248 NA
ATOM     40  C   UNL A   1      38.046  30.667  28.615  1.00  0.00     0.031 C 
ATOM     41  C   UNL A   1      37.413  33.382  32.803  1.00  0.00     0.029 A 
ATOM     42  N   UNL A   1      39.089  31.901  32.780  1.00  0.00    -0.354 N 
ATOM     43  C   UNL A   1      39.761  29.348  29.361  1.00  0.00     0.074 A 
ATOM     44  C   UNL A   1      38.820  29.638  28.299  1.00  0.00     0.031 C 
ATOM     45  C   UNL A   1      38.019  33.440  33.999  1.00  0.00     0.029 A 
ATOM     46  C   UNL A   1      39.097  32.456  34.037  1.00  0.00     0.049 A 
ATOM     47  H   UNL A   1      39.740  31.225  32.484  1.00  0.00     0.167 HD
ATOM     48  C   UNL A   1      40.730  28.404  29.287  1.00  0.00     0.037 A 
ATOM     49  C   UNL A   1      39.870  32.187  35.107  1.00  0.00     0.037 A 
ATOM     50  C   UNL A   1      41.690  28.146  30.327  1.00  0.00     0.049 A 
ATOM     51  C   UNL A   1      40.937  31.133  34.999  1.00  0.00     0.074 A 
ATOM     52  C   UNL A   1      42.770  27.280  30.308  1.00  0.00     0.029 A 
ATOM     53  N   UNL A   1      41.680  28.748  31.576  1.00  0.00    -0.354 N 
ATOM     54  N   UNL A   1      41.252  30.378  33.973  1.00  0.00    -0.248 NA
ATOM     55  C   UNL A   1      41.756  30.889  36.196  1.00  0.00     0.031 C 
ATOM     56  C   UNL A   1      43.386  27.322  31.564  1.00  0.00     0.029 A 
ATOM     57  C   UNL A   1      42.715  28.247  32.349  1.00  0.00     0.049 A 
ATOM     58  H   UNL A   1      41.033  29.429  31.870  1.00  0.00     0.167 HD
ATOM     59  C   UNL A   1      42.315  29.589  34.393  1.00  0.00     0.074 A 
ATOM     60  C   UNL A   1      42.603  29.965  35.761  1.00  0.00     0.031 C 
ATOM     61  C   UNL A   1      42.991  28.635  33.707  1.00  0.00     0.037 A 
BRANCH  48  62
ATOM     62  C   UNL A   1      40.807  27.575  28.038  1.00  0.00     0.057 A 
ATOM     63  C   UNL A   1      41.594  27.954  26.943  1.00  0.00     0.134 A 
ATOM     64  C   UNL A   1      40.131  26.350  27.954  1.00  0.00     0.134 A 
ATOM     65  F   UNL A   1      42.262  29.116  26.957  1.00  0.00    -0.206 F 
ATOM     66  C   UNL A   1      41.690  27.155  25.802  1.00  0.00     0.040 A 
ATOM     67  C   UNL A   1      40.238  25.532  26.827  1.00  0.00     0.040 A 
ATOM     68  F   UNL A   1      39.367  25.922  28.970  1.00  0.00    -0.206 F 
ATOM     69  C   UNL A   1      41.016  25.937  25.745  1.00  0.00     0.006 A 
ENDBRANCH  48  62
BRANCH  49  70
ATOM     70  C   UNL A   1      39.662  32.922  36.380  1.00  0.00     0.057 A 
ATOM     71  C   UNL A   1      40.399  34.073  36.681  1.00  0.00     0.134 A 
ATOM     72  C   UNL A   1      38.734  32.485  37.333  1.00  0.00     0.134 A 
ATOM     73  F   UNL A   1      41.319  34.529  35.818  1.00  0.00    -0.206 F 
ATOM     74  C   UNL A   1      40.236  34.753  37.889  1.00  0.00     0.040 A 
ATOM     75  C   UNL A   1      38.542  33.169  38.536  1.00  0.00     0.040 A 
ATOM     76  F   UNL A   1      37.992  31.391  37.105  1.00  0.00    -0.206 F 
ATOM     77  C   UNL A   1      39.301  34.303  38.819  1.00  0.00     0.006 A 
ENDBRANCH  49  70
BRANCH  61  78
ATOM     78  C   UNL A   1      44.117  27.946  34.415  1.00  0.00     0.057 A 
ATOM     79  C   UNL A   1      43.928  26.736  35.095  1.00  0.00     0.134 A 
ATOM     80  C   UNL A   1      45.417  28.466  34.368  1.00  0.00     0.134 A 
ATOM     81  F   UNL A   1      42.704  26.193  35.188  1.00  0.00    -0.206 F 
ATOM     82  C   UNL A   1      44.989  26.075  35.713  1.00  0.00     0.040 A 
ATOM     83  C   UNL A   1      46.490  27.802  34.963  1.00  0.00     0.040 A 
ATOM     84  F   UNL A   1      45.666  29.618  33.725  1.00  0.00    -0.206 F 
ATOM     85  C   UNL A   1      46.277  26.604  35.641  1.00  0.00     0.006 A 
ENDBRANCH  61  78
ENDBRANCH  35  36
ENDBRANCH  27  30
ENDBRANCH  25  26
ENDBRANCH  24  25
ENDBRANCH   1  24
TORSDOF 17
ENDMDL
MODEL 2
REMARK VINA RESULT:     -10.7      1.620      3.366
REMARK SMILES C=CC[NH+](CC=C)[C@@H](C(=O)NCCCCNC(=O)c1ccc(-c2c3nc(c(-c4c(F)cccc4F)c4ccc([nH]4)c(-c4c(F)cccc4F)c4nc(c(-c5c(F)cccc5F)c5ccc2[nH]5)C=C4)C=C3)cc1)c1ccc(F)c(C)c1
REMARK SMILES IDX 13 1 12 2 11 3 9 4 10 5 8 7 4 8 3 10 2 11 1 12 5 13 6 14
REMARK SMILES IDX 7 15 73 16 74 17 80 18 75 19 78 20 76 21 79 22 77 23 14 24
REMARK SMILES IDX 15 25 16 26 17 27 18 29 19 30 20 31 72 32 21 33 71 34 22 35
REMARK SMILES IDX 23 36 24 37 65 38 25 39 70 40 64 41 66 42 26 43 69 44 63 45
REMARK SMILES IDX 62 46 27 48 53 49 36 50 52 51 37 52 40 53 51 54 67 55 38 56
REMARK SMILES IDX 39 57 50 59 68 60 41 61 28 62 29 63 34 64 30 65 31 66 33 67
REMARK SMILES IDX 35 68 32 69 54 70 55 71 60 72 56 73 57 74 59 75 61 76 58 77
REMARK SMILES IDX 42 78 43 79 48 80 44 81 45 82 47 83 49 84 46 85
REMARK H PARENT 11 6 4 9 16 28 66 47 40 58
REMARK Flexibility Score: inf
ROOT
ATOM      1  C   UNL A   1      31.077  30.730  25.586  1.00  0.00     0.023 C 
ENDROOT
BRANCH   1   2
ATOM      2  C   UNL A   1      31.988  29.597  26.105  1.00  0.00     0.116 C 
BRANCH   2   3
ATOM      3  N   UNL A   1      31.391  28.302  26.416  1.00  0.00    -0.351 N 
ATOM      4  C   UNL A   1      31.339  27.083  25.776  1.00  0.00     0.283 C 
ATOM      5  O   UNL A   1      31.024  26.132  26.504  1.00  0.00    -0.268 OA
ATOM      6  H   UNL A   1      30.917  28.300  27.280  1.00  0.00     0.163 HD
BRANCH   4   7
ATOM      7  C   UNL A   1      31.590  26.901  24.222  1.00  0.00     0.306 C 
BRANCH   7   8
ATOM      8  N   UNL A   1      33.059  27.174  23.902  1.00  0.00    -0.314 N 
ATOM      9  H   UNL A   1      33.105  28.190  23.830  1.00  0.00     0.349 HD
BRANCH   8  10
ATOM     10  C   UNL A   1      33.547  26.634  22.617  1.00  0.00     0.291 C 
BRANCH  10  11
ATOM     11  C   UNL A   1      32.676  25.611  21.940  1.00  0.00     0.025 C 
ATOM     12  C   UNL A   1      32.246  25.664  20.669  1.00  0.00     0.010 C 
ENDBRANCH  10  11
ENDBRANCH   8  10
BRANCH   8  13
ATOM     13  C   UNL A   1      33.925  26.656  24.967  1.00  0.00     0.291 C 
BRANCH  13  14
ATOM     14  C   UNL A   1      34.333  25.238  24.721  1.00  0.00     0.025 C 
ATOM     15  C   UNL A   1      34.608  24.356  25.693  1.00  0.00     0.010 C 
ENDBRANCH  13  14
ENDBRANCH   8  13
ENDBRANCH   7   8
BRANCH   7  16
ATOM     16  C   UNL A   1      30.578  27.788  23.449  1.00  0.00     0.020 A 
ATOM     17  C   UNL A   1      31.024  28.840  22.629  1.00  0.00     0.013 A 
ATOM     18  C   UNL A   1      29.188  27.584  23.519  1.00  0.00     0.017 A 
ATOM     19  C   UNL A   1      30.111  29.700  22.002  1.00  0.00     0.040 A 
ATOM     20  C   UNL A   1      28.268  28.528  23.033  1.00  0.00    -0.015 A 
ATOM     21  C   UNL A   1      28.747  29.563  22.241  1.00  0.00     0.126 A 
ATOM     22  C   UNL A   1      26.814  28.431  23.390  1.00  0.00     0.047 C 
ATOM     23  F   UNL A   1      27.897  30.452  21.706  1.00  0.00    -0.207 F 
ENDBRANCH   7  16
ENDBRANCH   4   7
ENDBRANCH   2   3
ENDBRANCH   1   2
BRANCH   1  24
ATOM     24  C   UNL A   1      31.107  32.101  26.280  1.00  0.00     0.023 C 
BRANCH  24  25
ATOM     25  C   UNL A   1      32.381  32.495  27.019  1.00  0.00     0.116 C 
BRANCH  25  26
ATOM     26  N   UNL A   1      32.365  33.882  27.457  1.00  0.00    -0.352 N 
ATOM     27  C   UNL A   1      33.135  34.518  28.400  1.00  0.00     0.251 C 
ATOM     28  H   UNL A   1      31.700  34.453  27.009  1.00  0.00     0.163 HD
ATOM     29  O   UNL A   1      32.820  35.658  28.762  1.00  0.00    -0.269 OA
BRANCH  27  30
ATOM     30  C   UNL A   1      34.332  33.879  29.000  1.00  0.00     0.039 A 
ATOM     31  C   UNL A   1      34.158  32.833  29.917  1.00  0.00     0.014 A 
ATOM     32  C   UNL A   1      35.621  34.350  28.733  1.00  0.00     0.014 A 
ATOM     33  C   UNL A   1      35.267  32.235  30.527  1.00  0.00     0.010 A 
ATOM     34  C   UNL A   1      36.729  33.721  29.304  1.00  0.00     0.010 A 
ATOM     35  C   UNL A   1      36.565  32.663  30.212  1.00  0.00    -0.014 A 
BRANCH  35  36
ATOM     36  C   UNL A   1      37.766  32.033  30.826  1.00  0.00     0.031 A 
ATOM     37  C   UNL A   1      38.512  30.953  30.088  1.00  0.00     0.074 A 
ATOM     38  C   UNL A   1      38.133  32.369  32.078  1.00  0.00     0.049 A 
ATOM     39  N   UNL A   1      39.501  30.201  30.499  1.00  0.00    -0.248 NA
ATOM     40  C   UNL A   1      38.070  30.666  28.715  1.00  0.00     0.031 C 
ATOM     41  C   UNL A   1      37.471  33.373  32.913  1.00  0.00     0.029 A 
ATOM     42  N   UNL A   1      39.138  31.882  32.879  1.00  0.00    -0.354 N 
ATOM     43  C   UNL A   1      39.779  29.334  29.450  1.00  0.00     0.074 A 
ATOM     44  C   UNL A   1      38.836  29.633  28.393  1.00  0.00     0.031 C 
ATOM     45  C   UNL A   1      38.083  33.423  34.107  1.00  0.00     0.029 A 
ATOM     46  C   UNL A   1      39.155  32.434  34.137  1.00  0.00     0.049 A 
ATOM     47  H   UNL A   1      39.784  31.202  32.578  1.00  0.00     0.167 HD
ATOM     48  C   UNL A   1      40.743  28.384  29.369  1.00  0.00     0.037 A 
ATOM     49  C   UNL A   1      39.931  32.156  35.203  1.00  0.00     0.037 A 
ATOM     50  C   UNL A   1      41.705  28.118  30.405  1.00  0.00     0.049 A 
ATOM     51  C   UNL A   1      40.991  31.096  35.088  1.00  0.00     0.074 A 
ATOM     52  C   UNL A   1      42.780  27.245  30.379  1.00  0.00     0.029 A 
ATOM     53  N   UNL A   1      41.704  28.716  31.655  1.00  0.00    -0.354 N 
ATOM     54  N   UNL A   1      41.297  30.343  34.059  1.00  0.00    -0.248 NA
ATOM     55  C   UNL A   1      41.814  30.844  36.280  1.00  0.00     0.031 C 
ATOM     56  C   UNL A   1      43.401  27.280  31.632  1.00  0.00     0.029 A 
ATOM     57  C   UNL A   1      42.740  28.207  32.422  1.00  0.00     0.049 A 
ATOM     58  H   UNL A   1      41.063  29.401  31.954  1.00  0.00     0.167 HD
ATOM     59  C   UNL A   1      42.357  29.546  34.471  1.00  0.00     0.074 A 
ATOM     60  C   UNL A   1      42.652  29.917  35.839  1.00  0.00     0.031 C 
ATOM     61  C   UNL A   1      43.024  28.590  33.780  1.00  0.00     0.037 A 
BRANCH  48  62
ATOM     62  C   UNL A   1      40.809  27.558  28.117  1.00  0.00     0.057 A 
ATOM     63  C   UNL A   1      41.578  27.945  27.013  1.00  0.00     0.134 A 
ATOM     64  C   UNL A   1      40.142  26.328  28.040  1.00  0.00     0.134 A 
ATOM     65  F   UNL A   1      42.237  29.114  27.020  1.00  0.00    -0.206 F 
ATOM     66  C   UNL A   1      41.665  27.149  25.869  1.00  0.00     0.040 A 
ATOM     67  C   UNL A   1      40.240  25.513  26.911  1.00  0.00     0.040 A 
ATOM     68  F   UNL A   1      39.395  25.892  29.067  1.00  0.00    -0.206 F 
ATOM     69  C   UNL A   1      41.000  25.926  25.819  1.00  0.00     0.006 A 
ENDBRANCH  48  62
BRANCH  49  70
ATOM     70  C   UNL A   1      39.733  32.890  36.479  1.00  0.00     0.057 A 
ATOM     71  C   UNL A   1      38.798  32.456  37.426  1.00  0.00     0.134 A 
ATOM     72  C   UNL A   1      40.461  34.048  36.777  1.00  0.00     0.134 A 
ATOM     73  F   UNL A   1      38.055  31.365  37.189  1.00  0.00    -0.206 F 
ATOM     74  C   UNL A   1      38.579  33.157  38.614  1.00  0.00     0.040 A 
ATOM     75  C   UNL A   1      40.270  34.746  37.972  1.00  0.00     0.040 A 
ATOM     76  F   UNL A   1      41.375  34.515  35.914  1.00  0.00    -0.206 F 
ATOM     77  C   UNL A   1      39.320  34.303  38.891  1.00  0.00     0.006 A 
ENDBRANCH  49  70
BRANCH  61  78
ATOM     78  C   UNL A   1      44.149  27.891  34.481  1.00  0.00     0.057 A 
ATOM     79  C   UNL A   1      45.448  28.415  34.490  1.00  0.00     0.134 A 
ATOM     80  C   UNL A   1      43.921  26.712  35.202  1.00  0.00     0.134 A 
ATOM     81  F   UNL A   1      45.734  29.534  33.807  1.00  0.00    -0.206 F 
ATOM     82  C   UNL A   1      46.482  27.785  35.183  1.00  0.00     0.040 A 
ATOM     83  C   UNL A   1      44.942  26.086  35.917  1.00  0.00     0.040 A 
ATOM     84  F   UNL A   1      42.696  26.163  35.239  1.00  0.00    -0.206 F 
ATOM     85  C   UNL A   1      46.228  26.620  35.906  1.00  0.00     0.006 A 
ENDBRANCH  61  78
ENDBRANCH  35  36
ENDBRANCH  27  30
ENDBRANCH  25  26
ENDBRANCH  24  25
ENDBRANCH   1  24
TORSDOF 17
ENDMDL
MODEL 3
REMARK VINA RESULT:     -10.7      4.901      9.482
REMARK SMILES C=CC[NH+](CC=C)[C@@H](C(=O)NCCCCNC(=O)c1ccc(-c2c3nc(c(-c4c(F)cccc4F)c4ccc([nH]4)c(-c4c(F)cccc4F)c4nc(c(-c5c(F)cccc5F)c5ccc2[nH]5)C=C4)C=C3)cc1)c1ccc(F)c(C)c1
REMARK SMILES IDX 13 1 12 2 11 3 9 4 10 5 8 7 4 8 3 10 2 11 1 12 5 13 6 14
REMARK SMILES IDX 7 15 73 16 74 17 80 18 75 19 78 20 76 21 79 22 77 23 14 24
REMARK SMILES IDX 15 25 16 26 17 27 18 29 19 30 20 31 72 32 21 33 71 34 22 35
REMARK SMILES IDX 23 36 24 37 65 38 25 39 70 40 64 41 66 42 26 43 69 44 63 45
REMARK SMILES IDX 62 46 27 48 53 49 36 50 52 51 37 52 40 53 51 54 67 55 38 56
REMARK SMILES IDX 39 57 50 59 68 60 41 61 28 62 29 63 34 64 30 65 31 66 33 67
REMARK SMILES IDX 35 68 32 69 54 70 55 71 60 72 56 73 57 74 59 75 61 76 58 77
REMARK SMILES IDX 42 78 43 79 48 80 44 81 45 82 47 83 49 84 46 85
REMARK H PARENT 11 6 4 9 16 28 66 47 40 58
REMARK Flexibility Score: inf
ROOT
ATOM      1  C   UNL A   1      36.440  20.138  24.947  1.00  0.00     0.023 C 
ENDROOT
BRANCH   1   2
ATOM      2  C   UNL A   1      36.311  21.677  24.918  1.00  0.00     0.116 C 
BRANCH   2   3
ATOM      3  N   UNL A   1      35.605  22.301  23.805  1.00  0.00    -0.351 N 
ATOM      4  C   UNL A   1      34.355  22.859  23.644  1.00  0.00     0.283 C 
ATOM      5  O   UNL A   1      34.238  23.583  22.646  1.00  0.00    -0.268 OA
ATOM      6  H   UNL A   1      36.144  22.330  22.981  1.00  0.00     0.163 HD
BRANCH   4   7
ATOM      7  C   UNL A   1      33.132  22.554  24.606  1.00  0.00     0.306 C 
BRANCH   7   8
ATOM      8  N   UNL A   1      33.404  23.150  25.986  1.00  0.00    -0.314 N 
ATOM      9  H   UNL A   1      33.868  22.394  26.488  1.00  0.00     0.349 HD
BRANCH   8  10
ATOM     10  C   UNL A   1      32.209  23.512  26.774  1.00  0.00     0.291 C 
BRANCH  10  11
ATOM     11  C   UNL A   1      30.892  22.963  26.297  1.00  0.00     0.025 C 
ATOM     12  C   UNL A   1      29.764  22.887  27.022  1.00  0.00     0.010 C 
ENDBRANCH  10  11
ENDBRANCH   8  10
BRANCH   8  13
ATOM     13  C   UNL A   1      34.250  24.344  25.878  1.00  0.00     0.291 C 
BRANCH  13  14
ATOM     14  C   UNL A   1      33.445  25.603  25.822  1.00  0.00     0.025 C 
ATOM     15  C   UNL A   1      33.482  26.475  24.804  1.00  0.00     0.010 C 
ENDBRANCH  13  14
ENDBRANCH   8  13
ENDBRANCH   7   8
BRANCH   7  16
ATOM     16  C   UNL A   1      32.862  21.026  24.597  1.00  0.00     0.020 A 
ATOM     17  C   UNL A   1      33.041  20.258  25.760  1.00  0.00     0.013 A 
ATOM     18  C   UNL A   1      32.423  20.345  23.447  1.00  0.00     0.017 A 
ATOM     19  C   UNL A   1      32.885  18.864  25.733  1.00  0.00     0.040 A 
ATOM     20  C   UNL A   1      32.421  18.942  23.364  1.00  0.00    -0.015 A 
ATOM     21  C   UNL A   1      32.619  18.216  24.530  1.00  0.00     0.126 A 
ATOM     22  C   UNL A   1      32.242  18.256  22.042  1.00  0.00     0.047 C 
ATOM     23  F   UNL A   1      32.565  16.876  24.508  1.00  0.00    -0.207 F 
ENDBRANCH   7  16
ENDBRANCH   4   7
ENDBRANCH   2   3
ENDBRANCH   1   2
BRANCH   1  24
ATOM     24  C   UNL A   1      37.833  19.495  24.858  1.00  0.00     0.023 C 
BRANCH  24  25
ATOM     25  C   UNL A   1      38.937  20.067  25.742  1.00  0.00     0.116 C 
BRANCH  25  26
ATOM     26  N   UNL A   1      40.106  19.205  25.800  1.00  0.00    -0.352 N 
ATOM     27  C   UNL A   1      41.416  19.513  26.075  1.00  0.00     0.251 C 
ATOM     28  H   UNL A   1      39.933  18.253  25.614  1.00  0.00     0.163 HD
ATOM     29  O   UNL A   1      42.289  18.659  25.874  1.00  0.00    -0.269 OA
BRANCH  27  30
ATOM     30  C   UNL A   1      41.819  20.840  26.603  1.00  0.00     0.039 A 
ATOM     31  C   UNL A   1      41.785  21.061  27.987  1.00  0.00     0.014 A 
ATOM     32  C   UNL A   1      42.152  21.895  25.748  1.00  0.00     0.014 A 
ATOM     33  C   UNL A   1      42.124  22.313  28.512  1.00  0.00     0.010 A 
ATOM     34  C   UNL A   1      42.538  23.129  26.275  1.00  0.00     0.010 A 
ATOM     35  C   UNL A   1      42.521  23.355  27.661  1.00  0.00    -0.014 A 
BRANCH  35  36
ATOM     36  C   UNL A   1      42.910  24.690  28.189  1.00  0.00     0.031 A 
ATOM     37  C   UNL A   1      41.858  25.738  28.441  1.00  0.00     0.074 A 
ATOM     38  C   UNL A   1      44.212  24.990  28.360  1.00  0.00     0.049 A 
ATOM     39  N   UNL A   1      42.005  26.994  28.781  1.00  0.00    -0.248 NA
ATOM     40  C   UNL A   1      40.458  25.324  28.261  1.00  0.00     0.031 C 
ATOM     41  C   UNL A   1      45.329  24.076  28.117  1.00  0.00     0.029 A 
ATOM     42  N   UNL A   1      44.819  26.159  28.753  1.00  0.00    -0.354 N 
ATOM     43  C   UNL A   1      40.722  27.526  28.828  1.00  0.00     0.074 A 
ATOM     44  C   UNL A   1      39.810  26.465  28.452  1.00  0.00     0.031 C 
ATOM     45  C   UNL A   1      46.483  24.718  28.360  1.00  0.00     0.029 A 
ATOM     46  C   UNL A   1      46.192  26.097  28.742  1.00  0.00     0.049 A 
ATOM     47  H   UNL A   1      44.317  26.963  29.019  1.00  0.00     0.167 HD
ATOM     48  C   UNL A   1      40.338  28.780  29.166  1.00  0.00     0.037 A 
ATOM     49  C   UNL A   1      47.113  27.050  28.987  1.00  0.00     0.037 A 
ATOM     50  C   UNL A   1      41.242  29.820  29.578  1.00  0.00     0.049 A 
ATOM     51  C   UNL A   1      46.659  28.435  29.358  1.00  0.00     0.074 A 
ATOM     52  C   UNL A   1      40.942  31.092  30.035  1.00  0.00     0.029 A 
ATOM     53  N   UNL A   1      42.624  29.710  29.578  1.00  0.00    -0.354 N 
ATOM     54  N   UNL A   1      45.439  28.899  29.480  1.00  0.00    -0.248 NA
ATOM     55  C   UNL A   1      47.709  29.430  29.624  1.00  0.00     0.031 C 
ATOM     56  C   UNL A   1      42.145  31.769  30.265  1.00  0.00     0.029 A 
ATOM     57  C   UNL A   1      43.192  30.903  29.994  1.00  0.00     0.049 A 
ATOM     58  H   UNL A   1      43.127  28.903  29.320  1.00  0.00     0.167 HD
ATOM     59  C   UNL A   1      45.573  30.229  29.857  1.00  0.00     0.074 A 
ATOM     60  C   UNL A   1      46.993  30.495  29.958  1.00  0.00     0.031 C 
ATOM     61  C   UNL A   1      44.607  31.150  30.094  1.00  0.00     0.037 A 
BRANCH  48  62
ATOM     62  C   UNL A   1      38.873  29.104  29.106  1.00  0.00     0.057 A 
ATOM     63  C   UNL A   1      38.048  29.019  30.235  1.00  0.00     0.134 A 
ATOM     64  C   UNL A   1      38.294  29.567  27.917  1.00  0.00     0.134 A 
ATOM     65  F   UNL A   1      38.538  28.578  31.403  1.00  0.00    -0.206 F 
ATOM     66  C   UNL A   1      36.695  29.361  30.178  1.00  0.00     0.040 A 
ATOM     67  C   UNL A   1      36.949  29.935  27.854  1.00  0.00     0.040 A 
ATOM     68  F   UNL A   1      39.030  29.682  26.801  1.00  0.00    -0.206 F 
ATOM     69  C   UNL A   1      36.145  29.828  28.986  1.00  0.00     0.006 A 
ENDBRANCH  48  62
BRANCH  49  70
ATOM     70  C   UNL A   1      48.559  26.731  28.885  1.00  0.00     0.057 A 
ATOM     71  C   UNL A   1      49.264  26.940  27.695  1.00  0.00     0.134 A 
ATOM     72  C   UNL A   1      49.268  26.197  29.968  1.00  0.00     0.134 A 
ATOM     73  F   UNL A   1      48.635  27.429  26.616  1.00  0.00    -0.206 F 
ATOM     74  C   UNL A   1      50.616  26.612  27.576  1.00  0.00     0.040 A 
ATOM     75  C   UNL A   1      50.627  25.887  29.872  1.00  0.00     0.040 A 
ATOM     76  F   UNL A   1      48.653  25.976  31.139  1.00  0.00    -0.206 F 
ATOM     77  C   UNL A   1      51.302  26.088  28.670  1.00  0.00     0.006 A 
ENDBRANCH  49  70
BRANCH  61  78
ATOM     78  C   UNL A   1      45.048  32.521  30.504  1.00  0.00     0.057 A 
ATOM     79  C   UNL A   1      45.226  33.548  29.568  1.00  0.00     0.134 A 
ATOM     80  C   UNL A   1      45.243  32.836  31.855  1.00  0.00     0.134 A 
ATOM     81  F   UNL A   1      45.069  33.306  28.257  1.00  0.00    -0.206 F 
ATOM     82  C   UNL A   1      45.592  34.836  29.960  1.00  0.00     0.040 A 
ATOM     83  C   UNL A   1      45.586  34.126  32.261  1.00  0.00     0.040 A 
ATOM     84  F   UNL A   1      45.080  31.899  32.803  1.00  0.00    -0.206 F 
ATOM     85  C   UNL A   1      45.765  35.129  31.312  1.00  0.00     0.006 A 
ENDBRANCH  61  78
ENDBRANCH  35  36
ENDBRANCH  27  30
ENDBRANCH  25  26
ENDBRANCH  24  25
ENDBRANCH   1  24
TORSDOF 17
ENDMDL
