MODEL 1
REMARK VINA RESULT:     -12.4      0.000      0.000
REMARK SMILES CC(C)(C)c1cc2c(cc1Cl)C=C(C(=O)NCCCCNC(=O)c1ccc(-c3c4nc(c(-c5c(F)cccc5F)c5ccc([nH]5)c(-c5c(F)cccc5F)c5nc(c(-c6c(F)cccc6F)c6ccc3[nH]6)C=C5)C=C4)cc1)[C@@H](C(F)(F)F)O2
REMARK SMILES IDX 19 1 18 2 17 3 16 4 14 5 15 6 13 8 5 9 6 10 10 11 7 12 9 13
REMARK SMILES IDX 11 14 8 15 83 16 12 17 78 18 2 19 1 20 3 21 4 22 79 23 80 24
REMARK SMILES IDX 81 25 82 26 20 27 21 28 22 29 23 31 24 32 25 33 77 34 26 35
REMARK SMILES IDX 76 36 27 37 28 38 29 39 70 40 30 41 75 42 69 43 71 44 31 45
REMARK SMILES IDX 74 46 68 47 67 48 32 50 58 51 41 52 57 53 42 54 45 55 56 56
REMARK SMILES IDX 72 57 43 58 44 59 55 61 73 62 46 63 33 64 34 65 39 66 35 67
REMARK SMILES IDX 36 68 38 69 40 70 37 71 59 72 60 73 65 74 61 75 62 76 64 77
REMARK SMILES IDX 66 78 63 79 47 80 48 81 53 82 49 83 50 84 52 85 54 86 51 87
REMARK H PARENT 16 7 21 30 71 49 45 60
REMARK Flexibility Score: inf
ROOT
ATOM      1  C   UNL A   1      33.065  28.888  27.248  1.00  0.00     0.023 C 
ENDROOT
BRANCH   1   2
ATOM      2  C   UNL A   1      31.830  29.745  26.952  1.00  0.00     0.023 C 
BRANCH   2   3
ATOM      3  C   UNL A   1      31.770  30.295  25.528  1.00  0.00     0.116 C 
BRANCH   3   4
ATOM      4  N   UNL A   1      30.824  29.570  24.697  1.00  0.00    -0.352 N 
ATOM      5  C   UNL A   1      30.793  28.390  24.032  1.00  0.00     0.251 C 
ATOM      6  O   UNL A   1      29.740  28.152  23.433  1.00  0.00    -0.270 OA
ATOM      7  H   UNL A   1      29.981  30.069  24.588  1.00  0.00     0.163 HD
BRANCH   5   8
ATOM      8  C   UNL A   1      31.912  27.404  23.973  1.00  0.00     0.067 C 
ATOM      9  C   UNL A   1      35.068  23.503  24.900  1.00  0.00    -0.020 A 
ATOM     10  C   UNL A   1      34.757  24.337  23.795  1.00  0.00     0.053 A 
ATOM     11  C   UNL A   1      34.324  23.747  26.076  1.00  0.00     0.045 A 
ATOM     12  C   UNL A   1      33.794  25.343  23.853  1.00  0.00     0.128 A 
ATOM     13  C   UNL A   1      33.338  24.758  26.121  1.00  0.00     0.032 A 
ATOM     14  Cl  UNL A   1      34.480  22.869  27.555  1.00  0.00    -0.084 Cl
ATOM     15  C   UNL A   1      33.065  25.554  25.011  1.00  0.00     0.019 A 
ATOM     16  O   UNL A   1      33.581  26.050  22.707  1.00  0.00    -0.475 OA
ATOM     17  C   UNL A   1      32.002  26.552  25.012  1.00  0.00     0.025 C 
ATOM     18  C   UNL A   1      32.928  27.339  22.865  1.00  0.00     0.314 C 
BRANCH   9  19
ATOM     19  C   UNL A   1      36.145  22.417  24.654  1.00  0.00    -0.012 C 
ATOM     20  C   UNL A   1      37.349  22.362  25.614  1.00  0.00     0.016 C 
ATOM     21  C   UNL A   1      36.759  22.590  23.239  1.00  0.00     0.016 C 
ATOM     22  C   UNL A   1      35.461  21.029  24.734  1.00  0.00     0.016 C 
ENDBRANCH   9  19
BRANCH  18  23
ATOM     23  C   UNL A   1      33.994  28.444  22.984  1.00  0.00     0.429 C 
ATOM     24  F   UNL A   1      34.546  28.438  24.223  1.00  0.00    -0.167 F 
ATOM     25  F   UNL A   1      35.015  28.273  22.110  1.00  0.00    -0.167 F 
ATOM     26  F   UNL A   1      33.495  29.680  22.767  1.00  0.00    -0.167 F 
ENDBRANCH  18  23
ENDBRANCH   5   8
ENDBRANCH   3   4
ENDBRANCH   2   3
ENDBRANCH   1   2
BRANCH   1  27
ATOM     27  C   UNL A   1      34.390  29.644  27.299  1.00  0.00     0.116 C 
BRANCH  27  28
ATOM     28  N   UNL A   1      34.510  30.587  28.403  1.00  0.00    -0.352 N 
ATOM     29  C   UNL A   1      35.590  30.767  29.241  1.00  0.00     0.251 C 
ATOM     30  H   UNL A   1      33.729  31.163  28.569  1.00  0.00     0.163 HD
ATOM     31  O   UNL A   1      35.531  31.543  30.188  1.00  0.00    -0.269 OA
BRANCH  29  32
ATOM     32  C   UNL A   1      36.801  29.954  29.012  1.00  0.00     0.039 A 
ATOM     33  C   UNL A   1      37.361  29.223  30.059  1.00  0.00     0.014 A 
ATOM     34  C   UNL A   1      37.438  30.016  27.768  1.00  0.00     0.014 A 
ATOM     35  C   UNL A   1      38.649  28.723  29.927  1.00  0.00     0.010 A 
ATOM     36  C   UNL A   1      38.700  29.435  27.612  1.00  0.00     0.010 A 
ATOM     37  C   UNL A   1      39.344  28.846  28.711  1.00  0.00    -0.014 A 
BRANCH  37  38
ATOM     38  C   UNL A   1      40.756  28.387  28.646  1.00  0.00     0.031 A 
ATOM     39  C   UNL A   1      41.089  26.974  28.244  1.00  0.00     0.074 A 
ATOM     40  C   UNL A   1      41.744  29.278  28.849  1.00  0.00     0.049 A 
ATOM     41  N   UNL A   1      42.264  26.429  28.038  1.00  0.00    -0.248 NA
ATOM     42  C   UNL A   1      39.963  26.047  28.054  1.00  0.00     0.031 C 
ATOM     43  C   UNL A   1      41.550  30.676  29.240  1.00  0.00     0.029 A 
ATOM     44  N   UNL A   1      43.102  29.156  28.713  1.00  0.00    -0.354 N 
ATOM     45  C   UNL A   1      42.019  25.100  27.716  1.00  0.00     0.074 A 
ATOM     46  C   UNL A   1      40.586  24.910  27.780  1.00  0.00     0.031 C 
ATOM     47  C   UNL A   1      42.737  31.299  29.242  1.00  0.00     0.029 A 
ATOM     48  C   UNL A   1      43.778  30.335  28.902  1.00  0.00     0.049 A 
ATOM     49  H   UNL A   1      43.550  28.304  28.501  1.00  0.00     0.167 HD
ATOM     50  C   UNL A   1      42.904  24.128  27.387  1.00  0.00     0.037 A 
ATOM     51  C   UNL A   1      45.090  30.613  28.806  1.00  0.00     0.037 A 
ATOM     52  C   UNL A   1      44.328  24.320  27.296  1.00  0.00     0.049 A 
ATOM     53  C   UNL A   1      46.049  29.518  28.438  1.00  0.00     0.074 A 
ATOM     54  C   UNL A   1      45.306  23.400  26.955  1.00  0.00     0.029 A 
ATOM     55  N   UNL A   1      44.979  25.519  27.543  1.00  0.00    -0.354 N 
ATOM     56  N   UNL A   1      45.798  28.269  28.132  1.00  0.00    -0.248 NA
ATOM     57  C   UNL A   1      47.474  29.874  28.411  1.00  0.00     0.031 C 
ATOM     58  C   UNL A   1      46.551  24.036  27.022  1.00  0.00     0.029 A 
ATOM     59  C   UNL A   1      46.345  25.360  27.373  1.00  0.00     0.049 A 
ATOM     60  H   UNL A   1      44.536  26.359  27.801  1.00  0.00     0.167 HD
ATOM     61  C   UNL A   1      47.032  27.690  27.870  1.00  0.00     0.074 A 
ATOM     62  C   UNL A   1      48.026  28.733  28.025  1.00  0.00     0.031 C 
ATOM     63  C   UNL A   1      47.318  26.407  27.541  1.00  0.00     0.037 A 
BRANCH  50  64
ATOM     64  C   UNL A   1      42.353  22.760  27.111  1.00  0.00     0.057 A 
ATOM     65  C   UNL A   1      41.904  21.947  28.160  1.00  0.00     0.134 A 
ATOM     66  C   UNL A   1      42.288  22.236  25.814  1.00  0.00     0.134 A 
ATOM     67  F   UNL A   1      41.942  22.386  29.426  1.00  0.00    -0.206 F 
ATOM     68  C   UNL A   1      41.409  20.662  27.928  1.00  0.00     0.040 A 
ATOM     69  C   UNL A   1      41.776  20.960  25.567  1.00  0.00     0.040 A 
ATOM     70  F   UNL A   1      42.686  22.969  24.764  1.00  0.00    -0.206 F 
ATOM     71  C   UNL A   1      41.339  20.167  26.628  1.00  0.00     0.006 A 
ENDBRANCH  50  64
BRANCH  51  72
ATOM     72  C   UNL A   1      45.574  31.993  29.051  1.00  0.00     0.057 A 
ATOM     73  C   UNL A   1      45.996  32.402  30.320  1.00  0.00     0.134 A 
ATOM     74  C   UNL A   1      45.626  32.934  28.016  1.00  0.00     0.134 A 
ATOM     75  F   UNL A   1      45.964  31.546  31.353  1.00  0.00    -0.206 F 
ATOM     76  C   UNL A   1      46.445  33.702  30.556  1.00  0.00     0.040 A 
ATOM     77  C   UNL A   1      46.094  34.229  28.231  1.00  0.00     0.040 A 
ATOM     78  F   UNL A   1      45.251  32.592  26.773  1.00  0.00    -0.206 F 
ATOM     79  C   UNL A   1      46.501  34.618  29.508  1.00  0.00     0.006 A 
ENDBRANCH  51  72
BRANCH  63  80
ATOM     80  C   UNL A   1      48.764  26.079  27.320  1.00  0.00     0.057 A 
ATOM     81  C   UNL A   1      49.374  26.324  26.084  1.00  0.00     0.134 A 
ATOM     82  C   UNL A   1      49.554  25.528  28.337  1.00  0.00     0.134 A 
ATOM     83  F   UNL A   1      48.670  26.845  25.068  1.00  0.00    -0.206 F 
ATOM     84  C   UNL A   1      50.724  26.042  25.870  1.00  0.00     0.040 A 
ATOM     85  C   UNL A   1      50.909  25.262  28.142  1.00  0.00     0.040 A 
ATOM     86  F   UNL A   1      49.030  25.287  29.549  1.00  0.00    -0.206 F 
ATOM     87  C   UNL A   1      51.497  25.517  26.905  1.00  0.00     0.006 A 
ENDBRANCH  63  80
ENDBRANCH  37  38
ENDBRANCH  29  32
ENDBRANCH  27  28
ENDBRANCH   1  27
TORSDOF 13
ENDMDL
MODEL 2
REMARK VINA RESULT:     -12.4      4.922      9.606
REMARK SMILES CC(C)(C)c1cc2c(cc1Cl)C=C(C(=O)NCCCCNC(=O)c1ccc(-c3c4nc(c(-c5c(F)cccc5F)c5ccc([nH]5)c(-c5c(F)cccc5F)c5nc(c(-c6c(F)cccc6F)c6ccc3[nH]6)C=C5)C=C4)cc1)[C@@H](C(F)(F)F)O2
REMARK SMILES IDX 19 1 18 2 17 3 16 4 14 5 15 6 13 8 5 9 6 10 10 11 7 12 9 13
REMARK SMILES IDX 11 14 8 15 83 16 12 17 78 18 2 19 1 20 3 21 4 22 79 23 80 24
REMARK SMILES IDX 81 25 82 26 20 27 21 28 22 29 23 31 24 32 25 33 77 34 26 35
REMARK SMILES IDX 76 36 27 37 28 38 29 39 70 40 30 41 75 42 69 43 71 44 31 45
REMARK SMILES IDX 74 46 68 47 67 48 32 50 58 51 41 52 57 53 42 54 45 55 56 56
REMARK SMILES IDX 72 57 43 58 44 59 55 61 73 62 46 63 33 64 34 65 39 66 35 67
REMARK SMILES IDX 36 68 38 69 40 70 37 71 59 72 60 73 65 74 61 75 62 76 64 77
REMARK SMILES IDX 66 78 63 79 47 80 48 81 53 82 49 83 50 84 52 85 54 86 51 87
REMARK H PARENT 16 7 21 30 71 49 45 60
REMARK Flexibility Score: inf
ROOT
ATOM      1  C   UNL A   1      37.110  23.091  24.796  1.00  0.00     0.023 C 
ENDROOT
BRANCH   1   2
ATOM      2  C   UNL A   1      36.992  21.655  24.275  1.00  0.00     0.023 C 
BRANCH   2   3
ATOM      3  C   UNL A   1      36.166  20.727  25.163  1.00  0.00     0.116 C 
BRANCH   3   4
ATOM      4  N   UNL A   1      34.848  20.462  24.611  1.00  0.00    -0.352 N 
ATOM      5  C   UNL A   1      33.659  21.107  24.537  1.00  0.00     0.251 C 
ATOM      6  O   UNL A   1      32.767  20.496  23.942  1.00  0.00    -0.270 OA
ATOM      7  H   UNL A   1      34.810  19.580  24.174  1.00  0.00     0.163 HD
BRANCH   5   8
ATOM      8  C   UNL A   1      33.371  22.454  25.114  1.00  0.00     0.067 C 
ATOM      9  C   UNL A   1      32.765  27.474  25.792  1.00  0.00    -0.020 A 
ATOM     10  C   UNL A   1      32.297  26.287  26.412  1.00  0.00     0.053 A 
ATOM     11  C   UNL A   1      33.600  27.287  24.669  1.00  0.00     0.045 A 
ATOM     12  C   UNL A   1      32.640  25.012  25.963  1.00  0.00     0.128 A 
ATOM     13  C   UNL A   1      33.930  25.992  24.210  1.00  0.00     0.032 A 
ATOM     14  Cl  UNL A   1      34.288  28.552  23.714  1.00  0.00    -0.084 Cl
ATOM     15  C   UNL A   1      33.449  24.852  24.850  1.00  0.00     0.019 A 
ATOM     16  O   UNL A   1      32.097  23.961  26.640  1.00  0.00    -0.475 OA
ATOM     17  C   UNL A   1      33.715  23.509  24.351  1.00  0.00     0.025 C 
ATOM     18  C   UNL A   1      32.767  22.681  26.472  1.00  0.00     0.314 C 
BRANCH   9  19
ATOM     19  C   UNL A   1      32.263  28.807  26.403  1.00  0.00    -0.012 C 
ATOM     20  C   UNL A   1      33.316  29.841  26.845  1.00  0.00     0.016 C 
ATOM     21  C   UNL A   1      31.413  28.521  27.671  1.00  0.00     0.016 C 
ATOM     22  C   UNL A   1      31.371  29.516  25.354  1.00  0.00     0.016 C 
ENDBRANCH   9  19
BRANCH  18  23
ATOM     23  C   UNL A   1      33.789  22.485  27.608  1.00  0.00     0.429 C 
ATOM     24  F   UNL A   1      34.931  23.167  27.339  1.00  0.00    -0.167 F 
ATOM     25  F   UNL A   1      33.337  22.951  28.797  1.00  0.00    -0.167 F 
ATOM     26  F   UNL A   1      34.123  21.189  27.795  1.00  0.00    -0.167 F 
ENDBRANCH  18  23
ENDBRANCH   5   8
ENDBRANCH   3   4
ENDBRANCH   2   3
ENDBRANCH   1   2
BRANCH   1  27
ATOM     27  C   UNL A   1      37.922  23.257  26.079  1.00  0.00     0.116 C 
BRANCH  27  28
ATOM     28  N   UNL A   1      39.339  22.947  25.945  1.00  0.00    -0.352 N 
ATOM     29  C   UNL A   1      40.409  23.702  26.376  1.00  0.00     0.251 C 
ATOM     30  H   UNL A   1      39.558  22.099  25.494  1.00  0.00     0.163 HD
ATOM     31  O   UNL A   1      41.561  23.365  26.128  1.00  0.00    -0.269 OA
BRANCH  29  32
ATOM     32  C   UNL A   1      40.135  24.966  27.090  1.00  0.00     0.039 A 
ATOM     33  C   UNL A   1      40.728  26.153  26.661  1.00  0.00     0.014 A 
ATOM     34  C   UNL A   1      39.370  24.935  28.260  1.00  0.00     0.014 A 
ATOM     35  C   UNL A   1      40.722  27.258  27.502  1.00  0.00     0.010 A 
ATOM     36  C   UNL A   1      39.295  26.077  29.063  1.00  0.00     0.010 A 
ATOM     37  C   UNL A   1      40.028  27.225  28.725  1.00  0.00    -0.014 A 
BRANCH  37  38
ATOM     38  C   UNL A   1      40.134  28.392  29.638  1.00  0.00     0.031 A 
ATOM     39  C   UNL A   1      39.093  29.481  29.620  1.00  0.00     0.074 A 
ATOM     40  C   UNL A   1      41.117  28.418  30.557  1.00  0.00     0.049 A 
ATOM     41  N   UNL A   1      38.971  30.519  30.411  1.00  0.00    -0.248 NA
ATOM     42  C   UNL A   1      38.057  29.402  28.579  1.00  0.00     0.031 C 
ATOM     43  C   UNL A   1      42.183  27.420  30.678  1.00  0.00     0.029 A 
ATOM     44  N   UNL A   1      41.354  29.286  31.590  1.00  0.00    -0.354 N 
ATOM     45  C   UNL A   1      37.864  31.222  29.952  1.00  0.00     0.074 A 
ATOM     46  C   UNL A   1      37.363  30.509  28.797  1.00  0.00     0.031 C 
ATOM     47  C   UNL A   1      42.916  27.693  31.766  1.00  0.00     0.029 A 
ATOM     48  C   UNL A   1      42.403  28.909  32.391  1.00  0.00     0.049 A 
ATOM     49  H   UNL A   1      40.823  30.102  31.743  1.00  0.00     0.167 HD
ATOM     50  C   UNL A   1      37.307  32.352  30.452  1.00  0.00     0.037 A 
ATOM     51  C   UNL A   1      42.896  29.474  33.507  1.00  0.00     0.037 A 
ATOM     52  C   UNL A   1      37.786  33.050  31.618  1.00  0.00     0.049 A 
ATOM     53  C   UNL A   1      42.259  30.724  34.040  1.00  0.00     0.074 A 
ATOM     54  C   UNL A   1      37.280  34.194  32.211  1.00  0.00     0.029 A 
ATOM     55  N   UNL A   1      38.883  32.663  32.372  1.00  0.00    -0.354 N 
ATOM     56  N   UNL A   1      41.211  31.371  33.595  1.00  0.00    -0.248 NA
ATOM     57  C   UNL A   1      42.884  31.324  35.227  1.00  0.00     0.031 C 
ATOM     58  C   UNL A   1      38.087  34.514  33.309  1.00  0.00     0.029 A 
ATOM     59  C   UNL A   1      39.076  33.551  33.418  1.00  0.00     0.049 A 
ATOM     60  H   UNL A   1      39.442  31.872  32.192  1.00  0.00     0.167 HD
ATOM     61  C   UNL A   1      41.044  32.452  34.451  1.00  0.00     0.074 A 
ATOM     62  C   UNL A   1      42.083  32.355  35.456  1.00  0.00     0.031 C 
ATOM     63  C   UNL A   1      40.120  33.442  34.402  1.00  0.00     0.037 A 
BRANCH  50  64
ATOM     64  C   UNL A   1      36.118  32.913  29.728  1.00  0.00     0.057 A 
ATOM     65  C   UNL A   1      36.283  33.642  28.543  1.00  0.00     0.134 A 
ATOM     66  C   UNL A   1      34.814  32.754  30.213  1.00  0.00     0.134 A 
ATOM     67  F   UNL A   1      37.506  33.835  28.027  1.00  0.00    -0.206 F 
ATOM     68  C   UNL A   1      35.194  34.192  27.866  1.00  0.00     0.040 A 
ATOM     69  C   UNL A   1      33.714  33.282  29.533  1.00  0.00     0.040 A 
ATOM     70  F   UNL A   1      34.586  32.052  31.332  1.00  0.00    -0.206 F 
ATOM     71  C   UNL A   1      33.903  34.008  28.358  1.00  0.00     0.006 A 
ENDBRANCH  50  64
BRANCH  51  72
ATOM     72  C   UNL A   1      44.048  28.854  34.203  1.00  0.00     0.057 A 
ATOM     73  C   UNL A   1      43.863  27.910  35.220  1.00  0.00     0.134 A 
ATOM     74  C   UNL A   1      45.363  29.192  33.865  1.00  0.00     0.134 A 
ATOM     75  F   UNL A   1      42.625  27.549  35.591  1.00  0.00    -0.206 F 
ATOM     76  C   UNL A   1      44.944  27.330  35.882  1.00  0.00     0.040 A 
ATOM     77  C   UNL A   1      46.455  28.603  34.503  1.00  0.00     0.040 A 
ATOM     78  F   UNL A   1      45.601  30.078  32.885  1.00  0.00    -0.206 F 
ATOM     79  C   UNL A   1      46.246  27.671  35.520  1.00  0.00     0.006 A 
ENDBRANCH  51  72
BRANCH  63  80
ATOM     80  C   UNL A   1      40.199  34.485  35.477  1.00  0.00     0.057 A 
ATOM     81  C   UNL A   1      39.502  34.327  36.680  1.00  0.00     0.134 A 
ATOM     82  C   UNL A   1      40.974  35.641  35.321  1.00  0.00     0.134 A 
ATOM     83  F   UNL A   1      38.738  33.244  36.889  1.00  0.00    -0.206 F 
ATOM     84  C   UNL A   1      39.580  35.280  37.697  1.00  0.00     0.040 A 
ATOM     85  C   UNL A   1      41.078  36.590  36.338  1.00  0.00     0.040 A 
ATOM     86  F   UNL A   1      41.679  35.840  34.196  1.00  0.00    -0.206 F 
ATOM     87  C   UNL A   1      40.378  36.411  37.530  1.00  0.00     0.006 A 
ENDBRANCH  63  80
ENDBRANCH  37  38
ENDBRANCH  29  32
ENDBRANCH  27  28
ENDBRANCH   1  27
TORSDOF 13
ENDMDL
MODEL 3
REMARK VINA RESULT:     -12.3      3.072      7.844
REMARK SMILES CC(C)(C)c1cc2c(cc1Cl)C=C(C(=O)NCCCCNC(=O)c1ccc(-c3c4nc(c(-c5c(F)cccc5F)c5ccc([nH]5)c(-c5c(F)cccc5F)c5nc(c(-c6c(F)cccc6F)c6ccc3[nH]6)C=C5)C=C4)cc1)[C@@H](C(F)(F)F)O2
REMARK SMILES IDX 19 1 18 2 17 3 16 4 14 5 15 6 13 8 5 9 6 10 10 11 7 12 9 13
REMARK SMILES IDX 11 14 8 15 83 16 12 17 78 18 2 19 1 20 3 21 4 22 79 23 80 24
REMARK SMILES IDX 81 25 82 26 20 27 21 28 22 29 23 31 24 32 25 33 77 34 26 35
REMARK SMILES IDX 76 36 27 37 28 38 29 39 70 40 30 41 75 42 69 43 71 44 31 45
REMARK SMILES IDX 74 46 68 47 67 48 32 50 58 51 41 52 57 53 42 54 45 55 56 56
REMARK SMILES IDX 72 57 43 58 44 59 55 61 73 62 46 63 33 64 34 65 39 66 35 67
REMARK SMILES IDX 36 68 38 69 40 70 37 71 59 72 60 73 65 74 61 75 62 76 64 77
REMARK SMILES IDX 66 78 63 79 47 80 48 81 53 82 49 83 50 84 52 85 54 86 51 87
REMARK H PARENT 16 7 21 30 71 49 45 60
REMARK Flexibility Score: inf
ROOT
ATOM      1  C   UNL A   1      37.732  21.668  24.521  1.00  0.00     0.023 C 
ENDROOT
BRANCH   1   2
ATOM      2  C   UNL A   1      36.205  21.651  24.645  1.00  0.00     0.023 C 
BRANCH   2   3
ATOM      3  C   UNL A   1      35.620  20.301  25.054  1.00  0.00     0.116 C 
BRANCH   3   4
ATOM      4  N   UNL A   1      34.266  20.116  24.564  1.00  0.00    -0.352 N 
ATOM      5  C   UNL A   1      33.122  20.841  24.520  1.00  0.00     0.251 C 
ATOM      6  O   UNL A   1      32.164  20.279  23.980  1.00  0.00    -0.270 OA
ATOM      7  H   UNL A   1      34.147  19.227  24.155  1.00  0.00     0.163 HD
BRANCH   5   8
ATOM      8  C   UNL A   1      32.953  22.219  25.069  1.00  0.00     0.067 C 
ATOM      9  C   UNL A   1      32.671  27.284  25.609  1.00  0.00    -0.020 A 
ATOM     10  C   UNL A   1      32.193  26.146  26.307  1.00  0.00     0.053 A 
ATOM     11  C   UNL A   1      33.403  27.015  24.431  1.00  0.00     0.045 A 
ATOM     12  C   UNL A   1      32.430  24.840  25.879  1.00  0.00     0.128 A 
ATOM     13  C   UNL A   1      33.625  25.689  23.996  1.00  0.00     0.032 A 
ATOM     14  Cl  UNL A   1      34.078  28.208  23.381  1.00  0.00    -0.084 Cl
ATOM     15  C   UNL A   1      33.137  24.600  24.712  1.00  0.00     0.019 A 
ATOM     16  O   UNL A   1      31.888  23.843  26.634  1.00  0.00    -0.475 OA
ATOM     17  C   UNL A   1      33.290  23.228  24.243  1.00  0.00     0.025 C 
ATOM     18  C   UNL A   1      32.473  22.523  26.461  1.00  0.00     0.314 C 
BRANCH   9  19
ATOM     19  C   UNL A   1      32.292  28.662  26.209  1.00  0.00    -0.012 C 
ATOM     20  C   UNL A   1      31.458  29.624  25.340  1.00  0.00     0.016 C 
ATOM     21  C   UNL A   1      33.577  29.452  26.576  1.00  0.00     0.016 C 
ATOM     22  C   UNL A   1      31.470  28.419  27.499  1.00  0.00     0.016 C 
ENDBRANCH   9  19
BRANCH  18  23
ATOM     23  C   UNL A   1      33.571  22.307  27.519  1.00  0.00     0.429 C 
ATOM     24  F   UNL A   1      33.144  22.728  28.737  1.00  0.00    -0.167 F 
ATOM     25  F   UNL A   1      33.902  21.001  27.662  1.00  0.00    -0.167 F 
ATOM     26  F   UNL A   1      34.711  22.973  27.236  1.00  0.00    -0.167 F 
ENDBRANCH  18  23
ENDBRANCH   5   8
ENDBRANCH   3   4
ENDBRANCH   2   3
ENDBRANCH   1   2
BRANCH   1  27
ATOM     27  C   UNL A   1      38.496  21.240  25.771  1.00  0.00     0.116 C 
BRANCH  27  28
ATOM     28  N   UNL A   1      39.288  20.027  25.614  1.00  0.00    -0.352 N 
ATOM     29  C   UNL A   1      40.615  19.842  25.935  1.00  0.00     0.251 C 
ATOM     30  H   UNL A   1      38.819  19.249  25.235  1.00  0.00     0.163 HD
ATOM     31  O   UNL A   1      41.187  18.790  25.676  1.00  0.00    -0.269 OA
BRANCH  29  32
ATOM     32  C   UNL A   1      41.356  20.968  26.541  1.00  0.00     0.039 A 
ATOM     33  C   UNL A   1      41.375  21.126  27.926  1.00  0.00     0.014 A 
ATOM     34  C   UNL A   1      41.937  21.928  25.707  1.00  0.00     0.014 A 
ATOM     35  C   UNL A   1      41.796  22.334  28.465  1.00  0.00     0.010 A 
ATOM     36  C   UNL A   1      42.440  23.108  26.262  1.00  0.00     0.010 A 
ATOM     37  C   UNL A   1      42.309  23.349  27.639  1.00  0.00    -0.014 A 
BRANCH  37  38
ATOM     38  C   UNL A   1      42.652  24.661  28.246  1.00  0.00     0.031 A 
ATOM     39  C   UNL A   1      44.089  25.051  28.477  1.00  0.00     0.074 A 
ATOM     40  C   UNL A   1      41.668  25.545  28.496  1.00  0.00     0.049 A 
ATOM     41  N   UNL A   1      44.576  26.191  28.904  1.00  0.00    -0.248 NA
ATOM     42  C   UNL A   1      45.113  24.032  28.201  1.00  0.00     0.031 C 
ATOM     43  C   UNL A   1      40.238  25.287  28.311  1.00  0.00     0.029 A 
ATOM     44  N   UNL A   1      41.720  26.849  28.913  1.00  0.00    -0.354 N 
ATOM     45  C   UNL A   1      45.954  26.019  28.965  1.00  0.00     0.074 A 
ATOM     46  C   UNL A   1      46.226  24.657  28.559  1.00  0.00     0.031 C 
ATOM     47  C   UNL A   1      39.555  26.417  28.544  1.00  0.00     0.029 A 
ATOM     48  C   UNL A   1      40.493  27.463  28.941  1.00  0.00     0.049 A 
ATOM     49  H   UNL A   1      42.557  27.302  29.168  1.00  0.00     0.167 HD
ATOM     50  C   UNL A   1      46.907  26.916  29.317  1.00  0.00     0.037 A 
ATOM     51  C   UNL A   1      40.158  28.728  29.246  1.00  0.00     0.037 A 
ATOM     52  C   UNL A   1      46.643  28.280  29.696  1.00  0.00     0.049 A 
ATOM     53  C   UNL A   1      41.234  29.701  29.632  1.00  0.00     0.074 A 
ATOM     54  C   UNL A   1      47.544  29.269  30.054  1.00  0.00     0.029 A 
ATOM     55  N   UNL A   1      45.381  28.849  29.760  1.00  0.00    -0.354 N 
ATOM     56  N   UNL A   1      42.531  29.522  29.679  1.00  0.00    -0.248 NA
ATOM     57  C   UNL A   1      40.794  31.050  30.013  1.00  0.00     0.031 C 
ATOM     58  C   UNL A   1      46.824  30.429  30.361  1.00  0.00     0.029 A 
ATOM     59  C   UNL A   1      45.478  30.171  30.162  1.00  0.00     0.049 A 
ATOM     60  H   UNL A   1      44.539  28.383  29.549  1.00  0.00     0.167 HD
ATOM     61  C   UNL A   1      43.064  30.736  30.090  1.00  0.00     0.074 A 
ATOM     62  C   UNL A   1      41.952  31.650  30.249  1.00  0.00     0.031 C 
ATOM     63  C   UNL A   1      44.358  31.062  30.323  1.00  0.00     0.037 A 
BRANCH  50  64
ATOM     64  C   UNL A   1      48.331  26.441  29.320  1.00  0.00     0.057 A 
ATOM     65  C   UNL A   1      48.882  25.844  30.461  1.00  0.00     0.134 A 
ATOM     66  C   UNL A   1      49.164  26.595  28.205  1.00  0.00     0.134 A 
ATOM     67  F   UNL A   1      48.139  25.670  31.564  1.00  0.00    -0.206 F 
ATOM     68  C   UNL A   1      50.210  25.416  30.494  1.00  0.00     0.040 A 
ATOM     69  C   UNL A   1      50.489  26.153  28.218  1.00  0.00     0.040 A 
ATOM     70  F   UNL A   1      48.694  27.144  27.076  1.00  0.00    -0.206 F 
ATOM     71  C   UNL A   1      51.017  25.566  29.367  1.00  0.00     0.006 A 
ENDBRANCH  50  64
BRANCH  51  72
ATOM     72  C   UNL A   1      38.738  29.152  29.188  1.00  0.00     0.057 A 
ATOM     73  C   UNL A   1      37.914  29.096  30.318  1.00  0.00     0.134 A 
ATOM     74  C   UNL A   1      38.175  29.626  27.998  1.00  0.00     0.134 A 
ATOM     75  F   UNL A   1      38.397  28.646  31.486  1.00  0.00    -0.206 F 
ATOM     76  C   UNL A   1      36.577  29.487  30.265  1.00  0.00     0.040 A 
ATOM     77  C   UNL A   1      36.845  30.042  27.936  1.00  0.00     0.040 A 
ATOM     78  F   UNL A   1      38.922  29.719  26.887  1.00  0.00    -0.206 F 
ATOM     79  C   UNL A   1      36.040  29.968  29.073  1.00  0.00     0.006 A 
ENDBRANCH  51  72
BRANCH  63  80
ATOM     80  C   UNL A   1      44.625  32.470  30.766  1.00  0.00     0.057 A 
ATOM     81  C   UNL A   1      44.838  33.487  29.828  1.00  0.00     0.134 A 
ATOM     82  C   UNL A   1      44.661  32.817  32.122  1.00  0.00     0.134 A 
ATOM     83  F   UNL A   1      44.822  33.218  28.514  1.00  0.00    -0.206 F 
ATOM     84  C   UNL A   1      45.069  34.805  30.225  1.00  0.00     0.040 A 
ATOM     85  C   UNL A   1      44.868  34.134  32.531  1.00  0.00     0.040 A 
ATOM     86  F   UNL A   1      44.446  31.888  33.067  1.00  0.00    -0.206 F 
ATOM     87  C   UNL A   1      45.075  35.133  31.581  1.00  0.00     0.006 A 
ENDBRANCH  63  80
ENDBRANCH  37  38
ENDBRANCH  29  32
ENDBRANCH  27  28
ENDBRANCH   1  27
TORSDOF 13
ENDMDL
