MODEL 1
REMARK VINA RESULT:     -12.4      0.000      0.000
REMARK SMILES O=C(NCCCCNC(=O)[C@@H]1CCC[C@@H](C(=O)N2CCN3C(=O)NC[C@@H]3C2)C1)c1ccc(-c2c3nc(c(-c4c(F)cccc4F)c4ccc([nH]4)c(-c4c(F)cccc4F)c4nc(c(-c5c(F)cccc5F)c5ccc2[nH]5)C=C4)C=C3)cc1
REMARK SMILES IDX 5 1 4 2 3 3 1 4 2 5 29 7 30 8 82 9 31 10 81 11 32 12 33 13
REMARK SMILES IDX 34 14 75 15 35 16 80 17 74 18 76 19 36 20 79 21 73 22 72 23
REMARK SMILES IDX 37 25 63 26 46 27 62 28 47 29 50 30 61 31 77 32 48 33 49 34
REMARK SMILES IDX 60 36 78 37 51 38 38 39 39 40 44 41 40 42 41 43 43 44 45 45
REMARK SMILES IDX 42 46 64 47 65 48 70 49 66 50 67 51 69 52 71 53 68 54 52 55
REMARK SMILES IDX 53 56 58 57 54 58 55 59 57 60 59 61 56 62 6 63 7 64 8 65
REMARK SMILES IDX 9 66 10 68 11 69 12 70 28 71 13 72 15 73 14 74 16 75 17 76
REMARK SMILES IDX 18 77 19 78 27 79 20 80 26 81 21 82 25 83 22 84 24 85 23 86
REMARK H PARENT 3 6 76 24 50 35 8 67 24 87
REMARK Flexibility Score: inf
ROOT
ATOM      1  C   UNL A   1      37.707  19.735  24.984  1.00  0.00     0.023 C 
ENDROOT
BRANCH   1   2
ATOM      2  C   UNL A   1      38.930  20.241  25.738  1.00  0.00     0.116 C 
BRANCH   2   3
ATOM      3  N   UNL A   1      40.021  19.277  25.766  1.00  0.00    -0.352 N 
ATOM      4  O   UNL A   1      42.169  18.592  25.933  1.00  0.00    -0.269 OA
ATOM      5  C   UNL A   1      41.342  19.485  26.086  1.00  0.00     0.251 C 
ATOM      6  H   UNL A   1      39.781  18.354  25.524  1.00  0.00     0.163 HD
BRANCH   5   7
ATOM      7  C   UNL A   1      41.761  20.809  26.590  1.00  0.00     0.039 A 
ATOM      8  C   UNL A   1      41.741  21.077  27.960  1.00  0.00     0.014 A 
ATOM      9  C   UNL A   1      42.146  21.797  25.681  1.00  0.00     0.014 A 
ATOM     10  C   UNL A   1      41.957  22.373  28.409  1.00  0.00     0.010 A 
ATOM     11  C   UNL A   1      42.461  23.076  26.144  1.00  0.00     0.010 A 
ATOM     12  C   UNL A   1      42.341  23.381  27.510  1.00  0.00    -0.014 A 
BRANCH  12  13
ATOM     13  C   UNL A   1      42.692  24.723  28.037  1.00  0.00     0.031 A 
ATOM     14  C   UNL A   1      41.643  25.768  28.284  1.00  0.00     0.074 A 
ATOM     15  C   UNL A   1      43.987  24.987  28.299  1.00  0.00     0.049 A 
ATOM     16  N   UNL A   1      41.790  26.991  28.732  1.00  0.00    -0.248 NA
ATOM     17  C   UNL A   1      40.252  25.403  27.982  1.00  0.00     0.031 C 
ATOM     18  C   UNL A   1      45.095  24.053  28.083  1.00  0.00     0.029 A 
ATOM     19  N   UNL A   1      44.591  26.106  28.808  1.00  0.00    -0.354 N 
ATOM     20  C   UNL A   1      40.517  27.546  28.749  1.00  0.00     0.074 A 
ATOM     21  C   UNL A   1      39.613  26.537  28.239  1.00  0.00     0.031 C 
ATOM     22  C   UNL A   1      46.238  24.625  28.484  1.00  0.00     0.029 A 
ATOM     23  C   UNL A   1      45.955  25.987  28.917  1.00  0.00     0.049 A 
ATOM     24  H   UNL A   1      44.097  26.916  29.070  1.00  0.00     0.167 HD
ATOM     25  C   UNL A   1      40.141  28.783  29.158  1.00  0.00     0.037 A 
ATOM     26  C   UNL A   1      46.884  26.884  29.292  1.00  0.00     0.037 A 
ATOM     27  C   UNL A   1      41.052  29.779  29.665  1.00  0.00     0.049 A 
ATOM     28  C   UNL A   1      46.446  28.257  29.703  1.00  0.00     0.074 A 
ATOM     29  C   UNL A   1      40.764  31.045  30.147  1.00  0.00     0.029 A 
ATOM     30  N   UNL A   1      42.430  29.630  29.741  1.00  0.00    -0.354 N 
ATOM     31  N   UNL A   1      45.234  28.752  29.763  1.00  0.00    -0.248 NA
ATOM     32  C   UNL A   1      47.501  29.197  30.100  1.00  0.00     0.031 C 
ATOM     33  C   UNL A   1      41.971  31.683  30.453  1.00  0.00     0.029 A 
ATOM     34  C   UNL A   1      43.008  30.792  30.227  1.00  0.00     0.049 A 
ATOM     35  H   UNL A   1      42.925  28.817  29.488  1.00  0.00     0.167 HD
ATOM     36  C   UNL A   1      45.377  30.054  30.222  1.00  0.00     0.074 A 
ATOM     37  C   UNL A   1      46.794  30.263  30.442  1.00  0.00     0.031 C 
ATOM     38  C   UNL A   1      44.421  30.990  30.438  1.00  0.00     0.037 A 
BRANCH  25  39
ATOM     39  C   UNL A   1      38.685  29.142  29.044  1.00  0.00     0.057 A 
ATOM     40  C   UNL A   1      37.810  29.068  30.135  1.00  0.00     0.134 A 
ATOM     41  C   UNL A   1      38.159  29.603  27.830  1.00  0.00     0.134 A 
ATOM     42  F   UNL A   1      38.243  28.629  31.327  1.00  0.00    -0.206 F 
ATOM     43  C   UNL A   1      36.460  29.408  30.016  1.00  0.00     0.040 A 
ATOM     44  C   UNL A   1      36.819  29.975  27.705  1.00  0.00     0.040 A 
ATOM     45  F   UNL A   1      38.941  29.711  26.745  1.00  0.00    -0.206 F 
ATOM     46  C   UNL A   1      35.962  29.868  28.798  1.00  0.00     0.006 A 
ENDBRANCH  25  39
BRANCH  26  47
ATOM     47  C   UNL A   1      48.319  26.504  29.266  1.00  0.00     0.057 A 
ATOM     48  C   UNL A   1      48.922  25.863  30.353  1.00  0.00     0.134 A 
ATOM     49  C   UNL A   1      49.114  26.752  28.139  1.00  0.00     0.134 A 
ATOM     50  F   UNL A   1      48.216  25.610  31.464  1.00  0.00    -0.206 F 
ATOM     51  C   UNL A   1      50.268  25.495  30.326  1.00  0.00     0.040 A 
ATOM     52  C   UNL A   1      50.451  26.362  28.087  1.00  0.00     0.040 A 
ATOM     53  F   UNL A   1      48.591  27.351  27.059  1.00  0.00    -0.206 F 
ATOM     54  C   UNL A   1      51.034  25.737  29.187  1.00  0.00     0.006 A 
ENDBRANCH  26  47
BRANCH  38  55
ATOM     55  C   UNL A   1      44.875  32.319  30.971  1.00  0.00     0.057 A 
ATOM     56  C   UNL A   1      45.193  33.389  30.125  1.00  0.00     0.134 A 
ATOM     57  C   UNL A   1      44.967  32.539  32.351  1.00  0.00     0.134 A 
ATOM     58  F   UNL A   1      45.142  33.242  28.792  1.00  0.00    -0.206 F 
ATOM     59  C   UNL A   1      45.608  34.622  30.632  1.00  0.00     0.040 A 
ATOM     60  C   UNL A   1      45.350  33.776  32.870  1.00  0.00     0.040 A 
ATOM     61  F   UNL A   1      44.671  31.559  33.219  1.00  0.00    -0.206 F 
ATOM     62  C   UNL A   1      45.679  34.819  32.009  1.00  0.00     0.006 A 
ENDBRANCH  38  55
ENDBRANCH  12  13
ENDBRANCH   5   7
ENDBRANCH   2   3
ENDBRANCH   1   2
BRANCH   1  63
ATOM     63  C   UNL A   1      36.679  20.810  24.630  1.00  0.00     0.023 C 
BRANCH  63  64
ATOM     64  C   UNL A   1      35.645  21.072  25.724  1.00  0.00     0.116 C 
BRANCH  64  65
ATOM     65  N   UNL A   1      34.544  20.125  25.659  1.00  0.00    -0.356 N 
ATOM     66  C   UNL A   1      33.228  20.323  25.359  1.00  0.00     0.223 C 
ATOM     67  H   UNL A   1      34.786  19.192  25.864  1.00  0.00     0.163 HD
ATOM     68  O   UNL A   1      32.463  19.359  25.407  1.00  0.00    -0.275 OA
BRANCH  66  69
ATOM     69  C   UNL A   1      32.759  21.700  24.931  1.00  0.00     0.079 C 
ATOM     70  C   UNL A   1      31.411  22.059  25.550  1.00  0.00     0.013 C 
ATOM     71  C   UNL A   1      32.692  21.781  23.399  1.00  0.00     0.027 C 
ATOM     72  C   UNL A   1      31.010  23.478  25.145  1.00  0.00     0.002 C 
ATOM     73  C   UNL A   1      32.289  23.188  22.917  1.00  0.00     0.079 C 
ATOM     74  C   UNL A   1      31.024  23.685  23.628  1.00  0.00     0.013 C 
BRANCH  73  75
ATOM     75  C   UNL A   1      33.504  24.109  23.099  1.00  0.00     0.225 C 
ATOM     76  O   UNL A   1      34.616  23.680  23.407  1.00  0.00    -0.275 OA
BRANCH  75  77
ATOM     77  N   UNL A   1      33.341  25.406  22.650  1.00  0.00    -0.339 N 
ATOM     78  C   UNL A   1      32.743  25.749  21.346  1.00  0.00     0.141 C 
ATOM     79  C   UNL A   1      33.523  26.514  23.591  1.00  0.00     0.146 C 
ATOM     80  C   UNL A   1      31.504  26.675  21.469  1.00  0.00     0.143 C 
ATOM     81  C   UNL A   1      32.211  27.239  23.820  1.00  0.00     0.125 C 
ATOM     82  N   UNL A   1      31.627  27.636  22.551  1.00  0.00    -0.317 N 
ATOM     83  C   UNL A   1      32.320  28.562  24.567  1.00  0.00     0.144 C 
ATOM     84  C   UNL A   1      30.995  28.860  22.664  1.00  0.00     0.317 C 
ATOM     85  N   UNL A   1      31.349  29.392  23.898  1.00  0.00    -0.336 N 
ATOM     86  O   UNL A   1      30.264  29.398  21.849  1.00  0.00    -0.249 OA
ATOM     87  H   UNL A   1      30.984  30.229  24.267  1.00  0.00     0.165 HD
ENDBRANCH  75  77
ENDBRANCH  73  75
ENDBRANCH  66  69
ENDBRANCH  64  65
ENDBRANCH  63  64
ENDBRANCH   1  63
TORSDOF 13
ENDMDL
MODEL 2
REMARK VINA RESULT:     -12.2      1.161      6.185
REMARK SMILES O=C(NCCCCNC(=O)[C@@H]1CCC[C@@H](C(=O)N2CCN3C(=O)NC[C@@H]3C2)C1)c1ccc(-c2c3nc(c(-c4c(F)cccc4F)c4ccc([nH]4)c(-c4c(F)cccc4F)c4nc(c(-c5c(F)cccc5F)c5ccc2[nH]5)C=C4)C=C3)cc1
REMARK SMILES IDX 5 1 4 2 3 3 1 4 2 5 29 7 30 8 82 9 31 10 81 11 32 12 33 13
REMARK SMILES IDX 34 14 75 15 35 16 80 17 74 18 76 19 36 20 79 21 73 22 72 23
REMARK SMILES IDX 37 25 63 26 46 27 62 28 47 29 50 30 61 31 77 32 48 33 49 34
REMARK SMILES IDX 60 36 78 37 51 38 38 39 39 40 44 41 40 42 41 43 43 44 45 45
REMARK SMILES IDX 42 46 64 47 65 48 70 49 66 50 67 51 69 52 71 53 68 54 52 55
REMARK SMILES IDX 53 56 58 57 54 58 55 59 57 60 59 61 56 62 6 63 7 64 8 65
REMARK SMILES IDX 9 66 10 68 11 69 12 70 28 71 13 72 15 73 14 74 16 75 17 76
REMARK SMILES IDX 18 77 19 78 27 79 20 80 26 81 21 82 25 83 22 84 24 85 23 86
REMARK H PARENT 3 6 76 24 50 35 8 67 24 87
REMARK Flexibility Score: inf
ROOT
ATOM      1  C   UNL A   1      37.952  19.572  24.989  1.00  0.00     0.023 C 
ENDROOT
BRANCH   1   2
ATOM      2  C   UNL A   1      39.129  20.008  25.853  1.00  0.00     0.116 C 
BRANCH   2   3
ATOM      3  N   UNL A   1      40.188  19.011  25.918  1.00  0.00    -0.352 N 
ATOM      4  O   UNL A   1      42.320  18.263  26.012  1.00  0.00    -0.269 OA
ATOM      5  C   UNL A   1      41.536  19.201  26.115  1.00  0.00     0.251 C 
ATOM      6  H   UNL A   1      39.901  18.076  25.807  1.00  0.00     0.163 HD
BRANCH   5   7
ATOM      7  C   UNL A   1      42.033  20.557  26.424  1.00  0.00     0.039 A 
ATOM      8  C   UNL A   1      42.176  20.966  27.751  1.00  0.00     0.014 A 
ATOM      9  C   UNL A   1      42.330  21.432  25.378  1.00  0.00     0.014 A 
ATOM     10  C   UNL A   1      42.465  22.295  28.032  1.00  0.00     0.010 A 
ATOM     11  C   UNL A   1      42.719  22.743  25.664  1.00  0.00     0.010 A 
ATOM     12  C   UNL A   1      42.762  23.192  26.994  1.00  0.00    -0.014 A 
BRANCH  12  13
ATOM     13  C   UNL A   1      43.196  24.570  27.331  1.00  0.00     0.031 A 
ATOM     14  C   UNL A   1      44.635  24.986  27.235  1.00  0.00     0.074 A 
ATOM     15  C   UNL A   1      42.259  25.455  27.725  1.00  0.00     0.049 A 
ATOM     16  N   UNL A   1      45.174  26.150  27.504  1.00  0.00    -0.248 NA
ATOM     17  C   UNL A   1      45.596  23.968  26.790  1.00  0.00     0.031 C 
ATOM     18  C   UNL A   1      40.832  25.158  27.871  1.00  0.00     0.029 A 
ATOM     19  N   UNL A   1      42.359  26.778  28.066  1.00  0.00    -0.354 N 
ATOM     20  C   UNL A   1      46.537  26.000  27.279  1.00  0.00     0.074 A 
ATOM     21  C   UNL A   1      46.746  24.625  26.879  1.00  0.00     0.031 C 
ATOM     22  C   UNL A   1      40.186  26.272  28.242  1.00  0.00     0.029 A 
ATOM     23  C   UNL A   1      41.160  27.340  28.429  1.00  0.00     0.049 A 
ATOM     24  H   UNL A   1      43.207  27.277  28.054  1.00  0.00     0.167 HD
ATOM     25  C   UNL A   1      47.518  26.928  27.393  1.00  0.00     0.037 A 
ATOM     26  C   UNL A   1      40.874  28.568  28.895  1.00  0.00     0.037 A 
ATOM     27  C   UNL A   1      47.297  28.296  27.792  1.00  0.00     0.049 A 
ATOM     28  C   UNL A   1      41.983  29.565  29.047  1.00  0.00     0.074 A 
ATOM     29  C   UNL A   1      48.218  29.325  27.893  1.00  0.00     0.029 A 
ATOM     30  N   UNL A   1      46.070  28.822  28.172  1.00  0.00    -0.354 N 
ATOM     31  N   UNL A   1      43.259  29.424  28.781  1.00  0.00    -0.248 NA
ATOM     32  C   UNL A   1      41.616  30.889  29.561  1.00  0.00     0.031 C 
ATOM     33  C   UNL A   1      47.561  30.453  28.395  1.00  0.00     0.029 A 
ATOM     34  C   UNL A   1      46.217  30.150  28.542  1.00  0.00     0.049 A 
ATOM     35  H   UNL A   1      45.219  28.326  28.177  1.00  0.00     0.167 HD
ATOM     36  C   UNL A   1      43.845  30.647  29.078  1.00  0.00     0.074 A 
ATOM     37  C   UNL A   1      42.780  31.522  29.525  1.00  0.00     0.031 C 
ATOM     38  C   UNL A   1      45.149  31.010  28.990  1.00  0.00     0.037 A 
BRANCH  25  39
ATOM     39  C   UNL A   1      48.930  26.488  27.113  1.00  0.00     0.057 A 
ATOM     40  C   UNL A   1      49.771  25.997  28.119  1.00  0.00     0.134 A 
ATOM     41  C   UNL A   1      49.440  26.523  25.809  1.00  0.00     0.134 A 
ATOM     42  F   UNL A   1      49.352  25.941  29.392  1.00  0.00    -0.206 F 
ATOM     43  C   UNL A   1      51.079  25.588  27.845  1.00  0.00     0.040 A 
ATOM     44  C   UNL A   1      50.735  26.089  25.516  1.00  0.00     0.040 A 
ATOM     45  F   UNL A   1      48.686  26.971  24.793  1.00  0.00    -0.206 F 
ATOM     46  C   UNL A   1      51.562  25.629  26.538  1.00  0.00     0.006 A 
ENDBRANCH  25  39
BRANCH  26  47
ATOM     47  C   UNL A   1      39.477  28.901  29.268  1.00  0.00     0.057 A 
ATOM     48  C   UNL A   1      39.010  28.724  30.575  1.00  0.00     0.134 A 
ATOM     49  C   UNL A   1      38.582  29.431  28.329  1.00  0.00     0.134 A 
ATOM     50  F   UNL A   1      39.816  28.210  31.515  1.00  0.00    -0.206 F 
ATOM     51  C   UNL A   1      37.699  29.046  30.931  1.00  0.00     0.040 A 
ATOM     52  C   UNL A   1      37.280  29.787  28.678  1.00  0.00     0.040 A 
ATOM     53  F   UNL A   1      38.974  29.638  27.063  1.00  0.00    -0.206 F 
ATOM     54  C   UNL A   1      36.833  29.588  29.982  1.00  0.00     0.006 A 
ENDBRANCH  26  47
BRANCH  38  55
ATOM     55  C   UNL A   1      45.489  32.426  29.355  1.00  0.00     0.057 A 
ATOM     56  C   UNL A   1      45.899  32.782  30.647  1.00  0.00     0.134 A 
ATOM     57  C   UNL A   1      45.434  33.443  28.393  1.00  0.00     0.134 A 
ATOM     58  F   UNL A   1      45.959  31.861  31.620  1.00  0.00    -0.206 F 
ATOM     59  C   UNL A   1      46.219  34.102  30.973  1.00  0.00     0.040 A 
ATOM     60  C   UNL A   1      45.781  34.758  28.699  1.00  0.00     0.040 A 
ATOM     61  F   UNL A   1      45.055  33.170  27.135  1.00  0.00    -0.206 F 
ATOM     62  C   UNL A   1      46.168  35.092  29.994  1.00  0.00     0.006 A 
ENDBRANCH  38  55
ENDBRANCH  12  13
ENDBRANCH   5   7
ENDBRANCH   2   3
ENDBRANCH   1   2
BRANCH   1  63
ATOM     63  C   UNL A   1      37.073  20.713  24.477  1.00  0.00     0.023 C 
BRANCH  63  64
ATOM     64  C   UNL A   1      35.923  21.085  25.411  1.00  0.00     0.116 C 
BRANCH  64  65
ATOM     65  N   UNL A   1      34.865  20.087  25.383  1.00  0.00    -0.356 N 
ATOM     66  C   UNL A   1      33.529  20.226  25.141  1.00  0.00     0.223 C 
ATOM     67  H   UNL A   1      35.159  19.166  25.567  1.00  0.00     0.163 HD
ATOM     68  O   UNL A   1      32.813  19.227  25.211  1.00  0.00    -0.275 OA
BRANCH  66  69
ATOM     69  C   UNL A   1      32.979  21.584  24.749  1.00  0.00     0.079 C 
ATOM     70  C   UNL A   1      31.614  21.848  25.378  1.00  0.00     0.013 C 
ATOM     71  C   UNL A   1      32.903  21.700  23.219  1.00  0.00     0.027 C 
ATOM     72  C   UNL A   1      31.130  23.250  25.009  1.00  0.00     0.002 C 
ATOM     73  C   UNL A   1      32.417  23.092  22.774  1.00  0.00     0.079 C 
ATOM     74  C   UNL A   1      31.127  23.496  23.498  1.00  0.00     0.013 C 
BRANCH  73  75
ATOM     75  C   UNL A   1      33.576  24.078  22.976  1.00  0.00     0.225 C 
ATOM     76  O   UNL A   1      34.721  23.705  23.233  1.00  0.00    -0.275 OA
BRANCH  75  77
ATOM     77  N   UNL A   1      33.319  25.384  22.605  1.00  0.00    -0.339 N 
ATOM     78  C   UNL A   1      32.710  25.761  21.316  1.00  0.00     0.141 C 
ATOM     79  C   UNL A   1      33.408  26.442  23.614  1.00  0.00     0.146 C 
ATOM     80  C   UNL A   1      31.404  26.582  21.478  1.00  0.00     0.143 C 
ATOM     81  C   UNL A   1      32.042  27.051  23.868  1.00  0.00     0.125 C 
ATOM     82  N   UNL A   1      31.442  27.481  22.618  1.00  0.00    -0.317 N 
ATOM     83  C   UNL A   1      32.043  28.330  24.696  1.00  0.00     0.144 C 
ATOM     84  C   UNL A   1      30.718  28.645  22.796  1.00  0.00     0.317 C 
ATOM     85  N   UNL A   1      31.019  29.125  24.065  1.00  0.00    -0.336 N 
ATOM     86  O   UNL A   1      29.956  29.175  22.005  1.00  0.00    -0.249 OA
ATOM     87  H   UNL A   1      30.588  29.907  24.479  1.00  0.00     0.165 HD
ENDBRANCH  75  77
ENDBRANCH  73  75
ENDBRANCH  66  69
ENDBRANCH  64  65
ENDBRANCH  63  64
ENDBRANCH   1  63
TORSDOF 13
ENDMDL
MODEL 3
REMARK VINA RESULT:     -12.1      4.089      9.541
REMARK SMILES O=C(NCCCCNC(=O)[C@@H]1CCC[C@@H](C(=O)N2CCN3C(=O)NC[C@@H]3C2)C1)c1ccc(-c2c3nc(c(-c4c(F)cccc4F)c4ccc([nH]4)c(-c4c(F)cccc4F)c4nc(c(-c5c(F)cccc5F)c5ccc2[nH]5)C=C4)C=C3)cc1
REMARK SMILES IDX 5 1 4 2 3 3 1 4 2 5 29 7 30 8 82 9 31 10 81 11 32 12 33 13
REMARK SMILES IDX 34 14 75 15 35 16 80 17 74 18 76 19 36 20 79 21 73 22 72 23
REMARK SMILES IDX 37 25 63 26 46 27 62 28 47 29 50 30 61 31 77 32 48 33 49 34
REMARK SMILES IDX 60 36 78 37 51 38 38 39 39 40 44 41 40 42 41 43 43 44 45 45
REMARK SMILES IDX 42 46 64 47 65 48 70 49 66 50 67 51 69 52 71 53 68 54 52 55
REMARK SMILES IDX 53 56 58 57 54 58 55 59 57 60 59 61 56 62 6 63 7 64 8 65
REMARK SMILES IDX 9 66 10 68 11 69 12 70 28 71 13 72 15 73 14 74 16 75 17 76
REMARK SMILES IDX 18 77 19 78 27 79 20 80 26 81 21 82 25 83 22 84 24 85 23 86
REMARK H PARENT 3 6 76 24 50 35 8 67 24 87
REMARK Flexibility Score: inf
ROOT
ATOM      1  C   UNL A   1      31.404  32.166  26.534  1.00  0.00     0.023 C 
ENDROOT
BRANCH   1   2
ATOM      2  C   UNL A   1      32.621  32.814  27.180  1.00  0.00     0.116 C 
BRANCH   2   3
ATOM      3  N   UNL A   1      32.372  34.178  27.626  1.00  0.00    -0.352 N 
ATOM      4  O   UNL A   1      32.597  35.990  28.959  1.00  0.00    -0.269 OA
ATOM      5  C   UNL A   1      33.014  34.890  28.611  1.00  0.00     0.251 C 
ATOM      6  H   UNL A   1      31.647  34.653  27.159  1.00  0.00     0.163 HD
BRANCH   5   7
ATOM      7  C   UNL A   1      34.199  34.301  29.268  1.00  0.00     0.039 A 
ATOM      8  C   UNL A   1      35.475  34.531  28.750  1.00  0.00     0.014 A 
ATOM      9  C   UNL A   1      34.027  33.491  30.392  1.00  0.00     0.014 A 
ATOM     10  C   UNL A   1      36.559  33.829  29.260  1.00  0.00     0.010 A 
ATOM     11  C   UNL A   1      35.134  32.863  30.966  1.00  0.00     0.010 A 
ATOM     12  C   UNL A   1      36.405  33.005  30.387  1.00  0.00    -0.014 A 
BRANCH  12  13
ATOM     13  C   UNL A   1      37.605  32.372  30.988  1.00  0.00     0.031 A 
ATOM     14  C   UNL A   1      38.270  31.187  30.350  1.00  0.00     0.074 A 
ATOM     15  C   UNL A   1      38.098  32.892  32.129  1.00  0.00     0.049 A 
ATOM     16  N   UNL A   1      39.318  30.515  30.756  1.00  0.00    -0.248 NA
ATOM     17  C   UNL A   1      37.680  30.682  29.102  1.00  0.00     0.031 C 
ATOM     18  C   UNL A   1      37.525  34.033  32.848  1.00  0.00     0.029 A 
ATOM     19  N   UNL A   1      39.188  32.541  32.880  1.00  0.00    -0.354 N 
ATOM     20  C   UNL A   1      39.504  29.498  29.827  1.00  0.00     0.074 A 
ATOM     21  C   UNL A   1      38.442  29.625  28.851  1.00  0.00     0.031 C 
ATOM     22  C   UNL A   1      38.284  34.307  33.917  1.00  0.00     0.029 A 
ATOM     23  C   UNL A   1      39.353  33.319  33.999  1.00  0.00     0.049 A 
ATOM     24  H   UNL A   1      39.793  31.802  32.642  1.00  0.00     0.167 HD
ATOM     25  C   UNL A   1      40.475  28.553  29.793  1.00  0.00     0.037 A 
ATOM     26  C   UNL A   1      40.243  33.231  35.003  1.00  0.00     0.037 A 
ATOM     27  C   UNL A   1      41.528  28.438  30.770  1.00  0.00     0.049 A 
ATOM     28  C   UNL A   1      41.284  32.153  34.960  1.00  0.00     0.074 A 
ATOM     29  C   UNL A   1      42.585  27.544  30.799  1.00  0.00     0.029 A 
ATOM     30  N   UNL A   1      41.650  29.233  31.902  1.00  0.00    -0.354 N 
ATOM     31  N   UNL A   1      41.478  31.232  34.049  1.00  0.00    -0.248 NA
ATOM     32  C   UNL A   1      42.228  32.102  36.082  1.00  0.00     0.031 C 
ATOM     33  C   UNL A   1      43.306  27.755  31.979  1.00  0.00     0.029 A 
ATOM     34  C   UNL A   1      42.742  28.826  32.653  1.00  0.00     0.049 A 
ATOM     35  H   UNL A   1      41.049  29.977  32.137  1.00  0.00     0.167 HD
ATOM     36  C   UNL A   1      42.578  30.502  34.477  1.00  0.00     0.074 A 
ATOM     37  C   UNL A   1      43.019  31.102  35.719  1.00  0.00     0.031 C 
ATOM     38  C   UNL A   1      43.167  29.430  33.892  1.00  0.00     0.037 A 
BRANCH  25  39
ATOM     39  C   UNL A   1      40.426  27.544  28.677  1.00  0.00     0.057 A 
ATOM     40  C   UNL A   1      39.655  26.378  28.760  1.00  0.00     0.134 A 
ATOM     41  C   UNL A   1      41.134  27.763  27.489  1.00  0.00     0.134 A 
ATOM     42  F   UNL A   1      38.956  26.100  29.871  1.00  0.00    -0.206 F 
ATOM     43  C   UNL A   1      39.615  25.451  27.715  1.00  0.00     0.040 A 
ATOM     44  C   UNL A   1      41.079  26.859  26.425  1.00  0.00     0.040 A 
ATOM     45  F   UNL A   1      41.885  28.864  27.334  1.00  0.00    -0.206 F 
ATOM     46  C   UNL A   1      40.326  25.694  26.541  1.00  0.00     0.006 A 
ENDBRANCH  25  39
BRANCH  26  47
ATOM     47  C   UNL A   1      40.162  34.185  36.137  1.00  0.00     0.057 A 
ATOM     48  C   UNL A   1      40.782  35.437  36.082  1.00  0.00     0.134 A 
ATOM     49  C   UNL A   1      39.437  33.873  37.296  1.00  0.00     0.134 A 
ATOM     50  F   UNL A   1      41.499  35.788  35.006  1.00  0.00    -0.206 F 
ATOM     51  C   UNL A   1      40.697  36.340  37.144  1.00  0.00     0.040 A 
ATOM     52  C   UNL A   1      39.318  34.776  38.350  1.00  0.00     0.040 A 
ATOM     53  F   UNL A   1      38.808  32.693  37.403  1.00  0.00    -0.206 F 
ATOM     54  C   UNL A   1      39.956  36.013  38.279  1.00  0.00     0.006 A 
ENDBRANCH  26  47
BRANCH  38  55
ATOM     55  C   UNL A   1      44.376  28.857  34.577  1.00  0.00     0.057 A 
ATOM     56  C   UNL A   1      44.280  27.799  35.491  1.00  0.00     0.134 A 
ATOM     57  C   UNL A   1      45.655  29.352  34.295  1.00  0.00     0.134 A 
ATOM     58  F   UNL A   1      43.083  27.289  35.818  1.00  0.00    -0.206 F 
ATOM     59  C   UNL A   1      45.411  27.272  36.116  1.00  0.00     0.040 A 
ATOM     60  C   UNL A   1      46.795  28.812  34.890  1.00  0.00     0.040 A 
ATOM     61  F   UNL A   1      45.819  30.360  33.424  1.00  0.00    -0.206 F 
ATOM     62  C   UNL A   1      46.674  27.773  35.809  1.00  0.00     0.006 A 
ENDBRANCH  38  55
ENDBRANCH  12  13
ENDBRANCH   5   7
ENDBRANCH   2   3
ENDBRANCH   1   2
BRANCH   1  63
ATOM     63  C   UNL A   1      31.407  30.637  26.542  1.00  0.00     0.023 C 
BRANCH  63  64
ATOM     64  C   UNL A   1      31.844  30.005  25.222  1.00  0.00     0.116 C 
BRANCH  64  65
ATOM     65  N   UNL A   1      30.761  29.991  24.250  1.00  0.00    -0.356 N 
ATOM     66  C   UNL A   1      30.271  28.968  23.491  1.00  0.00     0.223 C 
ATOM     67  H   UNL A   1      30.310  30.856  24.120  1.00  0.00     0.163 HD
ATOM     68  O   UNL A   1      29.362  29.209  22.698  1.00  0.00    -0.275 OA
BRANCH  66  69
ATOM     69  C   UNL A   1      30.824  27.568  23.680  1.00  0.00     0.079 C 
ATOM     70  C   UNL A   1      31.358  26.987  22.374  1.00  0.00     0.013 C 
ATOM     71  C   UNL A   1      29.746  26.653  24.280  1.00  0.00     0.027 C 
ATOM     72  C   UNL A   1      31.962  25.605  22.624  1.00  0.00     0.002 C 
ATOM     73  C   UNL A   1      30.286  25.237  24.556  1.00  0.00     0.079 C 
ATOM     74  C   UNL A   1      30.989  24.654  23.325  1.00  0.00     0.013 C 
BRANCH  73  75
ATOM     75  C   UNL A   1      31.179  25.313  25.803  1.00  0.00     0.225 C 
ATOM     76  O   UNL A   1      31.147  26.269  26.578  1.00  0.00    -0.275 OA
BRANCH  75  77
ATOM     77  N   UNL A   1      31.829  24.142  26.142  1.00  0.00    -0.339 N 
ATOM     78  C   UNL A   1      31.150  22.840  26.274  1.00  0.00     0.141 C 
ATOM     79  C   UNL A   1      33.294  24.110  26.126  1.00  0.00     0.146 C 
ATOM     80  C   UNL A   1      31.742  21.748  25.343  1.00  0.00     0.143 C 
ATOM     81  C   UNL A   1      33.794  23.176  25.040  1.00  0.00     0.125 C 
ATOM     82  N   UNL A   1      33.180  21.868  25.180  1.00  0.00    -0.317 N 
ATOM     83  C   UNL A   1      35.283  22.855  25.093  1.00  0.00     0.144 C 
ATOM     84  C   UNL A   1      34.075  20.868  24.847  1.00  0.00     0.317 C 
ATOM     85  N   UNL A   1      35.325  21.461  24.725  1.00  0.00    -0.336 N 
ATOM     86  O   UNL A   1      33.839  19.682  24.689  1.00  0.00    -0.249 OA
ATOM     87  H   UNL A   1      36.136  20.989  24.427  1.00  0.00     0.165 HD
ENDBRANCH  75  77
ENDBRANCH  73  75
ENDBRANCH  66  69
ENDBRANCH  64  65
ENDBRANCH  63  64
ENDBRANCH   1  63
TORSDOF 13
ENDMDL
