MODEL 1
REMARK VINA RESULT:     -12.1      0.000      0.000
REMARK SMILES Cc1c(C[NH2+]C[C@@H]2CCCO2)c(C(=O)NCCCCNC(=O)c2ccc(-c3c4nc(c(-c5c(F)cccc5F)c5ccc([nH]5)c(-c5c(F)cccc5F)c5nc(c(-c6c(F)cccc6F)c6ccc3[nH]6)C=C5)C=C4)cc2)c(C)n1Cc1ccc(F)cc1
REMARK SMILES IDX 16 1 15 2 13 3 14 4 12 6 1 7 2 8 3 9 79 10 77 11 78 12 4 13
REMARK SMILES IDX 5 14 6 17 7 18 8 19 11 20 9 21 10 22 80 23 81 24 82 25 87 26
REMARK SMILES IDX 83 27 86 28 84 29 85 30 17 31 18 32 19 33 20 34 21 35 22 37
REMARK SMILES IDX 23 38 24 39 76 40 25 41 75 42 26 43 27 44 28 45 69 46 29 47
REMARK SMILES IDX 74 48 68 49 70 50 30 51 73 52 67 53 66 54 31 56 57 57 40 58
REMARK SMILES IDX 56 59 41 60 44 61 55 62 71 63 42 64 43 65 54 67 72 68 45 69
REMARK SMILES IDX 32 70 33 71 38 72 34 73 35 74 37 75 39 76 36 77 58 78 59 79
REMARK SMILES IDX 64 80 60 81 61 82 63 83 65 84 62 85 46 86 47 87 52 88 48 89
REMARK SMILES IDX 49 90 51 91 53 92 50 93
REMARK H PARENT 15 5 5 15 5 16 20 36 70 55 44 66
REMARK Flexibility Score: inf
ROOT
ATOM      1  C   UNL A   1      34.463  28.932  27.320  1.00  0.00     0.116 C 
ENDROOT
BRANCH   1   2
ATOM      2  N   UNL A   1      33.127  28.645  27.769  1.00  0.00    -0.352 N 
ATOM      3  C   UNL A   1      32.167  27.807  27.218  1.00  0.00     0.253 C 
ATOM      4  O   UNL A   1      31.111  27.746  27.839  1.00  0.00    -0.269 OA
ATOM      5  H   UNL A   1      32.852  29.112  28.589  1.00  0.00     0.163 HD
BRANCH   3   6
ATOM      6  C   UNL A   1      32.364  27.152  25.903  1.00  0.00     0.069 A 
ATOM      7  C   UNL A   1      33.271  27.019  22.250  1.00  0.00     0.065 C 
ATOM      8  C   UNL A   1      32.943  26.879  23.699  1.00  0.00     0.025 A 
ATOM      9  C   UNL A   1      32.610  27.848  24.648  1.00  0.00     0.040 A 
ATOM     10  N   UNL A   1      32.927  25.659  24.348  1.00  0.00    -0.343 N 
ATOM     11  C   UNL A   1      32.185  25.822  25.508  1.00  0.00     0.028 A 
ATOM     12  C   UNL A   1      31.358  24.718  26.079  1.00  0.00     0.065 C 
BRANCH   9  13
ATOM     13  C   UNL A   1      32.512  29.336  24.410  1.00  0.00     0.300 C 
BRANCH  13  14
ATOM     14  N   UNL A   1      31.113  29.729  24.540  1.00  0.00    -0.340 N 
ATOM     15  H   UNL A   1      31.073  30.747  24.595  1.00  0.00     0.346 HD
ATOM     16  H   UNL A   1      30.761  29.267  25.379  1.00  0.00     0.346 HD
BRANCH  14  17
ATOM     17  C   UNL A   1      30.250  29.296  23.438  1.00  0.00     0.293 C 
BRANCH  17  18
ATOM     18  C   UNL A   1      29.763  30.411  22.492  1.00  0.00     0.173 C 
ATOM     19  C   UNL A   1      28.807  31.416  23.112  1.00  0.00     0.040 C 
ATOM     20  O   UNL A   1      29.039  29.849  21.376  1.00  0.00    -0.372 OA
ATOM     21  C   UNL A   1      28.133  31.984  21.887  1.00  0.00     0.031 C 
ATOM     22  C   UNL A   1      28.007  30.769  20.992  1.00  0.00     0.161 C 
ENDBRANCH  17  18
ENDBRANCH  14  17
ENDBRANCH  13  14
ENDBRANCH   9  13
BRANCH  10  23
ATOM     23  C   UNL A   1      33.392  24.379  23.793  1.00  0.00     0.157 C 
BRANCH  23  24
ATOM     24  C   UNL A   1      34.796  23.971  24.218  1.00  0.00    -0.028 A 
ATOM     25  C   UNL A   1      35.551  23.100  23.409  1.00  0.00     0.008 A 
ATOM     26  C   UNL A   1      35.336  24.333  25.463  1.00  0.00     0.008 A 
ATOM     27  C   UNL A   1      36.792  22.613  23.836  1.00  0.00     0.039 A 
ATOM     28  C   UNL A   1      36.577  23.852  25.891  1.00  0.00     0.039 A 
ATOM     29  C   UNL A   1      37.292  22.991  25.075  1.00  0.00     0.123 A 
ATOM     30  F   UNL A   1      38.470  22.508  25.493  1.00  0.00    -0.207 F 
ENDBRANCH  23  24
ENDBRANCH  10  23
ENDBRANCH   3   6
ENDBRANCH   1   2
BRANCH   1  31
ATOM     31  C   UNL A   1      35.023  30.321  27.614  1.00  0.00     0.023 C 
BRANCH  31  32
ATOM     32  C   UNL A   1      34.069  31.510  27.788  1.00  0.00     0.023 C 
BRANCH  32  33
ATOM     33  C   UNL A   1      34.655  32.920  27.947  1.00  0.00     0.116 C 
BRANCH  33  34
ATOM     34  N   UNL A   1      34.254  33.609  29.158  1.00  0.00    -0.352 N 
ATOM     35  C   UNL A   1      34.885  33.573  30.391  1.00  0.00     0.251 C 
ATOM     36  H   UNL A   1      33.443  34.165  29.097  1.00  0.00     0.163 HD
ATOM     37  O   UNL A   1      34.467  34.295  31.294  1.00  0.00    -0.269 OA
BRANCH  35  38
ATOM     38  C   UNL A   1      35.983  32.583  30.670  1.00  0.00     0.039 A 
ATOM     39  C   UNL A   1      37.211  32.829  30.090  1.00  0.00     0.014 A 
ATOM     40  C   UNL A   1      35.837  31.360  31.351  1.00  0.00     0.014 A 
ATOM     41  C   UNL A   1      38.266  31.895  30.242  1.00  0.00     0.010 A 
ATOM     42  C   UNL A   1      36.901  30.361  31.412  1.00  0.00     0.010 A 
ATOM     43  C   UNL A   1      38.164  30.578  30.834  1.00  0.00    -0.014 A 
BRANCH  43  44
ATOM     44  C   UNL A   1      39.281  29.502  30.359  1.00  0.00     0.031 A 
ATOM     45  C   UNL A   1      40.216  29.486  31.523  1.00  0.00     0.074 A 
ATOM     46  C   UNL A   1      39.757  28.741  29.289  1.00  0.00     0.049 A 
ATOM     47  N   UNL A   1      40.764  30.608  31.901  1.00  0.00    -0.248 NA
ATOM     48  C   UNL A   1      40.228  28.425  32.532  1.00  0.00     0.031 C 
ATOM     49  C   UNL A   1      39.289  28.725  27.894  1.00  0.00     0.029 A 
ATOM     50  N   UNL A   1      40.812  27.768  29.191  1.00  0.00    -0.354 N 
ATOM     51  C   UNL A   1      41.426  30.338  33.070  1.00  0.00     0.074 A 
ATOM     52  C   UNL A   1      40.871  29.067  33.515  1.00  0.00     0.031 C 
ATOM     53  C   UNL A   1      39.907  27.751  27.159  1.00  0.00     0.029 A 
ATOM     54  C   UNL A   1      40.905  27.032  27.952  1.00  0.00     0.049 A 
ATOM     55  H   UNL A   1      41.441  27.613  29.933  1.00  0.00     0.167 HD
ATOM     56  C   UNL A   1      42.717  30.770  33.119  1.00  0.00     0.037 A 
ATOM     57  C   UNL A   1      41.750  25.994  27.553  1.00  0.00     0.037 A 
ATOM     58  C   UNL A   1      43.636  29.692  32.881  1.00  0.00     0.049 A 
ATOM     59  C   UNL A   1      42.955  26.103  28.379  1.00  0.00     0.074 A 
ATOM     60  C   UNL A   1      43.694  28.391  33.343  1.00  0.00     0.029 A 
ATOM     61  N   UNL A   1      44.338  29.722  31.696  1.00  0.00    -0.354 N 
ATOM     62  N   UNL A   1      43.882  26.965  28.099  1.00  0.00    -0.248 NA
ATOM     63  C   UNL A   1      43.258  25.184  29.470  1.00  0.00     0.031 C 
ATOM     64  C   UNL A   1      43.930  27.618  32.186  1.00  0.00     0.029 A 
ATOM     65  C   UNL A   1      44.398  28.448  31.176  1.00  0.00     0.049 A 
ATOM     66  H   UNL A   1      44.733  30.525  31.287  1.00  0.00     0.167 HD
ATOM     67  C   UNL A   1      44.575  27.050  29.259  1.00  0.00     0.074 A 
ATOM     68  C   UNL A   1      44.362  25.780  29.928  1.00  0.00     0.031 C 
ATOM     69  C   UNL A   1      44.700  28.294  29.776  1.00  0.00     0.037 A 
BRANCH  56  70
ATOM     70  C   UNL A   1      42.874  32.178  32.609  1.00  0.00     0.057 A 
ATOM     71  C   UNL A   1      42.931  33.227  33.527  1.00  0.00     0.134 A 
ATOM     72  C   UNL A   1      42.743  32.527  31.249  1.00  0.00     0.134 A 
ATOM     73  F   UNL A   1      43.102  32.973  34.834  1.00  0.00    -0.206 F 
ATOM     74  C   UNL A   1      42.789  34.558  33.125  1.00  0.00     0.040 A 
ATOM     75  C   UNL A   1      42.537  33.844  30.843  1.00  0.00     0.040 A 
ATOM     76  F   UNL A   1      42.776  31.586  30.291  1.00  0.00    -0.206 F 
ATOM     77  C   UNL A   1      42.547  34.866  31.786  1.00  0.00     0.006 A 
ENDBRANCH  56  70
BRANCH  57  78
ATOM     78  C   UNL A   1      42.009  24.908  26.468  1.00  0.00     0.057 A 
ATOM     79  C   UNL A   1      42.984  25.102  25.425  1.00  0.00     0.134 A 
ATOM     80  C   UNL A   1      41.651  23.566  26.625  1.00  0.00     0.134 A 
ATOM     81  F   UNL A   1      43.420  26.320  25.078  1.00  0.00    -0.206 F 
ATOM     82  C   UNL A   1      43.625  24.069  24.716  1.00  0.00     0.040 A 
ATOM     83  C   UNL A   1      42.266  22.515  25.886  1.00  0.00     0.040 A 
ATOM     84  F   UNL A   1      40.755  23.213  27.555  1.00  0.00    -0.206 F 
ATOM     85  C   UNL A   1      43.281  22.757  24.961  1.00  0.00     0.006 A 
ENDBRANCH  57  78
BRANCH  69  86
ATOM     86  C   UNL A   1      44.971  29.426  28.796  1.00  0.00     0.057 A 
ATOM     87  C   UNL A   1      44.042  30.069  27.946  1.00  0.00     0.134 A 
ATOM     88  C   UNL A   1      46.301  29.841  28.650  1.00  0.00     0.134 A 
ATOM     89  F   UNL A   1      42.718  29.881  28.047  1.00  0.00    -0.206 F 
ATOM     90  C   UNL A   1      44.435  30.976  26.952  1.00  0.00     0.040 A 
ATOM     91  C   UNL A   1      46.697  30.793  27.705  1.00  0.00     0.040 A 
ATOM     92  F   UNL A   1      47.255  29.331  29.442  1.00  0.00    -0.206 F 
ATOM     93  C   UNL A   1      45.768  31.340  26.828  1.00  0.00     0.006 A 
ENDBRANCH  69  86
ENDBRANCH  43  44
ENDBRANCH  35  38
ENDBRANCH  33  34
ENDBRANCH  32  33
ENDBRANCH  31  32
ENDBRANCH   1  31
TORSDOF 17
ENDMDL
MODEL 2
REMARK VINA RESULT:     -12.1      3.301      8.364
REMARK SMILES Cc1c(C[NH2+]C[C@@H]2CCCO2)c(C(=O)NCCCCNC(=O)c2ccc(-c3c4nc(c(-c5c(F)cccc5F)c5ccc([nH]5)c(-c5c(F)cccc5F)c5nc(c(-c6c(F)cccc6F)c6ccc3[nH]6)C=C5)C=C4)cc2)c(C)n1Cc1ccc(F)cc1
REMARK SMILES IDX 16 1 15 2 13 3 14 4 12 6 1 7 2 8 3 9 79 10 77 11 78 12 4 13
REMARK SMILES IDX 5 14 6 17 7 18 8 19 11 20 9 21 10 22 80 23 81 24 82 25 87 26
REMARK SMILES IDX 83 27 86 28 84 29 85 30 17 31 18 32 19 33 20 34 21 35 22 37
REMARK SMILES IDX 23 38 24 39 76 40 25 41 75 42 26 43 27 44 28 45 69 46 29 47
REMARK SMILES IDX 74 48 68 49 70 50 30 51 73 52 67 53 66 54 31 56 57 57 40 58
REMARK SMILES IDX 56 59 41 60 44 61 55 62 71 63 42 64 43 65 54 67 72 68 45 69
REMARK SMILES IDX 32 70 33 71 38 72 34 73 35 74 37 75 39 76 36 77 58 78 59 79
REMARK SMILES IDX 64 80 60 81 61 82 63 83 65 84 62 85 46 86 47 87 52 88 48 89
REMARK SMILES IDX 49 90 51 91 53 92 50 93
REMARK H PARENT 15 5 5 15 5 16 20 36 70 55 44 66
REMARK Flexibility Score: inf
ROOT
ATOM      1  C   UNL A   1      34.268  23.107  22.929  1.00  0.00     0.116 C 
ENDROOT
BRANCH   1   2
ATOM      2  N   UNL A   1      33.746  23.857  21.818  1.00  0.00    -0.352 N 
ATOM      3  C   UNL A   1      33.160  25.115  21.794  1.00  0.00     0.253 C 
ATOM      4  O   UNL A   1      32.825  25.511  20.683  1.00  0.00    -0.269 OA
ATOM      5  H   UNL A   1      33.815  23.411  20.944  1.00  0.00     0.163 HD
BRANCH   3   6
ATOM      6  C   UNL A   1      32.841  25.852  23.040  1.00  0.00     0.069 A 
ATOM      7  C   UNL A   1      31.062  26.439  26.307  1.00  0.00     0.065 C 
ATOM      8  C   UNL A   1      31.904  26.328  25.080  1.00  0.00     0.025 A 
ATOM      9  C   UNL A   1      31.734  25.548  23.934  1.00  0.00     0.040 A 
ATOM     10  N   UNL A   1      33.069  27.050  24.905  1.00  0.00    -0.343 N 
ATOM     11  C   UNL A   1      33.348  27.054  23.547  1.00  0.00     0.028 A 
ATOM     12  C   UNL A   1      34.017  28.210  22.880  1.00  0.00     0.065 C 
BRANCH   9  13
ATOM     13  C   UNL A   1      30.604  24.581  23.671  1.00  0.00     0.300 C 
BRANCH  13  14
ATOM     14  N   UNL A   1      31.015  23.261  24.138  1.00  0.00    -0.340 N 
ATOM     15  H   UNL A   1      32.018  23.166  23.979  1.00  0.00     0.346 HD
ATOM     16  H   UNL A   1      30.459  22.584  23.614  1.00  0.00     0.346 HD
BRANCH  14  17
ATOM     17  C   UNL A   1      30.750  23.002  25.555  1.00  0.00     0.293 C 
BRANCH  17  18
ATOM     18  C   UNL A   1      31.853  22.239  26.314  1.00  0.00     0.173 C 
ATOM     19  C   UNL A   1      33.093  23.053  26.646  1.00  0.00     0.040 C 
ATOM     20  O   UNL A   1      32.336  21.130  25.525  1.00  0.00    -0.372 OA
ATOM     21  C   UNL A   1      34.117  21.964  26.856  1.00  0.00     0.031 C 
ATOM     22  C   UNL A   1      33.732  20.946  25.804  1.00  0.00     0.161 C 
ENDBRANCH  17  18
ENDBRANCH  14  17
ENDBRANCH  13  14
ENDBRANCH   9  13
BRANCH  10  23
ATOM     23  C   UNL A   1      33.742  27.865  25.927  1.00  0.00     0.157 C 
BRANCH  23  24
ATOM     24  C   UNL A   1      33.153  29.255  26.126  1.00  0.00    -0.028 A 
ATOM     25  C   UNL A   1      33.767  30.160  27.013  1.00  0.00     0.008 A 
ATOM     26  C   UNL A   1      31.932  29.640  25.547  1.00  0.00     0.008 A 
ATOM     27  C   UNL A   1      33.178  31.395  27.307  1.00  0.00     0.039 A 
ATOM     28  C   UNL A   1      31.343  30.876  25.834  1.00  0.00     0.039 A 
ATOM     29  C   UNL A   1      31.969  31.741  26.717  1.00  0.00     0.123 A 
ATOM     30  F   UNL A   1      31.394  32.914  27.014  1.00  0.00    -0.207 F 
ENDBRANCH  23  24
ENDBRANCH  10  23
ENDBRANCH   3   6
ENDBRANCH   1   2
BRANCH   1  31
ATOM     31  C   UNL A   1      35.376  23.751  23.758  1.00  0.00     0.023 C 
BRANCH  31  32
ATOM     32  C   UNL A   1      36.592  22.920  24.188  1.00  0.00     0.023 C 
BRANCH  32  33
ATOM     33  C   UNL A   1      37.469  23.422  25.344  1.00  0.00     0.116 C 
BRANCH  33  34
ATOM     34  N   UNL A   1      38.530  22.515  25.736  1.00  0.00    -0.352 N 
ATOM     35  C   UNL A   1      39.579  22.777  26.603  1.00  0.00     0.251 C 
ATOM     36  H   UNL A   1      38.501  21.612  25.345  1.00  0.00     0.163 HD
ATOM     37  O   UNL A   1      40.343  21.863  26.905  1.00  0.00    -0.269 OA
BRANCH  35  38
ATOM     38  C   UNL A   1      39.863  24.177  27.074  1.00  0.00     0.039 A 
ATOM     39  C   UNL A   1      39.261  24.578  28.249  1.00  0.00     0.014 A 
ATOM     40  C   UNL A   1      40.571  25.161  26.358  1.00  0.00     0.014 A 
ATOM     41  C   UNL A   1      39.416  25.910  28.708  1.00  0.00     0.010 A 
ATOM     42  C   UNL A   1      40.638  26.555  26.790  1.00  0.00     0.010 A 
ATOM     43  C   UNL A   1      40.037  26.997  27.982  1.00  0.00    -0.014 A 
BRANCH  43  44
ATOM     44  C   UNL A   1      39.569  28.489  28.410  1.00  0.00     0.031 A 
ATOM     45  C   UNL A   1      40.875  29.174  28.643  1.00  0.00     0.074 A 
ATOM     46  C   UNL A   1      38.482  29.292  28.766  1.00  0.00     0.049 A 
ATOM     47  N   UNL A   1      41.702  28.665  29.513  1.00  0.00    -0.248 NA
ATOM     48  C   UNL A   1      41.485  30.094  27.679  1.00  0.00     0.031 C 
ATOM     49  C   UNL A   1      37.076  28.902  28.954  1.00  0.00     0.029 A 
ATOM     50  N   UNL A   1      38.375  30.696  29.058  1.00  0.00    -0.354 N 
ATOM     51  C   UNL A   1      42.866  29.380  29.401  1.00  0.00     0.074 A 
ATOM     52  C   UNL A   1      42.747  30.068  28.124  1.00  0.00     0.031 C 
ATOM     53  C   UNL A   1      36.269  29.986  29.169  1.00  0.00     0.029 A 
ATOM     54  C   UNL A   1      37.041  31.229  29.209  1.00  0.00     0.049 A 
ATOM     55  H   UNL A   1      39.172  31.266  29.151  1.00  0.00     0.167 HD
ATOM     56  C   UNL A   1      43.378  29.842  30.577  1.00  0.00     0.037 A 
ATOM     57  C   UNL A   1      36.583  32.531  29.426  1.00  0.00     0.037 A 
ATOM     58  C   UNL A   1      43.074  31.233  30.764  1.00  0.00     0.049 A 
ATOM     59  C   UNL A   1      37.687  33.256  30.058  1.00  0.00     0.074 A 
ATOM     60  C   UNL A   1      43.122  32.325  29.919  1.00  0.00     0.029 A 
ATOM     61  N   UNL A   1      42.180  31.546  31.763  1.00  0.00    -0.354 N 
ATOM     62  N   UNL A   1      37.932  33.130  31.325  1.00  0.00    -0.248 NA
ATOM     63  C   UNL A   1      38.491  34.251  29.357  1.00  0.00     0.031 C 
ATOM     64  C   UNL A   1      41.889  32.982  30.123  1.00  0.00     0.029 A 
ATOM     65  C   UNL A   1      41.335  32.539  31.317  1.00  0.00     0.049 A 
ATOM     66  H   UNL A   1      42.149  31.128  32.654  1.00  0.00     0.167 HD
ATOM     67  C   UNL A   1      39.201  33.586  31.434  1.00  0.00     0.074 A 
ATOM     68  C   UNL A   1      39.378  34.503  30.324  1.00  0.00     0.031 C 
ATOM     69  C   UNL A   1      40.083  32.731  32.003  1.00  0.00     0.037 A 
BRANCH  56  70
ATOM     70  C   UNL A   1      43.375  28.795  31.659  1.00  0.00     0.057 A 
ATOM     71  C   UNL A   1      42.207  28.587  32.393  1.00  0.00     0.134 A 
ATOM     72  C   UNL A   1      44.544  28.163  32.128  1.00  0.00     0.134 A 
ATOM     73  F   UNL A   1      41.045  29.117  31.981  1.00  0.00    -0.206 F 
ATOM     74  C   UNL A   1      42.213  27.850  33.581  1.00  0.00     0.040 A 
ATOM     75  C   UNL A   1      44.577  27.479  33.342  1.00  0.00     0.040 A 
ATOM     76  F   UNL A   1      45.690  28.231  31.430  1.00  0.00    -0.206 F 
ATOM     77  C   UNL A   1      43.408  27.331  34.080  1.00  0.00     0.006 A 
ENDBRANCH  56  70
BRANCH  57  78
ATOM     78  C   UNL A   1      35.328  33.452  29.449  1.00  0.00     0.057 A 
ATOM     79  C   UNL A   1      34.669  33.797  30.684  1.00  0.00     0.134 A 
ATOM     80  C   UNL A   1      34.988  34.312  28.402  1.00  0.00     0.134 A 
ATOM     81  F   UNL A   1      34.817  33.065  31.797  1.00  0.00    -0.206 F 
ATOM     82  C   UNL A   1      33.873  34.940  30.882  1.00  0.00     0.040 A 
ATOM     83  C   UNL A   1      34.152  35.450  28.582  1.00  0.00     0.040 A 
ATOM     84  F   UNL A   1      35.516  34.131  27.185  1.00  0.00    -0.206 F 
ATOM     85  C   UNL A   1      33.626  35.792  29.828  1.00  0.00     0.006 A 
ENDBRANCH  57  78
BRANCH  69  86
ATOM     86  C   UNL A   1      39.595  31.933  33.203  1.00  0.00     0.057 A 
ATOM     87  C   UNL A   1      38.750  30.799  33.196  1.00  0.00     0.134 A 
ATOM     88  C   UNL A   1      39.953  32.403  34.473  1.00  0.00     0.134 A 
ATOM     89  F   UNL A   1      38.421  30.149  32.070  1.00  0.00    -0.206 F 
ATOM     90  C   UNL A   1      38.217  30.252  34.371  1.00  0.00     0.040 A 
ATOM     91  C   UNL A   1      39.478  31.826  35.655  1.00  0.00     0.040 A 
ATOM     92  F   UNL A   1      40.791  33.444  34.593  1.00  0.00    -0.206 F 
ATOM     93  C   UNL A   1      38.581  30.766  35.607  1.00  0.00     0.006 A 
ENDBRANCH  69  86
ENDBRANCH  43  44
ENDBRANCH  35  38
ENDBRANCH  33  34
ENDBRANCH  32  33
ENDBRANCH  31  32
ENDBRANCH   1  31
TORSDOF 17
ENDMDL
MODEL 3
REMARK VINA RESULT:     -12.0      1.614      2.058
REMARK SMILES Cc1c(C[NH2+]C[C@@H]2CCCO2)c(C(=O)NCCCCNC(=O)c2ccc(-c3c4nc(c(-c5c(F)cccc5F)c5ccc([nH]5)c(-c5c(F)cccc5F)c5nc(c(-c6c(F)cccc6F)c6ccc3[nH]6)C=C5)C=C4)cc2)c(C)n1Cc1ccc(F)cc1
REMARK SMILES IDX 16 1 15 2 13 3 14 4 12 6 1 7 2 8 3 9 79 10 77 11 78 12 4 13
REMARK SMILES IDX 5 14 6 17 7 18 8 19 11 20 9 21 10 22 80 23 81 24 82 25 87 26
REMARK SMILES IDX 83 27 86 28 84 29 85 30 17 31 18 32 19 33 20 34 21 35 22 37
REMARK SMILES IDX 23 38 24 39 76 40 25 41 75 42 26 43 27 44 28 45 69 46 29 47
REMARK SMILES IDX 74 48 68 49 70 50 30 51 73 52 67 53 66 54 31 56 57 57 40 58
REMARK SMILES IDX 56 59 41 60 44 61 55 62 71 63 42 64 43 65 54 67 72 68 45 69
REMARK SMILES IDX 32 70 33 71 38 72 34 73 35 74 37 75 39 76 36 77 58 78 59 79
REMARK SMILES IDX 64 80 60 81 61 82 63 83 65 84 62 85 46 86 47 87 52 88 48 89
REMARK SMILES IDX 49 90 51 91 53 92 50 93
REMARK H PARENT 15 5 5 15 5 16 20 36 70 55 44 66
REMARK Flexibility Score: inf
ROOT
ATOM      1  C   UNL A   1      32.133  26.939  26.692  1.00  0.00     0.116 C 
ENDROOT
BRANCH   1   2
ATOM      2  N   UNL A   1      31.168  25.894  26.908  1.00  0.00    -0.352 N 
ATOM      3  C   UNL A   1      30.934  24.739  26.175  1.00  0.00     0.253 C 
ATOM      4  O   UNL A   1      30.047  24.014  26.616  1.00  0.00    -0.269 OA
ATOM      5  H   UNL A   1      30.588  26.016  27.693  1.00  0.00     0.163 HD
BRANCH   3   6
ATOM      6  C   UNL A   1      31.612  24.482  24.883  1.00  0.00     0.069 A 
ATOM      7  C   UNL A   1      32.648  25.267  21.348  1.00  0.00     0.065 C 
ATOM      8  C   UNL A   1      32.389  24.833  22.752  1.00  0.00     0.025 A 
ATOM      9  C   UNL A   1      31.428  25.263  23.669  1.00  0.00     0.040 A 
ATOM     10  N   UNL A   1      33.138  23.857  23.383  1.00  0.00    -0.343 N 
ATOM     11  C   UNL A   1      32.391  23.399  24.458  1.00  0.00     0.028 A 
ATOM     12  C   UNL A   1      32.465  21.984  24.926  1.00  0.00     0.065 C 
BRANCH   9  13
ATOM     13  C   UNL A   1      30.385  26.332  23.436  1.00  0.00     0.300 C 
BRANCH  13  14
ATOM     14  N   UNL A   1      31.060  27.625  23.386  1.00  0.00    -0.340 N 
ATOM     15  H   UNL A   1      31.263  27.839  22.410  1.00  0.00     0.346 HD
ATOM     16  H   UNL A   1      31.898  27.534  23.961  1.00  0.00     0.346 HD
BRANCH  14  17
ATOM     17  C   UNL A   1      30.293  28.739  23.949  1.00  0.00     0.293 C 
BRANCH  17  18
ATOM     18  C   UNL A   1      29.888  29.843  22.953  1.00  0.00     0.173 C 
ATOM     19  C   UNL A   1      29.018  30.948  23.529  1.00  0.00     0.040 C 
ATOM     20  O   UNL A   1      29.115  29.289  21.867  1.00  0.00    -0.372 OA
ATOM     21  C   UNL A   1      28.383  31.509  22.280  1.00  0.00     0.031 C 
ATOM     22  C   UNL A   1      28.155  30.268  21.444  1.00  0.00     0.161 C 
ENDBRANCH  17  18
ENDBRANCH  14  17
ENDBRANCH  13  14
ENDBRANCH   9  13
BRANCH  10  23
ATOM     23  C   UNL A   1      34.374  23.250  22.869  1.00  0.00     0.157 C 
BRANCH  23  24
ATOM     24  C   UNL A   1      35.542  23.253  23.845  1.00  0.00    -0.028 A 
ATOM     25  C   UNL A   1      36.540  22.264  23.753  1.00  0.00     0.008 A 
ATOM     26  C   UNL A   1      35.607  24.142  24.932  1.00  0.00     0.008 A 
ATOM     27  C   UNL A   1      37.555  22.171  24.713  1.00  0.00     0.039 A 
ATOM     28  C   UNL A   1      36.623  24.056  25.889  1.00  0.00     0.039 A 
ATOM     29  C   UNL A   1      37.585  23.067  25.774  1.00  0.00     0.123 A 
ATOM     30  F   UNL A   1      38.545  22.965  26.703  1.00  0.00    -0.207 F 
ENDBRANCH  23  24
ENDBRANCH  10  23
ENDBRANCH   3   6
ENDBRANCH   1   2
BRANCH   1  31
ATOM     31  C   UNL A   1      31.986  28.216  27.514  1.00  0.00     0.023 C 
BRANCH  31  32
ATOM     32  C   UNL A   1      32.505  29.549  26.958  1.00  0.00     0.023 C 
BRANCH  32  33
ATOM     33  C   UNL A   1      33.872  30.070  27.421  1.00  0.00     0.116 C 
BRANCH  33  34
ATOM     34  N   UNL A   1      33.838  31.370  28.064  1.00  0.00    -0.352 N 
ATOM     35  C   UNL A   1      34.844  31.963  28.809  1.00  0.00     0.251 C 
ATOM     36  H   UNL A   1      33.008  31.888  27.958  1.00  0.00     0.163 HD
ATOM     37  O   UNL A   1      34.688  33.116  29.207  1.00  0.00    -0.269 OA
BRANCH  35  38
ATOM     38  C   UNL A   1      36.056  31.181  29.237  1.00  0.00     0.039 A 
ATOM     39  C   UNL A   1      37.090  31.081  28.329  1.00  0.00     0.014 A 
ATOM     40  C   UNL A   1      36.174  30.425  30.418  1.00  0.00     0.014 A 
ATOM     41  C   UNL A   1      38.226  30.289  28.633  1.00  0.00     0.010 A 
ATOM     42  C   UNL A   1      37.303  29.533  30.673  1.00  0.00     0.010 A 
ATOM     43  C   UNL A   1      38.375  29.408  29.771  1.00  0.00    -0.014 A 
BRANCH  43  44
ATOM     44  C   UNL A   1      39.436  28.196  29.592  1.00  0.00     0.031 A 
ATOM     45  C   UNL A   1      40.295  28.348  30.803  1.00  0.00     0.074 A 
ATOM     46  C   UNL A   1      39.920  27.215  28.722  1.00  0.00     0.049 A 
ATOM     47  N   UNL A   1      40.900  29.487  31.002  1.00  0.00    -0.248 NA
ATOM     48  C   UNL A   1      40.168  27.503  31.992  1.00  0.00     0.031 C 
ATOM     49  C   UNL A   1      39.537  26.958  27.324  1.00  0.00     0.029 A 
ATOM     50  N   UNL A   1      40.905  26.180  28.888  1.00  0.00    -0.354 N 
ATOM     51  C   UNL A   1      41.468  29.408  32.246  1.00  0.00     0.074 A 
ATOM     52  C   UNL A   1      40.796  28.283  32.881  1.00  0.00     0.031 C 
ATOM     53  C   UNL A   1      40.126  25.825  26.834  1.00  0.00     0.029 A 
ATOM     54  C   UNL A   1      41.019  25.214  27.820  1.00  0.00     0.049 A 
ATOM     55  H   UNL A   1      41.474  26.133  29.690  1.00  0.00     0.167 HD
ATOM     56  C   UNL A   1      42.782  29.764  32.308  1.00  0.00     0.037 A 
ATOM     57  C   UNL A   1      41.809  24.069  27.687  1.00  0.00     0.037 A 
ATOM     58  C   UNL A   1      43.632  28.606  32.346  1.00  0.00     0.049 A 
ATOM     59  C   UNL A   1      42.965  24.263  28.564  1.00  0.00     0.074 A 
ATOM     60  C   UNL A   1      43.567  27.418  33.048  1.00  0.00     0.029 A 
ATOM     61  N   UNL A   1      44.405  28.365  31.232  1.00  0.00    -0.354 N 
ATOM     62  N   UNL A   1      43.968  24.998  28.196  1.00  0.00    -0.248 NA
ATOM     63  C   UNL A   1      43.134  23.555  29.828  1.00  0.00     0.031 C 
ATOM     64  C   UNL A   1      43.815  26.423  32.078  1.00  0.00     0.029 A 
ATOM     65  C   UNL A   1      44.404  27.013  30.967  1.00  0.00     0.049 A 
ATOM     66  H   UNL A   1      44.882  29.048  30.708  1.00  0.00     0.167 HD
ATOM     67  C   UNL A   1      44.594  25.263  29.366  1.00  0.00     0.074 A 
ATOM     68  C   UNL A   1      44.249  24.161  30.245  1.00  0.00     0.031 C 
ATOM     69  C   UNL A   1      44.778  26.574  29.648  1.00  0.00     0.037 A 
BRANCH  56  70
ATOM     70  C   UNL A   1      43.072  31.035  31.555  1.00  0.00     0.057 A 
ATOM     71  C   UNL A   1      43.120  32.240  32.256  1.00  0.00     0.134 A 
ATOM     72  C   UNL A   1      43.079  31.115  30.147  1.00  0.00     0.134 A 
ATOM     73  F   UNL A   1      43.164  32.241  33.597  1.00  0.00    -0.206 F 
ATOM     74  C   UNL A   1      43.098  33.471  31.594  1.00  0.00     0.040 A 
ATOM     75  C   UNL A   1      42.994  32.334  29.478  1.00  0.00     0.040 A 
ATOM     76  F   UNL A   1      43.131  30.003  29.395  1.00  0.00    -0.206 F 
ATOM     77  C   UNL A   1      42.991  33.520  30.204  1.00  0.00     0.006 A 
ENDBRANCH  56  70
BRANCH  57  78
ATOM     78  C   UNL A   1      42.052  22.780  26.848  1.00  0.00     0.057 A 
ATOM     79  C   UNL A   1      43.041  22.739  25.801  1.00  0.00     0.134 A 
ATOM     80  C   UNL A   1      41.664  21.506  27.269  1.00  0.00     0.134 A 
ATOM     81  F   UNL A   1      43.507  23.853  25.219  1.00  0.00    -0.206 F 
ATOM     82  C   UNL A   1      43.665  21.571  25.324  1.00  0.00     0.040 A 
ATOM     83  C   UNL A   1      42.261  20.315  26.767  1.00  0.00     0.040 A 
ATOM     84  F   UNL A   1      40.752  21.367  28.240  1.00  0.00    -0.206 F 
ATOM     85  C   UNL A   1      43.289  20.343  25.826  1.00  0.00     0.006 A 
ENDBRANCH  57  78
BRANCH  69  86
ATOM     86  C   UNL A   1      45.190  27.477  28.494  1.00  0.00     0.057 A 
ATOM     87  C   UNL A   1      44.365  27.992  27.467  1.00  0.00     0.134 A 
ATOM     88  C   UNL A   1      46.552  27.782  28.376  1.00  0.00     0.134 A 
ATOM     89  F   UNL A   1      43.028  27.900  27.499  1.00  0.00    -0.206 F 
ATOM     90  C   UNL A   1      44.884  28.665  26.353  1.00  0.00     0.040 A 
ATOM     91  C   UNL A   1      47.074  28.508  27.300  1.00  0.00     0.040 A 
ATOM     92  F   UNL A   1      47.415  27.384  29.323  1.00  0.00    -0.206 F 
ATOM     93  C   UNL A   1      46.244  28.925  26.266  1.00  0.00     0.006 A 
ENDBRANCH  69  86
ENDBRANCH  43  44
ENDBRANCH  35  38
ENDBRANCH  33  34
ENDBRANCH  32  33
ENDBRANCH  31  32
ENDBRANCH   1  31
TORSDOF 17
ENDMDL
