MODEL 1
REMARK VINA RESULT:     -12.2      0.000      0.000
REMARK SMILES CC1=C(C)C[C@@H](C(=O)NCCCCNC(=O)c2ccc(-c3c4nc(c(-c5c(F)cccc5F)c5ccc([nH]5)c(-c5c(F)cccc5F)c5nc(c(-c6c(F)cccc6F)c6ccc3[nH]6)C=C5)C=C4)cc2)[C@@H](C(=O)NCC[NH+]2CCOCC2)C1
REMARK SMILES IDX 10 1 9 2 7 3 8 4 6 6 1 7 2 8 3 9 83 10 4 11 5 12 71 13 72 14
REMARK SMILES IDX 73 15 74 16 75 18 76 19 77 20 78 21 82 22 79 24 81 25 80 26
REMARK SMILES IDX 11 27 12 28 13 29 14 30 15 31 16 33 17 34 18 35 70 36 19 37
REMARK SMILES IDX 69 38 20 39 21 40 22 41 63 42 23 43 68 44 62 45 64 46 24 47
REMARK SMILES IDX 67 48 61 49 60 50 25 52 51 53 34 54 50 55 35 56 38 57 49 58
REMARK SMILES IDX 65 59 36 60 37 61 48 63 66 64 39 65 26 66 27 67 32 68 28 69
REMARK SMILES IDX 29 70 31 71 33 72 30 73 52 74 53 75 58 76 54 77 55 78 57 79
REMARK SMILES IDX 59 80 56 81 40 82 41 83 46 84 42 85 43 86 45 87 47 88 44 89
REMARK H PARENT 9 5 74 17 77 23 14 32 64 51 38 62
REMARK Flexibility Score: inf
ROOT
ATOM      1  C   UNL A   1      35.743  21.652  25.067  1.00  0.00     0.116 C 
ENDROOT
BRANCH   1   2
ATOM      2  N   UNL A   1      35.382  22.294  26.306  1.00  0.00    -0.356 N 
ATOM      3  C   UNL A   1      34.388  23.165  26.612  1.00  0.00     0.224 C 
ATOM      4  O   UNL A   1      34.143  23.306  27.817  1.00  0.00    -0.275 OA
ATOM      5  H   UNL A   1      35.961  22.058  27.066  1.00  0.00     0.163 HD
BRANCH   3   6
ATOM      6  C   UNL A   1      33.528  23.911  25.574  1.00  0.00     0.095 C 
ATOM      7  C   UNL A   1      31.586  27.631  26.996  1.00  0.00     0.039 C 
ATOM      8  C   UNL A   1      32.263  26.460  26.324  1.00  0.00    -0.074 C 
ATOM      9  C   UNL A   1      33.528  26.477  25.851  1.00  0.00    -0.074 C 
ATOM     10  C   UNL A   1      31.406  25.210  26.313  1.00  0.00     0.045 C 
ATOM     11  C   UNL A   1      34.486  27.639  25.962  1.00  0.00     0.039 C 
ATOM     12  C   UNL A   1      34.151  25.261  25.215  1.00  0.00     0.045 C 
ATOM     13  C   UNL A   1      31.987  23.912  25.722  1.00  0.00     0.095 C 
BRANCH  13  14
ATOM     14  C   UNL A   1      31.534  22.638  26.436  1.00  0.00     0.224 C 
ATOM     15  O   UNL A   1      31.305  22.599  27.646  1.00  0.00    -0.275 OA
ATOM     16  N   UNL A   1      31.366  21.467  25.785  1.00  0.00    -0.350 N 
ATOM     17  H   UNL A   1      30.552  20.973  26.035  1.00  0.00     0.163 HD
BRANCH  16  18
ATOM     18  C   UNL A   1      32.179  20.815  24.786  1.00  0.00     0.177 C 
BRANCH  18  19
ATOM     19  C   UNL A   1      32.879  19.581  25.404  1.00  0.00     0.283 C 
BRANCH  19  20
ATOM     20  N   UNL A   1      32.595  18.267  24.831  1.00  0.00    -0.330 N 
ATOM     21  C   UNL A   1      32.673  17.076  25.668  1.00  0.00     0.291 C 
ATOM     22  C   UNL A   1      32.869  18.016  23.416  1.00  0.00     0.291 C 
ATOM     23  H   UNL A   1      31.596  18.471  24.836  1.00  0.00     0.348 HD
ATOM     24  C   UNL A   1      33.875  16.175  25.343  1.00  0.00     0.221 C 
ATOM     25  C   UNL A   1      34.001  17.010  23.126  1.00  0.00     0.221 C 
ATOM     26  O   UNL A   1      33.918  15.841  23.952  1.00  0.00    -0.370 OA
ENDBRANCH  19  20
ENDBRANCH  18  19
ENDBRANCH  16  18
ENDBRANCH  13  14
ENDBRANCH   3   6
ENDBRANCH   1   2
BRANCH   1  27
ATOM     27  C   UNL A   1      37.224  21.758  24.730  1.00  0.00     0.023 C 
BRANCH  27  28
ATOM     28  C   UNL A   1      38.015  20.465  24.881  1.00  0.00     0.023 C 
BRANCH  28  29
ATOM     29  C   UNL A   1      39.132  20.518  25.911  1.00  0.00     0.116 C 
BRANCH  29  30
ATOM     30  N   UNL A   1      40.017  19.359  25.874  1.00  0.00    -0.352 N 
ATOM     31  C   UNL A   1      41.371  19.319  26.100  1.00  0.00     0.251 C 
ATOM     32  H   UNL A   1      39.590  18.499  25.661  1.00  0.00     0.163 HD
ATOM     33  O   UNL A   1      42.005  18.280  25.945  1.00  0.00    -0.269 OA
BRANCH  31  34
ATOM     34  C   UNL A   1      42.059  20.564  26.490  1.00  0.00     0.039 A 
ATOM     35  C   UNL A   1      42.651  21.349  25.499  1.00  0.00     0.014 A 
ATOM     36  C   UNL A   1      42.039  20.989  27.820  1.00  0.00     0.014 A 
ATOM     37  C   UNL A   1      43.156  22.605  25.833  1.00  0.00     0.010 A 
ATOM     38  C   UNL A   1      42.465  22.273  28.134  1.00  0.00     0.010 A 
ATOM     39  C   UNL A   1      43.026  23.094  27.144  1.00  0.00    -0.014 A 
BRANCH  39  40
ATOM     40  C   UNL A   1      43.471  24.460  27.506  1.00  0.00     0.031 A 
ATOM     41  C   UNL A   1      42.458  25.494  27.910  1.00  0.00     0.074 A 
ATOM     42  C   UNL A   1      44.772  24.790  27.396  1.00  0.00     0.049 A 
ATOM     43  N   UNL A   1      42.633  26.762  28.182  1.00  0.00    -0.248 NA
ATOM     44  C   UNL A   1      41.055  25.053  27.981  1.00  0.00     0.031 C 
ATOM     45  C   UNL A   1      45.842  23.891  26.958  1.00  0.00     0.029 A 
ATOM     46  N   UNL A   1      45.415  25.979  27.633  1.00  0.00    -0.354 N 
ATOM     47  C   UNL A   1      41.366  27.272  28.430  1.00  0.00     0.074 A 
ATOM     48  C   UNL A   1      40.425  26.192  28.228  1.00  0.00     0.031 C 
ATOM     49  C   UNL A   1      47.012  24.552  26.989  1.00  0.00     0.029 A 
ATOM     50  C   UNL A   1      46.769  25.928  27.412  1.00  0.00     0.049 A 
ATOM     51  H   UNL A   1      44.949  26.793  27.934  1.00  0.00     0.167 HD
ATOM     52  C   UNL A   1      41.019  28.522  28.813  1.00  0.00     0.037 A 
ATOM     53  C   UNL A   1      47.709  26.884  27.535  1.00  0.00     0.037 A 
ATOM     54  C   UNL A   1      41.962  29.581  29.058  1.00  0.00     0.049 A 
ATOM     55  C   UNL A   1      47.299  28.259  27.983  1.00  0.00     0.074 A 
ATOM     56  C   UNL A   1      41.719  30.858  29.532  1.00  0.00     0.029 A 
ATOM     57  N   UNL A   1      43.329  29.482  28.849  1.00  0.00    -0.354 N 
ATOM     58  N   UNL A   1      46.107  28.707  28.289  1.00  0.00    -0.248 NA
ATOM     59  C   UNL A   1      48.369  29.260  28.109  1.00  0.00     0.031 C 
ATOM     60  C   UNL A   1      42.937  31.545  29.574  1.00  0.00     0.029 A 
ATOM     61  C   UNL A   1      43.942  30.682  29.166  1.00  0.00     0.049 A 
ATOM     62  H   UNL A   1      43.794  28.678  28.523  1.00  0.00     0.167 HD
ATOM     63  C   UNL A   1      46.284  30.031  28.669  1.00  0.00     0.074 A 
ATOM     64  C   UNL A   1      47.701  30.310  28.567  1.00  0.00     0.031 C 
ATOM     65  C   UNL A   1      45.356  30.935  29.069  1.00  0.00     0.037 A 
BRANCH  52  66
ATOM     66  C   UNL A   1      39.559  28.809  29.002  1.00  0.00     0.057 A 
ATOM     67  C   UNL A   1      38.926  28.636  30.240  1.00  0.00     0.134 A 
ATOM     68  C   UNL A   1      38.784  29.291  27.940  1.00  0.00     0.134 A 
ATOM     69  F   UNL A   1      39.609  28.163  31.293  1.00  0.00    -0.206 F 
ATOM     70  C   UNL A   1      37.567  28.909  30.408  1.00  0.00     0.040 A 
ATOM     71  C   UNL A   1      37.430  29.592  28.103  1.00  0.00     0.040 A 
ATOM     72  F   UNL A   1      39.329  29.481  26.730  1.00  0.00    -0.206 F 
ATOM     73  C   UNL A   1      36.817  29.396  29.339  1.00  0.00     0.006 A 
ENDBRANCH  52  66
BRANCH  53  74
ATOM     74  C   UNL A   1      49.134  26.569  27.269  1.00  0.00     0.057 A 
ATOM     75  C   UNL A   1      49.695  26.797  26.006  1.00  0.00     0.134 A 
ATOM     76  C   UNL A   1      49.967  26.030  28.257  1.00  0.00     0.134 A 
ATOM     77  F   UNL A   1      48.941  27.294  25.014  1.00  0.00    -0.206 F 
ATOM     78  C   UNL A   1      51.025  26.481  25.728  1.00  0.00     0.040 A 
ATOM     79  C   UNL A   1      51.305  25.732  27.999  1.00  0.00     0.040 A 
ATOM     80  F   UNL A   1      49.492  25.796  29.488  1.00  0.00    -0.206 F 
ATOM     81  C   UNL A   1      51.836  25.951  26.728  1.00  0.00     0.006 A 
ENDBRANCH  53  74
BRANCH  65  82
ATOM     82  C   UNL A   1      45.849  32.296  29.460  1.00  0.00     0.057 A 
ATOM     83  C   UNL A   1      45.910  33.352  28.543  1.00  0.00     0.134 A 
ATOM     84  C   UNL A   1      46.226  32.562  30.783  1.00  0.00     0.134 A 
ATOM     85  F   UNL A   1      45.574  33.157  27.259  1.00  0.00    -0.206 F 
ATOM     86  C   UNL A   1      46.346  34.621  28.923  1.00  0.00     0.040 A 
ATOM     87  C   UNL A   1      46.640  33.833  31.181  1.00  0.00     0.040 A 
ATOM     88  F   UNL A   1      46.182  31.595  31.712  1.00  0.00    -0.206 F 
ATOM     89  C   UNL A   1      46.705  34.867  30.248  1.00  0.00     0.006 A 
ENDBRANCH  65  82
ENDBRANCH  39  40
ENDBRANCH  31  34
ENDBRANCH  29  30
ENDBRANCH  28  29
ENDBRANCH  27  28
ENDBRANCH   1  27
TORSDOF 15
ENDMDL
MODEL 2
REMARK VINA RESULT:     -12.2      0.907      6.268
REMARK SMILES CC1=C(C)C[C@@H](C(=O)NCCCCNC(=O)c2ccc(-c3c4nc(c(-c5c(F)cccc5F)c5ccc([nH]5)c(-c5c(F)cccc5F)c5nc(c(-c6c(F)cccc6F)c6ccc3[nH]6)C=C5)C=C4)cc2)[C@@H](C(=O)NCC[NH+]2CCOCC2)C1
REMARK SMILES IDX 10 1 9 2 7 3 8 4 6 6 1 7 2 8 3 9 83 10 4 11 5 12 71 13 72 14
REMARK SMILES IDX 73 15 74 16 75 18 76 19 77 20 78 21 82 22 79 24 81 25 80 26
REMARK SMILES IDX 11 27 12 28 13 29 14 30 15 31 16 33 17 34 18 35 70 36 19 37
REMARK SMILES IDX 69 38 20 39 21 40 22 41 63 42 23 43 68 44 62 45 64 46 24 47
REMARK SMILES IDX 67 48 61 49 60 50 25 52 51 53 34 54 50 55 35 56 38 57 49 58
REMARK SMILES IDX 65 59 36 60 37 61 48 63 66 64 39 65 26 66 27 67 32 68 28 69
REMARK SMILES IDX 29 70 31 71 33 72 30 73 52 74 53 75 58 76 54 77 55 78 57 79
REMARK SMILES IDX 59 80 56 81 40 82 41 83 46 84 42 85 43 86 45 87 47 88 44 89
REMARK H PARENT 9 5 74 17 77 23 14 32 64 51 38 62
REMARK Flexibility Score: inf
ROOT
ATOM      1  C   UNL A   1      35.722  21.548  25.054  1.00  0.00     0.116 C 
ENDROOT
BRANCH   1   2
ATOM      2  N   UNL A   1      35.398  22.211  26.292  1.00  0.00    -0.356 N 
ATOM      3  C   UNL A   1      34.428  23.106  26.608  1.00  0.00     0.224 C 
ATOM      4  O   UNL A   1      34.211  23.264  27.816  1.00  0.00    -0.275 OA
ATOM      5  H   UNL A   1      35.988  21.971  27.043  1.00  0.00     0.163 HD
BRANCH   3   6
ATOM      6  C   UNL A   1      33.563  23.858  25.579  1.00  0.00     0.095 C 
ATOM      7  C   UNL A   1      31.673  27.598  27.018  1.00  0.00     0.039 C 
ATOM      8  C   UNL A   1      32.331  26.420  26.340  1.00  0.00    -0.074 C 
ATOM      9  C   UNL A   1      33.590  26.424  25.852  1.00  0.00    -0.074 C 
ATOM     10  C   UNL A   1      31.463  25.178  26.341  1.00  0.00     0.045 C 
ATOM     11  C   UNL A   1      34.560  27.577  25.949  1.00  0.00     0.039 C 
ATOM     12  C   UNL A   1      34.195  25.201  25.210  1.00  0.00     0.045 C 
ATOM     13  C   UNL A   1      32.025  23.874  25.745  1.00  0.00     0.095 C 
BRANCH  13  14
ATOM     14  C   UNL A   1      31.568  22.604  26.467  1.00  0.00     0.224 C 
ATOM     15  O   UNL A   1      31.353  22.569  27.680  1.00  0.00    -0.275 OA
ATOM     16  N   UNL A   1      31.382  21.434  25.820  1.00  0.00    -0.350 N 
ATOM     17  H   UNL A   1      30.565  20.949  26.080  1.00  0.00     0.163 HD
BRANCH  16  18
ATOM     18  C   UNL A   1      32.176  20.774  24.812  1.00  0.00     0.177 C 
BRANCH  18  19
ATOM     19  C   UNL A   1      32.864  19.529  25.421  1.00  0.00     0.283 C 
BRANCH  19  20
ATOM     20  N   UNL A   1      32.576  18.222  24.833  1.00  0.00    -0.330 N 
ATOM     21  C   UNL A   1      32.692  17.017  25.644  1.00  0.00     0.291 C 
ATOM     22  C   UNL A   1      32.808  18.001  23.405  1.00  0.00     0.291 C 
ATOM     23  H   UNL A   1      31.575  18.415  24.873  1.00  0.00     0.348 HD
ATOM     24  C   UNL A   1      33.893  16.136  25.264  1.00  0.00     0.221 C 
ATOM     25  C   UNL A   1      33.940  17.013  23.061  1.00  0.00     0.221 C 
ATOM     26  O   UNL A   1      33.895  15.828  23.866  1.00  0.00    -0.370 OA
ENDBRANCH  19  20
ENDBRANCH  18  19
ENDBRANCH  16  18
ENDBRANCH  13  14
ENDBRANCH   3   6
ENDBRANCH   1   2
BRANCH   1  27
ATOM     27  C   UNL A   1      37.199  21.617  24.689  1.00  0.00     0.023 C 
BRANCH  27  28
ATOM     28  C   UNL A   1      37.986  20.337  24.941  1.00  0.00     0.023 C 
BRANCH  28  29
ATOM     29  C   UNL A   1      39.078  20.457  25.992  1.00  0.00     0.116 C 
BRANCH  29  30
ATOM     30  N   UNL A   1      40.080  19.400  25.918  1.00  0.00    -0.352 N 
ATOM     31  C   UNL A   1      41.430  19.495  26.150  1.00  0.00     0.251 C 
ATOM     32  H   UNL A   1      39.747  18.508  25.670  1.00  0.00     0.163 HD
ATOM     33  O   UNL A   1      42.171  18.536  25.960  1.00  0.00    -0.269 OA
BRANCH  31  34
ATOM     34  C   UNL A   1      41.982  20.791  26.590  1.00  0.00     0.039 A 
ATOM     35  C   UNL A   1      42.418  21.703  25.628  1.00  0.00     0.014 A 
ATOM     36  C   UNL A   1      41.984  21.127  27.946  1.00  0.00     0.014 A 
ATOM     37  C   UNL A   1      42.783  22.990  26.021  1.00  0.00     0.010 A 
ATOM     38  C   UNL A   1      42.268  22.433  28.325  1.00  0.00     0.010 A 
ATOM     39  C   UNL A   1      42.667  23.377  27.367  1.00  0.00    -0.014 A 
BRANCH  39  40
ATOM     40  C   UNL A   1      42.962  24.763  27.800  1.00  0.00     0.031 A 
ATOM     41  C   UNL A   1      44.385  25.190  28.024  1.00  0.00     0.074 A 
ATOM     42  C   UNL A   1      41.948  25.610  28.067  1.00  0.00     0.049 A 
ATOM     43  N   UNL A   1      44.846  26.326  28.481  1.00  0.00    -0.248 NA
ATOM     44  C   UNL A   1      45.429  24.194  27.731  1.00  0.00     0.031 C 
ATOM     45  C   UNL A   1      40.524  25.294  27.944  1.00  0.00     0.029 A 
ATOM     46  N   UNL A   1      41.963  26.909  28.508  1.00  0.00    -0.354 N 
ATOM     47  C   UNL A   1      46.223  26.172  28.553  1.00  0.00     0.074 A 
ATOM     48  C   UNL A   1      46.522  24.818  28.142  1.00  0.00     0.031 C 
ATOM     49  C   UNL A   1      39.802  26.379  28.271  1.00  0.00     0.029 A 
ATOM     50  C   UNL A   1      40.711  27.452  28.662  1.00  0.00     0.049 A 
ATOM     51  H   UNL A   1      42.792  27.404  28.698  1.00  0.00     0.167 HD
ATOM     52  C   UNL A   1      47.158  27.084  28.909  1.00  0.00     0.037 A 
ATOM     53  C   UNL A   1      40.339  28.680  29.072  1.00  0.00     0.037 A 
ATOM     54  C   UNL A   1      46.860  28.443  29.273  1.00  0.00     0.049 A 
ATOM     55  C   UNL A   1      41.399  29.680  29.441  1.00  0.00     0.074 A 
ATOM     56  C   UNL A   1      47.741  29.469  29.566  1.00  0.00     0.029 A 
ATOM     57  N   UNL A   1      45.581  28.965  29.390  1.00  0.00    -0.354 N 
ATOM     58  N   UNL A   1      42.702  29.546  29.431  1.00  0.00    -0.248 NA
ATOM     59  C   UNL A   1      40.934  31.006  29.873  1.00  0.00     0.031 C 
ATOM     60  C   UNL A   1      46.993  30.604  29.897  1.00  0.00     0.029 A 
ATOM     61  C   UNL A   1      45.648  30.294  29.770  1.00  0.00     0.049 A 
ATOM     62  H   UNL A   1      44.749  28.464  29.227  1.00  0.00     0.167 HD
ATOM     63  C   UNL A   1      43.214  30.774  29.827  1.00  0.00     0.074 A 
ATOM     64  C   UNL A   1      42.081  31.645  30.059  1.00  0.00     0.031 C 
ATOM     65  C   UNL A   1      44.507  31.148  29.983  1.00  0.00     0.037 A 
BRANCH  52  66
ATOM     66  C   UNL A   1      48.591  26.642  28.911  1.00  0.00     0.057 A 
ATOM     67  C   UNL A   1      49.395  26.735  27.767  1.00  0.00     0.134 A 
ATOM     68  C   UNL A   1      49.182  26.144  30.078  1.00  0.00     0.134 A 
ATOM     69  F   UNL A   1      48.885  27.190  26.612  1.00  0.00    -0.206 F 
ATOM     70  C   UNL A   1      50.730  26.325  27.778  1.00  0.00     0.040 A 
ATOM     71  C   UNL A   1      50.523  25.756  30.108  1.00  0.00     0.040 A 
ATOM     72  F   UNL A   1      48.470  26.032  31.209  1.00  0.00    -0.206 F 
ATOM     73  C   UNL A   1      51.299  25.841  28.954  1.00  0.00     0.006 A 
ENDBRANCH  52  66
BRANCH  53  74
ATOM     74  C   UNL A   1      38.902  29.047  29.120  1.00  0.00     0.057 A 
ATOM     75  C   UNL A   1      38.151  28.850  30.285  1.00  0.00     0.134 A 
ATOM     76  C   UNL A   1      38.244  29.594  28.012  1.00  0.00     0.134 A 
ATOM     77  F   UNL A   1      38.723  28.313  31.373  1.00  0.00    -0.206 F 
ATOM     78  C   UNL A   1      36.792  29.163  30.342  1.00  0.00     0.040 A 
ATOM     79  C   UNL A   1      36.891  29.933  28.062  1.00  0.00     0.040 A 
ATOM     80  F   UNL A   1      38.910  29.814  26.870  1.00  0.00    -0.206 F 
ATOM     81  C   UNL A   1      36.160  29.712  29.228  1.00  0.00     0.006 A 
ENDBRANCH  53  74
BRANCH  65  82
ATOM     82  C   UNL A   1      44.766  32.568  30.389  1.00  0.00     0.057 A 
ATOM     83  C   UNL A   1      44.935  32.934  31.729  1.00  0.00     0.134 A 
ATOM     84  C   UNL A   1      44.891  33.572  29.421  1.00  0.00     0.134 A 
ATOM     85  F   UNL A   1      44.815  32.021  32.704  1.00  0.00    -0.206 F 
ATOM     86  C   UNL A   1      45.201  34.255  32.095  1.00  0.00     0.040 A 
ATOM     87  C   UNL A   1      45.181  34.891  29.771  1.00  0.00     0.040 A 
ATOM     88  F   UNL A   1      44.748  33.285  28.118  1.00  0.00    -0.206 F 
ATOM     89  C   UNL A   1      45.332  35.236  31.113  1.00  0.00     0.006 A 
ENDBRANCH  65  82
ENDBRANCH  39  40
ENDBRANCH  31  34
ENDBRANCH  29  30
ENDBRANCH  28  29
ENDBRANCH  27  28
ENDBRANCH   1  27
TORSDOF 15
ENDMDL
MODEL 3
REMARK VINA RESULT:     -12.2      5.604      9.959
REMARK SMILES CC1=C(C)C[C@@H](C(=O)NCCCCNC(=O)c2ccc(-c3c4nc(c(-c5c(F)cccc5F)c5ccc([nH]5)c(-c5c(F)cccc5F)c5nc(c(-c6c(F)cccc6F)c6ccc3[nH]6)C=C5)C=C4)cc2)[C@@H](C(=O)NCC[NH+]2CCOCC2)C1
REMARK SMILES IDX 10 1 9 2 7 3 8 4 6 6 1 7 2 8 3 9 83 10 4 11 5 12 71 13 72 14
REMARK SMILES IDX 73 15 74 16 75 18 76 19 77 20 78 21 82 22 79 24 81 25 80 26
REMARK SMILES IDX 11 27 12 28 13 29 14 30 15 31 16 33 17 34 18 35 70 36 19 37
REMARK SMILES IDX 69 38 20 39 21 40 22 41 63 42 23 43 68 44 62 45 64 46 24 47
REMARK SMILES IDX 67 48 61 49 60 50 25 52 51 53 34 54 50 55 35 56 38 57 49 58
REMARK SMILES IDX 65 59 36 60 37 61 48 63 66 64 39 65 26 66 27 67 32 68 28 69
REMARK SMILES IDX 29 70 31 71 33 72 30 73 52 74 53 75 58 76 54 77 55 78 57 79
REMARK SMILES IDX 59 80 56 81 40 82 41 83 46 84 42 85 43 86 45 87 47 88 44 89
REMARK H PARENT 9 5 74 17 77 23 14 32 64 51 38 62
REMARK Flexibility Score: inf
ROOT
ATOM      1  C   UNL A   1      31.918  29.164  25.633  1.00  0.00     0.116 C 
ENDROOT
BRANCH   1   2
ATOM      2  N   UNL A   1      32.974  28.207  25.421  1.00  0.00    -0.356 N 
ATOM      3  C   UNL A   1      32.949  26.911  25.019  1.00  0.00     0.224 C 
ATOM      4  O   UNL A   1      34.028  26.441  24.637  1.00  0.00    -0.275 OA
ATOM      5  H   UNL A   1      33.877  28.557  25.599  1.00  0.00     0.163 HD
BRANCH   3   6
ATOM      6  C   UNL A   1      31.678  26.042  24.948  1.00  0.00     0.095 C 
ATOM      7  C   UNL A   1      32.329  21.746  24.083  1.00  0.00     0.039 C 
ATOM      8  C   UNL A   1      31.945  23.147  24.497  1.00  0.00    -0.074 C 
ATOM      9  C   UNL A   1      32.013  23.616  25.762  1.00  0.00    -0.074 C 
ATOM     10  C   UNL A   1      31.556  24.023  23.323  1.00  0.00     0.045 C 
ATOM     11  C   UNL A   1      32.530  22.845  26.952  1.00  0.00     0.039 C 
ATOM     12  C   UNL A   1      31.638  25.037  26.100  1.00  0.00     0.045 C 
ATOM     13  C   UNL A   1      31.203  25.500  23.579  1.00  0.00     0.095 C 
BRANCH  13  14
ATOM     14  C   UNL A   1      31.640  26.452  22.464  1.00  0.00     0.224 C 
ATOM     15  O   UNL A   1      32.728  26.356  21.895  1.00  0.00    -0.275 OA
ATOM     16  N   UNL A   1      30.860  27.470  22.039  1.00  0.00    -0.350 N 
ATOM     17  H   UNL A   1      30.825  27.576  21.061  1.00  0.00     0.163 HD
BRANCH  16  18
ATOM     18  C   UNL A   1      30.071  28.428  22.775  1.00  0.00     0.177 C 
BRANCH  18  19
ATOM     19  C   UNL A   1      30.020  29.767  22.001  1.00  0.00     0.283 C 
BRANCH  19  20
ATOM     20  N   UNL A   1      28.833  30.607  22.150  1.00  0.00    -0.330 N 
ATOM     21  C   UNL A   1      28.028  30.943  20.983  1.00  0.00     0.291 C 
ATOM     22  C   UNL A   1      28.780  31.610  23.215  1.00  0.00     0.291 C 
ATOM     23  H   UNL A   1      28.318  29.823  22.551  1.00  0.00     0.348 HD
ATOM     24  C   UNL A   1      28.149  32.415  20.557  1.00  0.00     0.221 C 
ATOM     25  C   UNL A   1      28.777  33.078  22.746  1.00  0.00     0.221 C 
ATOM     26  O   UNL A   1      27.881  33.300  21.649  1.00  0.00    -0.370 OA
ENDBRANCH  19  20
ENDBRANCH  18  19
ENDBRANCH  16  18
ENDBRANCH  13  14
ENDBRANCH   3   6
ENDBRANCH   1   2
BRANCH   1  27
ATOM     27  C   UNL A   1      32.056  29.953  26.929  1.00  0.00     0.023 C 
BRANCH  27  28
ATOM     28  C   UNL A   1      31.754  31.441  26.813  1.00  0.00     0.023 C 
BRANCH  28  29
ATOM     29  C   UNL A   1      32.953  32.353  27.021  1.00  0.00     0.116 C 
BRANCH  29  30
ATOM     30  N   UNL A   1      32.596  33.706  27.431  1.00  0.00    -0.352 N 
ATOM     31  C   UNL A   1      33.145  34.458  28.440  1.00  0.00     0.251 C 
ATOM     32  H   UNL A   1      31.871  34.132  26.920  1.00  0.00     0.163 HD
ATOM     33  O   UNL A   1      32.679  35.555  28.733  1.00  0.00    -0.269 OA
BRANCH  31  34
ATOM     34  C   UNL A   1      34.280  33.901  29.199  1.00  0.00     0.039 A 
ATOM     35  C   UNL A   1      34.027  32.981  30.218  1.00  0.00     0.014 A 
ATOM     36  C   UNL A   1      35.590  34.228  28.840  1.00  0.00     0.014 A 
ATOM     37  C   UNL A   1      35.096  32.325  30.827  1.00  0.00     0.010 A 
ATOM     38  C   UNL A   1      36.647  33.512  29.388  1.00  0.00     0.010 A 
ATOM     39  C   UNL A   1      36.410  32.553  30.385  1.00  0.00    -0.014 A 
BRANCH  39  40
ATOM     40  C   UNL A   1      37.557  31.804  30.951  1.00  0.00     0.031 A 
ATOM     41  C   UNL A   1      38.052  32.126  32.332  1.00  0.00     0.074 A 
ATOM     42  C   UNL A   1      38.199  30.892  30.194  1.00  0.00     0.049 A 
ATOM     43  N   UNL A   1      39.087  31.646  32.973  1.00  0.00    -0.248 NA
ATOM     44  C   UNL A   1      37.306  33.152  33.080  1.00  0.00     0.031 C 
ATOM     45  C   UNL A   1      37.849  30.534  28.818  1.00  0.00     0.029 A 
ATOM     46  N   UNL A   1      39.289  30.109  30.474  1.00  0.00    -0.354 N 
ATOM     47  C   UNL A   1      39.130  32.327  34.182  1.00  0.00     0.074 A 
ATOM     48  C   UNL A   1      38.049  33.289  34.168  1.00  0.00     0.031 C 
ATOM     49  C   UNL A   1      38.689  29.578  28.385  1.00  0.00     0.029 A 
ATOM     50  C   UNL A   1      39.657  29.285  29.438  1.00  0.00     0.049 A 
ATOM     51  H   UNL A   1      39.764  30.134  31.336  1.00  0.00     0.167 HD
ATOM     52  C   UNL A   1      39.980  32.152  35.220  1.00  0.00     0.037 A 
ATOM     53  C   UNL A   1      40.662  28.394  29.348  1.00  0.00     0.037 A 
ATOM     54  C   UNL A   1      41.024  31.163  35.249  1.00  0.00     0.049 A 
ATOM     55  C   UNL A   1      41.579  28.204  30.524  1.00  0.00     0.074 A 
ATOM     56  C   UNL A   1      41.883  30.848  36.286  1.00  0.00     0.029 A 
ATOM     57  N   UNL A   1      41.348  30.329  34.190  1.00  0.00    -0.354 N 
ATOM     58  N   UNL A   1      41.561  28.801  31.691  1.00  0.00    -0.248 NA
ATOM     59  C   UNL A   1      42.653  27.212  30.372  1.00  0.00     0.031 C 
ATOM     60  C   UNL A   1      42.753  29.846  35.842  1.00  0.00     0.029 A 
ATOM     61  C   UNL A   1      42.407  29.511  34.543  1.00  0.00     0.049 A 
ATOM     62  H   UNL A   1      40.892  30.320  33.318  1.00  0.00     0.167 HD
ATOM     63  C   UNL A   1      42.599  28.239  32.421  1.00  0.00     0.074 A 
ATOM     64  C   UNL A   1      43.220  27.245  31.570  1.00  0.00     0.031 C 
ATOM     65  C   UNL A   1      43.003  28.519  33.685  1.00  0.00     0.037 A 
BRANCH  52  66
ATOM     66  C   UNL A   1      39.807  33.044  36.414  1.00  0.00     0.057 A 
ATOM     67  C   UNL A   1      40.528  34.236  36.557  1.00  0.00     0.134 A 
ATOM     68  C   UNL A   1      38.886  32.720  37.418  1.00  0.00     0.134 A 
ATOM     69  F   UNL A   1      41.437  34.596  35.638  1.00  0.00    -0.206 F 
ATOM     70  C   UNL A   1      40.358  35.062  37.670  1.00  0.00     0.040 A 
ATOM     71  C   UNL A   1      38.688  33.551  38.522  1.00  0.00     0.040 A 
ATOM     72  F   UNL A   1      38.161  31.594  37.341  1.00  0.00    -0.206 F 
ATOM     73  C   UNL A   1      39.429  34.724  38.652  1.00  0.00     0.006 A 
ENDBRANCH  52  66
BRANCH  53  74
ATOM     74  C   UNL A   1      40.835  27.585  28.116  1.00  0.00     0.057 A 
ATOM     75  C   UNL A   1      41.609  28.059  27.050  1.00  0.00     0.134 A 
ATOM     76  C   UNL A   1      40.231  26.331  27.968  1.00  0.00     0.134 A 
ATOM     77  F   UNL A   1      42.197  29.262  27.127  1.00  0.00    -0.206 F 
ATOM     78  C   UNL A   1      41.761  27.325  25.873  1.00  0.00     0.040 A 
ATOM     79  C   UNL A   1      40.393  25.576  26.805  1.00  0.00     0.040 A 
ATOM     80  F   UNL A   1      39.483  25.818  28.956  1.00  0.00    -0.206 F 
ATOM     81  C   UNL A   1      41.155  26.077  25.751  1.00  0.00     0.006 A 
ENDBRANCH  53  74
BRANCH  65  82
ATOM     82  C   UNL A   1      44.143  27.716  34.234  1.00  0.00     0.057 A 
ATOM     83  C   UNL A   1      45.466  28.168  34.164  1.00  0.00     0.134 A 
ATOM     84  C   UNL A   1      43.907  26.496  34.880  1.00  0.00     0.134 A 
ATOM     85  F   UNL A   1      45.758  29.323  33.547  1.00  0.00    -0.206 F 
ATOM     86  C   UNL A   1      46.518  27.425  34.701  1.00  0.00     0.040 A 
ATOM     87  C   UNL A   1      44.947  25.756  35.443  1.00  0.00     0.040 A 
ATOM     88  F   UNL A   1      42.661  26.011  34.988  1.00  0.00    -0.206 F 
ATOM     89  C   UNL A   1      46.258  26.219  35.350  1.00  0.00     0.006 A 
ENDBRANCH  65  82
ENDBRANCH  39  40
ENDBRANCH  31  34
ENDBRANCH  29  30
ENDBRANCH  28  29
ENDBRANCH  27  28
ENDBRANCH   1  27
TORSDOF 15
ENDMDL
