MODEL 1
REMARK VINA RESULT:     -11.9      0.000      0.000
REMARK SMILES O=C(NCCCCNC(=O)c1ccc(-c2c3nc(c(-c4c(F)cccc4F)c4ccc([nH]4)c(-c4c(F)cccc4F)c4nc(c(-c5c(F)cccc5F)c5ccc2[nH]5)C=C4)C=C3)cc1)c1ccc(N[C@H]2OC[C@@H](O)[C@@H](O)[C@H]2O)cc1
REMARK SMILES IDX 5 1 4 2 3 3 1 4 2 5 65 7 66 8 80 9 67 10 79 11 68 12 69 13
REMARK SMILES IDX 70 15 71 16 77 17 72 18 75 19 73 20 78 21 76 23 74 25 6 27
REMARK SMILES IDX 7 28 8 29 9 30 10 32 11 33 12 34 64 35 13 36 63 37 14 38
REMARK SMILES IDX 15 39 16 40 57 41 17 42 62 43 56 44 58 45 18 46 61 47 55 48
REMARK SMILES IDX 54 49 19 51 45 52 28 53 44 54 29 55 32 56 43 57 59 58 30 59
REMARK SMILES IDX 31 60 42 62 60 63 33 64 20 65 21 66 26 67 22 68 23 69 25 70
REMARK SMILES IDX 27 71 24 72 46 73 47 74 52 75 48 76 49 77 51 78 53 79 50 80
REMARK SMILES IDX 34 81 35 82 40 83 36 84 37 85 39 86 41 87 38 88
REMARK H PARENT 3 6 69 14 78 22 76 24 74 26 8 31 58 50 32 61
REMARK Flexibility Score: inf
ROOT
ATOM      1  C   UNL A   1      36.440  20.813  24.574  1.00  0.00     0.023 C 
ENDROOT
BRANCH   1   2
ATOM      2  C   UNL A   1      35.256  20.990  25.520  1.00  0.00     0.116 C 
BRANCH   2   3
ATOM      3  N   UNL A   1      34.286  19.913  25.398  1.00  0.00    -0.352 N 
ATOM      4  O   UNL A   1      32.232  19.000  25.175  1.00  0.00    -0.269 OA
ATOM      5  C   UNL A   1      32.960  19.982  25.048  1.00  0.00     0.251 C 
ATOM      6  H   UNL A   1      34.626  19.010  25.592  1.00  0.00     0.163 HD
BRANCH   5   7
ATOM      7  C   UNL A   1      32.408  21.249  24.535  1.00  0.00     0.039 A 
ATOM      8  C   UNL A   1      32.560  21.596  23.194  1.00  0.00     0.016 A 
ATOM      9  C   UNL A   1      31.719  22.096  25.400  1.00  0.00     0.016 A 
ATOM     10  C   UNL A   1      32.111  22.837  22.744  1.00  0.00     0.026 A 
ATOM     11  C   UNL A   1      31.253  23.328  24.930  1.00  0.00     0.026 A 
ATOM     12  C   UNL A   1      31.471  23.737  23.605  1.00  0.00     0.036 A 
BRANCH  12  13
ATOM     13  N   UNL A   1      30.976  24.963  23.194  1.00  0.00    -0.358 N 
ATOM     14  H   UNL A   1      30.152  24.970  22.654  1.00  0.00     0.163 HD
BRANCH  13  15
ATOM     15  C   UNL A   1      31.594  26.242  23.509  1.00  0.00     0.244 C 
ATOM     16  O   UNL A   1      33.012  26.114  23.379  1.00  0.00    -0.353 OA
ATOM     17  C   UNL A   1      31.107  27.287  22.477  1.00  0.00     0.195 C 
ATOM     18  C   UNL A   1      33.715  27.315  23.714  1.00  0.00     0.197 C 
ATOM     19  C   UNL A   1      31.817  28.621  22.735  1.00  0.00     0.178 C 
ATOM     20  C   UNL A   1      33.343  28.449  22.757  1.00  0.00     0.171 C 
BRANCH  17  21
ATOM     21  O   UNL A   1      31.428  26.825  21.140  1.00  0.00    -0.386 OA
ATOM     22  H   UNL A   1      31.922  25.992  21.195  1.00  0.00     0.211 HD
ENDBRANCH  17  21
BRANCH  19  23
ATOM     23  O   UNL A   1      31.443  29.572  21.736  1.00  0.00    -0.387 OA
ATOM     24  H   UNL A   1      30.488  29.515  21.576  1.00  0.00     0.211 HD
ENDBRANCH  19  23
BRANCH  20  25
ATOM     25  O   UNL A   1      33.829  28.145  21.441  1.00  0.00    -0.388 OA
ATOM     26  H   UNL A   1      34.480  28.813  21.174  1.00  0.00     0.211 HD
ENDBRANCH  20  25
ENDBRANCH  13  15
ENDBRANCH  12  13
ENDBRANCH   5   7
ENDBRANCH   2   3
ENDBRANCH   1   2
BRANCH   1  27
ATOM     27  C   UNL A   1      37.455  19.755  25.001  1.00  0.00     0.023 C 
BRANCH  27  28
ATOM     28  C   UNL A   1      38.680  20.288  25.735  1.00  0.00     0.116 C 
BRANCH  28  29
ATOM     29  N   UNL A   1      39.784  19.343  25.759  1.00  0.00    -0.352 N 
ATOM     30  C   UNL A   1      41.101  19.551  26.089  1.00  0.00     0.251 C 
ATOM     31  H   UNL A   1      39.555  18.420  25.503  1.00  0.00     0.163 HD
ATOM     32  O   UNL A   1      41.922  18.652  25.920  1.00  0.00    -0.269 OA
BRANCH  30  33
ATOM     33  C   UNL A   1      41.540  20.860  26.620  1.00  0.00     0.039 A 
ATOM     34  C   UNL A   1      41.992  21.832  25.724  1.00  0.00     0.014 A 
ATOM     35  C   UNL A   1      41.524  21.130  27.992  1.00  0.00     0.014 A 
ATOM     36  C   UNL A   1      42.385  23.086  26.198  1.00  0.00     0.010 A 
ATOM     37  C   UNL A   1      41.829  22.408  28.453  1.00  0.00     0.010 A 
ATOM     38  C   UNL A   1      42.284  23.394  27.565  1.00  0.00    -0.014 A 
BRANCH  38  39
ATOM     39  C   UNL A   1      42.701  24.723  28.085  1.00  0.00     0.031 A 
ATOM     40  C   UNL A   1      41.673  25.805  28.294  1.00  0.00     0.074 A 
ATOM     41  C   UNL A   1      44.000  24.969  28.343  1.00  0.00     0.049 A 
ATOM     42  N   UNL A   1      41.840  27.039  28.699  1.00  0.00    -0.248 NA
ATOM     43  C   UNL A   1      40.276  25.462  27.981  1.00  0.00     0.031 C 
ATOM     44  C   UNL A   1      45.102  24.026  28.137  1.00  0.00     0.029 A 
ATOM     45  N   UNL A   1      44.616  26.095  28.830  1.00  0.00    -0.354 N 
ATOM     46  C   UNL A   1      40.574  27.613  28.690  1.00  0.00     0.074 A 
ATOM     47  C   UNL A   1      39.662  26.620  28.167  1.00  0.00     0.031 C 
ATOM     48  C   UNL A   1      46.253  24.605  28.517  1.00  0.00     0.029 A 
ATOM     49  C   UNL A   1      45.979  25.968  28.960  1.00  0.00     0.049 A 
ATOM     50  H   UNL A   1      44.128  26.918  29.064  1.00  0.00     0.167 HD
ATOM     51  C   UNL A   1      40.196  28.843  29.114  1.00  0.00     0.037 A 
ATOM     52  C   UNL A   1      46.901  26.852  29.386  1.00  0.00     0.037 A 
ATOM     53  C   UNL A   1      41.098  29.827  29.649  1.00  0.00     0.049 A 
ATOM     54  C   UNL A   1      46.453  28.216  29.843  1.00  0.00     0.074 A 
ATOM     55  C   UNL A   1      40.812  31.099  30.115  1.00  0.00     0.029 A 
ATOM     56  N   UNL A   1      42.465  29.646  29.795  1.00  0.00    -0.354 N 
ATOM     57  N   UNL A   1      45.246  28.726  29.873  1.00  0.00    -0.248 NA
ATOM     58  C   UNL A   1      47.497  29.119  30.344  1.00  0.00     0.031 C 
ATOM     59  C   UNL A   1      42.012  31.700  30.513  1.00  0.00     0.029 A 
ATOM     60  C   UNL A   1      43.035  30.783  30.347  1.00  0.00     0.049 A 
ATOM     61  H   UNL A   1      42.958  28.832  29.545  1.00  0.00     0.167 HD
ATOM     62  C   UNL A   1      45.381  29.989  30.435  1.00  0.00     0.074 A 
ATOM     63  C   UNL A   1      46.784  30.160  30.747  1.00  0.00     0.031 C 
ATOM     64  C   UNL A   1      44.430  30.926  30.673  1.00  0.00     0.037 A 
BRANCH  51  65
ATOM     65  C   UNL A   1      38.734  29.179  29.040  1.00  0.00     0.057 A 
ATOM     66  C   UNL A   1      37.902  29.085  30.165  1.00  0.00     0.134 A 
ATOM     67  C   UNL A   1      38.158  29.638  27.850  1.00  0.00     0.134 A 
ATOM     68  F   UNL A   1      38.387  28.637  31.333  1.00  0.00    -0.206 F 
ATOM     69  C   UNL A   1      36.547  29.413  30.103  1.00  0.00     0.040 A 
ATOM     70  C   UNL A   1      36.810  29.999  27.782  1.00  0.00     0.040 A 
ATOM     71  F   UNL A   1      38.896  29.757  26.736  1.00  0.00    -0.206 F 
ATOM     72  C   UNL A   1      35.999  29.880  28.910  1.00  0.00     0.006 A 
ENDBRANCH  51  65
BRANCH  52  73
ATOM     73  C   UNL A   1      48.340  26.483  29.421  1.00  0.00     0.057 A 
ATOM     74  C   UNL A   1      49.187  26.753  28.340  1.00  0.00     0.134 A 
ATOM     75  C   UNL A   1      48.891  25.805  30.515  1.00  0.00     0.134 A 
ATOM     76  F   UNL A   1      48.717  27.385  27.254  1.00  0.00    -0.206 F 
ATOM     77  C   UNL A   1      50.517  26.324  28.325  1.00  0.00     0.040 A 
ATOM     78  C   UNL A   1      50.227  25.399  30.528  1.00  0.00     0.040 A 
ATOM     79  F   UNL A   1      48.137  25.525  31.588  1.00  0.00    -0.206 F 
ATOM     80  C   UNL A   1      51.040  25.646  29.424  1.00  0.00     0.006 A 
ENDBRANCH  52  73
BRANCH  64  81
ATOM     81  C   UNL A   1      44.866  32.186  31.366  1.00  0.00     0.057 A 
ATOM     82  C   UNL A   1      44.873  32.309  32.762  1.00  0.00     0.134 A 
ATOM     83  C   UNL A   1      45.295  33.291  30.620  1.00  0.00     0.134 A 
ATOM     84  F   UNL A   1      44.465  31.292  33.537  1.00  0.00    -0.206 F 
ATOM     85  C   UNL A   1      45.248  33.499  33.388  1.00  0.00     0.040 A 
ATOM     86  C   UNL A   1      45.704  34.475  31.234  1.00  0.00     0.040 A 
ATOM     87  F   UNL A   1      45.327  33.238  29.279  1.00  0.00    -0.206 F 
ATOM     88  C   UNL A   1      45.669  34.585  32.623  1.00  0.00     0.006 A 
ENDBRANCH  64  81
ENDBRANCH  38  39
ENDBRANCH  30  33
ENDBRANCH  28  29
ENDBRANCH  27  28
ENDBRANCH   1  27
TORSDOF 16
ENDMDL
MODEL 2
REMARK VINA RESULT:     -11.8      2.333      6.933
REMARK SMILES O=C(NCCCCNC(=O)c1ccc(-c2c3nc(c(-c4c(F)cccc4F)c4ccc([nH]4)c(-c4c(F)cccc4F)c4nc(c(-c5c(F)cccc5F)c5ccc2[nH]5)C=C4)C=C3)cc1)c1ccc(N[C@H]2OC[C@@H](O)[C@@H](O)[C@H]2O)cc1
REMARK SMILES IDX 5 1 4 2 3 3 1 4 2 5 65 7 66 8 80 9 67 10 79 11 68 12 69 13
REMARK SMILES IDX 70 15 71 16 77 17 72 18 75 19 73 20 78 21 76 23 74 25 6 27
REMARK SMILES IDX 7 28 8 29 9 30 10 32 11 33 12 34 64 35 13 36 63 37 14 38
REMARK SMILES IDX 15 39 16 40 57 41 17 42 62 43 56 44 58 45 18 46 61 47 55 48
REMARK SMILES IDX 54 49 19 51 45 52 28 53 44 54 29 55 32 56 43 57 59 58 30 59
REMARK SMILES IDX 31 60 42 62 60 63 33 64 20 65 21 66 26 67 22 68 23 69 25 70
REMARK SMILES IDX 27 71 24 72 46 73 47 74 52 75 48 76 49 77 51 78 53 79 50 80
REMARK SMILES IDX 34 81 35 82 40 83 36 84 37 85 39 86 41 87 38 88
REMARK H PARENT 3 6 69 14 78 22 76 24 74 26 8 31 58 50 32 61
REMARK Flexibility Score: inf
ROOT
ATOM      1  C   UNL A   1      35.310  21.512  26.182  1.00  0.00     0.023 C 
ENDROOT
BRANCH   1   2
ATOM      2  C   UNL A   1      35.253  20.569  24.984  1.00  0.00     0.116 C 
BRANCH   2   3
ATOM      3  N   UNL A   1      34.184  19.591  25.102  1.00  0.00    -0.352 N 
ATOM      4  O   UNL A   1      32.049  18.877  25.296  1.00  0.00    -0.269 OA
ATOM      5  C   UNL A   1      32.829  19.775  24.980  1.00  0.00     0.251 C 
ATOM      6  H   UNL A   1      34.471  18.670  25.297  1.00  0.00     0.163 HD
BRANCH   5   7
ATOM      7  C   UNL A   1      32.311  21.062  24.484  1.00  0.00     0.039 A 
ATOM      8  C   UNL A   1      32.395  21.384  23.131  1.00  0.00     0.016 A 
ATOM      9  C   UNL A   1      31.723  21.954  25.378  1.00  0.00     0.016 A 
ATOM     10  C   UNL A   1      31.982  22.642  22.691  1.00  0.00     0.026 A 
ATOM     11  C   UNL A   1      31.291  23.203  24.920  1.00  0.00     0.026 A 
ATOM     12  C   UNL A   1      31.445  23.584  23.577  1.00  0.00     0.036 A 
BRANCH  12  13
ATOM     13  N   UNL A   1      30.989  24.830  23.180  1.00  0.00    -0.358 N 
ATOM     14  H   UNL A   1      30.180  24.866  22.619  1.00  0.00     0.163 HD
BRANCH  13  15
ATOM     15  C   UNL A   1      31.626  26.088  23.538  1.00  0.00     0.244 C 
ATOM     16  O   UNL A   1      33.039  25.952  23.372  1.00  0.00    -0.353 OA
ATOM     17  C   UNL A   1      31.128  27.182  22.564  1.00  0.00     0.195 C 
ATOM     18  C   UNL A   1      33.762  27.131  23.745  1.00  0.00     0.197 C 
ATOM     19  C   UNL A   1      31.857  28.497  22.866  1.00  0.00     0.178 C 
ATOM     20  C   UNL A   1      33.382  28.309  22.847  1.00  0.00     0.171 C 
BRANCH  17  21
ATOM     21  O   UNL A   1      31.416  26.777  21.201  1.00  0.00    -0.386 OA
ATOM     22  H   UNL A   1      31.541  27.566  20.650  1.00  0.00     0.211 HD
ENDBRANCH  17  21
BRANCH  19  23
ATOM     23  O   UNL A   1      31.472  29.494  21.918  1.00  0.00    -0.387 OA
ATOM     24  H   UNL A   1      31.348  30.342  22.373  1.00  0.00     0.211 HD
ENDBRANCH  19  23
BRANCH  20  25
ATOM     25  O   UNL A   1      33.837  28.059  21.509  1.00  0.00    -0.388 OA
ATOM     26  H   UNL A   1      33.416  28.688  20.902  1.00  0.00     0.211 HD
ENDBRANCH  20  25
ENDBRANCH  13  15
ENDBRANCH  12  13
ENDBRANCH   5   7
ENDBRANCH   2   3
ENDBRANCH   1   2
BRANCH   1  27
ATOM     27  C   UNL A   1      35.368  22.997  25.833  1.00  0.00     0.023 C 
BRANCH  27  28
ATOM     28  C   UNL A   1      36.765  23.604  25.796  1.00  0.00     0.116 C 
BRANCH  28  29
ATOM     29  N   UNL A   1      37.819  22.615  25.955  1.00  0.00    -0.352 N 
ATOM     30  C   UNL A   1      39.112  22.781  26.386  1.00  0.00     0.251 C 
ATOM     31  H   UNL A   1      37.570  21.691  25.719  1.00  0.00     0.163 HD
ATOM     32  O   UNL A   1      39.901  21.842  26.327  1.00  0.00    -0.269 OA
BRANCH  30  33
ATOM     33  C   UNL A   1      39.565  24.094  26.898  1.00  0.00     0.039 A 
ATOM     34  C   UNL A   1      40.125  25.008  26.002  1.00  0.00     0.014 A 
ATOM     35  C   UNL A   1      39.455  24.424  28.252  1.00  0.00     0.014 A 
ATOM     36  C   UNL A   1      40.534  26.264  26.454  1.00  0.00     0.010 A 
ATOM     37  C   UNL A   1      39.779  25.707  28.684  1.00  0.00     0.010 A 
ATOM     38  C   UNL A   1      40.343  26.635  27.795  1.00  0.00    -0.014 A 
BRANCH  38  39
ATOM     39  C   UNL A   1      40.776  27.968  28.293  1.00  0.00     0.031 A 
ATOM     40  C   UNL A   1      42.242  28.310  28.346  1.00  0.00     0.074 A 
ATOM     41  C   UNL A   1      39.860  28.858  28.721  1.00  0.00     0.049 A 
ATOM     42  N   UNL A   1      42.823  29.399  28.784  1.00  0.00    -0.248 NA
ATOM     43  C   UNL A   1      43.182  27.282  27.870  1.00  0.00     0.031 C 
ATOM     44  C   UNL A   1      38.413  28.634  28.768  1.00  0.00     0.029 A 
ATOM     45  N   UNL A   1      40.012  30.133  29.205  1.00  0.00    -0.354 N 
ATOM     46  C   UNL A   1      44.187  29.185  28.633  1.00  0.00     0.074 A 
ATOM     47  C   UNL A   1      44.354  27.837  28.138  1.00  0.00     0.031 C 
ATOM     48  C   UNL A   1      37.811  29.742  29.232  1.00  0.00     0.029 A 
ATOM     49  C   UNL A   1      38.827  30.740  29.548  1.00  0.00     0.049 A 
ATOM     50  H   UNL A   1      40.888  30.572  29.300  1.00  0.00     0.167 HD
ATOM     51  C   UNL A   1      45.212  30.045  28.851  1.00  0.00     0.037 A 
ATOM     52  C   UNL A   1      38.590  31.963  30.060  1.00  0.00     0.037 A 
ATOM     53  C   UNL A   1      45.050  31.392  29.330  1.00  0.00     0.049 A 
ATOM     54  C   UNL A   1      39.748  32.895  30.301  1.00  0.00     0.074 A 
ATOM     55  C   UNL A   1      46.023  32.346  29.573  1.00  0.00     0.029 A 
ATOM     56  N   UNL A   1      43.831  31.979  29.632  1.00  0.00    -0.354 N 
ATOM     57  N   UNL A   1      41.029  32.694  30.108  1.00  0.00    -0.248 NA
ATOM     58  C   UNL A   1      39.423  34.233  30.813  1.00  0.00     0.031 C 
ATOM     59  C   UNL A   1      45.395  33.500  30.054  1.00  0.00     0.029 A 
ATOM     60  C   UNL A   1      44.027  33.283  30.057  1.00  0.00     0.049 A 
ATOM     61  H   UNL A   1      42.955  31.536  29.555  1.00  0.00     0.167 HD
ATOM     62  C   UNL A   1      41.655  33.892  30.432  1.00  0.00     0.074 A 
ATOM     63  C   UNL A   1      40.611  34.817  30.817  1.00  0.00     0.031 C 
ATOM     64  C   UNL A   1      42.975  34.199  30.414  1.00  0.00     0.037 A 
BRANCH  51  65
ATOM     65  C   UNL A   1      46.599  29.558  28.545  1.00  0.00     0.057 A 
ATOM     66  C   UNL A   1      47.381  28.914  29.515  1.00  0.00     0.134 A 
ATOM     67  C   UNL A   1      47.147  29.697  27.264  1.00  0.00     0.134 A 
ATOM     68  F   UNL A   1      46.922  28.764  30.766  1.00  0.00    -0.206 F 
ATOM     69  C   UNL A   1      48.664  28.446  29.228  1.00  0.00     0.040 A 
ATOM     70  C   UNL A   1      48.418  29.205  26.957  1.00  0.00     0.040 A 
ATOM     71  F   UNL A   1      46.453  30.299  26.286  1.00  0.00    -0.206 F 
ATOM     72  C   UNL A   1      49.183  28.584  27.942  1.00  0.00     0.006 A 
ENDBRANCH  51  65
BRANCH  52  73
ATOM     73  C   UNL A   1      37.202  32.395  30.368  1.00  0.00     0.057 A 
ATOM     74  C   UNL A   1      36.447  33.131  29.448  1.00  0.00     0.134 A 
ATOM     75  C   UNL A   1      36.615  32.127  31.611  1.00  0.00     0.134 A 
ATOM     76  F   UNL A   1      36.958  33.435  28.245  1.00  0.00    -0.206 F 
ATOM     77  C   UNL A   1      35.178  33.623  29.765  1.00  0.00     0.040 A 
ATOM     78  C   UNL A   1      35.335  32.585  31.931  1.00  0.00     0.040 A 
ATOM     79  F   UNL A   1      37.279  31.417  32.535  1.00  0.00    -0.206 F 
ATOM     80  C   UNL A   1      34.620  33.348  31.011  1.00  0.00     0.006 A 
ENDBRANCH  52  73
BRANCH  64  81
ATOM     81  C   UNL A   1      43.355  35.613  30.751  1.00  0.00     0.057 A 
ATOM     82  C   UNL A   1      43.480  36.609  29.773  1.00  0.00     0.134 A 
ATOM     83  C   UNL A   1      43.591  35.983  32.081  1.00  0.00     0.134 A 
ATOM     84  F   UNL A   1      43.278  36.320  28.478  1.00  0.00    -0.206 F 
ATOM     85  C   UNL A   1      43.868  37.909  30.101  1.00  0.00     0.040 A 
ATOM     86  C   UNL A   1      43.947  37.288  32.426  1.00  0.00     0.040 A 
ATOM     87  F   UNL A   1      43.476  35.084  33.071  1.00  0.00    -0.206 F 
ATOM     88  C   UNL A   1      44.099  38.252  31.432  1.00  0.00     0.006 A 
ENDBRANCH  64  81
ENDBRANCH  38  39
ENDBRANCH  30  33
ENDBRANCH  28  29
ENDBRANCH  27  28
ENDBRANCH   1  27
TORSDOF 16
ENDMDL
MODEL 3
REMARK VINA RESULT:     -11.8      0.755      6.369
REMARK SMILES O=C(NCCCCNC(=O)c1ccc(-c2c3nc(c(-c4c(F)cccc4F)c4ccc([nH]4)c(-c4c(F)cccc4F)c4nc(c(-c5c(F)cccc5F)c5ccc2[nH]5)C=C4)C=C3)cc1)c1ccc(N[C@H]2OC[C@@H](O)[C@@H](O)[C@H]2O)cc1
REMARK SMILES IDX 5 1 4 2 3 3 1 4 2 5 65 7 66 8 80 9 67 10 79 11 68 12 69 13
REMARK SMILES IDX 70 15 71 16 77 17 72 18 75 19 73 20 78 21 76 23 74 25 6 27
REMARK SMILES IDX 7 28 8 29 9 30 10 32 11 33 12 34 64 35 13 36 63 37 14 38
REMARK SMILES IDX 15 39 16 40 57 41 17 42 62 43 56 44 58 45 18 46 61 47 55 48
REMARK SMILES IDX 54 49 19 51 45 52 28 53 44 54 29 55 32 56 43 57 59 58 30 59
REMARK SMILES IDX 31 60 42 62 60 63 33 64 20 65 21 66 26 67 22 68 23 69 25 70
REMARK SMILES IDX 27 71 24 72 46 73 47 74 52 75 48 76 49 77 51 78 53 79 50 80
REMARK SMILES IDX 34 81 35 82 40 83 36 84 37 85 39 86 41 87 38 88
REMARK H PARENT 3 6 69 14 78 22 76 24 74 26 8 31 58 50 32 61
REMARK Flexibility Score: inf
ROOT
ATOM      1  C   UNL A   1      36.446  20.630  24.589  1.00  0.00     0.023 C 
ENDROOT
BRANCH   1   2
ATOM      2  C   UNL A   1      35.270  20.774  25.550  1.00  0.00     0.116 C 
BRANCH   2   3
ATOM      3  N   UNL A   1      34.245  19.768  25.322  1.00  0.00    -0.352 N 
ATOM      4  O   UNL A   1      32.149  18.993  24.991  1.00  0.00    -0.269 OA
ATOM      5  C   UNL A   1      32.932  19.941  24.959  1.00  0.00     0.251 C 
ATOM      6  H   UNL A   1      34.531  18.834  25.447  1.00  0.00     0.163 HD
BRANCH   5   7
ATOM      7  C   UNL A   1      32.461  21.275  24.544  1.00  0.00     0.039 A 
ATOM      8  C   UNL A   1      31.849  22.126  25.462  1.00  0.00     0.016 A 
ATOM      9  C   UNL A   1      32.644  21.686  23.226  1.00  0.00     0.016 A 
ATOM     10  C   UNL A   1      31.329  23.347  25.034  1.00  0.00     0.026 A 
ATOM     11  C   UNL A   1      32.138  22.924  22.815  1.00  0.00     0.026 A 
ATOM     12  C   UNL A   1      31.441  23.761  23.701  1.00  0.00     0.036 A 
BRANCH  12  13
ATOM     13  N   UNL A   1      30.973  24.980  23.240  1.00  0.00    -0.358 N 
ATOM     14  H   UNL A   1      30.173  24.978  22.665  1.00  0.00     0.163 HD
BRANCH  13  15
ATOM     15  C   UNL A   1      31.586  26.262  23.549  1.00  0.00     0.244 C 
ATOM     16  O   UNL A   1      33.004  26.140  23.415  1.00  0.00    -0.353 OA
ATOM     17  C   UNL A   1      31.091  27.302  22.516  1.00  0.00     0.195 C 
ATOM     18  C   UNL A   1      33.703  27.345  23.745  1.00  0.00     0.197 C 
ATOM     19  C   UNL A   1      31.796  28.640  22.768  1.00  0.00     0.178 C 
ATOM     20  C   UNL A   1      33.323  28.474  22.786  1.00  0.00     0.171 C 
BRANCH  17  21
ATOM     21  O   UNL A   1      31.410  26.838  21.179  1.00  0.00    -0.386 OA
ATOM     22  H   UNL A   1      30.746  26.190  20.895  1.00  0.00     0.211 HD
ENDBRANCH  17  21
BRANCH  19  23
ATOM     23  O   UNL A   1      31.414  29.587  21.768  1.00  0.00    -0.387 OA
ATOM     24  H   UNL A   1      31.678  30.477  22.047  1.00  0.00     0.211 HD
ENDBRANCH  19  23
BRANCH  20  25
ATOM     25  O   UNL A   1      33.806  28.169  21.470  1.00  0.00    -0.388 OA
ATOM     26  H   UNL A   1      33.830  27.206  21.350  1.00  0.00     0.211 HD
ENDBRANCH  20  25
ENDBRANCH  13  15
ENDBRANCH  12  13
ENDBRANCH   5   7
ENDBRANCH   2   3
ENDBRANCH   1   2
BRANCH   1  27
ATOM     27  C   UNL A   1      37.496  19.601  25.004  1.00  0.00     0.023 C 
BRANCH  27  28
ATOM     28  C   UNL A   1      38.710  20.167  25.729  1.00  0.00     0.116 C 
BRANCH  28  29
ATOM     29  N   UNL A   1      39.825  19.236  25.784  1.00  0.00    -0.352 N 
ATOM     30  C   UNL A   1      41.144  19.473  26.088  1.00  0.00     0.251 C 
ATOM     31  H   UNL A   1      39.604  18.300  25.574  1.00  0.00     0.163 HD
ATOM     32  O   UNL A   1      41.973  18.576  25.952  1.00  0.00    -0.269 OA
BRANCH  30  33
ATOM     33  C   UNL A   1      41.575  20.810  26.552  1.00  0.00     0.039 A 
ATOM     34  C   UNL A   1      41.895  21.781  25.600  1.00  0.00     0.014 A 
ATOM     35  C   UNL A   1      41.679  21.108  27.914  1.00  0.00     0.014 A 
ATOM     36  C   UNL A   1      42.277  23.060  26.013  1.00  0.00     0.010 A 
ATOM     37  C   UNL A   1      41.971  22.406  28.322  1.00  0.00     0.010 A 
ATOM     38  C   UNL A   1      42.295  23.392  27.378  1.00  0.00    -0.014 A 
BRANCH  38  39
ATOM     39  C   UNL A   1      42.702  24.748  27.833  1.00  0.00     0.031 A 
ATOM     40  C   UNL A   1      44.163  25.108  27.910  1.00  0.00     0.074 A 
ATOM     41  C   UNL A   1      41.767  25.644  28.202  1.00  0.00     0.049 A 
ATOM     42  N   UNL A   1      44.722  26.219  28.319  1.00  0.00    -0.248 NA
ATOM     43  C   UNL A   1      45.125  24.072  27.498  1.00  0.00     0.031 C 
ATOM     44  C   UNL A   1      40.322  25.407  28.221  1.00  0.00     0.029 A 
ATOM     45  N   UNL A   1      41.894  26.939  28.640  1.00  0.00    -0.354 N 
ATOM     46  C   UNL A   1      46.092  26.014  28.211  1.00  0.00     0.074 A 
ATOM     47  C   UNL A   1      46.284  24.649  27.774  1.00  0.00     0.031 C 
ATOM     48  C   UNL A   1      39.697  26.525  28.626  1.00  0.00     0.029 A 
ATOM     49  C   UNL A   1      40.695  27.546  28.927  1.00  0.00     0.049 A 
ATOM     50  H   UNL A   1      42.763  27.391  28.739  1.00  0.00     0.167 HD
ATOM     51  C   UNL A   1      47.102  26.893  28.420  1.00  0.00     0.037 A 
ATOM     52  C   UNL A   1      40.432  28.785  29.385  1.00  0.00     0.037 A 
ATOM     53  C   UNL A   1      46.914  28.256  28.841  1.00  0.00     0.049 A 
ATOM     54  C   UNL A   1      41.575  29.739  29.618  1.00  0.00     0.074 A 
ATOM     55  C   UNL A   1      47.871  29.229  29.071  1.00  0.00     0.029 A 
ATOM     56  N   UNL A   1      45.682  28.841  29.089  1.00  0.00    -0.354 N 
ATOM     57  N   UNL A   1      42.863  29.545  29.465  1.00  0.00    -0.248 NA
ATOM     58  C   UNL A   1      41.223  31.092  30.068  1.00  0.00     0.031 C 
ATOM     59  C   UNL A   1      47.220  30.394  29.490  1.00  0.00     0.029 A 
ATOM     60  C   UNL A   1      45.855  30.163  29.467  1.00  0.00     0.049 A 
ATOM     61  H   UNL A   1      44.813  28.387  29.008  1.00  0.00     0.167 HD
ATOM     62  C   UNL A   1      43.468  30.760  29.757  1.00  0.00     0.074 A 
ATOM     63  C   UNL A   1      42.406  31.689  30.079  1.00  0.00     0.031 C 
ATOM     64  C   UNL A   1      44.785  31.081  29.760  1.00  0.00     0.037 A 
BRANCH  51  65
ATOM     65  C   UNL A   1      48.501  26.410  28.169  1.00  0.00     0.057 A 
ATOM     66  C   UNL A   1      49.140  26.621  26.939  1.00  0.00     0.134 A 
ATOM     67  C   UNL A   1      49.233  25.763  29.172  1.00  0.00     0.134 A 
ATOM     68  F   UNL A   1      48.490  27.220  25.930  1.00  0.00    -0.206 F 
ATOM     69  C   UNL A   1      50.446  26.187  26.708  1.00  0.00     0.040 A 
ATOM     70  C   UNL A   1      50.551  25.351  28.964  1.00  0.00     0.040 A 
ATOM     71  F   UNL A   1      48.686  25.532  30.375  1.00  0.00    -0.206 F 
ATOM     72  C   UNL A   1      51.159  25.558  27.726  1.00  0.00     0.006 A 
ENDBRANCH  51  65
BRANCH  52  73
ATOM     73  C   UNL A   1      39.033  29.214  29.641  1.00  0.00     0.057 A 
ATOM     74  C   UNL A   1      38.451  29.083  30.908  1.00  0.00     0.134 A 
ATOM     75  C   UNL A   1      38.225  29.715  28.613  1.00  0.00     0.134 A 
ATOM     76  F   UNL A   1      39.167  28.594  31.932  1.00  0.00    -0.206 F 
ATOM     77  C   UNL A   1      37.108  29.394  31.135  1.00  0.00     0.040 A 
ATOM     78  C   UNL A   1      36.890  30.060  28.832  1.00  0.00     0.040 A 
ATOM     79  F   UNL A   1      38.722  29.875  27.378  1.00  0.00    -0.206 F 
ATOM     80  C   UNL A   1      36.324  29.885  30.093  1.00  0.00     0.006 A 
ENDBRANCH  52  73
BRANCH  64  81
ATOM     81  C   UNL A   1      45.142  32.512  30.051  1.00  0.00     0.057 A 
ATOM     82  C   UNL A   1      45.219  33.483  29.044  1.00  0.00     0.134 A 
ATOM     83  C   UNL A   1      45.405  32.921  31.364  1.00  0.00     0.134 A 
ATOM     84  F   UNL A   1      44.988  33.156  27.763  1.00  0.00    -0.206 F 
ATOM     85  C   UNL A   1      45.587  34.800  29.328  1.00  0.00     0.040 A 
ATOM     86  C   UNL A   1      45.742  34.242  31.665  1.00  0.00     0.040 A 
ATOM     87  F   UNL A   1      45.338  32.045  32.379  1.00  0.00    -0.206 F 
ATOM     88  C   UNL A   1      45.845  35.183  30.643  1.00  0.00     0.006 A 
ENDBRANCH  64  81
ENDBRANCH  38  39
ENDBRANCH  30  33
ENDBRANCH  28  29
ENDBRANCH  27  28
ENDBRANCH   1  27
TORSDOF 16
ENDMDL
