MODEL 1
REMARK VINA RESULT:     -12.2      0.000      0.000
REMARK SMILES Cc1ccccc1O[C@@H](C)C(=O)Oc1ccccc1C(=O)NCCCCNC(=O)c1ccc(-c2c3nc(c(-c4c(F)cccc4F)c4ccc([nH]4)c(-c4c(F)cccc4F)c4nc(c(-c5c(F)cccc5F)c5ccc2[nH]5)C=C4)C=C3)cc1
REMARK SMILES IDX 23 1 22 2 20 3 21 4 19 6 14 7 15 8 16 9 18 10 17 11 13 12
REMARK SMILES IDX 11 13 12 14 9 15 10 16 8 17 7 18 1 19 2 20 3 21 4 22 6 23
REMARK SMILES IDX 5 24 24 25 25 26 26 27 27 28 28 29 29 31 30 32 31 33 83 34
REMARK SMILES IDX 32 35 82 36 33 37 34 38 35 39 76 40 36 41 81 42 75 43 77 44
REMARK SMILES IDX 37 45 80 46 74 47 73 48 38 50 64 51 47 52 63 53 48 54 51 55
REMARK SMILES IDX 62 56 78 57 49 58 50 59 61 61 79 62 52 63 39 64 40 65 45 66
REMARK SMILES IDX 41 67 42 68 44 69 46 70 43 71 65 72 66 73 71 74 67 75 68 76
REMARK SMILES IDX 70 77 72 78 69 79 53 80 54 81 59 82 55 83 56 84 58 85 60 86
REMARK SMILES IDX 57 87
REMARK H PARENT 22 5 27 30 77 49 51 60
REMARK Flexibility Score: inf
ROOT
ATOM      1  C   UNL A   1      36.685  21.065  25.386  1.00  0.00     0.116 C 
ENDROOT
BRANCH   1   2
ATOM      2  N   UNL A   1      35.643  21.378  26.359  1.00  0.00    -0.352 N 
ATOM      3  C   UNL A   1      34.281  21.144  26.376  1.00  0.00     0.255 C 
ATOM      4  O   UNL A   1      33.650  21.385  27.404  1.00  0.00    -0.269 OA
ATOM      5  H   UNL A   1      35.975  21.848  27.158  1.00  0.00     0.163 HD
BRANCH   3   6
ATOM      6  C   UNL A   1      33.563  20.595  25.201  1.00  0.00     0.082 A 
ATOM      7  C   UNL A   1      33.088  21.395  24.150  1.00  0.00     0.143 A 
ATOM      8  C   UNL A   1      32.391  20.832  23.070  1.00  0.00     0.048 A 
ATOM      9  C   UNL A   1      32.132  19.466  23.040  1.00  0.00     0.004 A 
ATOM     10  C   UNL A   1      33.201  19.239  25.196  1.00  0.00     0.018 A 
ATOM     11  C   UNL A   1      32.516  18.672  24.115  1.00  0.00     0.001 A 
BRANCH   7  12
ATOM     12  O   UNL A   1      32.989  22.809  24.170  1.00  0.00    -0.423 OA
BRANCH  12  13
ATOM     13  C   UNL A   1      33.806  23.730  23.537  1.00  0.00     0.352 C 
ATOM     14  O   UNL A   1      34.236  23.613  22.394  1.00  0.00    -0.247 OA
BRANCH  13  15
ATOM     15  C   UNL A   1      34.066  24.952  24.464  1.00  0.00     0.280 C 
ATOM     16  C   UNL A   1      34.126  24.576  25.947  1.00  0.00     0.066 C 
BRANCH  15  17
ATOM     17  O   UNL A   1      33.515  26.253  24.345  1.00  0.00    -0.479 OA
BRANCH  17  18
ATOM     18  C   UNL A   1      32.986  27.010  25.342  1.00  0.00     0.123 A 
ATOM     19  C   UNL A   1      30.643  25.945  25.691  1.00  0.00     0.048 C 
ATOM     20  C   UNL A   1      31.734  26.940  25.969  1.00  0.00    -0.009 A 
ATOM     21  C   UNL A   1      31.475  27.814  27.053  1.00  0.00     0.007 A 
ATOM     22  C   UNL A   1      32.427  28.717  27.522  1.00  0.00     0.001 A 
ATOM     23  C   UNL A   1      33.943  27.916  25.844  1.00  0.00     0.047 A 
ATOM     24  C   UNL A   1      33.673  28.762  26.920  1.00  0.00     0.004 A 
ENDBRANCH  17  18
ENDBRANCH  15  17
ENDBRANCH  13  15
ENDBRANCH  12  13
ENDBRANCH   7  12
ENDBRANCH   3   6
ENDBRANCH   1   2
BRANCH   1  25
ATOM     25  C   UNL A   1      37.298  22.265  24.665  1.00  0.00     0.023 C 
BRANCH  25  26
ATOM     26  C   UNL A   1      38.234  23.152  25.481  1.00  0.00     0.023 C 
BRANCH  26  27
ATOM     27  C   UNL A   1      39.103  22.447  26.515  1.00  0.00     0.116 C 
BRANCH  27  28
ATOM     28  N   UNL A   1      40.529  22.742  26.463  1.00  0.00    -0.352 N 
ATOM     29  C   UNL A   1      41.185  23.966  26.546  1.00  0.00     0.251 C 
ATOM     30  H   UNL A   1      41.115  21.959  26.354  1.00  0.00     0.163 HD
ATOM     31  O   UNL A   1      42.400  24.007  26.429  1.00  0.00    -0.269 OA
BRANCH  29  32
ATOM     32  C   UNL A   1      40.439  25.201  26.924  1.00  0.00     0.039 A 
ATOM     33  C   UNL A   1      40.653  26.356  26.157  1.00  0.00     0.014 A 
ATOM     34  C   UNL A   1      39.725  25.296  28.113  1.00  0.00     0.014 A 
ATOM     35  C   UNL A   1      40.420  27.610  26.720  1.00  0.00     0.010 A 
ATOM     36  C   UNL A   1      39.594  26.530  28.718  1.00  0.00     0.010 A 
ATOM     37  C   UNL A   1      40.025  27.680  28.052  1.00  0.00    -0.014 A 
BRANCH  37  38
ATOM     38  C   UNL A   1      40.218  28.858  28.889  1.00  0.00     0.031 A 
ATOM     39  C   UNL A   1      39.167  29.884  29.033  1.00  0.00     0.074 A 
ATOM     40  C   UNL A   1      41.327  28.930  29.663  1.00  0.00     0.049 A 
ATOM     41  N   UNL A   1      39.389  31.048  29.543  1.00  0.00    -0.248 NA
ATOM     42  C   UNL A   1      37.797  29.726  28.552  1.00  0.00     0.031 C 
ATOM     43  C   UNL A   1      41.549  29.789  30.824  1.00  0.00     0.029 A 
ATOM     44  N   UNL A   1      42.584  28.360  29.413  1.00  0.00    -0.354 N 
ATOM     45  C   UNL A   1      38.174  31.645  29.758  1.00  0.00     0.074 A 
ATOM     46  C   UNL A   1      37.241  30.864  28.984  1.00  0.00     0.031 C 
ATOM     47  C   UNL A   1      42.869  29.927  31.016  1.00  0.00     0.029 A 
ATOM     48  C   UNL A   1      43.535  29.291  29.896  1.00  0.00     0.049 A 
ATOM     49  H   UNL A   1      42.767  27.491  28.989  1.00  0.00     0.167 HD
ATOM     50  C   UNL A   1      38.092  32.648  30.676  1.00  0.00     0.037 A 
ATOM     51  C   UNL A   1      44.412  29.908  29.049  1.00  0.00     0.037 A 
ATOM     52  C   UNL A   1      39.419  33.119  31.082  1.00  0.00     0.049 A 
ATOM     53  C   UNL A   1      44.297  31.419  28.996  1.00  0.00     0.074 A 
ATOM     54  C   UNL A   1      40.172  33.084  32.241  1.00  0.00     0.029 A 
ATOM     55  N   UNL A   1      40.261  33.607  30.098  1.00  0.00    -0.354 N 
ATOM     56  N   UNL A   1      43.425  32.116  29.670  1.00  0.00    -0.248 NA
ATOM     57  C   UNL A   1      45.093  32.255  28.095  1.00  0.00     0.031 C 
ATOM     58  C   UNL A   1      41.490  33.535  31.924  1.00  0.00     0.029 A 
ATOM     59  C   UNL A   1      41.522  33.872  30.582  1.00  0.00     0.049 A 
ATOM     60  H   UNL A   1      39.990  33.748  29.162  1.00  0.00     0.167 HD
ATOM     61  C   UNL A   1      43.448  33.415  29.236  1.00  0.00     0.074 A 
ATOM     62  C   UNL A   1      44.527  33.462  28.268  1.00  0.00     0.031 C 
ATOM     63  C   UNL A   1      42.535  34.339  29.649  1.00  0.00     0.037 A 
BRANCH  50  64
ATOM     64  C   UNL A   1      36.823  33.148  31.323  1.00  0.00     0.057 A 
ATOM     65  C   UNL A   1      36.493  32.744  32.634  1.00  0.00     0.134 A 
ATOM     66  C   UNL A   1      35.828  33.918  30.689  1.00  0.00     0.134 A 
ATOM     67  F   UNL A   1      37.336  32.005  33.370  1.00  0.00    -0.206 F 
ATOM     68  C   UNL A   1      35.274  33.060  33.248  1.00  0.00     0.040 A 
ATOM     69  C   UNL A   1      34.630  34.291  31.314  1.00  0.00     0.040 A 
ATOM     70  F   UNL A   1      35.923  34.303  29.412  1.00  0.00    -0.206 F 
ATOM     71  C   UNL A   1      34.340  33.847  32.593  1.00  0.00     0.006 A 
ENDBRANCH  50  64
BRANCH  51  72
ATOM     72  C   UNL A   1      44.801  29.045  27.904  1.00  0.00     0.057 A 
ATOM     73  C   UNL A   1      45.786  28.062  28.105  1.00  0.00     0.134 A 
ATOM     74  C   UNL A   1      43.980  28.908  26.782  1.00  0.00     0.134 A 
ATOM     75  F   UNL A   1      46.603  28.132  29.169  1.00  0.00    -0.206 F 
ATOM     76  C   UNL A   1      45.874  26.932  27.290  1.00  0.00     0.040 A 
ATOM     77  C   UNL A   1      44.069  27.786  25.951  1.00  0.00     0.040 A 
ATOM     78  F   UNL A   1      43.000  29.791  26.541  1.00  0.00    -0.206 F 
ATOM     79  C   UNL A   1      44.989  26.776  26.227  1.00  0.00     0.006 A 
ENDBRANCH  51  72
BRANCH  63  80
ATOM     80  C   UNL A   1      42.499  35.761  29.163  1.00  0.00     0.057 A 
ATOM     81  C   UNL A   1      41.792  36.148  28.017  1.00  0.00     0.134 A 
ATOM     82  C   UNL A   1      43.285  36.765  29.763  1.00  0.00     0.134 A 
ATOM     83  F   UNL A   1      41.042  35.268  27.339  1.00  0.00    -0.206 F 
ATOM     84  C   UNL A   1      41.850  37.455  27.512  1.00  0.00     0.040 A 
ATOM     85  C   UNL A   1      43.391  38.057  29.241  1.00  0.00     0.040 A 
ATOM     86  F   UNL A   1      43.966  36.542  30.896  1.00  0.00    -0.206 F 
ATOM     87  C   UNL A   1      42.664  38.409  28.113  1.00  0.00     0.006 A 
ENDBRANCH  63  80
ENDBRANCH  37  38
ENDBRANCH  29  32
ENDBRANCH  27  28
ENDBRANCH  26  27
ENDBRANCH  25  26
ENDBRANCH   1  25
TORSDOF 16
ENDMDL
MODEL 2
REMARK VINA RESULT:     -12.1      3.951      8.922
REMARK SMILES Cc1ccccc1O[C@@H](C)C(=O)Oc1ccccc1C(=O)NCCCCNC(=O)c1ccc(-c2c3nc(c(-c4c(F)cccc4F)c4ccc([nH]4)c(-c4c(F)cccc4F)c4nc(c(-c5c(F)cccc5F)c5ccc2[nH]5)C=C4)C=C3)cc1
REMARK SMILES IDX 23 1 22 2 20 3 21 4 19 6 14 7 15 8 16 9 18 10 17 11 13 12
REMARK SMILES IDX 11 13 12 14 9 15 10 16 8 17 7 18 1 19 2 20 3 21 4 22 6 23
REMARK SMILES IDX 5 24 24 25 25 26 26 27 27 28 28 29 29 31 30 32 31 33 83 34
REMARK SMILES IDX 32 35 82 36 33 37 34 38 35 39 76 40 36 41 81 42 75 43 77 44
REMARK SMILES IDX 37 45 80 46 74 47 73 48 38 50 64 51 47 52 63 53 48 54 51 55
REMARK SMILES IDX 62 56 78 57 49 58 50 59 61 61 79 62 52 63 39 64 40 65 45 66
REMARK SMILES IDX 41 67 42 68 44 69 46 70 43 71 65 72 66 73 71 74 67 75 68 76
REMARK SMILES IDX 70 77 72 78 69 79 53 80 54 81 59 82 55 83 56 84 58 85 60 86
REMARK SMILES IDX 57 87
REMARK H PARENT 22 5 27 30 77 49 51 60
REMARK Flexibility Score: inf
ROOT
ATOM      1  C   UNL A   1      32.094  28.079  27.250  1.00  0.00     0.116 C 
ENDROOT
BRANCH   1   2
ATOM      2  N   UNL A   1      31.086  27.079  26.912  1.00  0.00    -0.352 N 
ATOM      3  C   UNL A   1      31.179  25.754  26.529  1.00  0.00     0.255 C 
ATOM      4  O   UNL A   1      30.148  25.087  26.446  1.00  0.00    -0.269 OA
ATOM      5  H   UNL A   1      30.162  27.412  26.968  1.00  0.00     0.163 HD
BRANCH   3   6
ATOM      6  C   UNL A   1      32.481  25.110  26.232  1.00  0.00     0.082 A 
ATOM      7  C   UNL A   1      33.356  25.572  25.236  1.00  0.00     0.143 A 
ATOM      8  C   UNL A   1      34.567  24.915  24.975  1.00  0.00     0.048 A 
ATOM      9  C   UNL A   1      34.907  23.768  25.683  1.00  0.00     0.004 A 
ATOM     10  C   UNL A   1      32.799  23.896  26.860  1.00  0.00     0.018 A 
ATOM     11  C   UNL A   1      34.012  23.244  26.610  1.00  0.00     0.001 A 
BRANCH   7  12
ATOM     12  O   UNL A   1      33.033  26.517  24.229  1.00  0.00    -0.423 OA
BRANCH  12  13
ATOM     13  C   UNL A   1      32.182  26.356  23.149  1.00  0.00     0.352 C 
ATOM     14  O   UNL A   1      31.694  25.286  22.797  1.00  0.00    -0.247 OA
BRANCH  13  15
ATOM     15  C   UNL A   1      31.899  27.727  22.471  1.00  0.00     0.280 C 
ATOM     16  C   UNL A   1      32.368  28.918  23.311  1.00  0.00     0.066 C 
BRANCH  15  17
ATOM     17  O   UNL A   1      30.738  28.105  21.751  1.00  0.00    -0.479 OA
BRANCH  17  18
ATOM     18  C   UNL A   1      29.638  28.732  22.246  1.00  0.00     0.123 A 
ATOM     19  C   UNL A   1      28.554  26.899  23.733  1.00  0.00     0.048 C 
ATOM     20  C   UNL A   1      28.635  28.261  23.105  1.00  0.00    -0.009 A 
ATOM     21  C   UNL A   1      27.635  29.168  23.532  1.00  0.00     0.007 A 
ATOM     22  C   UNL A   1      27.633  30.507  23.144  1.00  0.00     0.001 A 
ATOM     23  C   UNL A   1      29.629  30.093  21.880  1.00  0.00     0.047 A 
ATOM     24  C   UNL A   1      28.641  30.974  22.319  1.00  0.00     0.004 A 
ENDBRANCH  17  18
ENDBRANCH  15  17
ENDBRANCH  13  15
ENDBRANCH  12  13
ENDBRANCH   7  12
ENDBRANCH   3   6
ENDBRANCH   1   2
BRANCH   1  25
ATOM     25  C   UNL A   1      31.852  29.478  26.683  1.00  0.00     0.023 C 
BRANCH  25  26
ATOM     26  C   UNL A   1      32.628  30.624  27.326  1.00  0.00     0.023 C 
BRANCH  26  27
ATOM     27  C   UNL A   1      34.145  30.482  27.351  1.00  0.00     0.116 C 
BRANCH  27  28
ATOM     28  N   UNL A   1      34.864  31.421  28.204  1.00  0.00    -0.352 N 
ATOM     29  C   UNL A   1      36.013  31.229  28.962  1.00  0.00     0.251 C 
ATOM     30  H   UNL A   1      34.478  32.325  28.249  1.00  0.00     0.163 HD
ATOM     31  O   UNL A   1      36.435  32.140  29.658  1.00  0.00    -0.269 OA
BRANCH  29  32
ATOM     32  C   UNL A   1      36.817  29.980  28.818  1.00  0.00     0.039 A 
ATOM     33  C   UNL A   1      36.983  29.175  29.955  1.00  0.00     0.014 A 
ATOM     34  C   UNL A   1      37.563  29.711  27.677  1.00  0.00     0.014 A 
ATOM     35  C   UNL A   1      38.083  28.323  30.039  1.00  0.00     0.010 A 
ATOM     36  C   UNL A   1      38.712  28.955  27.793  1.00  0.00     0.010 A 
ATOM     37  C   UNL A   1      39.016  28.332  29.006  1.00  0.00    -0.014 A 
BRANCH  37  38
ATOM     38  C   UNL A   1      40.399  27.900  29.164  1.00  0.00     0.031 A 
ATOM     39  C   UNL A   1      40.868  26.604  28.637  1.00  0.00     0.074 A 
ATOM     40  C   UNL A   1      41.298  28.774  29.673  1.00  0.00     0.049 A 
ATOM     41  N   UNL A   1      41.995  26.075  28.976  1.00  0.00    -0.248 NA
ATOM     42  C   UNL A   1      40.087  25.751  27.745  1.00  0.00     0.031 C 
ATOM     43  C   UNL A   1      42.755  28.712  29.576  1.00  0.00     0.029 A 
ATOM     44  N   UNL A   1      41.059  29.818  30.580  1.00  0.00    -0.354 N 
ATOM     45  C   UNL A   1      42.232  25.023  28.130  1.00  0.00     0.074 A 
ATOM     46  C   UNL A   1      40.960  24.765  27.503  1.00  0.00     0.031 C 
ATOM     47  C   UNL A   1      43.288  29.443  30.567  1.00  0.00     0.029 A 
ATOM     48  C   UNL A   1      42.197  29.868  31.422  1.00  0.00     0.049 A 
ATOM     49  H   UNL A   1      40.264  30.396  30.622  1.00  0.00     0.167 HD
ATOM     50  C   UNL A   1      43.513  24.591  27.968  1.00  0.00     0.037 A 
ATOM     51  C   UNL A   1      42.097  29.605  32.758  1.00  0.00     0.037 A 
ATOM     52  C   UNL A   1      44.409  25.163  28.978  1.00  0.00     0.049 A 
ATOM     53  C   UNL A   1      42.910  28.420  33.241  1.00  0.00     0.074 A 
ATOM     54  C   UNL A   1      45.465  26.056  28.975  1.00  0.00     0.029 A 
ATOM     55  N   UNL A   1      44.119  24.923  30.309  1.00  0.00    -0.354 N 
ATOM     56  N   UNL A   1      43.642  27.665  32.470  1.00  0.00    -0.248 NA
ATOM     57  C   UNL A   1      42.877  27.931  34.622  1.00  0.00     0.031 C 
ATOM     58  C   UNL A   1      45.782  26.366  30.333  1.00  0.00     0.029 A 
ATOM     59  C   UNL A   1      44.940  25.637  31.153  1.00  0.00     0.049 A 
ATOM     60  H   UNL A   1      43.410  24.313  30.617  1.00  0.00     0.167 HD
ATOM     61  C   UNL A   1      44.066  26.570  33.176  1.00  0.00     0.074 A 
ATOM     62  C   UNL A   1      43.586  26.793  34.527  1.00  0.00     0.031 C 
ATOM     63  C   UNL A   1      44.718  25.528  32.586  1.00  0.00     0.037 A 
BRANCH  50  64
ATOM     64  C   UNL A   1      44.019  23.741  26.827  1.00  0.00     0.057 A 
ATOM     65  C   UNL A   1      44.728  24.338  25.764  1.00  0.00     0.134 A 
ATOM     66  C   UNL A   1      43.746  22.371  26.643  1.00  0.00     0.134 A 
ATOM     67  F   UNL A   1      45.063  25.636  25.788  1.00  0.00    -0.206 F 
ATOM     68  C   UNL A   1      45.111  23.637  24.612  1.00  0.00     0.040 A 
ATOM     69  C   UNL A   1      44.176  21.646  25.523  1.00  0.00     0.040 A 
ATOM     70  F   UNL A   1      42.998  21.666  27.498  1.00  0.00    -0.206 F 
ATOM     71  C   UNL A   1      44.846  22.282  24.492  1.00  0.00     0.006 A 
ENDBRANCH  50  64
BRANCH  51  72
ATOM     72  C   UNL A   1      40.790  30.028  33.326  1.00  0.00     0.057 A 
ATOM     73  C   UNL A   1      40.583  31.391  33.600  1.00  0.00     0.134 A 
ATOM     74  C   UNL A   1      39.658  29.214  33.234  1.00  0.00     0.134 A 
ATOM     75  F   UNL A   1      41.630  32.227  33.694  1.00  0.00    -0.206 F 
ATOM     76  C   UNL A   1      39.302  31.942  33.664  1.00  0.00     0.040 A 
ATOM     77  C   UNL A   1      38.369  29.753  33.310  1.00  0.00     0.040 A 
ATOM     78  F   UNL A   1      39.776  27.909  32.947  1.00  0.00    -0.206 F 
ATOM     79  C   UNL A   1      38.189  31.125  33.485  1.00  0.00     0.006 A 
ENDBRANCH  51  72
BRANCH  63  80
ATOM     80  C   UNL A   1      45.158  24.291  33.316  1.00  0.00     0.057 A 
ATOM     81  C   UNL A   1      44.301  23.209  33.554  1.00  0.00     0.134 A 
ATOM     82  C   UNL A   1      46.430  24.204  33.919  1.00  0.00     0.134 A 
ATOM     83  F   UNL A   1      43.052  23.199  33.065  1.00  0.00    -0.206 F 
ATOM     84  C   UNL A   1      44.690  22.105  34.326  1.00  0.00     0.040 A 
ATOM     85  C   UNL A   1      46.812  23.134  34.732  1.00  0.00     0.040 A 
ATOM     86  F   UNL A   1      47.365  25.146  33.725  1.00  0.00    -0.206 F 
ATOM     87  C   UNL A   1      45.941  22.074  34.932  1.00  0.00     0.006 A 
ENDBRANCH  63  80
ENDBRANCH  37  38
ENDBRANCH  29  32
ENDBRANCH  27  28
ENDBRANCH  26  27
ENDBRANCH  25  26
ENDBRANCH   1  25
TORSDOF 16
ENDMDL
MODEL 3
REMARK VINA RESULT:     -12.0      3.559      9.050
REMARK SMILES Cc1ccccc1O[C@@H](C)C(=O)Oc1ccccc1C(=O)NCCCCNC(=O)c1ccc(-c2c3nc(c(-c4c(F)cccc4F)c4ccc([nH]4)c(-c4c(F)cccc4F)c4nc(c(-c5c(F)cccc5F)c5ccc2[nH]5)C=C4)C=C3)cc1
REMARK SMILES IDX 23 1 22 2 20 3 21 4 19 6 14 7 15 8 16 9 18 10 17 11 13 12
REMARK SMILES IDX 11 13 12 14 9 15 10 16 8 17 7 18 1 19 2 20 3 21 4 22 6 23
REMARK SMILES IDX 5 24 24 25 25 26 26 27 27 28 28 29 29 31 30 32 31 33 83 34
REMARK SMILES IDX 32 35 82 36 33 37 34 38 35 39 76 40 36 41 81 42 75 43 77 44
REMARK SMILES IDX 37 45 80 46 74 47 73 48 38 50 64 51 47 52 63 53 48 54 51 55
REMARK SMILES IDX 62 56 78 57 49 58 50 59 61 61 79 62 52 63 39 64 40 65 45 66
REMARK SMILES IDX 41 67 42 68 44 69 46 70 43 71 65 72 66 73 71 74 67 75 68 76
REMARK SMILES IDX 70 77 72 78 69 79 53 80 54 81 59 82 55 83 56 84 58 85 60 86
REMARK SMILES IDX 57 87
REMARK H PARENT 22 5 27 30 77 49 51 60
REMARK Flexibility Score: inf
ROOT
ATOM      1  C   UNL A   1      32.172  28.292  27.270  1.00  0.00     0.116 C 
ENDROOT
BRANCH   1   2
ATOM      2  N   UNL A   1      31.124  27.283  27.155  1.00  0.00    -0.352 N 
ATOM      3  C   UNL A   1      30.801  26.383  26.156  1.00  0.00     0.255 C 
ATOM      4  O   UNL A   1      29.945  25.529  26.381  1.00  0.00    -0.269 OA
ATOM      5  H   UNL A   1      30.533  27.232  27.940  1.00  0.00     0.163 HD
BRANCH   3   6
ATOM      6  C   UNL A   1      31.465  26.408  24.831  1.00  0.00     0.082 A 
ATOM      7  C   UNL A   1      32.681  25.755  24.570  1.00  0.00     0.143 A 
ATOM      8  C   UNL A   1      33.285  25.827  23.306  1.00  0.00     0.048 A 
ATOM      9  C   UNL A   1      32.699  26.578  22.293  1.00  0.00     0.004 A 
ATOM     10  C   UNL A   1      30.949  27.239  23.825  1.00  0.00     0.018 A 
ATOM     11  C   UNL A   1      31.543  27.304  22.559  1.00  0.00     0.001 A 
BRANCH   7  12
ATOM     12  O   UNL A   1      33.555  25.219  25.550  1.00  0.00    -0.423 OA
BRANCH  12  13
ATOM     13  C   UNL A   1      33.568  23.936  26.071  1.00  0.00     0.352 C 
ATOM     14  O   UNL A   1      32.666  23.446  26.742  1.00  0.00    -0.247 OA
BRANCH  13  15
ATOM     15  C   UNL A   1      34.867  23.192  25.649  1.00  0.00     0.280 C 
ATOM     16  C   UNL A   1      36.086  24.115  25.569  1.00  0.00     0.066 C 
BRANCH  15  17
ATOM     17  O   UNL A   1      34.996  22.181  24.664  1.00  0.00    -0.479 OA
BRANCH  17  18
ATOM     18  C   UNL A   1      34.097  21.202  24.377  1.00  0.00     0.123 A 
ATOM     19  C   UNL A   1      32.390  22.421  22.847  1.00  0.00     0.048 C 
ATOM     20  C   UNL A   1      32.930  21.240  23.601  1.00  0.00    -0.009 A 
ATOM     21  C   UNL A   1      32.218  20.033  23.398  1.00  0.00     0.007 A 
ATOM     22  C   UNL A   1      32.651  18.818  23.925  1.00  0.00     0.001 A 
ATOM     23  C   UNL A   1      34.530  19.959  24.884  1.00  0.00     0.047 A 
ATOM     24  C   UNL A   1      33.820  18.779  24.665  1.00  0.00     0.004 A 
ENDBRANCH  17  18
ENDBRANCH  15  17
ENDBRANCH  13  15
ENDBRANCH  12  13
ENDBRANCH   7  12
ENDBRANCH   3   6
ENDBRANCH   1   2
BRANCH   1  25
ATOM     25  C   UNL A   1      31.864  29.642  26.622  1.00  0.00     0.023 C 
BRANCH  25  26
ATOM     26  C   UNL A   1      32.502  30.872  27.259  1.00  0.00     0.023 C 
BRANCH  26  27
ATOM     27  C   UNL A   1      34.023  30.873  27.354  1.00  0.00     0.116 C 
BRANCH  27  28
ATOM     28  N   UNL A   1      34.600  31.698  28.408  1.00  0.00    -0.352 N 
ATOM     29  C   UNL A   1      35.682  31.442  29.242  1.00  0.00     0.251 C 
ATOM     30  H   UNL A   1      34.158  32.567  28.549  1.00  0.00     0.163 HD
ATOM     31  O   UNL A   1      35.981  32.251  30.107  1.00  0.00    -0.269 OA
BRANCH  29  32
ATOM     32  C   UNL A   1      36.568  30.267  28.995  1.00  0.00     0.039 A 
ATOM     33  C   UNL A   1      36.706  29.324  30.024  1.00  0.00     0.014 A 
ATOM     34  C   UNL A   1      37.405  30.195  27.888  1.00  0.00     0.014 A 
ATOM     35  C   UNL A   1      37.849  28.526  30.077  1.00  0.00     0.010 A 
ATOM     36  C   UNL A   1      38.588  29.491  27.988  1.00  0.00     0.010 A 
ATOM     37  C   UNL A   1      38.846  28.724  29.127  1.00  0.00    -0.014 A 
BRANCH  37  38
ATOM     38  C   UNL A   1      40.239  28.346  29.331  1.00  0.00     0.031 A 
ATOM     39  C   UNL A   1      40.781  27.080  28.801  1.00  0.00     0.074 A 
ATOM     40  C   UNL A   1      41.082  29.248  29.887  1.00  0.00     0.049 A 
ATOM     41  N   UNL A   1      41.916  26.592  29.174  1.00  0.00    -0.248 NA
ATOM     42  C   UNL A   1      40.069  26.212  27.867  1.00  0.00     0.031 C 
ATOM     43  C   UNL A   1      42.543  29.247  29.843  1.00  0.00     0.029 A 
ATOM     44  N   UNL A   1      40.766  30.265  30.800  1.00  0.00    -0.354 N 
ATOM     45  C   UNL A   1      42.227  25.565  28.321  1.00  0.00     0.074 A 
ATOM     46  C   UNL A   1      40.991  25.266  27.642  1.00  0.00     0.031 C 
ATOM     47  C   UNL A   1      43.008  29.981  30.865  1.00  0.00     0.029 A 
ATOM     48  C   UNL A   1      41.869  30.347  31.685  1.00  0.00     0.049 A 
ATOM     49  H   UNL A   1      39.948  30.809  30.822  1.00  0.00     0.167 HD
ATOM     50  C   UNL A   1      43.531  25.189  28.200  1.00  0.00     0.037 A 
ATOM     51  C   UNL A   1      41.732  30.057  33.013  1.00  0.00     0.037 A 
ATOM     52  C   UNL A   1      44.364  25.780  29.252  1.00  0.00     0.049 A 
ATOM     53  C   UNL A   1      42.575  28.898  33.507  1.00  0.00     0.074 A 
ATOM     54  C   UNL A   1      45.381  26.715  29.302  1.00  0.00     0.029 A 
ATOM     55  N   UNL A   1      44.035  25.505  30.567  1.00  0.00    -0.354 N 
ATOM     56  N   UNL A   1      43.365  28.187  32.752  1.00  0.00    -0.248 NA
ATOM     57  C   UNL A   1      42.511  28.384  34.877  1.00  0.00     0.031 C 
ATOM     58  C   UNL A   1      45.635  27.014  30.676  1.00  0.00     0.029 A 
ATOM     59  C   UNL A   1      44.794  26.237  31.453  1.00  0.00     0.049 A 
ATOM     60  H   UNL A   1      43.341  24.861  30.839  1.00  0.00     0.167 HD
ATOM     61  C   UNL A   1      43.808  27.098  33.456  1.00  0.00     0.074 A 
ATOM     62  C   UNL A   1      43.270  27.278  34.791  1.00  0.00     0.031 C 
ATOM     63  C   UNL A   1      44.524  26.094  32.874  1.00  0.00     0.037 A 
BRANCH  50  64
ATOM     64  C   UNL A   1      44.113  24.380  27.066  1.00  0.00     0.057 A 
ATOM     65  C   UNL A   1      44.972  23.296  27.342  1.00  0.00     0.134 A 
ATOM     66  C   UNL A   1      43.977  24.675  25.695  1.00  0.00     0.134 A 
ATOM     67  F   UNL A   1      45.206  22.892  28.599  1.00  0.00    -0.206 F 
ATOM     68  C   UNL A   1      45.651  22.585  26.343  1.00  0.00     0.040 A 
ATOM     69  C   UNL A   1      44.604  23.934  24.684  1.00  0.00     0.040 A 
ATOM     70  F   UNL A   1      43.285  25.730  25.252  1.00  0.00    -0.206 F 
ATOM     71  C   UNL A   1      45.460  22.895  25.006  1.00  0.00     0.006 A 
ENDBRANCH  50  64
BRANCH  51  72
ATOM     72  C   UNL A   1      40.388  30.415  33.538  1.00  0.00     0.057 A 
ATOM     73  C   UNL A   1      40.127  31.759  33.860  1.00  0.00     0.134 A 
ATOM     74  C   UNL A   1      39.287  29.574  33.359  1.00  0.00     0.134 A 
ATOM     75  F   UNL A   1      41.142  32.620  34.038  1.00  0.00    -0.206 F 
ATOM     76  C   UNL A   1      38.827  32.268  33.889  1.00  0.00     0.040 A 
ATOM     77  C   UNL A   1      37.980  30.072  33.399  1.00  0.00     0.040 A 
ATOM     78  F   UNL A   1      39.459  28.287  33.023  1.00  0.00    -0.206 F 
ATOM     79  C   UNL A   1      37.750  31.428  33.625  1.00  0.00     0.006 A 
ENDBRANCH  51  72
BRANCH  63  80
ATOM     80  C   UNL A   1      44.988  24.864  33.601  1.00  0.00     0.057 A 
ATOM     81  C   UNL A   1      46.344  24.556  33.774  1.00  0.00     0.134 A 
ATOM     82  C   UNL A   1      44.079  23.880  34.040  1.00  0.00     0.134 A 
ATOM     83  F   UNL A   1      47.301  25.398  33.358  1.00  0.00    -0.206 F 
ATOM     84  C   UNL A   1      46.767  23.354  34.360  1.00  0.00     0.040 A 
ATOM     85  C   UNL A   1      44.488  22.657  34.579  1.00  0.00     0.040 A 
ATOM     86  F   UNL A   1      42.753  24.073  33.984  1.00  0.00    -0.206 F 
ATOM     87  C   UNL A   1      45.839  22.393  34.748  1.00  0.00     0.006 A 
ENDBRANCH  63  80
ENDBRANCH  37  38
ENDBRANCH  29  32
ENDBRANCH  27  28
ENDBRANCH  26  27
ENDBRANCH  25  26
ENDBRANCH   1  25
TORSDOF 16
ENDMDL
