MODEL 1
REMARK VINA RESULT:     -12.4      0.000      0.000
REMARK SMILES O=C(Cc1ccccc1-c1ccn(C(F)F)c(=O)c1)NCCCCNC(=O)c1ccc(-c2c3nc(c(-c4c(F)cccc4F)c4ccc([nH]4)c(-c4c(F)cccc4F)c4nc(c(-c5c(F)cccc5F)c5ccc2[nH]5)C=C4)C=C3)cc1
REMARK SMILES IDX 22 1 21 2 20 3 1 4 2 5 3 7 4 8 5 9 9 10 6 11 8 12 7 13 10 14
REMARK SMILES IDX 11 15 19 16 12 17 17 18 13 19 18 20 14 21 15 22 16 23 23 24
REMARK SMILES IDX 24 25 25 26 26 27 27 29 28 30 29 31 81 32 30 33 80 34 31 35
REMARK SMILES IDX 32 36 33 37 74 38 34 39 79 40 73 41 75 42 35 43 78 44 72 45
REMARK SMILES IDX 71 46 36 48 62 49 45 50 61 51 46 52 49 53 60 54 76 55 47 56
REMARK SMILES IDX 48 57 59 59 77 60 50 61 37 62 38 63 43 64 39 65 40 66 42 67
REMARK SMILES IDX 44 68 41 69 63 70 64 71 69 72 65 73 66 74 68 75 70 76 67 77
REMARK SMILES IDX 51 78 52 79 57 80 53 81 54 82 56 83 58 84 55 85
REMARK H PARENT 20 6 25 28 75 47 49 58
REMARK Flexibility Score: inf
ROOT
ATOM      1  C   UNL A   1      31.811  30.501  26.869  1.00  0.00     0.023 C 
ENDROOT
BRANCH   1   2
ATOM      2  C   UNL A   1      32.543  29.946  25.654  1.00  0.00     0.116 C 
BRANCH   2   3
ATOM      3  N   UNL A   1      31.688  29.573  24.540  1.00  0.00    -0.356 N 
ATOM      4  O   UNL A   1      33.434  28.931  23.200  1.00  0.00    -0.275 OA
ATOM      5  C   UNL A   1      32.222  28.993  23.403  1.00  0.00     0.224 C 
ATOM      6  H   UNL A   1      30.718  29.734  24.595  1.00  0.00     0.163 HD
BRANCH   5   7
ATOM      7  C   UNL A   1      31.222  28.487  22.380  1.00  0.00     0.136 C 
BRANCH   7   8
ATOM      8  C   UNL A   1      29.754  28.412  22.780  1.00  0.00    -0.031 A 
ATOM      9  C   UNL A   1      28.911  29.424  22.274  1.00  0.00     0.005 A 
ATOM     10  C   UNL A   1      29.158  27.347  23.499  1.00  0.00    -0.014 A 
ATOM     11  C   UNL A   1      27.535  29.411  22.507  1.00  0.00     0.000 A 
ATOM     12  C   UNL A   1      27.773  27.358  23.742  1.00  0.00     0.009 A 
ATOM     13  C   UNL A   1      26.968  28.383  23.250  1.00  0.00     0.001 A 
BRANCH  10  14
ATOM     14  C   UNL A   1      29.921  26.192  24.007  1.00  0.00    -0.011 A 
ATOM     15  C   UNL A   1      30.301  25.082  23.159  1.00  0.00     0.027 A 
ATOM     16  C   UNL A   1      30.230  26.151  25.314  1.00  0.00     0.080 A 
ATOM     17  C   UNL A   1      30.690  23.926  23.708  1.00  0.00     0.095 A 
ATOM     18  C   UNL A   1      30.820  24.918  25.910  1.00  0.00     0.255 A 
ATOM     19  N   UNL A   1      30.855  23.813  25.075  1.00  0.00    -0.258 N 
ATOM     20  O   UNL A   1      31.189  24.948  27.079  1.00  0.00    -0.269 OA
BRANCH  19  21
ATOM     21  C   UNL A   1      31.162  22.532  25.656  1.00  0.00     0.451 C 
ATOM     22  F   UNL A   1      30.073  22.010  26.270  1.00  0.00    -0.185 F 
ATOM     23  F   UNL A   1      31.593  21.637  24.735  1.00  0.00    -0.185 F 
ENDBRANCH  19  21
ENDBRANCH  10  14
ENDBRANCH   7   8
ENDBRANCH   5   7
ENDBRANCH   2   3
ENDBRANCH   1   2
BRANCH   1  24
ATOM     24  C   UNL A   1      31.584  32.013  26.868  1.00  0.00     0.023 C 
BRANCH  24  25
ATOM     25  C   UNL A   1      32.799  32.871  27.213  1.00  0.00     0.116 C 
BRANCH  25  26
ATOM     26  N   UNL A   1      32.455  34.226  27.614  1.00  0.00    -0.352 N 
ATOM     27  C   UNL A   1      32.999  35.026  28.595  1.00  0.00     0.251 C 
ATOM     28  H   UNL A   1      31.718  34.636  27.104  1.00  0.00     0.163 HD
ATOM     29  O   UNL A   1      32.477  36.100  28.864  1.00  0.00    -0.269 OA
BRANCH  27  30
ATOM     30  C   UNL A   1      34.190  34.578  29.352  1.00  0.00     0.039 A 
ATOM     31  C   UNL A   1      34.013  34.052  30.635  1.00  0.00     0.014 A 
ATOM     32  C   UNL A   1      35.474  34.673  28.811  1.00  0.00     0.014 A 
ATOM     33  C   UNL A   1      35.110  33.537  31.334  1.00  0.00     0.010 A 
ATOM     34  C   UNL A   1      36.552  34.083  29.470  1.00  0.00     0.010 A 
ATOM     35  C   UNL A   1      36.381  33.502  30.737  1.00  0.00    -0.014 A 
BRANCH  35  36
ATOM     36  C   UNL A   1      37.535  32.848  31.411  1.00  0.00     0.031 A 
ATOM     37  C   UNL A   1      38.197  31.644  30.798  1.00  0.00     0.074 A 
ATOM     38  C   UNL A   1      37.947  33.298  32.614  1.00  0.00     0.049 A 
ATOM     39  N   UNL A   1      39.166  30.901  31.272  1.00  0.00    -0.248 NA
ATOM     40  C   UNL A   1      37.684  31.199  29.494  1.00  0.00     0.031 C 
ATOM     41  C   UNL A   1      37.367  34.428  33.342  1.00  0.00     0.029 A 
ATOM     42  N   UNL A   1      38.949  32.852  33.443  1.00  0.00    -0.354 N 
ATOM     43  C   UNL A   1      39.368  29.898  30.333  1.00  0.00     0.074 A 
ATOM     44  C   UNL A   1      38.385  30.094  29.289  1.00  0.00     0.031 C 
ATOM     45  C   UNL A   1      38.036  34.604  34.492  1.00  0.00     0.029 A 
ATOM     46  C   UNL A   1      39.063  33.573  34.608  1.00  0.00     0.049 A 
ATOM     47  H   UNL A   1      39.528  32.088  33.225  1.00  0.00     0.167 HD
ATOM     48  C   UNL A   1      40.302  28.916  30.327  1.00  0.00     0.037 A 
ATOM     49  C   UNL A   1      39.894  33.418  35.656  1.00  0.00     0.037 A 
ATOM     50  C   UNL A   1      41.294  28.734  31.356  1.00  0.00     0.049 A 
ATOM     51  C   UNL A   1      40.907  32.306  35.636  1.00  0.00     0.074 A 
ATOM     52  C   UNL A   1      42.321  27.807  31.407  1.00  0.00     0.029 A 
ATOM     53  N   UNL A   1      41.380  29.489  32.515  1.00  0.00    -0.354 N 
ATOM     54  N   UNL A   1      41.132  31.409  34.707  1.00  0.00    -0.248 NA
ATOM     55  C   UNL A   1      41.784  32.187  36.810  1.00  0.00     0.031 C 
ATOM     56  C   UNL A   1      42.992  27.963  32.623  1.00  0.00     0.029 A 
ATOM     57  C   UNL A   1      42.423  29.028  33.303  1.00  0.00     0.049 A 
ATOM     58  H   UNL A   1      40.788  30.242  32.745  1.00  0.00     0.167 HD
ATOM     59  C   UNL A   1      42.197  30.643  35.167  1.00  0.00     0.074 A 
ATOM     60  C   UNL A   1      42.580  31.189  36.452  1.00  0.00     0.031 C 
ATOM     61  C   UNL A   1      42.803  29.584  34.577  1.00  0.00     0.037 A 
BRANCH  48  62
ATOM     62  C   UNL A   1      40.295  27.956  29.172  1.00  0.00     0.057 A 
ATOM     63  C   UNL A   1      39.537  26.778  29.191  1.00  0.00     0.134 A 
ATOM     64  C   UNL A   1      41.022  28.234  28.006  1.00  0.00     0.134 A 
ATOM     65  F   UNL A   1      38.825  26.445  30.279  1.00  0.00    -0.206 F 
ATOM     66  C   UNL A   1      39.526  25.897  28.108  1.00  0.00     0.040 A 
ATOM     67  C   UNL A   1      40.995  27.376  26.905  1.00  0.00     0.040 A 
ATOM     68  F   UNL A   1      41.764  29.348  27.915  1.00  0.00    -0.206 F 
ATOM     69  C   UNL A   1      40.249  26.200  26.957  1.00  0.00     0.006 A 
ENDBRANCH  48  62
BRANCH  49  70
ATOM     70  C   UNL A   1      39.822  34.349  36.813  1.00  0.00     0.057 A 
ATOM     71  C   UNL A   1      39.044  34.045  37.936  1.00  0.00     0.134 A 
ATOM     72  C   UNL A   1      40.508  35.570  36.816  1.00  0.00     0.134 A 
ATOM     73  F   UNL A   1      38.346  32.900  37.985  1.00  0.00    -0.206 F 
ATOM     74  C   UNL A   1      38.930  34.930  39.010  1.00  0.00     0.040 A 
ATOM     75  C   UNL A   1      40.426  36.452  37.896  1.00  0.00     0.040 A 
ATOM     76  F   UNL A   1      41.277  35.918  35.774  1.00  0.00    -0.206 F 
ATOM     77  C   UNL A   1      39.627  36.136  38.993  1.00  0.00     0.006 A 
ENDBRANCH  49  70
BRANCH  61  78
ATOM     78  C   UNL A   1      43.972  28.970  35.292  1.00  0.00     0.057 A 
ATOM     79  C   UNL A   1      45.289  29.381  35.054  1.00  0.00     0.134 A 
ATOM     80  C   UNL A   1      43.771  27.979  36.262  1.00  0.00     0.134 A 
ATOM     81  F   UNL A   1      45.554  30.318  34.130  1.00  0.00    -0.206 F 
ATOM     82  C   UNL A   1      46.367  28.811  35.735  1.00  0.00     0.040 A 
ATOM     83  C   UNL A   1      44.836  27.423  36.971  1.00  0.00     0.040 A 
ATOM     84  F   UNL A   1      42.534  27.544  36.547  1.00  0.00    -0.206 F 
ATOM     85  C   UNL A   1      46.140  27.834  36.704  1.00  0.00     0.006 A 
ENDBRANCH  61  78
ENDBRANCH  35  36
ENDBRANCH  27  30
ENDBRANCH  25  26
ENDBRANCH  24  25
ENDBRANCH   1  24
TORSDOF 14
ENDMDL
MODEL 2
REMARK VINA RESULT:     -12.4      4.211      8.562
REMARK SMILES O=C(Cc1ccccc1-c1ccn(C(F)F)c(=O)c1)NCCCCNC(=O)c1ccc(-c2c3nc(c(-c4c(F)cccc4F)c4ccc([nH]4)c(-c4c(F)cccc4F)c4nc(c(-c5c(F)cccc5F)c5ccc2[nH]5)C=C4)C=C3)cc1
REMARK SMILES IDX 22 1 21 2 20 3 1 4 2 5 3 7 4 8 5 9 9 10 6 11 8 12 7 13 10 14
REMARK SMILES IDX 11 15 19 16 12 17 17 18 13 19 18 20 14 21 15 22 16 23 23 24
REMARK SMILES IDX 24 25 25 26 26 27 27 29 28 30 29 31 81 32 30 33 80 34 31 35
REMARK SMILES IDX 32 36 33 37 74 38 34 39 79 40 73 41 75 42 35 43 78 44 72 45
REMARK SMILES IDX 71 46 36 48 62 49 45 50 61 51 46 52 49 53 60 54 76 55 47 56
REMARK SMILES IDX 48 57 59 59 77 60 50 61 37 62 38 63 43 64 39 65 40 66 42 67
REMARK SMILES IDX 44 68 41 69 63 70 64 71 69 72 65 73 66 74 68 75 70 76 67 77
REMARK SMILES IDX 51 78 52 79 57 80 53 81 54 82 56 83 58 84 55 85
REMARK H PARENT 20 6 25 28 75 47 49 58
REMARK Flexibility Score: inf
ROOT
ATOM      1  C   UNL A   1      31.476  27.594  26.085  1.00  0.00     0.023 C 
ENDROOT
BRANCH   1   2
ATOM      2  C   UNL A   1      30.425  26.496  26.183  1.00  0.00     0.116 C 
BRANCH   2   3
ATOM      3  N   UNL A   1      30.688  25.319  25.372  1.00  0.00    -0.356 N 
ATOM      4  O   UNL A   1      31.349  24.036  27.153  1.00  0.00    -0.275 OA
ATOM      5  C   UNL A   1      31.055  24.122  25.962  1.00  0.00     0.224 C 
ATOM      6  H   UNL A   1      30.604  25.374  24.392  1.00  0.00     0.163 HD
BRANCH   5   7
ATOM      7  C   UNL A   1      31.134  22.921  25.038  1.00  0.00     0.136 C 
BRANCH   7   8
ATOM      8  C   UNL A   1      32.435  22.129  24.991  1.00  0.00    -0.031 A 
ATOM      9  C   UNL A   1      32.371  20.787  25.421  1.00  0.00     0.005 A 
ATOM     10  C   UNL A   1      33.651  22.593  24.434  1.00  0.00    -0.014 A 
ATOM     11  C   UNL A   1      33.481  19.943  25.345  1.00  0.00     0.000 A 
ATOM     12  C   UNL A   1      34.766  21.737  24.382  1.00  0.00     0.009 A 
ATOM     13  C   UNL A   1      34.682  20.422  24.835  1.00  0.00     0.001 A 
BRANCH  10  14
ATOM     14  C   UNL A   1      33.818  23.948  23.877  1.00  0.00    -0.011 A 
ATOM     15  C   UNL A   1      34.303  25.056  24.671  1.00  0.00     0.027 A 
ATOM     16  C   UNL A   1      33.459  24.166  22.601  1.00  0.00     0.080 A 
ATOM     17  C   UNL A   1      34.131  26.312  24.241  1.00  0.00     0.095 A 
ATOM     18  C   UNL A   1      33.420  25.555  22.057  1.00  0.00     0.255 A 
ATOM     19  N   UNL A   1      33.605  26.563  22.989  1.00  0.00    -0.258 N 
ATOM     20  O   UNL A   1      33.192  25.712  20.862  1.00  0.00    -0.269 OA
BRANCH  19  21
ATOM     21  C   UNL A   1      33.320  27.917  22.589  1.00  0.00     0.451 C 
ATOM     22  F   UNL A   1      33.269  28.734  23.668  1.00  0.00    -0.185 F 
ATOM     23  F   UNL A   1      34.249  28.409  21.735  1.00  0.00    -0.185 F 
ENDBRANCH  19  21
ENDBRANCH  10  14
ENDBRANCH   7   8
ENDBRANCH   5   7
ENDBRANCH   2   3
ENDBRANCH   1   2
BRANCH   1  24
ATOM     24  C   UNL A   1      32.099  28.030  27.410  1.00  0.00     0.023 C 
BRANCH  24  25
ATOM     25  C   UNL A   1      33.500  28.631  27.324  1.00  0.00     0.116 C 
BRANCH  25  26
ATOM     26  N   UNL A   1      33.554  30.030  27.718  1.00  0.00    -0.352 N 
ATOM     27  C   UNL A   1      34.583  30.755  28.278  1.00  0.00     0.251 C 
ATOM     28  H   UNL A   1      32.726  30.539  27.560  1.00  0.00     0.163 HD
ATOM     29  O   UNL A   1      34.384  31.901  28.660  1.00  0.00    -0.269 OA
BRANCH  27  30
ATOM     30  C   UNL A   1      35.920  30.143  28.458  1.00  0.00     0.039 A 
ATOM     31  C   UNL A   1      36.826  30.181  27.394  1.00  0.00     0.014 A 
ATOM     32  C   UNL A   1      36.286  29.536  29.661  1.00  0.00     0.014 A 
ATOM     33  C   UNL A   1      38.125  29.692  27.568  1.00  0.00     0.010 A 
ATOM     34  C   UNL A   1      37.604  29.129  29.861  1.00  0.00     0.010 A 
ATOM     35  C   UNL A   1      38.542  29.208  28.819  1.00  0.00    -0.014 A 
BRANCH  35  36
ATOM     36  C   UNL A   1      39.952  28.800  29.061  1.00  0.00     0.031 A 
ATOM     37  C   UNL A   1      40.929  29.759  29.688  1.00  0.00     0.074 A 
ATOM     38  C   UNL A   1      40.374  27.586  28.653  1.00  0.00     0.049 A 
ATOM     39  N   UNL A   1      42.210  29.606  29.912  1.00  0.00    -0.248 NA
ATOM     40  C   UNL A   1      40.402  31.071  30.092  1.00  0.00     0.031 C 
ATOM     41  C   UNL A   1      39.544  26.577  27.993  1.00  0.00     0.029 A 
ATOM     42  N   UNL A   1      41.613  26.997  28.727  1.00  0.00    -0.354 N 
ATOM     43  C   UNL A   1      42.642  30.803  30.468  1.00  0.00     0.074 A 
ATOM     44  C   UNL A   1      41.500  31.691  30.497  1.00  0.00     0.031 C 
ATOM     45  C   UNL A   1      40.287  25.486  27.747  1.00  0.00     0.029 A 
ATOM     46  C   UNL A   1      41.656  25.732  28.188  1.00  0.00     0.049 A 
ATOM     47  H   UNL A   1      42.396  27.438  29.126  1.00  0.00     0.167 HD
ATOM     48  C   UNL A   1      43.873  31.127  30.934  1.00  0.00     0.037 A 
ATOM     49  C   UNL A   1      42.683  24.871  28.056  1.00  0.00     0.037 A 
ATOM     50  C   UNL A   1      45.005  30.235  30.924  1.00  0.00     0.049 A 
ATOM     51  C   UNL A   1      44.044  25.263  28.561  1.00  0.00     0.074 A 
ATOM     52  C   UNL A   1      46.275  30.451  31.430  1.00  0.00     0.029 A 
ATOM     53  N   UNL A   1      45.005  28.962  30.376  1.00  0.00    -0.354 N 
ATOM     54  N   UNL A   1      44.421  26.372  29.149  1.00  0.00    -0.248 NA
ATOM     55  C   UNL A   1      45.125  24.281  28.385  1.00  0.00     0.031 C 
ATOM     56  C   UNL A   1      47.060  29.332  31.137  1.00  0.00     0.029 A 
ATOM     57  C   UNL A   1      46.262  28.393  30.503  1.00  0.00     0.049 A 
ATOM     58  H   UNL A   1      44.227  28.527  29.958  1.00  0.00     0.167 HD
ATOM     59  C   UNL A   1      45.768  26.208  29.445  1.00  0.00     0.074 A 
ATOM     60  C   UNL A   1      46.140  24.888  28.983  1.00  0.00     0.031 C 
ATOM     61  C   UNL A   1      46.620  27.074  30.047  1.00  0.00     0.037 A 
BRANCH  48  62
ATOM     62  C   UNL A   1      44.064  32.508  31.493  1.00  0.00     0.057 A 
ATOM     63  C   UNL A   1      43.870  32.792  32.851  1.00  0.00     0.134 A 
ATOM     64  C   UNL A   1      44.489  33.560  30.670  1.00  0.00     0.134 A 
ATOM     65  F   UNL A   1      43.453  31.834  33.694  1.00  0.00    -0.206 F 
ATOM     66  C   UNL A   1      44.063  34.076  33.365  1.00  0.00     0.040 A 
ATOM     67  C   UNL A   1      44.715  34.841  31.178  1.00  0.00     0.040 A 
ATOM     68  F   UNL A   1      44.702  33.358  29.361  1.00  0.00    -0.206 F 
ATOM     69  C   UNL A   1      44.495  35.102  32.529  1.00  0.00     0.006 A 
ENDBRANCH  48  62
BRANCH  49  70
ATOM     70  C   UNL A   1      42.466  23.539  27.433  1.00  0.00     0.057 A 
ATOM     71  C   UNL A   1      42.197  22.411  28.217  1.00  0.00     0.134 A 
ATOM     72  C   UNL A   1      42.541  23.356  26.047  1.00  0.00     0.134 A 
ATOM     73  F   UNL A   1      42.132  22.516  29.553  1.00  0.00    -0.206 F 
ATOM     74  C   UNL A   1      42.036  21.145  27.650  1.00  0.00     0.040 A 
ATOM     75  C   UNL A   1      42.354  22.101  25.463  1.00  0.00     0.040 A 
ATOM     76  F   UNL A   1      42.788  24.397  25.238  1.00  0.00    -0.206 F 
ATOM     77  C   UNL A   1      42.110  20.990  26.267  1.00  0.00     0.006 A 
ENDBRANCH  49  70
BRANCH  61  78
ATOM     78  C   UNL A   1      48.028  26.607  30.281  1.00  0.00     0.057 A 
ATOM     79  C   UNL A   1      48.393  25.885  31.425  1.00  0.00     0.134 A 
ATOM     80  C   UNL A   1      49.026  26.851  29.328  1.00  0.00     0.134 A 
ATOM     81  F   UNL A   1      47.490  25.627  32.384  1.00  0.00    -0.206 F 
ATOM     82  C   UNL A   1      49.704  25.446  31.625  1.00  0.00     0.040 A 
ATOM     83  C   UNL A   1      50.331  26.391  29.501  1.00  0.00     0.040 A 
ATOM     84  F   UNL A   1      48.744  27.528  28.204  1.00  0.00    -0.206 F 
ATOM     85  C   UNL A   1      50.675  25.692  30.655  1.00  0.00     0.006 A 
ENDBRANCH  61  78
ENDBRANCH  35  36
ENDBRANCH  27  30
ENDBRANCH  25  26
ENDBRANCH  24  25
ENDBRANCH   1  24
TORSDOF 14
ENDMDL
MODEL 3
REMARK VINA RESULT:     -12.2      1.898      3.206
REMARK SMILES O=C(Cc1ccccc1-c1ccn(C(F)F)c(=O)c1)NCCCCNC(=O)c1ccc(-c2c3nc(c(-c4c(F)cccc4F)c4ccc([nH]4)c(-c4c(F)cccc4F)c4nc(c(-c5c(F)cccc5F)c5ccc2[nH]5)C=C4)C=C3)cc1
REMARK SMILES IDX 22 1 21 2 20 3 1 4 2 5 3 7 4 8 5 9 9 10 6 11 8 12 7 13 10 14
REMARK SMILES IDX 11 15 19 16 12 17 17 18 13 19 18 20 14 21 15 22 16 23 23 24
REMARK SMILES IDX 24 25 25 26 26 27 27 29 28 30 29 31 81 32 30 33 80 34 31 35
REMARK SMILES IDX 32 36 33 37 74 38 34 39 79 40 73 41 75 42 35 43 78 44 72 45
REMARK SMILES IDX 71 46 36 48 62 49 45 50 61 51 46 52 49 53 60 54 76 55 47 56
REMARK SMILES IDX 48 57 59 59 77 60 50 61 37 62 38 63 43 64 39 65 40 66 42 67
REMARK SMILES IDX 44 68 41 69 63 70 64 71 69 72 65 73 66 74 68 75 70 76 67 77
REMARK SMILES IDX 51 78 52 79 57 80 53 81 54 82 56 83 58 84 55 85
REMARK H PARENT 20 6 25 28 75 47 49 58
REMARK Flexibility Score: inf
ROOT
ATOM      1  C   UNL A   1      31.602  30.669  26.202  1.00  0.00     0.023 C 
ENDROOT
BRANCH   1   2
ATOM      2  C   UNL A   1      32.766  29.978  26.902  1.00  0.00     0.116 C 
BRANCH   2   3
ATOM      3  N   UNL A   1      32.864  28.548  26.662  1.00  0.00    -0.356 N 
ATOM      4  O   UNL A   1      31.036  28.039  27.949  1.00  0.00    -0.275 OA
ATOM      5  C   UNL A   1      31.902  27.682  27.151  1.00  0.00     0.224 C 
ATOM      6  H   UNL A   1      33.622  28.192  26.145  1.00  0.00     0.163 HD
BRANCH   5   7
ATOM      7  C   UNL A   1      32.009  26.239  26.694  1.00  0.00     0.136 C 
BRANCH   7   8
ATOM      8  C   UNL A   1      32.646  25.955  25.340  1.00  0.00    -0.031 A 
ATOM      9  C   UNL A   1      33.798  25.141  25.343  1.00  0.00     0.005 A 
ATOM     10  C   UNL A   1      32.101  26.331  24.088  1.00  0.00    -0.014 A 
ATOM     11  C   UNL A   1      34.417  24.747  24.156  1.00  0.00     0.000 A 
ATOM     12  C   UNL A   1      32.748  25.943  22.900  1.00  0.00     0.009 A 
ATOM     13  C   UNL A   1      33.898  25.158  22.935  1.00  0.00     0.001 A 
BRANCH  10  14
ATOM     14  C   UNL A   1      30.857  27.111  23.952  1.00  0.00    -0.011 A 
ATOM     15  C   UNL A   1      29.548  26.503  24.048  1.00  0.00     0.027 A 
ATOM     16  C   UNL A   1      30.949  28.425  23.683  1.00  0.00     0.080 A 
ATOM     17  C   UNL A   1      28.471  27.160  23.600  1.00  0.00     0.095 A 
ATOM     18  C   UNL A   1      29.728  29.210  23.341  1.00  0.00     0.255 A 
ATOM     19  N   UNL A   1      28.574  28.465  23.159  1.00  0.00    -0.258 N 
ATOM     20  O   UNL A   1      29.829  30.425  23.205  1.00  0.00    -0.269 OA
BRANCH  19  21
ATOM     21  C   UNL A   1      27.431  29.117  22.575  1.00  0.00     0.451 C 
ATOM     22  F   UNL A   1      26.949  30.074  23.403  1.00  0.00    -0.185 F 
ATOM     23  F   UNL A   1      27.720  29.699  21.386  1.00  0.00    -0.185 F 
ENDBRANCH  19  21
ENDBRANCH  10  14
ENDBRANCH   7   8
ENDBRANCH   5   7
ENDBRANCH   2   3
ENDBRANCH   1   2
BRANCH   1  24
ATOM     24  C   UNL A   1      31.415  32.148  26.541  1.00  0.00     0.023 C 
BRANCH  24  25
ATOM     25  C   UNL A   1      32.571  32.815  27.281  1.00  0.00     0.116 C 
BRANCH  25  26
ATOM     26  N   UNL A   1      32.326  34.214  27.597  1.00  0.00    -0.352 N 
ATOM     27  C   UNL A   1      32.950  35.042  28.503  1.00  0.00     0.251 C 
ATOM     28  H   UNL A   1      31.599  34.635  27.082  1.00  0.00     0.163 HD
ATOM     29  O   UNL A   1      32.505  36.163  28.713  1.00  0.00    -0.269 OA
BRANCH  27  30
ATOM     30  C   UNL A   1      34.136  34.571  29.256  1.00  0.00     0.039 A 
ATOM     31  C   UNL A   1      33.957  34.069  30.548  1.00  0.00     0.014 A 
ATOM     32  C   UNL A   1      35.416  34.620  28.699  1.00  0.00     0.014 A 
ATOM     33  C   UNL A   1      35.047  33.533  31.243  1.00  0.00     0.010 A 
ATOM     34  C   UNL A   1      36.483  34.009  29.357  1.00  0.00     0.010 A 
ATOM     35  C   UNL A   1      36.310  33.452  30.634  1.00  0.00    -0.014 A 
BRANCH  35  36
ATOM     36  C   UNL A   1      37.451  32.775  31.306  1.00  0.00     0.031 A 
ATOM     37  C   UNL A   1      38.119  31.586  30.668  1.00  0.00     0.074 A 
ATOM     38  C   UNL A   1      37.847  33.188  32.528  1.00  0.00     0.049 A 
ATOM     39  N   UNL A   1      39.079  30.827  31.134  1.00  0.00    -0.248 NA
ATOM     40  C   UNL A   1      37.624  31.182  29.343  1.00  0.00     0.031 C 
ATOM     41  C   UNL A   1      37.258  34.299  33.279  1.00  0.00     0.029 A 
ATOM     42  N   UNL A   1      38.834  32.715  33.358  1.00  0.00    -0.354 N 
ATOM     43  C   UNL A   1      39.292  29.851  30.170  1.00  0.00     0.074 A 
ATOM     44  C   UNL A   1      38.325  30.081  29.117  1.00  0.00     0.031 C 
ATOM     45  C   UNL A   1      37.911  34.438  34.444  1.00  0.00     0.029 A 
ATOM     46  C   UNL A   1      38.933  33.401  34.546  1.00  0.00     0.049 A 
ATOM     47  H   UNL A   1      39.414  31.955  33.126  1.00  0.00     0.167 HD
ATOM     48  C   UNL A   1      40.223  28.867  30.149  1.00  0.00     0.037 A 
ATOM     49  C   UNL A   1      39.748  33.213  35.601  1.00  0.00     0.037 A 
ATOM     50  C   UNL A   1      41.198  28.651  31.187  1.00  0.00     0.049 A 
ATOM     51  C   UNL A   1      40.757  32.098  35.563  1.00  0.00     0.074 A 
ATOM     52  C   UNL A   1      42.222  27.719  31.226  1.00  0.00     0.029 A 
ATOM     53  N   UNL A   1      41.269  29.372  32.369  1.00  0.00    -0.354 N 
ATOM     54  N   UNL A   1      40.994  31.228  34.612  1.00  0.00    -0.248 NA
ATOM     55  C   UNL A   1      41.616  31.942  36.746  1.00  0.00     0.031 C 
ATOM     56  C   UNL A   1      42.874  27.837  32.457  1.00  0.00     0.029 A 
ATOM     57  C   UNL A   1      42.299  28.884  33.158  1.00  0.00     0.049 A 
ATOM     58  H   UNL A   1      40.676  30.119  32.612  1.00  0.00     0.167 HD
ATOM     59  C   UNL A   1      42.049  30.445  35.066  1.00  0.00     0.074 A 
ATOM     60  C   UNL A   1      42.414  30.952  36.371  1.00  0.00     0.031 C 
ATOM     61  C   UNL A   1      42.661  29.402  34.454  1.00  0.00     0.037 A 
BRANCH  48  62
ATOM     62  C   UNL A   1      40.231  27.941  28.966  1.00  0.00     0.057 A 
ATOM     63  C   UNL A   1      40.957  28.230  27.803  1.00  0.00     0.134 A 
ATOM     64  C   UNL A   1      39.538  26.723  29.006  1.00  0.00     0.134 A 
ATOM     65  F   UNL A   1      41.635  29.383  27.693  1.00  0.00    -0.206 F 
ATOM     66  C   UNL A   1      40.969  27.357  26.712  1.00  0.00     0.040 A 
ATOM     67  C   UNL A   1      39.568  25.829  27.935  1.00  0.00     0.040 A 
ATOM     68  F   UNL A   1      38.828  26.379  30.092  1.00  0.00    -0.206 F 
ATOM     69  C   UNL A   1      40.280  26.149  26.780  1.00  0.00     0.006 A 
ENDBRANCH  48  62
BRANCH  49  70
ATOM     70  C   UNL A   1      39.660  34.110  36.783  1.00  0.00     0.057 A 
ATOM     71  C   UNL A   1      38.888  33.762  37.897  1.00  0.00     0.134 A 
ATOM     72  C   UNL A   1      40.327  35.341  36.821  1.00  0.00     0.134 A 
ATOM     73  F   UNL A   1      38.209  32.604  37.914  1.00  0.00    -0.206 F 
ATOM     74  C   UNL A   1      38.759  34.614  38.995  1.00  0.00     0.040 A 
ATOM     75  C   UNL A   1      40.230  36.191  37.924  1.00  0.00     0.040 A 
ATOM     76  F   UNL A   1      41.089  35.731  35.789  1.00  0.00    -0.206 F 
ATOM     77  C   UNL A   1      39.437  35.832  39.012  1.00  0.00     0.006 A 
ENDBRANCH  49  70
BRANCH  61  78
ATOM     78  C   UNL A   1      43.817  28.763  35.168  1.00  0.00     0.057 A 
ATOM     79  C   UNL A   1      43.649  27.669  36.026  1.00  0.00     0.134 A 
ATOM     80  C   UNL A   1      45.123  29.228  34.964  1.00  0.00     0.134 A 
ATOM     81  F   UNL A   1      42.424  27.181  36.276  1.00  0.00    -0.206 F 
ATOM     82  C   UNL A   1      44.735  27.077  36.675  1.00  0.00     0.040 A 
ATOM     83  C   UNL A   1      46.219  28.626  35.583  1.00  0.00     0.040 A 
ATOM     84  F   UNL A   1      45.357  30.267  34.148  1.00  0.00    -0.206 F 
ATOM     85  C   UNL A   1      46.026  27.551  36.447  1.00  0.00     0.006 A 
ENDBRANCH  61  78
ENDBRANCH  35  36
ENDBRANCH  27  30
ENDBRANCH  25  26
ENDBRANCH  24  25
ENDBRANCH   1  24
TORSDOF 14
ENDMDL
