MODEL 1
REMARK VINA RESULT:     -11.5      0.000      0.000
REMARK SMILES O=C(CCC1CC[NH+]([C@H]2CCO[C@]3(CCSC3)C2)CC1)NCCCCNC(=O)c1ccc(-c2c3nc(c(-c4c(F)cccc4F)c4ccc([nH]4)c(-c4c(F)cccc4F)c4nc(c(-c5c(F)cccc5F)c5ccc2[nH]5)C=C4)C=C3)cc1
REMARK SMILES IDX 23 1 22 2 21 3 1 4 2 5 3 7 4 8 5 9 6 10 20 11 7 12 19 13
REMARK SMILES IDX 8 14 9 16 10 17 18 18 11 19 13 20 12 21 14 22 17 23 15 24
REMARK SMILES IDX 16 25 24 26 25 27 26 28 27 29 28 31 29 32 30 33 82 34 31 35
REMARK SMILES IDX 81 36 32 37 33 38 34 39 75 40 35 41 80 42 74 43 76 44 36 45
REMARK SMILES IDX 79 46 73 47 72 48 37 50 63 51 46 52 62 53 47 54 50 55 61 56
REMARK SMILES IDX 77 57 48 58 49 59 60 61 78 62 51 63 38 64 39 65 44 66 40 67
REMARK SMILES IDX 41 68 43 69 45 70 42 71 64 72 65 73 70 74 66 75 67 76 69 77
REMARK SMILES IDX 71 78 68 79 52 80 53 81 58 82 54 83 55 84 57 85 59 86 56 87
REMARK H PARENT 21 6 8 15 26 30 76 49 50 60
REMARK Flexibility Score: inf
ROOT
ATOM      1  C   UNL A   1      34.774  33.981  29.039  1.00  0.00     0.023 C 
ENDROOT
BRANCH   1   2
ATOM      2  C   UNL A   1      34.970  32.835  28.044  1.00  0.00     0.116 C 
BRANCH   2   3
ATOM      3  N   UNL A   1      33.739  32.100  27.842  1.00  0.00    -0.356 N 
ATOM      4  O   UNL A   1      34.679  30.106  27.223  1.00  0.00    -0.275 OA
ATOM      5  C   UNL A   1      33.682  30.788  27.438  1.00  0.00     0.220 C 
ATOM      6  H   UNL A   1      32.889  32.570  28.006  1.00  0.00     0.163 HD
BRANCH   5   7
ATOM      7  C   UNL A   1      32.275  30.257  27.202  1.00  0.00     0.100 C 
BRANCH   7   8
ATOM      8  C   UNL A   1      31.779  30.273  25.751  1.00  0.00     0.014 C 
BRANCH   8   9
ATOM      9  C   UNL A   1      31.498  28.912  25.075  1.00  0.00     0.000 C 
ATOM     10  C   UNL A   1      31.822  27.749  26.038  1.00  0.00     0.065 C 
ATOM     11  C   UNL A   1      32.181  28.724  23.708  1.00  0.00     0.065 C 
ATOM     12  C   UNL A   1      33.251  27.195  25.937  1.00  0.00     0.262 C 
ATOM     13  C   UNL A   1      33.619  28.242  23.812  1.00  0.00     0.262 C 
ATOM     14  N   UNL A   1      33.749  27.005  24.572  1.00  0.00    -0.332 N 
ATOM     15  H   UNL A   1      34.754  26.837  24.619  1.00  0.00     0.348 HD
BRANCH  14  16
ATOM     16  C   UNL A   1      33.417  25.714  23.918  1.00  0.00     0.189 C 
ATOM     17  C   UNL A   1      33.473  25.687  22.381  1.00  0.00     0.093 C 
ATOM     18  C   UNL A   1      34.191  24.506  24.500  1.00  0.00     0.101 C 
ATOM     19  C   UNL A   1      33.183  24.310  21.811  1.00  0.00     0.167 C 
ATOM     20  C   UNL A   1      33.848  23.166  23.812  1.00  0.00     0.084 C 
ATOM     21  O   UNL A   1      34.029  23.329  22.393  1.00  0.00    -0.374 OA
ATOM     22  C   UNL A   1      32.443  22.615  24.116  1.00  0.00     0.047 C 
ATOM     23  C   UNL A   1      34.809  22.046  24.250  1.00  0.00     0.105 C 
ATOM     24  C   UNL A   1      32.433  21.863  25.440  1.00  0.00     0.072 C 
ATOM     25  S   UNL A   1      34.138  21.379  25.792  1.00  0.00    -0.159 SA
ENDBRANCH  14  16
ENDBRANCH   8   9
ENDBRANCH   7   8
ENDBRANCH   5   7
ENDBRANCH   2   3
ENDBRANCH   1   2
BRANCH   1  26
ATOM     26  C   UNL A   1      33.369  34.598  29.073  1.00  0.00     0.023 C 
BRANCH  26  27
ATOM     27  C   UNL A   1      33.297  36.065  29.489  1.00  0.00     0.116 C 
BRANCH  27  28
ATOM     28  N   UNL A   1      32.437  36.278  30.641  1.00  0.00    -0.352 N 
ATOM     29  C   UNL A   1      32.550  35.822  31.932  1.00  0.00     0.251 C 
ATOM     30  H   UNL A   1      31.649  36.840  30.468  1.00  0.00     0.163 HD
ATOM     31  O   UNL A   1      31.621  35.995  32.716  1.00  0.00    -0.269 OA
BRANCH  29  32
ATOM     32  C   UNL A   1      33.762  35.102  32.388  1.00  0.00     0.039 A 
ATOM     33  C   UNL A   1      33.619  33.799  32.876  1.00  0.00     0.014 A 
ATOM     34  C   UNL A   1      35.024  35.702  32.377  1.00  0.00     0.014 A 
ATOM     35  C   UNL A   1      34.744  33.078  33.289  1.00  0.00     0.010 A 
ATOM     36  C   UNL A   1      36.154  34.960  32.724  1.00  0.00     0.010 A 
ATOM     37  C   UNL A   1      36.026  33.640  33.181  1.00  0.00    -0.014 A 
BRANCH  37  38
ATOM     38  C   UNL A   1      37.241  32.854  33.525  1.00  0.00     0.031 A 
ATOM     39  C   UNL A   1      37.993  33.124  34.799  1.00  0.00     0.074 A 
ATOM     40  C   UNL A   1      37.705  31.933  32.659  1.00  0.00     0.049 A 
ATOM     41  N   UNL A   1      39.110  32.593  35.232  1.00  0.00    -0.248 NA
ATOM     42  C   UNL A   1      37.426  34.142  35.699  1.00  0.00     0.031 C 
ATOM     43  C   UNL A   1      37.095  31.601  31.370  1.00  0.00     0.029 A 
ATOM     44  N   UNL A   1      38.805  31.114  32.725  1.00  0.00    -0.354 N 
ATOM     45  C   UNL A   1      39.383  33.215  36.442  1.00  0.00     0.074 A 
ATOM     46  C   UNL A   1      38.343  34.200  36.653  1.00  0.00     0.031 C 
ATOM     47  C   UNL A   1      37.818  30.639  30.776  1.00  0.00     0.029 A 
ATOM     48  C   UNL A   1      38.964  30.315  31.620  1.00  0.00     0.049 A 
ATOM     49  H   UNL A   1      39.422  31.101  33.493  1.00  0.00     0.167 HD
ATOM     50  C   UNL A   1      40.396  32.976  37.309  1.00  0.00     0.037 A 
ATOM     51  C   UNL A   1      39.930  29.429  31.312  1.00  0.00     0.037 A 
ATOM     52  C   UNL A   1      41.423  31.985  37.108  1.00  0.00     0.049 A 
ATOM     53  C   UNL A   1      41.054  29.194  32.281  1.00  0.00     0.074 A 
ATOM     54  C   UNL A   1      42.463  31.638  37.953  1.00  0.00     0.029 A 
ATOM     55  N   UNL A   1      41.540  31.185  35.982  1.00  0.00    -0.354 N 
ATOM     56  N   UNL A   1      41.269  29.749  33.450  1.00  0.00    -0.248 NA
ATOM     57  C   UNL A   1      42.069  28.203  31.893  1.00  0.00     0.031 C 
ATOM     58  C   UNL A   1      43.236  30.660  37.318  1.00  0.00     0.029 A 
ATOM     59  C   UNL A   1      42.648  30.362  36.100  1.00  0.00     0.049 A 
ATOM     60  H   UNL A   1      40.927  31.200  35.211  1.00  0.00     0.167 HD
ATOM     61  C   UNL A   1      42.423  29.158  33.946  1.00  0.00     0.074 A 
ATOM     62  C   UNL A   1      42.856  28.190  32.959  1.00  0.00     0.031 C 
ATOM     63  C   UNL A   1      43.067  29.396  35.114  1.00  0.00     0.037 A 
BRANCH  50  64
ATOM     64  C   UNL A   1      40.445  33.803  38.562  1.00  0.00     0.057 A 
ATOM     65  C   UNL A   1      41.221  34.967  38.649  1.00  0.00     0.134 A 
ATOM     66  C   UNL A   1      39.682  33.454  39.683  1.00  0.00     0.134 A 
ATOM     67  F   UNL A   1      41.984  35.353  37.615  1.00  0.00    -0.206 F 
ATOM     68  C   UNL A   1      41.257  35.737  39.812  1.00  0.00     0.040 A 
ATOM     69  C   UNL A   1      39.687  34.231  40.843  1.00  0.00     0.040 A 
ATOM     70  F   UNL A   1      38.909  32.356  39.667  1.00  0.00    -0.206 F 
ATOM     71  C   UNL A   1      40.482  35.373  40.912  1.00  0.00     0.006 A 
ENDBRANCH  50  64
BRANCH  51  72
ATOM     72  C   UNL A   1      39.872  28.688  30.026  1.00  0.00     0.057 A 
ATOM     73  C   UNL A   1      40.508  29.177  28.879  1.00  0.00     0.134 A 
ATOM     74  C   UNL A   1      39.176  27.479  29.912  1.00  0.00     0.134 A 
ATOM     75  F   UNL A   1      41.176  30.339  28.921  1.00  0.00    -0.206 F 
ATOM     76  C   UNL A   1      40.437  28.501  27.660  1.00  0.00     0.040 A 
ATOM     77  C   UNL A   1      39.117  26.780  28.706  1.00  0.00     0.040 A 
ATOM     78  F   UNL A   1      38.557  26.954  30.979  1.00  0.00    -0.206 F 
ATOM     79  C   UNL A   1      39.743  27.295  27.574  1.00  0.00     0.006 A 
ENDBRANCH  51  72
BRANCH  63  80
ATOM     80  C   UNL A   1      44.287  28.573  35.409  1.00  0.00     0.057 A 
ATOM     81  C   UNL A   1      45.573  28.998  35.051  1.00  0.00     0.134 A 
ATOM     82  C   UNL A   1      44.176  27.354  36.092  1.00  0.00     0.134 A 
ATOM     83  F   UNL A   1      45.747  30.148  34.383  1.00  0.00    -0.206 F 
ATOM     84  C   UNL A   1      46.702  28.229  35.340  1.00  0.00     0.040 A 
ATOM     85  C   UNL A   1      45.300  26.591  36.412  1.00  0.00     0.040 A 
ATOM     86  F   UNL A   1      42.975  26.894  36.472  1.00  0.00    -0.206 F 
ATOM     87  C   UNL A   1      46.567  27.025  36.030  1.00  0.00     0.006 A 
ENDBRANCH  63  80
ENDBRANCH  37  38
ENDBRANCH  29  32
ENDBRANCH  27  28
ENDBRANCH  26  27
ENDBRANCH   1  26
TORSDOF 14
ENDMDL
MODEL 2
REMARK VINA RESULT:     -11.2      6.827     12.239
REMARK SMILES O=C(CCC1CC[NH+]([C@H]2CCO[C@]3(CCSC3)C2)CC1)NCCCCNC(=O)c1ccc(-c2c3nc(c(-c4c(F)cccc4F)c4ccc([nH]4)c(-c4c(F)cccc4F)c4nc(c(-c5c(F)cccc5F)c5ccc2[nH]5)C=C4)C=C3)cc1
REMARK SMILES IDX 23 1 22 2 21 3 1 4 2 5 3 7 4 8 5 9 6 10 20 11 7 12 19 13
REMARK SMILES IDX 8 14 9 16 10 17 18 18 11 19 13 20 12 21 14 22 17 23 15 24
REMARK SMILES IDX 16 25 24 26 25 27 26 28 27 29 28 31 29 32 30 33 82 34 31 35
REMARK SMILES IDX 81 36 32 37 33 38 34 39 75 40 35 41 80 42 74 43 76 44 36 45
REMARK SMILES IDX 79 46 73 47 72 48 37 50 63 51 46 52 62 53 47 54 50 55 61 56
REMARK SMILES IDX 77 57 48 58 49 59 60 61 78 62 51 63 38 64 39 65 44 66 40 67
REMARK SMILES IDX 41 68 43 69 45 70 42 71 64 72 65 73 70 74 66 75 67 76 69 77
REMARK SMILES IDX 71 78 68 79 52 80 53 81 58 82 54 83 55 84 57 85 59 86 56 87
REMARK H PARENT 21 6 8 15 26 30 76 49 50 60
REMARK Flexibility Score: inf
ROOT
ATOM      1  C   UNL A   1      42.038  20.724  26.696  1.00  0.00     0.023 C 
ENDROOT
BRANCH   1   2
ATOM      2  C   UNL A   1      41.324  21.942  26.107  1.00  0.00     0.116 C 
BRANCH   2   3
ATOM      3  N   UNL A   1      39.949  21.633  25.774  1.00  0.00    -0.356 N 
ATOM      4  O   UNL A   1      38.987  23.477  26.730  1.00  0.00    -0.275 OA
ATOM      5  C   UNL A   1      38.877  22.420  26.117  1.00  0.00     0.220 C 
ATOM      6  H   UNL A   1      39.772  20.806  25.269  1.00  0.00     0.163 HD
BRANCH   5   7
ATOM      7  C   UNL A   1      37.519  21.843  25.741  1.00  0.00     0.100 C 
BRANCH   7   8
ATOM      8  C   UNL A   1      37.047  22.098  24.304  1.00  0.00     0.014 C 
BRANCH   8   9
ATOM      9  C   UNL A   1      36.148  23.330  24.054  1.00  0.00     0.000 C 
ATOM     10  C   UNL A   1      35.720  23.972  25.392  1.00  0.00     0.065 C 
ATOM     11  C   UNL A   1      34.938  23.064  23.140  1.00  0.00     0.065 C 
ATOM     12  C   UNL A   1      34.390  23.461  25.968  1.00  0.00     0.262 C 
ATOM     13  C   UNL A   1      33.739  22.486  23.877  1.00  0.00     0.262 C 
ATOM     14  N   UNL A   1      33.306  23.316  24.993  1.00  0.00    -0.332 N 
ATOM     15  H   UNL A   1      32.552  22.786  25.430  1.00  0.00     0.348 HD
BRANCH  14  16
ATOM     16  C   UNL A   1      32.491  24.528  24.722  1.00  0.00     0.189 C 
ATOM     17  C   UNL A   1      31.069  24.295  24.186  1.00  0.00     0.093 C 
ATOM     18  C   UNL A   1      32.458  25.530  25.903  1.00  0.00     0.101 C 
ATOM     19  C   UNL A   1      30.296  25.589  24.004  1.00  0.00     0.167 C 
ATOM     20  C   UNL A   1      31.603  26.786  25.619  1.00  0.00     0.084 C 
ATOM     21  O   UNL A   1      30.296  26.356  25.199  1.00  0.00    -0.374 OA
ATOM     22  C   UNL A   1      32.203  27.768  24.595  1.00  0.00     0.047 C 
ATOM     23  C   UNL A   1      31.401  27.627  26.892  1.00  0.00     0.105 C 
ATOM     24  C   UNL A   1      33.218  28.687  25.260  1.00  0.00     0.072 C 
ATOM     25  S   UNL A   1      32.853  28.696  27.030  1.00  0.00    -0.159 SA
ENDBRANCH  14  16
ENDBRANCH   8   9
ENDBRANCH   7   8
ENDBRANCH   5   7
ENDBRANCH   2   3
ENDBRANCH   1   2
BRANCH   1  26
ATOM     26  C   UNL A   1      42.200  19.527  25.749  1.00  0.00     0.023 C 
BRANCH  26  27
ATOM     27  C   UNL A   1      43.386  18.610  26.033  1.00  0.00     0.116 C 
BRANCH  27  28
ATOM     28  N   UNL A   1      44.275  18.475  24.891  1.00  0.00    -0.352 N 
ATOM     29  C   UNL A   1      44.961  19.429  24.179  1.00  0.00     0.251 C 
ATOM     30  H   UNL A   1      44.408  17.551  24.579  1.00  0.00     0.163 HD
ATOM     31  O   UNL A   1      45.539  19.110  23.145  1.00  0.00    -0.269 OA
BRANCH  29  32
ATOM     32  C   UNL A   1      44.993  20.842  24.625  1.00  0.00     0.039 A 
ATOM     33  C   UNL A   1      45.536  21.132  25.881  1.00  0.00     0.014 A 
ATOM     34  C   UNL A   1      44.464  21.874  23.845  1.00  0.00     0.014 A 
ATOM     35  C   UNL A   1      45.609  22.457  26.324  1.00  0.00     0.010 A 
ATOM     36  C   UNL A   1      44.599  23.200  24.257  1.00  0.00     0.010 A 
ATOM     37  C   UNL A   1      45.175  23.506  25.499  1.00  0.00    -0.014 A 
BRANCH  37  38
ATOM     38  C   UNL A   1      45.332  24.925  25.914  1.00  0.00     0.031 A 
ATOM     39  C   UNL A   1      46.679  25.593  25.866  1.00  0.00     0.074 A 
ATOM     40  C   UNL A   1      44.269  25.601  26.392  1.00  0.00     0.049 A 
ATOM     41  N   UNL A   1      47.022  26.796  26.256  1.00  0.00    -0.248 NA
ATOM     42  C   UNL A   1      47.793  24.796  25.330  1.00  0.00     0.031 C 
ATOM     43  C   UNL A   1      42.916  25.059  26.530  1.00  0.00     0.029 A 
ATOM     44  N   UNL A   1      44.161  26.885  26.864  1.00  0.00    -0.354 N 
ATOM     45  C   UNL A   1      48.387  26.897  26.022  1.00  0.00     0.074 A 
ATOM     46  C   UNL A   1      48.820  25.616  25.503  1.00  0.00     0.031 C 
ATOM     47  C   UNL A   1      42.112  26.007  27.034  1.00  0.00     0.029 A 
ATOM     48  C   UNL A   1      42.898  27.209  27.295  1.00  0.00     0.049 A 
ATOM     49  H   UNL A   1      44.918  27.515  26.891  1.00  0.00     0.167 HD
ATOM     50  C   UNL A   1      49.202  27.963  26.202  1.00  0.00     0.037 A 
ATOM     51  C   UNL A   1      42.426  28.341  27.849  1.00  0.00     0.037 A 
ATOM     52  C   UNL A   1      48.769  29.243  26.704  1.00  0.00     0.049 A 
ATOM     53  C   UNL A   1      43.354  29.506  28.057  1.00  0.00     0.074 A 
ATOM     54  C   UNL A   1      49.513  30.399  26.876  1.00  0.00     0.029 A 
ATOM     55  N   UNL A   1      47.478  29.536  27.114  1.00  0.00    -0.354 N 
ATOM     56  N   UNL A   1      44.631  29.606  27.778  1.00  0.00    -0.248 NA
ATOM     57  C   UNL A   1      42.774  30.718  28.653  1.00  0.00     0.031 C 
ATOM     58  C   UNL A   1      48.683  31.375  27.434  1.00  0.00     0.029 A 
ATOM     59  C   UNL A   1      47.409  30.846  27.561  1.00  0.00     0.049 A 
ATOM     60  H   UNL A   1      46.720  28.907  27.092  1.00  0.00     0.167 HD
ATOM     61  C   UNL A   1      44.999  30.896  28.137  1.00  0.00     0.074 A 
ATOM     62  C   UNL A   1      43.808  31.547  28.641  1.00  0.00     0.031 C 
ATOM     63  C   UNL A   1      46.216  31.487  28.056  1.00  0.00     0.037 A 
BRANCH  50  64
ATOM     64  C   UNL A   1      50.653  27.793  25.854  1.00  0.00     0.057 A 
ATOM     65  C   UNL A   1      51.613  27.478  26.826  1.00  0.00     0.134 A 
ATOM     66  C   UNL A   1      51.092  27.908  24.529  1.00  0.00     0.134 A 
ATOM     67  F   UNL A   1      51.261  27.362  28.116  1.00  0.00    -0.206 F 
ATOM     68  C   UNL A   1      52.959  27.312  26.497  1.00  0.00     0.040 A 
ATOM     69  C   UNL A   1      52.431  27.717  24.184  1.00  0.00     0.040 A 
ATOM     70  F   UNL A   1      50.225  28.200  23.547  1.00  0.00    -0.206 F 
ATOM     71  C   UNL A   1      53.370  27.424  25.170  1.00  0.00     0.006 A 
ENDBRANCH  50  64
BRANCH  51  72
ATOM     72  C   UNL A   1      40.996  28.434  28.241  1.00  0.00     0.057 A 
ATOM     73  C   UNL A   1      40.566  28.033  29.511  1.00  0.00     0.134 A 
ATOM     74  C   UNL A   1      40.028  28.918  27.354  1.00  0.00     0.134 A 
ATOM     75  F   UNL A   1      41.445  27.545  30.398  1.00  0.00    -0.206 F 
ATOM     76  C   UNL A   1      39.221  28.092  29.879  1.00  0.00     0.040 A 
ATOM     77  C   UNL A   1      38.683  29.005  27.716  1.00  0.00     0.040 A 
ATOM     78  F   UNL A   1      40.381  29.328  26.128  1.00  0.00    -0.206 F 
ATOM     79  C   UNL A   1      38.276  28.585  28.981  1.00  0.00     0.006 A 
ENDBRANCH  51  72
BRANCH  63  80
ATOM     80  C   UNL A   1      46.315  32.921  28.488  1.00  0.00     0.057 A 
ATOM     81  C   UNL A   1      46.082  33.981  27.602  1.00  0.00     0.134 A 
ATOM     82  C   UNL A   1      46.612  33.245  29.819  1.00  0.00     0.134 A 
ATOM     83  F   UNL A   1      45.805  33.739  26.312  1.00  0.00    -0.206 F 
ATOM     84  C   UNL A   1      46.165  35.311  28.018  1.00  0.00     0.040 A 
ATOM     85  C   UNL A   1      46.671  34.570  30.252  1.00  0.00     0.040 A 
ATOM     86  F   UNL A   1      46.838  32.278  30.721  1.00  0.00    -0.206 F 
ATOM     87  C   UNL A   1      46.452  35.608  29.349  1.00  0.00     0.006 A 
ENDBRANCH  63  80
ENDBRANCH  37  38
ENDBRANCH  29  32
ENDBRANCH  27  28
ENDBRANCH  26  27
ENDBRANCH   1  26
TORSDOF 14
ENDMDL
MODEL 3
REMARK VINA RESULT:     -11.1      6.070     10.842
REMARK SMILES O=C(CCC1CC[NH+]([C@H]2CCO[C@]3(CCSC3)C2)CC1)NCCCCNC(=O)c1ccc(-c2c3nc(c(-c4c(F)cccc4F)c4ccc([nH]4)c(-c4c(F)cccc4F)c4nc(c(-c5c(F)cccc5F)c5ccc2[nH]5)C=C4)C=C3)cc1
REMARK SMILES IDX 23 1 22 2 21 3 1 4 2 5 3 7 4 8 5 9 6 10 20 11 7 12 19 13
REMARK SMILES IDX 8 14 9 16 10 17 18 18 11 19 13 20 12 21 14 22 17 23 15 24
REMARK SMILES IDX 16 25 24 26 25 27 26 28 27 29 28 31 29 32 30 33 82 34 31 35
REMARK SMILES IDX 81 36 32 37 33 38 34 39 75 40 35 41 80 42 74 43 76 44 36 45
REMARK SMILES IDX 79 46 73 47 72 48 37 50 63 51 46 52 62 53 47 54 50 55 61 56
REMARK SMILES IDX 77 57 48 58 49 59 60 61 78 62 51 63 38 64 39 65 44 66 40 67
REMARK SMILES IDX 41 68 43 69 45 70 42 71 64 72 65 73 70 74 66 75 67 76 69 77
REMARK SMILES IDX 71 78 68 79 52 80 53 81 58 82 54 83 55 84 57 85 59 86 56 87
REMARK H PARENT 21 6 8 15 26 30 76 49 50 60
REMARK Flexibility Score: inf
ROOT
ATOM      1  C   UNL A   1      36.615  20.611  24.931  1.00  0.00     0.023 C 
ENDROOT
BRANCH   1   2
ATOM      2  C   UNL A   1      35.354  19.747  25.001  1.00  0.00     0.116 C 
BRANCH   2   3
ATOM      3  N   UNL A   1      34.159  20.555  24.877  1.00  0.00    -0.356 N 
ATOM      4  O   UNL A   1      32.636  18.906  25.333  1.00  0.00    -0.275 OA
ATOM      5  C   UNL A   1      32.883  20.073  25.045  1.00  0.00     0.220 C 
ATOM      6  H   UNL A   1      34.267  21.509  24.660  1.00  0.00     0.163 HD
BRANCH   5   7
ATOM      7  C   UNL A   1      31.780  21.087  24.771  1.00  0.00     0.100 C 
BRANCH   7   8
ATOM      8  C   UNL A   1      31.590  22.184  25.827  1.00  0.00     0.014 C 
BRANCH   8   9
ATOM      9  C   UNL A   1      32.081  23.606  25.476  1.00  0.00     0.000 C 
ATOM     10  C   UNL A   1      31.443  24.650  26.419  1.00  0.00     0.065 C 
ATOM     11  C   UNL A   1      31.907  23.997  23.997  1.00  0.00     0.065 C 
ATOM     12  C   UNL A   1      30.132  25.274  25.913  1.00  0.00     0.262 C 
ATOM     13  C   UNL A   1      30.518  24.523  23.669  1.00  0.00     0.262 C 
ATOM     14  N   UNL A   1      30.131  25.657  24.498  1.00  0.00    -0.332 N 
ATOM     15  H   UNL A   1      29.171  25.861  24.223  1.00  0.00     0.348 HD
BRANCH  14  16
ATOM     16  C   UNL A   1      30.663  27.005  24.176  1.00  0.00     0.189 C 
ATOM     17  C   UNL A   1      29.815  27.870  23.228  1.00  0.00     0.093 C 
ATOM     18  C   UNL A   1      31.072  27.826  25.424  1.00  0.00     0.101 C 
ATOM     19  C   UNL A   1      30.408  29.252  23.013  1.00  0.00     0.167 C 
ATOM     20  C   UNL A   1      31.618  29.231  25.084  1.00  0.00     0.084 C 
ATOM     21  O   UNL A   1      30.652  29.900  24.253  1.00  0.00    -0.374 OA
ATOM     22  C   UNL A   1      33.007  29.251  24.420  1.00  0.00     0.047 C 
ATOM     23  C   UNL A   1      31.779  30.092  26.349  1.00  0.00     0.105 C 
ATOM     24  C   UNL A   1      34.107  29.147  25.467  1.00  0.00     0.072 C 
ATOM     25  S   UNL A   1      33.398  29.677  27.042  1.00  0.00    -0.159 SA
ENDBRANCH  14  16
ENDBRANCH   8   9
ENDBRANCH   7   8
ENDBRANCH   5   7
ENDBRANCH   2   3
ENDBRANCH   1   2
BRANCH   1  26
ATOM     26  C   UNL A   1      37.936  19.845  24.771  1.00  0.00     0.023 C 
BRANCH  26  27
ATOM     27  C   UNL A   1      38.993  20.113  25.839  1.00  0.00     0.116 C 
BRANCH  27  28
ATOM     28  N   UNL A   1      40.064  19.130  25.826  1.00  0.00    -0.352 N 
ATOM     29  C   UNL A   1      41.419  19.288  25.990  1.00  0.00     0.251 C 
ATOM     30  H   UNL A   1      39.771  18.203  25.676  1.00  0.00     0.163 HD
ATOM     31  O   UNL A   1      42.166  18.336  25.786  1.00  0.00    -0.269 OA
BRANCH  29  32
ATOM     32  C   UNL A   1      41.996  20.595  26.383  1.00  0.00     0.039 A 
ATOM     33  C   UNL A   1      42.384  21.483  25.374  1.00  0.00     0.014 A 
ATOM     34  C   UNL A   1      42.195  20.939  27.723  1.00  0.00     0.014 A 
ATOM     35  C   UNL A   1      42.906  22.737  25.708  1.00  0.00     0.010 A 
ATOM     36  C   UNL A   1      42.652  22.215  28.055  1.00  0.00     0.010 A 
ATOM     37  C   UNL A   1      43.010  23.128  27.052  1.00  0.00    -0.014 A 
BRANCH  37  38
ATOM     38  C   UNL A   1      43.474  24.492  27.422  1.00  0.00     0.031 A 
ATOM     39  C   UNL A   1      42.490  25.546  27.848  1.00  0.00     0.074 A 
ATOM     40  C   UNL A   1      44.781  24.802  27.316  1.00  0.00     0.049 A 
ATOM     41  N   UNL A   1      42.700  26.807  28.137  1.00  0.00    -0.248 NA
ATOM     42  C   UNL A   1      41.080  25.136  27.944  1.00  0.00     0.031 C 
ATOM     43  C   UNL A   1      45.833  23.885  26.876  1.00  0.00     0.029 A 
ATOM     44  N   UNL A   1      45.446  25.978  27.560  1.00  0.00    -0.354 N 
ATOM     45  C   UNL A   1      41.453  27.341  28.436  1.00  0.00     0.074 A 
ATOM     46  C   UNL A   1      40.486  26.281  28.247  1.00  0.00     0.031 C 
ATOM     47  C   UNL A   1      47.012  24.527  26.897  1.00  0.00     0.029 A 
ATOM     48  C   UNL A   1      46.794  25.910  27.310  1.00  0.00     0.049 A 
ATOM     49  H   UNL A   1      44.998  26.793  27.882  1.00  0.00     0.167 HD
ATOM     50  C   UNL A   1      41.144  28.593  28.851  1.00  0.00     0.037 A 
ATOM     51  C   UNL A   1      47.748  26.856  27.392  1.00  0.00     0.037 A 
ATOM     52  C   UNL A   1      42.108  29.644  29.055  1.00  0.00     0.049 A 
ATOM     53  C   UNL A   1      47.378  28.243  27.837  1.00  0.00     0.074 A 
ATOM     54  C   UNL A   1      41.894  30.931  29.520  1.00  0.00     0.029 A 
ATOM     55  N   UNL A   1      43.467  29.531  28.806  1.00  0.00    -0.354 N 
ATOM     56  N   UNL A   1      46.203  28.718  28.172  1.00  0.00    -0.248 NA
ATOM     57  C   UNL A   1      48.468  29.226  27.920  1.00  0.00     0.031 C 
ATOM     58  C   UNL A   1      43.117  31.610  29.507  1.00  0.00     0.029 A 
ATOM     59  C   UNL A   1      44.101  30.731  29.085  1.00  0.00     0.049 A 
ATOM     60  H   UNL A   1      43.916  28.717  28.479  1.00  0.00     0.167 HD
ATOM     61  C   UNL A   1      46.416  30.043  28.532  1.00  0.00     0.074 A 
ATOM     62  C   UNL A   1      47.835  30.293  28.387  1.00  0.00     0.031 C 
ATOM     63  C   UNL A   1      45.516  30.968  28.944  1.00  0.00     0.037 A 
BRANCH  50  64
ATOM     64  C   UNL A   1      39.697  28.897  29.114  1.00  0.00     0.057 A 
ATOM     65  C   UNL A   1      38.837  29.333  28.095  1.00  0.00     0.134 A 
ATOM     66  C   UNL A   1      39.145  28.720  30.389  1.00  0.00     0.134 A 
ATOM     67  F   UNL A   1      39.302  29.532  26.853  1.00  0.00    -0.206 F 
ATOM     68  C   UNL A   1      37.491  29.606  28.342  1.00  0.00     0.040 A 
ATOM     69  C   UNL A   1      37.794  28.964  30.642  1.00  0.00     0.040 A 
ATOM     70  F   UNL A   1      39.909  28.297  31.409  1.00  0.00    -0.206 F 
ATOM     71  C   UNL A   1      36.964  29.415  29.618  1.00  0.00     0.006 A 
ENDBRANCH  50  64
BRANCH  51  72
ATOM     72  C   UNL A   1      49.155  26.520  27.052  1.00  0.00     0.057 A 
ATOM     73  C   UNL A   1      49.620  26.601  25.735  1.00  0.00     0.134 A 
ATOM     74  C   UNL A   1      50.062  26.106  28.034  1.00  0.00     0.134 A 
ATOM     75  F   UNL A   1      48.794  26.976  24.748  1.00  0.00    -0.206 F 
ATOM     76  C   UNL A   1      50.934  26.263  25.402  1.00  0.00     0.040 A 
ATOM     77  C   UNL A   1      51.384  25.787  27.720  1.00  0.00     0.040 A 
ATOM     78  F   UNL A   1      49.678  26.020  29.315  1.00  0.00    -0.206 F 
ATOM     79  C   UNL A   1      51.820  25.859  26.399  1.00  0.00     0.006 A 
ENDBRANCH  51  72
BRANCH  63  80
ATOM     80  C   UNL A   1      46.041  32.327  29.304  1.00  0.00     0.057 A 
ATOM     81  C   UNL A   1      46.103  33.370  28.370  1.00  0.00     0.134 A 
ATOM     82  C   UNL A   1      46.458  32.606  30.613  1.00  0.00     0.134 A 
ATOM     83  F   UNL A   1      45.731  33.166  27.098  1.00  0.00    -0.206 F 
ATOM     84  C   UNL A   1      46.583  34.633  28.719  1.00  0.00     0.040 A 
ATOM     85  C   UNL A   1      46.914  33.873  30.980  1.00  0.00     0.040 A 
ATOM     86  F   UNL A   1      46.417  31.655  31.557  1.00  0.00    -0.206 F 
ATOM     87  C   UNL A   1      46.982  34.890  30.030  1.00  0.00     0.006 A 
ENDBRANCH  63  80
ENDBRANCH  37  38
ENDBRANCH  29  32
ENDBRANCH  27  28
ENDBRANCH  26  27
ENDBRANCH   1  26
TORSDOF 14
ENDMDL
