MODEL 1
REMARK VINA RESULT:     -12.5      0.000      0.000
REMARK SMILES O=C(NCCCCNC(=O)c1c(C(F)(F)F)nn(-c2ccccc2)c1C(F)(F)Cl)c1ccc(-c2c3nc(c(-c4c(F)cccc4F)c4ccc([nH]4)c(-c4c(F)cccc4F)c4nc(c(-c5c(F)cccc5F)c5ccc2[nH]5)C=C4)C=C3)cc1
REMARK SMILES IDX 5 1 4 2 3 3 1 4 2 5 30 7 31 8 83 9 32 10 82 11 33 12 34 13
REMARK SMILES IDX 35 14 76 15 36 16 81 17 75 18 77 19 37 20 80 21 74 22 73 23
REMARK SMILES IDX 38 25 64 26 47 27 63 28 48 29 51 30 62 31 78 32 49 33 50 34
REMARK SMILES IDX 61 36 79 37 52 38 39 39 40 40 45 41 41 42 42 43 44 44 46 45
REMARK SMILES IDX 43 46 65 47 66 48 71 49 67 50 68 51 70 52 72 53 69 54 53 55
REMARK SMILES IDX 54 56 59 57 55 58 56 59 58 60 60 61 57 62 6 63 7 64 8 65
REMARK SMILES IDX 9 66 10 68 11 69 12 70 25 71 17 72 18 73 13 74 14 75 15 76
REMARK SMILES IDX 16 77 26 78 27 79 28 80 29 81 19 82 20 83 24 84 21 85 23 86
REMARK SMILES IDX 22 87
REMARK H PARENT 3 6 77 24 51 35 8 67
REMARK Flexibility Score: inf
ROOT
ATOM      1  C   UNL A   1      32.861  28.668  27.180  1.00  0.00     0.023 C 
ENDROOT
BRANCH   1   2
ATOM      2  C   UNL A   1      33.314  29.974  26.523  1.00  0.00     0.116 C 
BRANCH   2   3
ATOM      3  N   UNL A   1      33.568  31.064  27.444  1.00  0.00    -0.352 N 
ATOM      4  O   UNL A   1      34.540  32.651  28.623  1.00  0.00    -0.269 OA
ATOM      5  C   UNL A   1      34.673  31.544  28.092  1.00  0.00     0.251 C 
ATOM      6  H   UNL A   1      32.755  31.580  27.650  1.00  0.00     0.163 HD
BRANCH   5   7
ATOM      7  C   UNL A   1      35.967  30.826  28.264  1.00  0.00     0.039 A 
ATOM      8  C   UNL A   1      36.195  29.471  28.031  1.00  0.00     0.014 A 
ATOM      9  C   UNL A   1      37.033  31.607  28.757  1.00  0.00     0.014 A 
ATOM     10  C   UNL A   1      37.422  28.895  28.366  1.00  0.00     0.010 A 
ATOM     11  C   UNL A   1      38.262  31.040  29.082  1.00  0.00     0.010 A 
ATOM     12  C   UNL A   1      38.443  29.672  28.924  1.00  0.00    -0.014 A 
BRANCH  12  13
ATOM     13  C   UNL A   1      39.732  29.037  29.210  1.00  0.00     0.031 A 
ATOM     14  C   UNL A   1      40.080  28.940  30.660  1.00  0.00     0.074 A 
ATOM     15  C   UNL A   1      40.501  28.437  28.277  1.00  0.00     0.049 A 
ATOM     16  N   UNL A   1      41.104  29.433  31.279  1.00  0.00    -0.248 NA
ATOM     17  C   UNL A   1      39.113  28.273  31.548  1.00  0.00     0.031 C 
ATOM     18  C   UNL A   1      40.180  28.165  26.874  1.00  0.00     0.029 A 
ATOM     19  N   UNL A   1      41.727  27.854  28.427  1.00  0.00    -0.354 N 
ATOM     20  C   UNL A   1      41.003  29.007  32.605  1.00  0.00     0.074 A 
ATOM     21  C   UNL A   1      39.706  28.397  32.737  1.00  0.00     0.031 C 
ATOM     22  C   UNL A   1      41.082  27.288  26.370  1.00  0.00     0.029 A 
ATOM     23  C   UNL A   1      42.116  27.049  27.362  1.00  0.00     0.049 A 
ATOM     24  H   UNL A   1      42.289  27.992  29.223  1.00  0.00     0.167 HD
ATOM     25  C   UNL A   1      42.068  29.027  33.454  1.00  0.00     0.037 A 
ATOM     26  C   UNL A   1      43.181  26.209  27.322  1.00  0.00     0.037 A 
ATOM     27  C   UNL A   1      43.105  29.901  32.978  1.00  0.00     0.049 A 
ATOM     28  C   UNL A   1      44.123  26.622  28.389  1.00  0.00     0.074 A 
ATOM     29  C   UNL A   1      43.201  31.255  32.725  1.00  0.00     0.029 A 
ATOM     30  N   UNL A   1      44.199  29.334  32.375  1.00  0.00    -0.354 N 
ATOM     31  N   UNL A   1      44.806  27.732  28.373  1.00  0.00    -0.248 NA
ATOM     32  C   UNL A   1      43.983  25.989  29.691  1.00  0.00     0.031 C 
ATOM     33  C   UNL A   1      44.043  31.353  31.580  1.00  0.00     0.029 A 
ATOM     34  C   UNL A   1      44.447  30.061  31.243  1.00  0.00     0.049 A 
ATOM     35  H   UNL A   1      44.707  28.554  32.696  1.00  0.00     0.167 HD
ATOM     36  C   UNL A   1      44.811  28.158  29.691  1.00  0.00     0.074 A 
ATOM     37  C   UNL A   1      44.367  27.004  30.468  1.00  0.00     0.031 C 
ATOM     38  C   UNL A   1      44.906  29.483  30.003  1.00  0.00     0.037 A 
BRANCH  25  39
ATOM     39  C   UNL A   1      42.328  28.005  34.534  1.00  0.00     0.057 A 
ATOM     40  C   UNL A   1      42.740  26.707  34.174  1.00  0.00     0.134 A 
ATOM     41  C   UNL A   1      41.895  28.145  35.867  1.00  0.00     0.134 A 
ATOM     42  F   UNL A   1      43.171  26.440  32.931  1.00  0.00    -0.206 F 
ATOM     43  C   UNL A   1      42.640  25.616  35.047  1.00  0.00     0.040 A 
ATOM     44  C   UNL A   1      41.838  27.071  36.761  1.00  0.00     0.040 A 
ATOM     45  F   UNL A   1      41.410  29.297  36.345  1.00  0.00    -0.206 F 
ATOM     46  C   UNL A   1      42.176  25.794  36.342  1.00  0.00     0.006 A 
ENDBRANCH  25  39
BRANCH  26  47
ATOM     47  C   UNL A   1      43.304  24.896  26.645  1.00  0.00     0.057 A 
ATOM     48  C   UNL A   1      42.498  23.807  27.007  1.00  0.00     0.134 A 
ATOM     49  C   UNL A   1      44.008  24.766  25.435  1.00  0.00     0.134 A 
ATOM     50  F   UNL A   1      41.750  23.853  28.119  1.00  0.00    -0.206 F 
ATOM     51  C   UNL A   1      42.382  22.664  26.202  1.00  0.00     0.040 A 
ATOM     52  C   UNL A   1      43.905  23.630  24.626  1.00  0.00     0.040 A 
ATOM     53  F   UNL A   1      44.746  25.777  24.955  1.00  0.00    -0.206 F 
ATOM     54  C   UNL A   1      43.079  22.578  25.001  1.00  0.00     0.006 A 
ENDBRANCH  26  47
BRANCH  38  55
ATOM     55  C   UNL A   1      45.258  30.447  28.908  1.00  0.00     0.057 A 
ATOM     56  C   UNL A   1      46.572  30.738  28.513  1.00  0.00     0.134 A 
ATOM     57  C   UNL A   1      44.228  30.953  28.108  1.00  0.00     0.134 A 
ATOM     58  F   UNL A   1      47.623  30.221  29.162  1.00  0.00    -0.206 F 
ATOM     59  C   UNL A   1      46.845  31.520  27.387  1.00  0.00     0.040 A 
ATOM     60  C   UNL A   1      44.488  31.708  26.962  1.00  0.00     0.040 A 
ATOM     61  F   UNL A   1      42.947  30.668  28.395  1.00  0.00    -0.206 F 
ATOM     62  C   UNL A   1      45.801  31.998  26.601  1.00  0.00     0.006 A 
ENDBRANCH  38  55
ENDBRANCH  12  13
ENDBRANCH   5   7
ENDBRANCH   2   3
ENDBRANCH   1   2
BRANCH   1  63
ATOM     63  C   UNL A   1      33.317  27.372  26.495  1.00  0.00     0.023 C 
BRANCH  63  64
ATOM     64  C   UNL A   1      33.101  27.296  24.987  1.00  0.00     0.116 C 
BRANCH  64  65
ATOM     65  N   UNL A   1      31.702  27.313  24.591  1.00  0.00    -0.352 N 
ATOM     66  C   UNL A   1      30.948  26.327  24.000  1.00  0.00     0.255 C 
ATOM     67  H   UNL A   1      31.223  28.155  24.772  1.00  0.00     0.163 HD
ATOM     68  O   UNL A   1      29.764  26.519  23.756  1.00  0.00    -0.269 OA
BRANCH  66  69
ATOM     69  C   UNL A   1      31.593  25.074  23.659  1.00  0.00     0.101 A 
ATOM     70  C   UNL A   1      32.316  24.806  22.466  1.00  0.00     0.180 A 
ATOM     71  C   UNL A   1      31.603  23.879  24.385  1.00  0.00     0.143 A 
ATOM     72  N   UNL A   1      32.938  23.620  22.564  1.00  0.00    -0.162 NA
ATOM     73  N   UNL A   1      32.474  23.047  23.699  1.00  0.00    -0.229 N 
BRANCH  70  74
ATOM     74  C   UNL A   1      32.479  25.694  21.253  1.00  0.00     0.436 C 
ATOM     75  F   UNL A   1      33.391  26.682  21.464  1.00  0.00    -0.164 F 
ATOM     76  F   UNL A   1      32.906  24.993  20.168  1.00  0.00    -0.164 F 
ATOM     77  F   UNL A   1      31.332  26.321  20.886  1.00  0.00    -0.164 F 
ENDBRANCH  70  74
BRANCH  71  78
ATOM     78  C   UNL A   1      31.029  23.537  25.715  1.00  0.00     0.365 C 
ATOM     79  F   UNL A   1      30.028  24.359  26.103  1.00  0.00    -0.181 F 
ATOM     80  F   UNL A   1      30.489  22.290  25.670  1.00  0.00    -0.181 F 
ATOM     81  Cl  UNL A   1      32.221  23.590  27.036  1.00  0.00    -0.040 Cl
ENDBRANCH  71  78
BRANCH  73  82
ATOM     82  C   UNL A   1      33.008  21.788  24.068  1.00  0.00     0.065 A 
ATOM     83  C   UNL A   1      32.281  20.630  23.757  1.00  0.00     0.028 A 
ATOM     84  C   UNL A   1      34.224  21.685  24.746  1.00  0.00     0.028 A 
ATOM     85  C   UNL A   1      32.834  19.374  24.020  1.00  0.00     0.002 A 
ATOM     86  C   UNL A   1      34.770  20.428  25.009  1.00  0.00     0.002 A 
ATOM     87  C   UNL A   1      34.085  19.275  24.627  1.00  0.00     0.000 A 
ENDBRANCH  73  82
ENDBRANCH  66  69
ENDBRANCH  64  65
ENDBRANCH  63  64
ENDBRANCH   1  63
TORSDOF 14
ENDMDL
MODEL 2
REMARK VINA RESULT:     -12.5      1.534      2.355
REMARK SMILES O=C(NCCCCNC(=O)c1c(C(F)(F)F)nn(-c2ccccc2)c1C(F)(F)Cl)c1ccc(-c2c3nc(c(-c4c(F)cccc4F)c4ccc([nH]4)c(-c4c(F)cccc4F)c4nc(c(-c5c(F)cccc5F)c5ccc2[nH]5)C=C4)C=C3)cc1
REMARK SMILES IDX 5 1 4 2 3 3 1 4 2 5 30 7 31 8 83 9 32 10 82 11 33 12 34 13
REMARK SMILES IDX 35 14 76 15 36 16 81 17 75 18 77 19 37 20 80 21 74 22 73 23
REMARK SMILES IDX 38 25 64 26 47 27 63 28 48 29 51 30 62 31 78 32 49 33 50 34
REMARK SMILES IDX 61 36 79 37 52 38 39 39 40 40 45 41 41 42 42 43 44 44 46 45
REMARK SMILES IDX 43 46 65 47 66 48 71 49 67 50 68 51 70 52 72 53 69 54 53 55
REMARK SMILES IDX 54 56 59 57 55 58 56 59 58 60 60 61 57 62 6 63 7 64 8 65
REMARK SMILES IDX 9 66 10 68 11 69 12 70 25 71 17 72 18 73 13 74 14 75 15 76
REMARK SMILES IDX 16 77 26 78 27 79 28 80 29 81 19 82 20 83 24 84 21 85 23 86
REMARK SMILES IDX 22 87
REMARK H PARENT 3 6 77 24 51 35 8 67
REMARK Flexibility Score: inf
ROOT
ATOM      1  C   UNL A   1      32.163  29.551  27.146  1.00  0.00     0.023 C 
ENDROOT
BRANCH   1   2
ATOM      2  C   UNL A   1      33.621  30.005  27.255  1.00  0.00     0.116 C 
BRANCH   2   3
ATOM      3  N   UNL A   1      33.831  31.194  28.056  1.00  0.00    -0.352 N 
ATOM      4  O   UNL A   1      34.744  32.918  29.081  1.00  0.00    -0.269 OA
ATOM      5  C   UNL A   1      34.909  31.762  28.678  1.00  0.00     0.251 C 
ATOM      6  H   UNL A   1      33.005  31.714  28.182  1.00  0.00     0.163 HD
BRANCH   5   7
ATOM      7  C   UNL A   1      36.209  31.091  28.964  1.00  0.00     0.039 A 
ATOM      8  C   UNL A   1      37.426  31.724  29.210  1.00  0.00     0.014 A 
ATOM      9  C   UNL A   1      36.184  29.681  28.928  1.00  0.00     0.014 A 
ATOM     10  C   UNL A   1      38.599  30.975  29.326  1.00  0.00     0.010 A 
ATOM     11  C   UNL A   1      37.349  28.930  29.054  1.00  0.00     0.010 A 
ATOM     12  C   UNL A   1      38.566  29.581  29.212  1.00  0.00    -0.014 A 
BRANCH  12  13
ATOM     13  C   UNL A   1      39.811  28.831  29.394  1.00  0.00     0.031 A 
ATOM     14  C   UNL A   1      40.286  28.730  30.808  1.00  0.00     0.074 A 
ATOM     15  C   UNL A   1      40.427  28.141  28.411  1.00  0.00     0.049 A 
ATOM     16  N   UNL A   1      41.407  29.135  31.313  1.00  0.00    -0.248 NA
ATOM     17  C   UNL A   1      39.351  28.177  31.801  1.00  0.00     0.031 C 
ATOM     18  C   UNL A   1      39.949  27.873  27.053  1.00  0.00     0.029 A 
ATOM     19  N   UNL A   1      41.602  27.446  28.462  1.00  0.00    -0.354 N 
ATOM     20  C   UNL A   1      41.394  28.747  32.654  1.00  0.00     0.074 A 
ATOM     21  C   UNL A   1      40.064  28.268  32.925  1.00  0.00     0.031 C 
ATOM     22  C   UNL A   1      40.711  26.903  26.492  1.00  0.00     0.029 A 
ATOM     23  C   UNL A   1      41.809  26.586  27.389  1.00  0.00     0.049 A 
ATOM     24  H   UNL A   1      42.248  27.546  29.197  1.00  0.00     0.167 HD
ATOM     25  C   UNL A   1      42.533  28.681  33.398  1.00  0.00     0.037 A 
ATOM     26  C   UNL A   1      42.782  25.647  27.274  1.00  0.00     0.037 A 
ATOM     27  C   UNL A   1      43.597  29.442  32.802  1.00  0.00     0.049 A 
ATOM     28  C   UNL A   1      43.857  25.989  28.235  1.00  0.00     0.074 A 
ATOM     29  C   UNL A   1      43.795  30.775  32.502  1.00  0.00     0.029 A 
ATOM     30  N   UNL A   1      44.570  28.761  32.116  1.00  0.00    -0.354 N 
ATOM     31  N   UNL A   1      44.636  27.028  28.123  1.00  0.00    -0.248 NA
ATOM     32  C   UNL A   1      43.784  25.399  29.562  1.00  0.00     0.031 C 
ATOM     33  C   UNL A   1      44.528  30.769  31.280  1.00  0.00     0.029 A 
ATOM     34  C   UNL A   1      44.774  29.437  30.945  1.00  0.00     0.049 A 
ATOM     35  H   UNL A   1      45.031  27.942  32.410  1.00  0.00     0.167 HD
ATOM     36  C   UNL A   1      44.807  27.478  29.422  1.00  0.00     0.074 A 
ATOM     37  C   UNL A   1      44.334  26.387  30.271  1.00  0.00     0.031 C 
ATOM     38  C   UNL A   1      45.056  28.794  29.685  1.00  0.00     0.037 A 
BRANCH  25  39
ATOM     39  C   UNL A   1      42.799  27.661  34.479  1.00  0.00     0.057 A 
ATOM     40  C   UNL A   1      43.119  26.338  34.117  1.00  0.00     0.134 A 
ATOM     41  C   UNL A   1      42.451  27.842  35.832  1.00  0.00     0.134 A 
ATOM     42  F   UNL A   1      43.463  26.031  32.857  1.00  0.00    -0.206 F 
ATOM     43  C   UNL A   1      43.011  25.265  35.011  1.00  0.00     0.040 A 
ATOM     44  C   UNL A   1      42.387  26.785  36.744  1.00  0.00     0.040 A 
ATOM     45  F   UNL A   1      42.056  29.026  36.317  1.00  0.00    -0.206 F 
ATOM     46  C   UNL A   1      42.632  25.486  36.328  1.00  0.00     0.006 A 
ENDBRANCH  25  39
BRANCH  26  47
ATOM     47  C   UNL A   1      42.716  24.315  26.627  1.00  0.00     0.057 A 
ATOM     48  C   UNL A   1      43.563  23.974  25.563  1.00  0.00     0.134 A 
ATOM     49  C   UNL A   1      42.024  23.249  27.229  1.00  0.00     0.134 A 
ATOM     50  F   UNL A   1      44.303  24.912  24.954  1.00  0.00    -0.206 F 
ATOM     51  C   UNL A   1      43.729  22.648  25.136  1.00  0.00     0.040 A 
ATOM     52  C   UNL A   1      42.177  21.924  26.810  1.00  0.00     0.040 A 
ATOM     53  F   UNL A   1      41.249  23.450  28.305  1.00  0.00    -0.206 F 
ATOM     54  C   UNL A   1      43.042  21.616  25.769  1.00  0.00     0.006 A 
ENDBRANCH  26  47
BRANCH  38  55
ATOM     55  C   UNL A   1      45.390  29.697  28.534  1.00  0.00     0.057 A 
ATOM     56  C   UNL A   1      44.433  30.385  27.773  1.00  0.00     0.134 A 
ATOM     57  C   UNL A   1      46.732  30.024  28.310  1.00  0.00     0.134 A 
ATOM     58  F   UNL A   1      43.122  30.207  27.983  1.00  0.00    -0.206 F 
ATOM     59  C   UNL A   1      44.799  31.334  26.815  1.00  0.00     0.040 A 
ATOM     60  C   UNL A   1      47.109  30.994  27.379  1.00  0.00     0.040 A 
ATOM     61  F   UNL A   1      47.700  29.445  29.040  1.00  0.00    -0.206 F 
ATOM     62  C   UNL A   1      46.140  31.650  26.624  1.00  0.00     0.006 A 
ENDBRANCH  38  55
ENDBRANCH  12  13
ENDBRANCH   5   7
ENDBRANCH   2   3
ENDBRANCH   1   2
BRANCH   1  63
ATOM     63  C   UNL A   1      31.881  28.409  26.161  1.00  0.00     0.023 C 
BRANCH  63  64
ATOM     64  C   UNL A   1      32.280  27.010  26.622  1.00  0.00     0.116 C 
BRANCH  64  65
ATOM     65  N   UNL A   1      31.284  25.989  26.335  1.00  0.00    -0.352 N 
ATOM     66  C   UNL A   1      31.436  24.765  25.727  1.00  0.00     0.255 C 
ATOM     67  H   UNL A   1      30.366  26.206  26.618  1.00  0.00     0.163 HD
ATOM     68  O   UNL A   1      30.474  24.022  25.589  1.00  0.00    -0.269 OA
BRANCH  66  69
ATOM     69  C   UNL A   1      32.750  24.393  25.240  1.00  0.00     0.101 A 
ATOM     70  C   UNL A   1      33.342  24.825  24.024  1.00  0.00     0.180 A 
ATOM     71  C   UNL A   1      33.673  23.517  25.821  1.00  0.00     0.143 A 
ATOM     72  N   UNL A   1      34.630  24.447  23.981  1.00  0.00    -0.162 NA
ATOM     73  N   UNL A   1      34.813  23.625  25.041  1.00  0.00    -0.229 N 
BRANCH  70  74
ATOM     74  C   UNL A   1      32.718  25.654  22.924  1.00  0.00     0.436 C 
ATOM     75  F   UNL A   1      33.553  25.799  21.859  1.00  0.00    -0.164 F 
ATOM     76  F   UNL A   1      31.576  25.086  22.451  1.00  0.00    -0.164 F 
ATOM     77  F   UNL A   1      32.394  26.913  23.316  1.00  0.00    -0.164 F 
ENDBRANCH  70  74
BRANCH  71  78
ATOM     78  C   UNL A   1      33.632  22.760  27.103  1.00  0.00     0.365 C 
ATOM     79  F   UNL A   1      34.655  23.048  27.938  1.00  0.00    -0.181 F 
ATOM     80  F   UNL A   1      32.498  23.078  27.782  1.00  0.00    -0.181 F 
ATOM     81  Cl  UNL A   1      33.684  20.994  26.884  1.00  0.00    -0.040 Cl
ENDBRANCH  71  78
BRANCH  73  82
ATOM     82  C   UNL A   1      36.115  23.111  25.260  1.00  0.00     0.065 A 
ATOM     83  C   UNL A   1      37.057  23.919  25.913  1.00  0.00     0.028 A 
ATOM     84  C   UNL A   1      36.476  21.836  24.823  1.00  0.00     0.028 A 
ATOM     85  C   UNL A   1      38.315  23.399  26.228  1.00  0.00     0.002 A 
ATOM     86  C   UNL A   1      37.734  21.322  25.140  1.00  0.00     0.002 A 
ATOM     87  C   UNL A   1      38.644  22.095  25.859  1.00  0.00     0.000 A 
ENDBRANCH  73  82
ENDBRANCH  66  69
ENDBRANCH  64  65
ENDBRANCH  63  64
ENDBRANCH   1  63
TORSDOF 14
ENDMDL
MODEL 3
REMARK VINA RESULT:     -12.4      2.889      7.874
REMARK SMILES O=C(NCCCCNC(=O)c1c(C(F)(F)F)nn(-c2ccccc2)c1C(F)(F)Cl)c1ccc(-c2c3nc(c(-c4c(F)cccc4F)c4ccc([nH]4)c(-c4c(F)cccc4F)c4nc(c(-c5c(F)cccc5F)c5ccc2[nH]5)C=C4)C=C3)cc1
REMARK SMILES IDX 5 1 4 2 3 3 1 4 2 5 30 7 31 8 83 9 32 10 82 11 33 12 34 13
REMARK SMILES IDX 35 14 76 15 36 16 81 17 75 18 77 19 37 20 80 21 74 22 73 23
REMARK SMILES IDX 38 25 64 26 47 27 63 28 48 29 51 30 62 31 78 32 49 33 50 34
REMARK SMILES IDX 61 36 79 37 52 38 39 39 40 40 45 41 41 42 42 43 44 44 46 45
REMARK SMILES IDX 43 46 65 47 66 48 71 49 67 50 68 51 70 52 72 53 69 54 53 55
REMARK SMILES IDX 54 56 59 57 55 58 56 59 58 60 60 61 57 62 6 63 7 64 8 65
REMARK SMILES IDX 9 66 10 68 11 69 12 70 25 71 17 72 18 73 13 74 14 75 15 76
REMARK SMILES IDX 16 77 26 78 27 79 28 80 29 81 19 82 20 83 24 84 21 85 23 86
REMARK SMILES IDX 22 87
REMARK H PARENT 3 6 77 24 51 35 8 67
REMARK Flexibility Score: inf
ROOT
ATOM      1  C   UNL A   1      37.001  21.630  24.553  1.00  0.00     0.023 C 
ENDROOT
BRANCH   1   2
ATOM      2  C   UNL A   1      37.686  22.181  25.806  1.00  0.00     0.116 C 
BRANCH   2   3
ATOM      3  N   UNL A   1      39.121  21.987  25.851  1.00  0.00    -0.352 N 
ATOM      4  O   UNL A   1      41.239  22.010  26.460  1.00  0.00    -0.269 OA
ATOM      5  C   UNL A   1      40.162  22.614  26.479  1.00  0.00     0.251 C 
ATOM      6  H   UNL A   1      39.415  21.225  25.302  1.00  0.00     0.163 HD
BRANCH   5   7
ATOM      7  C   UNL A   1      40.119  23.965  27.106  1.00  0.00     0.039 A 
ATOM      8  C   UNL A   1      39.144  24.939  26.898  1.00  0.00     0.014 A 
ATOM      9  C   UNL A   1      41.207  24.279  27.947  1.00  0.00     0.014 A 
ATOM     10  C   UNL A   1      39.297  26.217  27.441  1.00  0.00     0.010 A 
ATOM     11  C   UNL A   1      41.359  25.547  28.499  1.00  0.00     0.010 A 
ATOM     12  C   UNL A   1      40.422  26.532  28.211  1.00  0.00    -0.014 A 
BRANCH  12  13
ATOM     13  C   UNL A   1      40.516  27.867  28.805  1.00  0.00     0.031 A 
ATOM     14  C   UNL A   1      41.659  28.697  28.316  1.00  0.00     0.074 A 
ATOM     15  C   UNL A   1      39.577  28.401  29.615  1.00  0.00     0.049 A 
ATOM     16  N   UNL A   1      42.631  29.212  28.998  1.00  0.00    -0.248 NA
ATOM     17  C   UNL A   1      41.774  28.908  26.863  1.00  0.00     0.031 C 
ATOM     18  C   UNL A   1      38.257  27.863  29.952  1.00  0.00     0.029 A 
ATOM     19  N   UNL A   1      39.582  29.611  30.248  1.00  0.00    -0.354 N 
ATOM     20  C   UNL A   1      43.396  29.950  28.092  1.00  0.00     0.074 A 
ATOM     21  C   UNL A   1      42.890  29.633  26.782  1.00  0.00     0.031 C 
ATOM     22  C   UNL A   1      37.514  28.832  30.539  1.00  0.00     0.029 A 
ATOM     23  C   UNL A   1      38.346  30.005  30.747  1.00  0.00     0.049 A 
ATOM     24  H   UNL A   1      40.394  30.159  30.343  1.00  0.00     0.167 HD
ATOM     25  C   UNL A   1      44.275  30.906  28.499  1.00  0.00     0.037 A 
ATOM     26  C   UNL A   1      38.020  31.224  31.247  1.00  0.00     0.037 A 
ATOM     27  C   UNL A   1      44.620  30.750  29.886  1.00  0.00     0.049 A 
ATOM     28  C   UNL A   1      39.279  31.915  31.612  1.00  0.00     0.074 A 
ATOM     29  C   UNL A   1      45.243  29.771  30.633  1.00  0.00     0.029 A 
ATOM     30  N   UNL A   1      44.021  31.583  30.797  1.00  0.00    -0.354 N 
ATOM     31  N   UNL A   1      40.056  31.553  32.594  1.00  0.00    -0.248 NA
ATOM     32  C   UNL A   1      39.896  32.763  30.604  1.00  0.00     0.031 C 
ATOM     33  C   UNL A   1      44.566  29.781  31.887  1.00  0.00     0.029 A 
ATOM     34  C   UNL A   1      43.613  30.799  31.841  1.00  0.00     0.049 A 
ATOM     35  H   UNL A   1      43.906  32.558  30.713  1.00  0.00     0.167 HD
ATOM     36  C   UNL A   1      41.340  31.758  32.118  1.00  0.00     0.074 A 
ATOM     37  C   UNL A   1      41.179  32.586  30.925  1.00  0.00     0.031 C 
ATOM     38  C   UNL A   1      42.388  31.012  32.573  1.00  0.00     0.037 A 
BRANCH  25  39
ATOM     39  C   UNL A   1      44.564  32.186  27.752  1.00  0.00     0.057 A 
ATOM     40  C   UNL A   1      45.740  32.286  26.982  1.00  0.00     0.134 A 
ATOM     41  C   UNL A   1      43.912  33.408  28.007  1.00  0.00     0.134 A 
ATOM     42  F   UNL A   1      46.457  31.196  26.673  1.00  0.00    -0.206 F 
ATOM     43  C   UNL A   1      46.272  33.518  26.576  1.00  0.00     0.040 A 
ATOM     44  C   UNL A   1      44.409  34.638  27.565  1.00  0.00     0.040 A 
ATOM     45  F   UNL A   1      42.822  33.490  28.779  1.00  0.00    -0.206 F 
ATOM     46  C   UNL A   1      45.611  34.700  26.878  1.00  0.00     0.006 A 
ENDBRANCH  25  39
BRANCH  26  47
ATOM     47  C   UNL A   1      36.736  31.957  31.145  1.00  0.00     0.057 A 
ATOM     48  C   UNL A   1      36.005  32.317  32.287  1.00  0.00     0.134 A 
ATOM     49  C   UNL A   1      36.346  32.574  29.944  1.00  0.00     0.134 A 
ATOM     50  F   UNL A   1      36.330  31.821  33.489  1.00  0.00    -0.206 F 
ATOM     51  C   UNL A   1      34.962  33.254  32.240  1.00  0.00     0.040 A 
ATOM     52  C   UNL A   1      35.304  33.505  29.883  1.00  0.00     0.040 A 
ATOM     53  F   UNL A   1      37.026  32.363  28.808  1.00  0.00    -0.206 F 
ATOM     54  C   UNL A   1      34.616  33.860  31.035  1.00  0.00     0.006 A 
ENDBRANCH  26  47
BRANCH  38  55
ATOM     55  C   UNL A   1      42.170  30.141  33.776  1.00  0.00     0.057 A 
ATOM     56  C   UNL A   1      41.737  28.808  33.710  1.00  0.00     0.134 A 
ATOM     57  C   UNL A   1      42.590  30.610  35.025  1.00  0.00     0.134 A 
ATOM     58  F   UNL A   1      41.405  28.243  32.542  1.00  0.00    -0.206 F 
ATOM     59  C   UNL A   1      41.700  27.990  34.843  1.00  0.00     0.040 A 
ATOM     60  C   UNL A   1      42.589  29.794  36.158  1.00  0.00     0.040 A 
ATOM     61  F   UNL A   1      43.069  31.859  35.152  1.00  0.00    -0.206 F 
ATOM     62  C   UNL A   1      42.138  28.479  36.070  1.00  0.00     0.006 A 
ENDBRANCH  38  55
ENDBRANCH  12  13
ENDBRANCH   5   7
ENDBRANCH   2   3
ENDBRANCH   1   2
BRANCH   1  63
ATOM     63  C   UNL A   1      36.588  22.664  23.496  1.00  0.00     0.023 C 
BRANCH  63  64
ATOM     64  C   UNL A   1      35.531  23.677  23.923  1.00  0.00     0.116 C 
BRANCH  64  65
ATOM     65  N   UNL A   1      34.378  23.734  23.039  1.00  0.00    -0.352 N 
ATOM     66  C   UNL A   1      33.257  24.527  23.112  1.00  0.00     0.255 C 
ATOM     67  H   UNL A   1      34.403  23.113  22.275  1.00  0.00     0.163 HD
ATOM     68  O   UNL A   1      32.389  24.448  22.254  1.00  0.00    -0.269 OA
BRANCH  66  69
ATOM     69  C   UNL A   1      33.125  25.435  24.235  1.00  0.00     0.101 A 
ATOM     70  C   UNL A   1      32.775  25.073  25.563  1.00  0.00     0.180 A 
ATOM     71  C   UNL A   1      33.261  26.827  24.245  1.00  0.00     0.143 A 
ATOM     72  N   UNL A   1      32.933  26.126  26.382  1.00  0.00    -0.162 NA
ATOM     73  N   UNL A   1      33.183  27.188  25.581  1.00  0.00    -0.229 N 
BRANCH  70  74
ATOM     74  C   UNL A   1      32.354  23.716  26.082  1.00  0.00     0.436 C 
ATOM     75  F   UNL A   1      31.894  23.780  27.361  1.00  0.00    -0.164 F 
ATOM     76  F   UNL A   1      31.355  23.178  25.333  1.00  0.00    -0.164 F 
ATOM     77  F   UNL A   1      33.364  22.809  26.097  1.00  0.00    -0.164 F 
ENDBRANCH  70  74
BRANCH  71  78
ATOM     78  C   UNL A   1      33.629  27.782  23.164  1.00  0.00     0.365 C 
ATOM     79  F   UNL A   1      34.689  28.565  23.467  1.00  0.00    -0.181 F 
ATOM     80  F   UNL A   1      33.986  27.090  22.049  1.00  0.00    -0.181 F 
ATOM     81  Cl  UNL A   1      32.317  28.907  22.737  1.00  0.00    -0.040 Cl
ENDBRANCH  71  78
BRANCH  73  82
ATOM     82  C   UNL A   1      33.435  28.437  26.201  1.00  0.00     0.065 A 
ATOM     83  C   UNL A   1      32.416  29.400  26.214  1.00  0.00     0.028 A 
ATOM     84  C   UNL A   1      34.674  28.726  26.775  1.00  0.00     0.028 A 
ATOM     85  C   UNL A   1      32.606  30.598  26.906  1.00  0.00     0.002 A 
ATOM     86  C   UNL A   1      34.858  29.926  27.463  1.00  0.00     0.002 A 
ATOM     87  C   UNL A   1      33.819  30.851  27.546  1.00  0.00     0.000 A 
ENDBRANCH  73  82
ENDBRANCH  66  69
ENDBRANCH  64  65
ENDBRANCH  63  64
ENDBRANCH   1  63
TORSDOF 14
ENDMDL
