MODEL 1
REMARK VINA RESULT:     -11.9      0.000      0.000
REMARK SMILES O=C(CSCc1nnnn1-c1ccc([N+](=O)[O-])cc1)NCCCCNC(=O)c1ccc(-c2c3nc(c(-c4c(F)cccc4F)c4ccc([nH]4)c(-c4c(F)cccc4F)c4nc(c(-c5c(F)cccc5F)c5ccc2[nH]5)C=C4)C=C3)cc1
REMARK SMILES IDX 21 1 20 2 1 3 2 4 3 6 4 7 5 8 6 9 7 10 10 11 8 12 9 13 11 14
REMARK SMILES IDX 12 15 19 16 13 17 18 18 14 19 15 20 16 21 17 22 22 23 23 24
REMARK SMILES IDX 24 25 25 26 26 27 27 29 28 30 29 31 81 32 30 33 80 34 31 35
REMARK SMILES IDX 32 36 33 37 74 38 34 39 79 40 73 41 75 42 35 43 78 44 72 45
REMARK SMILES IDX 71 46 36 48 62 49 45 50 61 51 46 52 49 53 60 54 76 55 47 56
REMARK SMILES IDX 48 57 59 59 77 60 50 61 37 62 38 63 43 64 39 65 40 66 42 67
REMARK SMILES IDX 44 68 41 69 63 70 64 71 69 72 65 73 66 74 68 75 70 76 67 77
REMARK SMILES IDX 51 78 52 79 57 80 53 81 54 82 56 83 58 84 55 85
REMARK H PARENT 20 5 25 28 75 47 49 58
REMARK Flexibility Score: inf
ROOT
ATOM      1  C   UNL A   1      40.183  22.141  26.378  1.00  0.00     0.116 C 
ENDROOT
BRANCH   1   2
ATOM      2  N   UNL A   1      38.731  22.146  26.326  1.00  0.00    -0.355 N 
ATOM      3  O   UNL A   1      38.540  24.405  26.109  1.00  0.00    -0.274 OA
ATOM      4  C   UNL A   1      38.011  23.296  26.101  1.00  0.00     0.230 C 
ATOM      5  H   UNL A   1      38.247  21.299  26.458  1.00  0.00     0.163 HD
BRANCH   4   6
ATOM      6  C   UNL A   1      36.508  23.153  25.899  1.00  0.00     0.169 C 
BRANCH   6   7
ATOM      7  S   UNL A   1      35.982  21.713  24.908  1.00  0.00    -0.144 SA
BRANCH   7   8
ATOM      8  C   UNL A   1      34.259  21.447  25.462  1.00  0.00     0.149 C 
BRANCH   8   9
ATOM      9  C   UNL A   1      33.240  21.459  24.380  1.00  0.00     0.166 A 
ATOM     10  N   UNL A   1      32.771  22.533  23.771  1.00  0.00    -0.113 NA
ATOM     11  N   UNL A   1      32.672  20.350  23.774  1.00  0.00    -0.196 N 
ATOM     12  N   UNL A   1      32.005  22.084  22.728  1.00  0.00    -0.023 NA
ATOM     13  N   UNL A   1      32.003  20.761  22.676  1.00  0.00    -0.040 NA
BRANCH  11  14
ATOM     14  C   UNL A   1      32.799  18.981  24.089  1.00  0.00     0.069 A 
ATOM     15  C   UNL A   1      33.290  18.105  23.110  1.00  0.00     0.035 A 
ATOM     16  C   UNL A   1      32.508  18.516  25.377  1.00  0.00     0.035 A 
ATOM     17  C   UNL A   1      33.630  16.796  23.464  1.00  0.00     0.088 A 
ATOM     18  C   UNL A   1      32.818  17.200  25.725  1.00  0.00     0.088 A 
ATOM     19  C   UNL A   1      33.428  16.362  24.781  1.00  0.00     0.269 A 
BRANCH  19  20
ATOM     20  N   UNL A   1      33.929  15.048  25.203  1.00  0.00     0.062 N 
ATOM     21  O   UNL A   1      35.155  14.886  25.264  1.00  0.00    -0.258 OA
ATOM     22  O   UNL A   1      33.089  14.176  25.474  1.00  0.00    -0.258 OA
ENDBRANCH  19  20
ENDBRANCH  11  14
ENDBRANCH   8   9
ENDBRANCH   7   8
ENDBRANCH   6   7
ENDBRANCH   4   6
ENDBRANCH   1   2
BRANCH   1  23
ATOM     23  C   UNL A   1      40.802  21.410  27.574  1.00  0.00     0.023 C 
BRANCH  23  24
ATOM     24  C   UNL A   1      41.974  20.468  27.277  1.00  0.00     0.023 C 
BRANCH  24  25
ATOM     25  C   UNL A   1      42.095  20.020  25.828  1.00  0.00     0.116 C 
BRANCH  25  26
ATOM     26  N   UNL A   1      43.457  19.664  25.427  1.00  0.00    -0.352 N 
ATOM     27  C   UNL A   1      44.457  20.519  24.980  1.00  0.00     0.251 C 
ATOM     28  H   UNL A   1      43.692  18.709  25.479  1.00  0.00     0.163 HD
ATOM     29  O   UNL A   1      45.386  20.118  24.303  1.00  0.00    -0.269 OA
BRANCH  27  30
ATOM     30  C   UNL A   1      44.377  21.941  25.368  1.00  0.00     0.039 A 
ATOM     31  C   UNL A   1      43.519  22.842  24.732  1.00  0.00     0.014 A 
ATOM     32  C   UNL A   1      45.167  22.345  26.438  1.00  0.00     0.014 A 
ATOM     33  C   UNL A   1      43.400  24.132  25.251  1.00  0.00     0.010 A 
ATOM     34  C   UNL A   1      44.915  23.540  27.053  1.00  0.00     0.010 A 
ATOM     35  C   UNL A   1      44.084  24.465  26.431  1.00  0.00    -0.014 A 
BRANCH  35  36
ATOM     36  C   UNL A   1      43.860  25.730  27.122  1.00  0.00     0.031 A 
ATOM     37  C   UNL A   1      44.840  26.793  26.773  1.00  0.00     0.074 A 
ATOM     38  C   UNL A   1      42.726  25.987  27.815  1.00  0.00     0.049 A 
ATOM     39  N   UNL A   1      45.749  27.305  27.532  1.00  0.00    -0.248 NA
ATOM     40  C   UNL A   1      44.925  27.236  25.371  1.00  0.00     0.031 C 
ATOM     41  C   UNL A   1      41.550  25.117  27.972  1.00  0.00     0.029 A 
ATOM     42  N   UNL A   1      42.334  27.127  28.450  1.00  0.00    -0.354 N 
ATOM     43  C   UNL A   1      46.365  28.300  26.777  1.00  0.00     0.074 A 
ATOM     44  C   UNL A   1      45.967  28.072  25.414  1.00  0.00     0.031 C 
ATOM     45  C   UNL A   1      40.509  25.832  28.455  1.00  0.00     0.029 A 
ATOM     46  C   UNL A   1      40.990  27.150  28.817  1.00  0.00     0.049 A 
ATOM     47  H   UNL A   1      42.950  27.872  28.636  1.00  0.00     0.167 HD
ATOM     48  C   UNL A   1      46.906  29.393  27.385  1.00  0.00     0.037 A 
ATOM     49  C   UNL A   1      40.321  28.171  29.404  1.00  0.00     0.037 A 
ATOM     50  C   UNL A   1      47.002  29.175  28.807  1.00  0.00     0.049 A 
ATOM     51  C   UNL A   1      41.333  29.041  30.037  1.00  0.00     0.074 A 
ATOM     52  C   UNL A   1      47.763  28.401  29.653  1.00  0.00     0.029 A 
ATOM     53  N   UNL A   1      45.889  29.570  29.503  1.00  0.00    -0.354 N 
ATOM     54  N   UNL A   1      42.049  28.677  31.062  1.00  0.00    -0.248 NA
ATOM     55  C   UNL A   1      41.827  30.200  29.307  1.00  0.00     0.031 C 
ATOM     56  C   UNL A   1      46.933  28.134  30.785  1.00  0.00     0.029 A 
ATOM     57  C   UNL A   1      45.717  28.796  30.616  1.00  0.00     0.049 A 
ATOM     58  H   UNL A   1      45.296  30.310  29.237  1.00  0.00     0.167 HD
ATOM     59  C   UNL A   1      43.280  29.262  30.845  1.00  0.00     0.074 A 
ATOM     60  C   UNL A   1      43.033  30.319  29.870  1.00  0.00     0.031 C 
ATOM     61  C   UNL A   1      44.423  28.629  31.236  1.00  0.00     0.037 A 
BRANCH  48  62
ATOM     62  C   UNL A   1      46.876  30.809  26.834  1.00  0.00     0.057 A 
ATOM     63  C   UNL A   1      48.056  31.580  26.893  1.00  0.00     0.134 A 
ATOM     64  C   UNL A   1      45.705  31.544  26.563  1.00  0.00     0.134 A 
ATOM     65  F   UNL A   1      49.242  31.007  27.145  1.00  0.00    -0.206 F 
ATOM     66  C   UNL A   1      48.052  32.978  26.787  1.00  0.00     0.040 A 
ATOM     67  C   UNL A   1      45.698  32.934  26.408  1.00  0.00     0.040 A 
ATOM     68  F   UNL A   1      44.491  30.986  26.537  1.00  0.00    -0.206 F 
ATOM     69  C   UNL A   1      46.868  33.661  26.555  1.00  0.00     0.006 A 
ENDBRANCH  48  62
BRANCH  49  70
ATOM     70  C   UNL A   1      38.896  28.559  29.343  1.00  0.00     0.057 A 
ATOM     71  C   UNL A   1      38.090  28.559  30.491  1.00  0.00     0.134 A 
ATOM     72  C   UNL A   1      38.382  29.229  28.221  1.00  0.00     0.134 A 
ATOM     73  F   UNL A   1      38.510  27.967  31.617  1.00  0.00    -0.206 F 
ATOM     74  C   UNL A   1      36.860  29.229  30.537  1.00  0.00     0.040 A 
ATOM     75  C   UNL A   1      37.155  29.904  28.255  1.00  0.00     0.040 A 
ATOM     76  F   UNL A   1      39.099  29.329  27.093  1.00  0.00    -0.206 F 
ATOM     77  C   UNL A   1      36.397  29.919  29.421  1.00  0.00     0.006 A 
ENDBRANCH  49  70
BRANCH  61  78
ATOM     78  C   UNL A   1      44.285  27.550  32.269  1.00  0.00     0.057 A 
ATOM     79  C   UNL A   1      44.211  26.180  31.985  1.00  0.00     0.134 A 
ATOM     80  C   UNL A   1      44.328  27.920  33.616  1.00  0.00     0.134 A 
ATOM     81  F   UNL A   1      44.237  25.728  30.726  1.00  0.00    -0.206 F 
ATOM     82  C   UNL A   1      44.151  25.222  33.003  1.00  0.00     0.040 A 
ATOM     83  C   UNL A   1      44.300  26.973  34.641  1.00  0.00     0.040 A 
ATOM     84  F   UNL A   1      44.441  29.213  33.957  1.00  0.00    -0.206 F 
ATOM     85  C   UNL A   1      44.204  25.618  34.335  1.00  0.00     0.006 A 
ENDBRANCH  61  78
ENDBRANCH  35  36
ENDBRANCH  27  30
ENDBRANCH  25  26
ENDBRANCH  24  25
ENDBRANCH  23  24
ENDBRANCH   1  23
TORSDOF 16
ENDMDL
MODEL 2
REMARK VINA RESULT:     -11.4      2.226      3.303
REMARK SMILES O=C(CSCc1nnnn1-c1ccc([N+](=O)[O-])cc1)NCCCCNC(=O)c1ccc(-c2c3nc(c(-c4c(F)cccc4F)c4ccc([nH]4)c(-c4c(F)cccc4F)c4nc(c(-c5c(F)cccc5F)c5ccc2[nH]5)C=C4)C=C3)cc1
REMARK SMILES IDX 21 1 20 2 1 3 2 4 3 6 4 7 5 8 6 9 7 10 10 11 8 12 9 13 11 14
REMARK SMILES IDX 12 15 19 16 13 17 18 18 14 19 15 20 16 21 17 22 22 23 23 24
REMARK SMILES IDX 24 25 25 26 26 27 27 29 28 30 29 31 81 32 30 33 80 34 31 35
REMARK SMILES IDX 32 36 33 37 74 38 34 39 79 40 73 41 75 42 35 43 78 44 72 45
REMARK SMILES IDX 71 46 36 48 62 49 45 50 61 51 46 52 49 53 60 54 76 55 47 56
REMARK SMILES IDX 48 57 59 59 77 60 50 61 37 62 38 63 43 64 39 65 40 66 42 67
REMARK SMILES IDX 44 68 41 69 63 70 64 71 69 72 65 73 66 74 68 75 70 76 67 77
REMARK SMILES IDX 51 78 52 79 57 80 53 81 54 82 56 83 58 84 55 85
REMARK H PARENT 20 5 25 28 75 47 49 58
REMARK Flexibility Score: inf
ROOT
ATOM      1  C   UNL A   1      40.214  22.131  26.401  1.00  0.00     0.116 C 
ENDROOT
BRANCH   1   2
ATOM      2  N   UNL A   1      38.781  21.941  26.248  1.00  0.00    -0.355 N 
ATOM      3  O   UNL A   1      38.281  24.162  26.189  1.00  0.00    -0.274 OA
ATOM      4  C   UNL A   1      37.918  22.994  26.060  1.00  0.00     0.230 C 
ATOM      5  H   UNL A   1      38.417  21.027  26.281  1.00  0.00     0.163 HD
BRANCH   4   6
ATOM      6  C   UNL A   1      36.466  22.663  25.742  1.00  0.00     0.169 C 
BRANCH   6   7
ATOM      7  S   UNL A   1      36.155  20.954  25.180  1.00  0.00    -0.144 SA
BRANCH   7   8
ATOM      8  C   UNL A   1      34.332  20.899  25.042  1.00  0.00     0.149 C 
BRANCH   8   9
ATOM      9  C   UNL A   1      33.597  21.671  26.077  1.00  0.00     0.166 A 
ATOM     10  N   UNL A   1      33.574  21.403  27.371  1.00  0.00    -0.113 NA
ATOM     11  N   UNL A   1      32.883  22.842  25.878  1.00  0.00    -0.196 N 
ATOM     12  N   UNL A   1      32.944  22.458  27.974  1.00  0.00    -0.023 NA
ATOM     13  N   UNL A   1      32.590  23.372  27.084  1.00  0.00    -0.040 NA
BRANCH  11  14
ATOM     14  C   UNL A   1      32.563  23.514  24.680  1.00  0.00     0.069 A 
ATOM     15  C   UNL A   1      31.218  23.603  24.293  1.00  0.00     0.035 A 
ATOM     16  C   UNL A   1      33.562  24.145  23.928  1.00  0.00     0.035 A 
ATOM     17  C   UNL A   1      30.857  24.444  23.237  1.00  0.00     0.088 A 
ATOM     18  C   UNL A   1      33.207  24.961  22.854  1.00  0.00     0.088 A 
ATOM     19  C   UNL A   1      31.853  25.151  22.547  1.00  0.00     0.269 A 
BRANCH  19  20
ATOM     20  N   UNL A   1      31.475  26.157  21.548  1.00  0.00     0.062 N 
ATOM     21  O   UNL A   1      31.790  25.952  20.368  1.00  0.00    -0.258 OA
ATOM     22  O   UNL A   1      30.859  27.158  21.949  1.00  0.00    -0.258 OA
ENDBRANCH  19  20
ENDBRANCH  11  14
ENDBRANCH   8   9
ENDBRANCH   7   8
ENDBRANCH   6   7
ENDBRANCH   4   6
ENDBRANCH   1   2
BRANCH   1  23
ATOM     23  C   UNL A   1      40.852  21.425  27.602  1.00  0.00     0.023 C 
BRANCH  23  24
ATOM     24  C   UNL A   1      41.918  20.368  27.293  1.00  0.00     0.023 C 
BRANCH  24  25
ATOM     25  C   UNL A   1      42.042  19.978  25.828  1.00  0.00     0.116 C 
BRANCH  25  26
ATOM     26  N   UNL A   1      43.401  19.617  25.421  1.00  0.00    -0.352 N 
ATOM     27  C   UNL A   1      44.402  20.468  24.969  1.00  0.00     0.251 C 
ATOM     28  H   UNL A   1      43.632  18.661  25.472  1.00  0.00     0.163 HD
ATOM     29  O   UNL A   1      45.326  20.062  24.288  1.00  0.00    -0.269 OA
BRANCH  27  30
ATOM     30  C   UNL A   1      44.329  21.890  25.357  1.00  0.00     0.039 A 
ATOM     31  C   UNL A   1      43.475  22.795  24.723  1.00  0.00     0.014 A 
ATOM     32  C   UNL A   1      45.124  22.290  26.425  1.00  0.00     0.014 A 
ATOM     33  C   UNL A   1      43.362  24.086  25.242  1.00  0.00     0.010 A 
ATOM     34  C   UNL A   1      44.879  23.487  27.040  1.00  0.00     0.010 A 
ATOM     35  C   UNL A   1      44.051  24.415  26.421  1.00  0.00    -0.014 A 
BRANCH  35  36
ATOM     36  C   UNL A   1      43.835  25.682  27.112  1.00  0.00     0.031 A 
ATOM     37  C   UNL A   1      44.823  26.738  26.765  1.00  0.00     0.074 A 
ATOM     38  C   UNL A   1      42.701  25.946  27.803  1.00  0.00     0.049 A 
ATOM     39  N   UNL A   1      45.734  27.243  27.526  1.00  0.00    -0.248 NA
ATOM     40  C   UNL A   1      44.913  27.182  25.363  1.00  0.00     0.031 C 
ATOM     41  C   UNL A   1      41.518  25.084  27.957  1.00  0.00     0.029 A 
ATOM     42  N   UNL A   1      42.316  27.088  28.438  1.00  0.00    -0.354 N 
ATOM     43  C   UNL A   1      46.358  28.234  26.772  1.00  0.00     0.074 A 
ATOM     44  C   UNL A   1      45.961  28.009  25.409  1.00  0.00     0.031 C 
ATOM     45  C   UNL A   1      40.482  25.806  28.439  1.00  0.00     0.029 A 
ATOM     46  C   UNL A   1      40.972  27.121  28.803  1.00  0.00     0.049 A 
ATOM     47  H   UNL A   1      42.937  27.829  28.625  1.00  0.00     0.167 HD
ATOM     48  C   UNL A   1      46.905  29.323  27.382  1.00  0.00     0.037 A 
ATOM     49  C   UNL A   1      40.309  28.146  29.389  1.00  0.00     0.037 A 
ATOM     50  C   UNL A   1      46.998  29.104  28.804  1.00  0.00     0.049 A 
ATOM     51  C   UNL A   1      41.325  29.009  30.024  1.00  0.00     0.074 A 
ATOM     52  C   UNL A   1      47.751  28.323  29.652  1.00  0.00     0.029 A 
ATOM     53  N   UNL A   1      45.886  29.506  29.499  1.00  0.00    -0.354 N 
ATOM     54  N   UNL A   1      42.037  28.638  31.051  1.00  0.00    -0.248 NA
ATOM     55  C   UNL A   1      41.829  30.165  29.296  1.00  0.00     0.031 C 
ATOM     56  C   UNL A   1      46.918  28.062  30.782  1.00  0.00     0.029 A 
ATOM     57  C   UNL A   1      45.707  28.733  30.611  1.00  0.00     0.049 A 
ATOM     58  H   UNL A   1      45.298  30.250  29.232  1.00  0.00     0.167 HD
ATOM     59  C   UNL A   1      43.273  29.216  30.836  1.00  0.00     0.074 A 
ATOM     60  C   UNL A   1      43.034  30.275  29.861  1.00  0.00     0.031 C 
ATOM     61  C   UNL A   1      44.410  28.574  31.229  1.00  0.00     0.037 A 
BRANCH  48  62
ATOM     62  C   UNL A   1      46.887  30.739  26.832  1.00  0.00     0.057 A 
ATOM     63  C   UNL A   1      48.076  31.497  26.880  1.00  0.00     0.134 A 
ATOM     64  C   UNL A   1      45.722  31.488  26.573  1.00  0.00     0.134 A 
ATOM     65  F   UNL A   1      49.258  30.910  27.120  1.00  0.00    -0.206 F 
ATOM     66  C   UNL A   1      48.087  32.894  26.774  1.00  0.00     0.040 A 
ATOM     67  C   UNL A   1      45.729  32.879  26.418  1.00  0.00     0.040 A 
ATOM     68  F   UNL A   1      44.501  30.944  26.558  1.00  0.00    -0.206 F 
ATOM     69  C   UNL A   1      46.908  33.592  26.554  1.00  0.00     0.006 A 
ENDBRANCH  48  62
BRANCH  49  70
ATOM     70  C   UNL A   1      38.887  28.544  29.326  1.00  0.00     0.057 A 
ATOM     71  C   UNL A   1      38.080  28.556  30.473  1.00  0.00     0.134 A 
ATOM     72  C   UNL A   1      38.377  29.212  28.200  1.00  0.00     0.134 A 
ATOM     73  F   UNL A   1      38.496  27.966  31.603  1.00  0.00    -0.206 F 
ATOM     74  C   UNL A   1      36.855  29.235  30.515  1.00  0.00     0.040 A 
ATOM     75  C   UNL A   1      37.156  29.896  28.230  1.00  0.00     0.040 A 
ATOM     76  F   UNL A   1      39.096  29.300  27.071  1.00  0.00    -0.206 F 
ATOM     77  C   UNL A   1      36.398  29.923  29.396  1.00  0.00     0.006 A 
ENDBRANCH  49  70
BRANCH  61  78
ATOM     78  C   UNL A   1      44.263  27.496  32.261  1.00  0.00     0.057 A 
ATOM     79  C   UNL A   1      44.207  26.124  31.978  1.00  0.00     0.134 A 
ATOM     80  C   UNL A   1      44.278  27.868  33.608  1.00  0.00     0.134 A 
ATOM     81  F   UNL A   1      44.261  25.670  30.721  1.00  0.00    -0.206 F 
ATOM     82  C   UNL A   1      44.137  25.167  32.996  1.00  0.00     0.040 A 
ATOM     83  C   UNL A   1      44.239  26.922  34.633  1.00  0.00     0.040 A 
ATOM     84  F   UNL A   1      44.372  29.163  33.948  1.00  0.00    -0.206 F 
ATOM     85  C   UNL A   1      44.161  25.566  34.328  1.00  0.00     0.006 A 
ENDBRANCH  61  78
ENDBRANCH  35  36
ENDBRANCH  27  30
ENDBRANCH  25  26
ENDBRANCH  24  25
ENDBRANCH  23  24
ENDBRANCH   1  23
TORSDOF 16
ENDMDL
MODEL 3
REMARK VINA RESULT:     -11.3      3.046      7.519
REMARK SMILES O=C(CSCc1nnnn1-c1ccc([N+](=O)[O-])cc1)NCCCCNC(=O)c1ccc(-c2c3nc(c(-c4c(F)cccc4F)c4ccc([nH]4)c(-c4c(F)cccc4F)c4nc(c(-c5c(F)cccc5F)c5ccc2[nH]5)C=C4)C=C3)cc1
REMARK SMILES IDX 21 1 20 2 1 3 2 4 3 6 4 7 5 8 6 9 7 10 10 11 8 12 9 13 11 14
REMARK SMILES IDX 12 15 19 16 13 17 18 18 14 19 15 20 16 21 17 22 22 23 23 24
REMARK SMILES IDX 24 25 25 26 26 27 27 29 28 30 29 31 81 32 30 33 80 34 31 35
REMARK SMILES IDX 32 36 33 37 74 38 34 39 79 40 73 41 75 42 35 43 78 44 72 45
REMARK SMILES IDX 71 46 36 48 62 49 45 50 61 51 46 52 49 53 60 54 76 55 47 56
REMARK SMILES IDX 48 57 59 59 77 60 50 61 37 62 38 63 43 64 39 65 40 66 42 67
REMARK SMILES IDX 44 68 41 69 63 70 64 71 69 72 65 73 66 74 68 75 70 76 67 77
REMARK SMILES IDX 51 78 52 79 57 80 53 81 54 82 56 83 58 84 55 85
REMARK H PARENT 20 5 25 28 75 47 49 58
REMARK Flexibility Score: inf
ROOT
ATOM      1  C   UNL A   1      32.269  27.681  24.758  1.00  0.00     0.116 C 
ENDROOT
BRANCH   1   2
ATOM      2  N   UNL A   1      31.951  26.293  25.043  1.00  0.00    -0.355 N 
ATOM      3  O   UNL A   1      31.032  26.706  27.085  1.00  0.00    -0.274 OA
ATOM      4  C   UNL A   1      31.261  25.917  26.171  1.00  0.00     0.230 C 
ATOM      5  H   UNL A   1      32.240  25.598  24.408  1.00  0.00     0.163 HD
BRANCH   4   6
ATOM      6  C   UNL A   1      30.837  24.458  26.279  1.00  0.00     0.169 C 
BRANCH   6   7
ATOM      7  S   UNL A   1      32.194  23.259  26.508  1.00  0.00    -0.144 SA
BRANCH   7   8
ATOM      8  C   UNL A   1      32.346  22.498  24.851  1.00  0.00     0.149 C 
BRANCH   8   9
ATOM      9  C   UNL A   1      32.647  23.446  23.747  1.00  0.00     0.166 A 
ATOM     10  N   UNL A   1      31.760  23.999  22.938  1.00  0.00    -0.113 NA
ATOM     11  N   UNL A   1      33.890  23.972  23.430  1.00  0.00    -0.196 N 
ATOM     12  N   UNL A   1      32.436  24.937  22.205  1.00  0.00    -0.023 NA
ATOM     13  N   UNL A   1      33.713  24.981  22.552  1.00  0.00    -0.040 NA
BRANCH  11  14
ATOM     14  C   UNL A   1      35.162  23.667  23.956  1.00  0.00     0.069 A 
ATOM     15  C   UNL A   1      35.581  24.313  25.128  1.00  0.00     0.035 A 
ATOM     16  C   UNL A   1      35.964  22.685  23.360  1.00  0.00     0.035 A 
ATOM     17  C   UNL A   1      36.733  23.871  25.785  1.00  0.00     0.088 A 
ATOM     18  C   UNL A   1      37.131  22.264  23.998  1.00  0.00     0.088 A 
ATOM     19  C   UNL A   1      37.482  22.821  25.236  1.00  0.00     0.269 A 
BRANCH  19  20
ATOM     20  N   UNL A   1      38.597  22.243  25.995  1.00  0.00     0.062 N 
ATOM     21  O   UNL A   1      38.892  21.059  25.784  1.00  0.00    -0.258 OA
ATOM     22  O   UNL A   1      39.178  22.980  26.808  1.00  0.00    -0.258 OA
ENDBRANCH  19  20
ENDBRANCH  11  14
ENDBRANCH   8   9
ENDBRANCH   7   8
ENDBRANCH   6   7
ENDBRANCH   4   6
ENDBRANCH   1   2
BRANCH   1  23
ATOM     23  C   UNL A   1      33.652  28.153  25.221  1.00  0.00     0.023 C 
BRANCH  23  24
ATOM     24  C   UNL A   1      33.717  28.882  26.568  1.00  0.00     0.023 C 
BRANCH  24  25
ATOM     25  C   UNL A   1      35.062  28.820  27.276  1.00  0.00     0.116 C 
BRANCH  25  26
ATOM     26  N   UNL A   1      35.217  29.805  28.347  1.00  0.00    -0.352 N 
ATOM     27  C   UNL A   1      36.258  29.903  29.262  1.00  0.00     0.251 C 
ATOM     28  H   UNL A   1      34.501  30.476  28.429  1.00  0.00     0.163 HD
ATOM     29  O   UNL A   1      36.118  30.466  30.332  1.00  0.00    -0.269 OA
BRANCH  27  30
ATOM     30  C   UNL A   1      37.562  29.318  28.892  1.00  0.00     0.039 A 
ATOM     31  C   UNL A   1      38.259  29.711  27.746  1.00  0.00     0.014 A 
ATOM     32  C   UNL A   1      38.099  28.380  29.766  1.00  0.00     0.014 A 
ATOM     33  C   UNL A   1      39.548  29.214  27.544  1.00  0.00     0.010 A 
ATOM     34  C   UNL A   1      39.421  28.040  29.665  1.00  0.00     0.010 A 
ATOM     35  C   UNL A   1      40.132  28.397  28.526  1.00  0.00    -0.014 A 
BRANCH  35  36
ATOM     36  C   UNL A   1      41.534  27.997  28.462  1.00  0.00     0.031 A 
ATOM     37  C   UNL A   1      41.771  26.744  27.698  1.00  0.00     0.074 A 
ATOM     38  C   UNL A   1      42.540  28.818  28.842  1.00  0.00     0.049 A 
ATOM     39  N   UNL A   1      42.157  25.603  28.159  1.00  0.00    -0.248 NA
ATOM     40  C   UNL A   1      41.391  26.706  26.275  1.00  0.00     0.031 C 
ATOM     41  C   UNL A   1      42.438  30.203  29.329  1.00  0.00     0.029 A 
ATOM     42  N   UNL A   1      43.888  28.628  28.781  1.00  0.00    -0.354 N 
ATOM     43  C   UNL A   1      42.296  24.768  27.052  1.00  0.00     0.074 A 
ATOM     44  C   UNL A   1      41.621  25.426  25.968  1.00  0.00     0.031 C 
ATOM     45  C   UNL A   1      43.655  30.792  29.304  1.00  0.00     0.029 A 
ATOM     46  C   UNL A   1      44.643  29.781  28.984  1.00  0.00     0.049 A 
ATOM     47  H   UNL A   1      44.295  27.748  28.609  1.00  0.00     0.167 HD
ATOM     48  C   UNL A   1      43.207  23.754  27.062  1.00  0.00     0.037 A 
ATOM     49  C   UNL A   1      45.991  29.896  28.921  1.00  0.00     0.037 A 
ATOM     50  C   UNL A   1      43.695  23.536  28.402  1.00  0.00     0.049 A 
ATOM     51  C   UNL A   1      46.548  28.540  29.100  1.00  0.00     0.074 A 
ATOM     52  C   UNL A   1      43.198  23.022  29.578  1.00  0.00     0.029 A 
ATOM     53  N   UNL A   1      44.801  24.283  28.716  1.00  0.00    -0.354 N 
ATOM     54  N   UNL A   1      46.472  27.878  30.219  1.00  0.00    -0.248 NA
ATOM     55  C   UNL A   1      46.876  27.747  27.924  1.00  0.00     0.031 C 
ATOM     56  C   UNL A   1      43.891  23.706  30.623  1.00  0.00     0.029 A 
ATOM     57  C   UNL A   1      44.821  24.574  30.051  1.00  0.00     0.049 A 
ATOM     58  H   UNL A   1      45.484  24.571  28.069  1.00  0.00     0.167 HD
ATOM     59  C   UNL A   1      46.304  26.565  29.829  1.00  0.00     0.074 A 
ATOM     60  C   UNL A   1      46.741  26.522  28.437  1.00  0.00     0.031 C 
ATOM     61  C   UNL A   1      45.534  25.718  30.571  1.00  0.00     0.037 A 
BRANCH  48  62
ATOM     62  C   UNL A   1      44.036  23.308  25.870  1.00  0.00     0.057 A 
ATOM     63  C   UNL A   1      44.101  21.931  25.572  1.00  0.00     0.134 A 
ATOM     64  C   UNL A   1      45.009  24.097  25.224  1.00  0.00     0.134 A 
ATOM     65  F   UNL A   1      43.236  21.065  26.119  1.00  0.00    -0.206 F 
ATOM     66  C   UNL A   1      45.111  21.377  24.772  1.00  0.00     0.040 A 
ATOM     67  C   UNL A   1      45.992  23.559  24.386  1.00  0.00     0.040 A 
ATOM     68  F   UNL A   1      45.136  25.410  25.442  1.00  0.00    -0.206 F 
ATOM     69  C   UNL A   1      46.069  22.191  24.185  1.00  0.00     0.006 A 
ENDBRANCH  48  62
BRANCH  49  70
ATOM     70  C   UNL A   1      46.851  31.045  28.566  1.00  0.00     0.057 A 
ATOM     71  C   UNL A   1      47.753  31.595  29.488  1.00  0.00     0.134 A 
ATOM     72  C   UNL A   1      47.024  31.424  27.224  1.00  0.00     0.134 A 
ATOM     73  F   UNL A   1      47.680  31.271  30.786  1.00  0.00    -0.206 F 
ATOM     74  C   UNL A   1      48.799  32.440  29.094  1.00  0.00     0.040 A 
ATOM     75  C   UNL A   1      48.067  32.265  26.817  1.00  0.00     0.040 A 
ATOM     76  F   UNL A   1      46.245  30.912  26.260  1.00  0.00    -0.206 F 
ATOM     77  C   UNL A   1      48.969  32.763  27.751  1.00  0.00     0.006 A 
ENDBRANCH  49  70
BRANCH  61  78
ATOM     78  C   UNL A   1      45.268  26.110  31.994  1.00  0.00     0.057 A 
ATOM     79  C   UNL A   1      44.102  26.746  32.441  1.00  0.00     0.134 A 
ATOM     80  C   UNL A   1      46.199  25.733  32.966  1.00  0.00     0.134 A 
ATOM     81  F   UNL A   1      43.122  27.079  31.593  1.00  0.00    -0.206 F 
ATOM     82  C   UNL A   1      43.890  27.023  33.796  1.00  0.00     0.040 A 
ATOM     83  C   UNL A   1      45.986  25.975  34.323  1.00  0.00     0.040 A 
ATOM     84  F   UNL A   1      47.318  25.083  32.610  1.00  0.00    -0.206 F 
ATOM     85  C   UNL A   1      44.831  26.630  34.742  1.00  0.00     0.006 A 
ENDBRANCH  61  78
ENDBRANCH  35  36
ENDBRANCH  27  30
ENDBRANCH  25  26
ENDBRANCH  24  25
ENDBRANCH  23  24
ENDBRANCH   1  23
TORSDOF 16
ENDMDL
