MODEL 1
REMARK VINA RESULT:     -11.1      0.000      0.000
REMARK SMILES CC(C)[C@@H](CC(=O)NCCCCNC(=O)c1ccc(-c2c3nc(c(-c4c(F)cccc4F)c4ccc([nH]4)c(-c4c(F)cccc4F)c4nc(c(-c5c(F)cccc5F)c5ccc2[nH]5)C=C4)C=C3)cc1)NC(=O)OCc1ccccc1
REMARK SMILES IDX 9 1 8 2 6 3 7 4 5 6 4 7 2 8 1 9 3 10 70 11 71 12 72 14 73 15
REMARK SMILES IDX 74 16 75 17 76 18 80 19 77 20 79 21 78 22 10 23 11 24 12 25
REMARK SMILES IDX 13 26 14 27 15 29 16 30 17 31 69 32 18 33 68 34 19 35 20 36
REMARK SMILES IDX 21 37 62 38 22 39 67 40 61 41 63 42 23 43 66 44 60 45 59 46
REMARK SMILES IDX 24 48 50 49 33 50 49 51 34 52 37 53 48 54 64 55 35 56 36 57
REMARK SMILES IDX 47 59 65 60 38 61 25 62 26 63 31 64 27 65 28 66 30 67 32 68
REMARK SMILES IDX 29 69 51 70 52 71 57 72 53 73 54 74 56 75 58 76 55 77 39 78
REMARK SMILES IDX 40 79 45 80 41 81 42 82 44 83 46 84 43 85
REMARK H PARENT 8 5 70 13 13 28 63 47 37 58
REMARK Flexibility Score: inf
ROOT
ATOM      1  C   UNL A   1      36.263  21.792  25.595  1.00  0.00     0.116 C 
ENDROOT
BRANCH   1   2
ATOM      2  N   UNL A   1      35.215  20.797  25.590  1.00  0.00    -0.356 N 
ATOM      3  C   UNL A   1      34.016  20.789  24.947  1.00  0.00     0.222 C 
ATOM      4  O   UNL A   1      33.245  19.862  25.202  1.00  0.00    -0.275 OA
ATOM      5  H   UNL A   1      35.397  19.999  26.136  1.00  0.00     0.163 HD
BRANCH   3   6
ATOM      6  C   UNL A   1      33.643  21.854  23.927  1.00  0.00     0.125 C 
BRANCH   6   7
ATOM      7  C   UNL A   1      33.053  23.183  24.457  1.00  0.00     0.097 C 
BRANCH   7   8
ATOM      8  C   UNL A   1      33.962  24.427  24.289  1.00  0.00     0.006 C 
ATOM      9  C   UNL A   1      33.410  25.476  23.324  1.00  0.00     0.009 C 
ATOM     10  C   UNL A   1      34.387  25.113  25.593  1.00  0.00     0.009 C 
ENDBRANCH   7   8
BRANCH   7  11
ATOM     11  N   UNL A   1      32.636  23.057  25.850  1.00  0.00    -0.318 N 
ATOM     12  C   UNL A   1      31.540  23.639  26.412  1.00  0.00     0.407 C 
ATOM     13  H   UNL A   1      33.198  22.500  26.436  1.00  0.00     0.167 HD
ATOM     14  O   UNL A   1      31.401  23.703  27.623  1.00  0.00    -0.225 OA
BRANCH  12  15
ATOM     15  O   UNL A   1      30.652  24.067  25.484  1.00  0.00    -0.445 OA
BRANCH  15  16
ATOM     16  C   UNL A   1      29.902  25.232  25.839  1.00  0.00     0.270 C 
BRANCH  16  17
ATOM     17  C   UNL A   1      30.525  26.529  25.364  1.00  0.00    -0.011 A 
ATOM     18  C   UNL A   1      31.366  27.233  26.238  1.00  0.00     0.007 A 
ATOM     19  C   UNL A   1      30.235  27.103  24.116  1.00  0.00     0.007 A 
ATOM     20  C   UNL A   1      31.883  28.480  25.881  1.00  0.00     0.000 A 
ATOM     21  C   UNL A   1      30.740  28.354  23.764  1.00  0.00     0.000 A 
ATOM     22  C   UNL A   1      31.560  29.045  24.650  1.00  0.00     0.000 A 
ENDBRANCH  16  17
ENDBRANCH  15  16
ENDBRANCH  12  15
ENDBRANCH   7  11
ENDBRANCH   6   7
ENDBRANCH   3   6
ENDBRANCH   1   2
BRANCH   1  23
ATOM     23  C   UNL A   1      37.402  21.370  24.659  1.00  0.00     0.023 C 
BRANCH  23  24
ATOM     24  C   UNL A   1      38.075  20.055  25.000  1.00  0.00     0.023 C 
BRANCH  24  25
ATOM     25  C   UNL A   1      39.326  20.208  25.842  1.00  0.00     0.116 C 
BRANCH  25  26
ATOM     26  N   UNL A   1      40.221  19.057  25.788  1.00  0.00    -0.352 N 
ATOM     27  C   UNL A   1      41.583  19.038  25.987  1.00  0.00     0.251 C 
ATOM     28  H   UNL A   1      39.801  18.191  25.584  1.00  0.00     0.163 HD
ATOM     29  O   UNL A   1      42.231  18.013  25.813  1.00  0.00    -0.269 OA
BRANCH  27  30
ATOM     30  C   UNL A   1      42.249  20.298  26.364  1.00  0.00     0.039 A 
ATOM     31  C   UNL A   1      42.751  21.124  25.359  1.00  0.00     0.014 A 
ATOM     32  C   UNL A   1      42.256  20.712  27.699  1.00  0.00     0.014 A 
ATOM     33  C   UNL A   1      43.183  22.408  25.688  1.00  0.00     0.010 A 
ATOM     34  C   UNL A   1      42.572  22.027  28.003  1.00  0.00     0.010 A 
ATOM     35  C   UNL A   1      43.045  22.888  27.003  1.00  0.00    -0.014 A 
BRANCH  35  36
ATOM     36  C   UNL A   1      43.396  24.288  27.345  1.00  0.00     0.031 A 
ATOM     37  C   UNL A   1      44.823  24.750  27.247  1.00  0.00     0.074 A 
ATOM     38  C   UNL A   1      42.436  25.127  27.781  1.00  0.00     0.049 A 
ATOM     39  N   UNL A   1      45.329  25.927  27.515  1.00  0.00    -0.248 NA
ATOM     40  C   UNL A   1      45.823  23.754  26.823  1.00  0.00     0.031 C 
ATOM     41  C   UNL A   1      41.028  24.775  27.984  1.00  0.00     0.029 A 
ATOM     42  N   UNL A   1      42.497  26.452  28.132  1.00  0.00    -0.354 N 
ATOM     43  C   UNL A   1      46.696  25.809  27.292  1.00  0.00     0.074 A 
ATOM     44  C   UNL A   1      46.954  24.431  26.944  1.00  0.00     0.031 C 
ATOM     45  C   UNL A   1      40.353  25.867  28.382  1.00  0.00     0.029 A 
ATOM     46  C   UNL A   1      41.285  26.982  28.503  1.00  0.00     0.049 A 
ATOM     47  H   UNL A   1      43.333  26.974  28.120  1.00  0.00     0.167 HD
ATOM     48  C   UNL A   1      47.645  26.773  27.336  1.00  0.00     0.037 A 
ATOM     49  C   UNL A   1      40.962  28.229  28.896  1.00  0.00     0.037 A 
ATOM     50  C   UNL A   1      47.381  28.148  27.663  1.00  0.00     0.049 A 
ATOM     51  C   UNL A   1      42.043  29.276  28.948  1.00  0.00     0.074 A 
ATOM     52  C   UNL A   1      48.266  29.210  27.690  1.00  0.00     0.029 A 
ATOM     53  N   UNL A   1      46.140  28.648  28.024  1.00  0.00    -0.354 N 
ATOM     54  N   UNL A   1      43.317  29.168  28.655  1.00  0.00    -0.248 NA
ATOM     55  C   UNL A   1      41.638  30.621  29.376  1.00  0.00     0.031 C 
ATOM     56  C   UNL A   1      47.570  30.346  28.116  1.00  0.00     0.029 A 
ATOM     57  C   UNL A   1      46.239  30.002  28.298  1.00  0.00     0.049 A 
ATOM     58  H   UNL A   1      45.310  28.120  28.078  1.00  0.00     0.167 HD
ATOM     59  C   UNL A   1      43.858  30.435  28.836  1.00  0.00     0.074 A 
ATOM     60  C   UNL A   1      42.767  31.299  29.236  1.00  0.00     0.031 C 
ATOM     61  C   UNL A   1      45.141  30.847  28.690  1.00  0.00     0.037 A 
BRANCH  48  62
ATOM     62  C   UNL A   1      49.054  26.375  27.002  1.00  0.00     0.057 A 
ATOM     63  C   UNL A   1      49.545  26.426  25.691  1.00  0.00     0.134 A 
ATOM     64  C   UNL A   1      49.946  25.985  28.009  1.00  0.00     0.134 A 
ATOM     65  F   UNL A   1      48.738  26.776  24.676  1.00  0.00    -0.206 F 
ATOM     66  C   UNL A   1      50.864  26.088  25.389  1.00  0.00     0.040 A 
ATOM     67  C   UNL A   1      51.277  25.673  27.724  1.00  0.00     0.040 A 
ATOM     68  F   UNL A   1      49.544  25.914  29.287  1.00  0.00    -0.206 F 
ATOM     69  C   UNL A   1      51.737  25.720  26.410  1.00  0.00     0.006 A 
ENDBRANCH  48  62
BRANCH  49  70
ATOM     70  C   UNL A   1      39.563  28.569  29.262  1.00  0.00     0.057 A 
ATOM     71  C   UNL A   1      38.681  29.126  28.327  1.00  0.00     0.134 A 
ATOM     72  C   UNL A   1      39.083  28.387  30.565  1.00  0.00     0.134 A 
ATOM     73  F   UNL A   1      39.083  29.343  27.065  1.00  0.00    -0.206 F 
ATOM     74  C   UNL A   1      37.391  29.524  28.681  1.00  0.00     0.040 A 
ATOM     75  C   UNL A   1      37.784  28.749  30.925  1.00  0.00     0.040 A 
ATOM     76  F   UNL A   1      39.871  27.849  31.508  1.00  0.00    -0.206 F 
ATOM     77  C   UNL A   1      36.938  29.333  29.985  1.00  0.00     0.006 A 
ENDBRANCH  49  70
BRANCH  61  78
ATOM     78  C   UNL A   1      45.422  32.302  28.932  1.00  0.00     0.057 A 
ATOM     79  C   UNL A   1      45.300  33.260  27.918  1.00  0.00     0.134 A 
ATOM     80  C   UNL A   1      45.802  32.752  30.204  1.00  0.00     0.134 A 
ATOM     81  F   UNL A   1      44.949  32.895  26.676  1.00  0.00    -0.206 F 
ATOM     82  C   UNL A   1      45.585  34.607  28.149  1.00  0.00     0.040 A 
ATOM     83  C   UNL A   1      46.056  34.101  30.454  1.00  0.00     0.040 A 
ATOM     84  F   UNL A   1      45.925  31.890  31.224  1.00  0.00    -0.206 F 
ATOM     85  C   UNL A   1      45.959  35.031  29.422  1.00  0.00     0.006 A 
ENDBRANCH  61  78
ENDBRANCH  35  36
ENDBRANCH  27  30
ENDBRANCH  25  26
ENDBRANCH  24  25
ENDBRANCH  23  24
ENDBRANCH   1  23
TORSDOF 17
ENDMDL
MODEL 2
REMARK VINA RESULT:     -10.8      1.226      6.387
REMARK SMILES CC(C)[C@@H](CC(=O)NCCCCNC(=O)c1ccc(-c2c3nc(c(-c4c(F)cccc4F)c4ccc([nH]4)c(-c4c(F)cccc4F)c4nc(c(-c5c(F)cccc5F)c5ccc2[nH]5)C=C4)C=C3)cc1)NC(=O)OCc1ccccc1
REMARK SMILES IDX 9 1 8 2 6 3 7 4 5 6 4 7 2 8 1 9 3 10 70 11 71 12 72 14 73 15
REMARK SMILES IDX 74 16 75 17 76 18 80 19 77 20 79 21 78 22 10 23 11 24 12 25
REMARK SMILES IDX 13 26 14 27 15 29 16 30 17 31 69 32 18 33 68 34 19 35 20 36
REMARK SMILES IDX 21 37 62 38 22 39 67 40 61 41 63 42 23 43 66 44 60 45 59 46
REMARK SMILES IDX 24 48 50 49 33 50 49 51 34 52 37 53 48 54 64 55 35 56 36 57
REMARK SMILES IDX 47 59 65 60 38 61 25 62 26 63 31 64 27 65 28 66 30 67 32 68
REMARK SMILES IDX 29 69 51 70 52 71 57 72 53 73 54 74 56 75 58 76 55 77 39 78
REMARK SMILES IDX 40 79 45 80 41 81 42 82 44 83 46 84 43 85
REMARK H PARENT 8 5 70 13 13 28 63 47 37 58
REMARK Flexibility Score: inf
ROOT
ATOM      1  C   UNL A   1      35.696  20.362  25.012  1.00  0.00     0.116 C 
ENDROOT
BRANCH   1   2
ATOM      2  N   UNL A   1      34.367  19.812  25.165  1.00  0.00    -0.356 N 
ATOM      3  C   UNL A   1      33.156  20.343  24.849  1.00  0.00     0.222 C 
ATOM      4  O   UNL A   1      32.156  19.709  25.191  1.00  0.00    -0.275 OA
ATOM      5  H   UNL A   1      34.335  18.910  25.559  1.00  0.00     0.163 HD
BRANCH   3   6
ATOM      6  C   UNL A   1      33.026  21.647  24.078  1.00  0.00     0.125 C 
BRANCH   6   7
ATOM      7  C   UNL A   1      32.606  22.911  24.866  1.00  0.00     0.097 C 
BRANCH   7   8
ATOM      8  C   UNL A   1      33.772  23.751  25.445  1.00  0.00     0.006 C 
ATOM      9  C   UNL A   1      34.285  23.256  26.797  1.00  0.00     0.009 C 
ATOM     10  C   UNL A   1      34.961  23.968  24.501  1.00  0.00     0.009 C 
ENDBRANCH   7   8
BRANCH   7  11
ATOM     11  N   UNL A   1      31.658  22.581  25.925  1.00  0.00    -0.318 N 
ATOM     12  C   UNL A   1      30.655  23.385  26.378  1.00  0.00     0.407 C 
ATOM     13  H   UNL A   1      31.751  21.698  26.350  1.00  0.00     0.167 HD
ATOM     14  O   UNL A   1      30.076  23.154  27.428  1.00  0.00    -0.225 OA
BRANCH  12  15
ATOM     15  O   UNL A   1      30.374  24.392  25.519  1.00  0.00    -0.445 OA
BRANCH  15  16
ATOM     16  C   UNL A   1      30.370  25.705  26.086  1.00  0.00     0.270 C 
BRANCH  16  17
ATOM     17  C   UNL A   1      31.549  26.558  25.665  1.00  0.00    -0.011 A 
ATOM     18  C   UNL A   1      31.839  26.679  24.298  1.00  0.00     0.007 A 
ATOM     19  C   UNL A   1      32.418  27.167  26.584  1.00  0.00     0.007 A 
ATOM     20  C   UNL A   1      32.973  27.372  23.868  1.00  0.00     0.000 A 
ATOM     21  C   UNL A   1      33.557  27.847  26.156  1.00  0.00     0.000 A 
ATOM     22  C   UNL A   1      33.837  27.946  24.798  1.00  0.00     0.000 A 
ENDBRANCH  16  17
ENDBRANCH  15  16
ENDBRANCH  12  15
ENDBRANCH   7  11
ENDBRANCH   6   7
ENDBRANCH   3   6
ENDBRANCH   1   2
BRANCH   1  23
ATOM     23  C   UNL A   1      36.707  19.241  24.741  1.00  0.00     0.023 C 
BRANCH  23  24
ATOM     24  C   UNL A   1      38.154  19.680  24.627  1.00  0.00     0.023 C 
BRANCH  24  25
ATOM     25  C   UNL A   1      38.916  19.622  25.936  1.00  0.00     0.116 C 
BRANCH  25  26
ATOM     26  N   UNL A   1      40.190  18.917  25.849  1.00  0.00    -0.352 N 
ATOM     27  C   UNL A   1      41.448  19.411  26.110  1.00  0.00     0.251 C 
ATOM     28  H   UNL A   1      40.145  17.975  25.568  1.00  0.00     0.163 HD
ATOM     29  O   UNL A   1      42.448  18.735  25.900  1.00  0.00    -0.269 OA
BRANCH  27  30
ATOM     30  C   UNL A   1      41.563  20.797  26.601  1.00  0.00     0.039 A 
ATOM     31  C   UNL A   1      41.837  21.016  27.950  1.00  0.00     0.014 A 
ATOM     32  C   UNL A   1      41.526  21.863  25.697  1.00  0.00     0.014 A 
ATOM     33  C   UNL A   1      42.162  22.303  28.376  1.00  0.00     0.010 A 
ATOM     34  C   UNL A   1      41.966  23.114  26.100  1.00  0.00     0.010 A 
ATOM     35  C   UNL A   1      42.282  23.351  27.446  1.00  0.00    -0.014 A 
BRANCH  35  36
ATOM     36  C   UNL A   1      42.736  24.698  27.867  1.00  0.00     0.031 A 
ATOM     37  C   UNL A   1      41.724  25.763  28.193  1.00  0.00     0.074 A 
ATOM     38  C   UNL A   1      44.054  24.973  27.915  1.00  0.00     0.049 A 
ATOM     39  N   UNL A   1      41.922  27.002  28.566  1.00  0.00    -0.248 NA
ATOM     40  C   UNL A   1      40.303  25.402  28.054  1.00  0.00     0.031 C 
ATOM     41  C   UNL A   1      45.129  24.044  27.555  1.00  0.00     0.029 A 
ATOM     42  N   UNL A   1      44.717  26.114  28.290  1.00  0.00    -0.354 N 
ATOM     43  C   UNL A   1      40.657  27.560  28.703  1.00  0.00     0.074 A 
ATOM     44  C   UNL A   1      39.701  26.555  28.300  1.00  0.00     0.031 C 
ATOM     45  C   UNL A   1      46.315  24.638  27.767  1.00  0.00     0.029 A 
ATOM     46  C   UNL A   1      46.086  26.000  28.236  1.00  0.00     0.049 A 
ATOM     47  H   UNL A   1      44.256  26.938  28.570  1.00  0.00     0.167 HD
ATOM     48  C   UNL A   1      40.321  28.788  29.161  1.00  0.00     0.037 A 
ATOM     49  C   UNL A   1      47.047  26.896  28.532  1.00  0.00     0.037 A 
ATOM     50  C   UNL A   1      41.275  29.780  29.579  1.00  0.00     0.049 A 
ATOM     51  C   UNL A   1      46.642  28.259  29.026  1.00  0.00     0.074 A 
ATOM     52  C   UNL A   1      41.036  31.037  30.103  1.00  0.00     0.029 A 
ATOM     53  N   UNL A   1      42.652  29.625  29.519  1.00  0.00    -0.354 N 
ATOM     54  N   UNL A   1      45.441  28.744  29.229  1.00  0.00    -0.248 NA
ATOM     55  C   UNL A   1      47.728  29.195  29.342  1.00  0.00     0.031 C 
ATOM     56  C   UNL A   1      42.268  31.664  30.312  1.00  0.00     0.029 A 
ATOM     57  C   UNL A   1      43.276  30.774  29.974  1.00  0.00     0.049 A 
ATOM     58  H   UNL A   1      43.117  28.818  29.200  1.00  0.00     0.167 HD
ATOM     59  C   UNL A   1      45.627  30.029  29.722  1.00  0.00     0.074 A 
ATOM     60  C   UNL A   1      47.057  30.235  29.814  1.00  0.00     0.031 C 
ATOM     61  C   UNL A   1      44.701  30.959  30.063  1.00  0.00     0.037 A 
BRANCH  48  62
ATOM     62  C   UNL A   1      38.860  29.120  29.251  1.00  0.00     0.057 A 
ATOM     63  C   UNL A   1      38.147  28.994  30.451  1.00  0.00     0.134 A 
ATOM     64  C   UNL A   1      38.168  29.619  28.141  1.00  0.00     0.134 A 
ATOM     65  F   UNL A   1      38.745  28.506  31.550  1.00  0.00    -0.206 F 
ATOM     66  C   UNL A   1      36.797  29.334  30.540  1.00  0.00     0.040 A 
ATOM     67  C   UNL A   1      36.825  29.992  28.224  1.00  0.00     0.040 A 
ATOM     68  F   UNL A   1      38.788  29.767  26.960  1.00  0.00    -0.206 F 
ATOM     69  C   UNL A   1      36.135  29.846  29.426  1.00  0.00     0.006 A 
ENDBRANCH  48  62
BRANCH  49  70
ATOM     70  C   UNL A   1      48.483  26.541  28.385  1.00  0.00     0.057 A 
ATOM     71  C   UNL A   1      49.182  26.816  27.203  1.00  0.00     0.134 A 
ATOM     72  C   UNL A   1      49.181  25.881  29.403  1.00  0.00     0.134 A 
ATOM     73  F   UNL A   1      48.567  27.431  26.181  1.00  0.00    -0.206 F 
ATOM     74  C   UNL A   1      50.508  26.414  27.024  1.00  0.00     0.040 A 
ATOM     75  C   UNL A   1      50.516  25.504  29.251  1.00  0.00     0.040 A 
ATOM     76  F   UNL A   1      48.574  25.597  30.566  1.00  0.00    -0.206 F 
ATOM     77  C   UNL A   1      51.179  25.758  28.053  1.00  0.00     0.006 A 
ENDBRANCH  49  70
BRANCH  61  78
ATOM     78  C   UNL A   1      45.211  32.266  30.598  1.00  0.00     0.057 A 
ATOM     79  C   UNL A   1      45.456  33.364  29.764  1.00  0.00     0.134 A 
ATOM     80  C   UNL A   1      45.444  32.432  31.970  1.00  0.00     0.134 A 
ATOM     81  F   UNL A   1      45.263  33.269  28.440  1.00  0.00    -0.206 F 
ATOM     82  C   UNL A   1      45.951  34.567  30.269  1.00  0.00     0.040 A 
ATOM     83  C   UNL A   1      45.906  33.640  32.490  1.00  0.00     0.040 A 
ATOM     84  F   UNL A   1      45.218  31.425  32.827  1.00  0.00    -0.206 F 
ATOM     85  C   UNL A   1      46.172  34.709  31.637  1.00  0.00     0.006 A 
ENDBRANCH  61  78
ENDBRANCH  35  36
ENDBRANCH  27  30
ENDBRANCH  25  26
ENDBRANCH  24  25
ENDBRANCH  23  24
ENDBRANCH   1  23
TORSDOF 17
ENDMDL
MODEL 3
REMARK VINA RESULT:     -10.8      1.665      2.595
REMARK SMILES CC(C)[C@@H](CC(=O)NCCCCNC(=O)c1ccc(-c2c3nc(c(-c4c(F)cccc4F)c4ccc([nH]4)c(-c4c(F)cccc4F)c4nc(c(-c5c(F)cccc5F)c5ccc2[nH]5)C=C4)C=C3)cc1)NC(=O)OCc1ccccc1
REMARK SMILES IDX 9 1 8 2 6 3 7 4 5 6 4 7 2 8 1 9 3 10 70 11 71 12 72 14 73 15
REMARK SMILES IDX 74 16 75 17 76 18 80 19 77 20 79 21 78 22 10 23 11 24 12 25
REMARK SMILES IDX 13 26 14 27 15 29 16 30 17 31 69 32 18 33 68 34 19 35 20 36
REMARK SMILES IDX 21 37 62 38 22 39 67 40 61 41 63 42 23 43 66 44 60 45 59 46
REMARK SMILES IDX 24 48 50 49 33 50 49 51 34 52 37 53 48 54 64 55 35 56 36 57
REMARK SMILES IDX 47 59 65 60 38 61 25 62 26 63 31 64 27 65 28 66 30 67 32 68
REMARK SMILES IDX 29 69 51 70 52 71 57 72 53 73 54 74 56 75 58 76 55 77 39 78
REMARK SMILES IDX 40 79 45 80 41 81 42 82 44 83 46 84 43 85
REMARK H PARENT 8 5 70 13 13 28 63 47 37 58
REMARK Flexibility Score: inf
ROOT
ATOM      1  C   UNL A   1      36.871  23.036  25.464  1.00  0.00     0.116 C 
ENDROOT
BRANCH   1   2
ATOM      2  N   UNL A   1      35.801  22.695  26.374  1.00  0.00    -0.356 N 
ATOM      3  C   UNL A   1      34.624  23.331  26.622  1.00  0.00     0.222 C 
ATOM      4  O   UNL A   1      33.929  22.891  27.540  1.00  0.00    -0.275 OA
ATOM      5  H   UNL A   1      35.946  21.873  26.897  1.00  0.00     0.163 HD
BRANCH   3   6
ATOM      6  C   UNL A   1      34.158  24.514  25.789  1.00  0.00     0.125 C 
BRANCH   6   7
ATOM      7  C   UNL A   1      33.197  24.229  24.610  1.00  0.00     0.097 C 
BRANCH   7   8
ATOM      8  C   UNL A   1      32.722  22.759  24.480  1.00  0.00     0.006 C 
ATOM      9  C   UNL A   1      31.290  22.522  24.958  1.00  0.00     0.009 C 
ATOM     10  C   UNL A   1      32.904  22.128  23.094  1.00  0.00     0.009 C 
ENDBRANCH   7   8
BRANCH   7  11
ATOM     11  N   UNL A   1      33.767  24.680  23.344  1.00  0.00    -0.318 N 
ATOM     12  C   UNL A   1      33.152  25.487  22.434  1.00  0.00     0.407 C 
ATOM     13  H   UNL A   1      34.678  24.374  23.130  1.00  0.00     0.167 HD
ATOM     14  O   UNL A   1      33.579  25.608  21.297  1.00  0.00    -0.225 OA
BRANCH  12  15
ATOM     15  O   UNL A   1      32.088  26.138  22.959  1.00  0.00    -0.445 OA
BRANCH  15  16
ATOM     16  C   UNL A   1      32.289  27.528  23.233  1.00  0.00     0.270 C 
BRANCH  16  17
ATOM     17  C   UNL A   1      32.325  27.861  24.710  1.00  0.00    -0.011 A 
ATOM     18  C   UNL A   1      33.394  28.625  25.203  1.00  0.00     0.007 A 
ATOM     19  C   UNL A   1      31.381  27.372  25.626  1.00  0.00     0.007 A 
ATOM     20  C   UNL A   1      33.522  28.873  26.571  1.00  0.00     0.000 A 
ATOM     21  C   UNL A   1      31.516  27.608  26.994  1.00  0.00     0.000 A 
ATOM     22  C   UNL A   1      32.590  28.355  27.467  1.00  0.00     0.000 A 
ENDBRANCH  16  17
ENDBRANCH  15  16
ENDBRANCH  12  15
ENDBRANCH   7  11
ENDBRANCH   6   7
ENDBRANCH   3   6
ENDBRANCH   1   2
BRANCH   1  23
ATOM     23  C   UNL A   1      37.054  21.928  24.420  1.00  0.00     0.023 C 
BRANCH  23  24
ATOM     24  C   UNL A   1      37.657  20.636  24.937  1.00  0.00     0.023 C 
BRANCH  24  25
ATOM     25  C   UNL A   1      38.938  20.831  25.725  1.00  0.00     0.116 C 
BRANCH  25  26
ATOM     26  N   UNL A   1      39.834  19.680  25.692  1.00  0.00    -0.352 N 
ATOM     27  C   UNL A   1      41.164  19.636  26.043  1.00  0.00     0.251 C 
ATOM     28  H   UNL A   1      39.440  18.833  25.382  1.00  0.00     0.163 HD
ATOM     29  O   UNL A   1      41.828  18.621  25.873  1.00  0.00    -0.269 OA
BRANCH  27  30
ATOM     30  C   UNL A   1      41.782  20.862  26.580  1.00  0.00     0.039 A 
ATOM     31  C   UNL A   1      42.274  21.817  25.691  1.00  0.00     0.014 A 
ATOM     32  C   UNL A   1      41.753  21.115  27.955  1.00  0.00     0.014 A 
ATOM     33  C   UNL A   1      42.658  23.065  26.179  1.00  0.00     0.010 A 
ATOM     34  C   UNL A   1      42.020  22.393  28.419  1.00  0.00     0.010 A 
ATOM     35  C   UNL A   1      42.483  23.381  27.538  1.00  0.00    -0.014 A 
BRANCH  35  36
ATOM     36  C   UNL A   1      42.781  24.740  28.051  1.00  0.00     0.031 A 
ATOM     37  C   UNL A   1      44.198  25.124  28.381  1.00  0.00     0.074 A 
ATOM     38  C   UNL A   1      41.774  25.610  28.257  1.00  0.00     0.049 A 
ATOM     39  N   UNL A   1      44.657  26.256  28.851  1.00  0.00    -0.248 NA
ATOM     40  C   UNL A   1      45.233  24.094  28.188  1.00  0.00     0.031 C 
ATOM     41  C   UNL A   1      40.352  25.331  28.041  1.00  0.00     0.029 A 
ATOM     42  N   UNL A   1      41.790  26.911  28.694  1.00  0.00    -0.354 N 
ATOM     43  C   UNL A   1      46.025  26.071  29.007  1.00  0.00     0.074 A 
ATOM     44  C   UNL A   1      46.313  24.699  28.659  1.00  0.00     0.031 C 
ATOM     45  C   UNL A   1      39.638  26.438  28.304  1.00  0.00     0.029 A 
ATOM     46  C   UNL A   1      40.545  27.491  28.747  1.00  0.00     0.049 A 
ATOM     47  H   UNL A   1      42.616  27.385  28.946  1.00  0.00     0.167 HD
ATOM     48  C   UNL A   1      46.964  26.974  29.373  1.00  0.00     0.037 A 
ATOM     49  C   UNL A   1      40.177  28.734  29.114  1.00  0.00     0.037 A 
ATOM     50  C   UNL A   1      46.676  28.345  29.700  1.00  0.00     0.049 A 
ATOM     51  C   UNL A   1      41.244  29.713  29.529  1.00  0.00     0.074 A 
ATOM     52  C   UNL A   1      47.561  29.353  30.037  1.00  0.00     0.029 A 
ATOM     53  N   UNL A   1      45.406  28.898  29.735  1.00  0.00    -0.354 N 
ATOM     54  N   UNL A   1      42.543  29.547  29.592  1.00  0.00    -0.248 NA
ATOM     55  C   UNL A   1      40.791  31.057  29.911  1.00  0.00     0.031 C 
ATOM     56  C   UNL A   1      46.822  30.504  30.325  1.00  0.00     0.029 A 
ATOM     57  C   UNL A   1      45.480  30.228  30.110  1.00  0.00     0.049 A 
ATOM     58  H   UNL A   1      44.573  28.416  29.524  1.00  0.00     0.167 HD
ATOM     59  C   UNL A   1      43.064  30.770  29.995  1.00  0.00     0.074 A 
ATOM     60  C   UNL A   1      41.942  31.675  30.131  1.00  0.00     0.031 C 
ATOM     61  C   UNL A   1      44.352  31.115  30.236  1.00  0.00     0.037 A 
BRANCH  48  62
ATOM     62  C   UNL A   1      48.392  26.514  29.417  1.00  0.00     0.057 A 
ATOM     63  C   UNL A   1      49.256  26.680  28.326  1.00  0.00     0.134 A 
ATOM     64  C   UNL A   1      48.926  25.943  30.579  1.00  0.00     0.134 A 
ATOM     65  F   UNL A   1      48.805  27.205  27.176  1.00  0.00    -0.206 F 
ATOM     66  C   UNL A   1      50.591  26.281  28.382  1.00  0.00     0.040 A 
ATOM     67  C   UNL A   1      50.267  25.567  30.659  1.00  0.00     0.040 A 
ATOM     68  F   UNL A   1      48.155  25.754  31.662  1.00  0.00    -0.206 F 
ATOM     69  C   UNL A   1      51.103  25.732  29.556  1.00  0.00     0.006 A 
ENDBRANCH  48  62
BRANCH  49  70
ATOM     70  C   UNL A   1      38.747  29.135  29.100  1.00  0.00     0.057 A 
ATOM     71  C   UNL A   1      37.951  29.032  30.247  1.00  0.00     0.134 A 
ATOM     72  C   UNL A   1      38.128  29.593  27.930  1.00  0.00     0.134 A 
ATOM     73  F   UNL A   1      38.477  28.584  31.397  1.00  0.00    -0.206 F 
ATOM     74  C   UNL A   1      36.586  29.329  30.223  1.00  0.00     0.040 A 
ATOM     75  C   UNL A   1      36.773  29.926  27.899  1.00  0.00     0.040 A 
ATOM     76  F   UNL A   1      38.835  29.726  26.797  1.00  0.00    -0.206 F 
ATOM     77  C   UNL A   1      35.995  29.780  29.045  1.00  0.00     0.006 A 
ENDBRANCH  49  70
BRANCH  61  78
ATOM     78  C   UNL A   1      44.615  32.538  30.637  1.00  0.00     0.057 A 
ATOM     79  C   UNL A   1      44.659  32.934  31.980  1.00  0.00     0.134 A 
ATOM     80  C   UNL A   1      44.843  33.521  29.666  1.00  0.00     0.134 A 
ATOM     81  F   UNL A   1      44.440  32.044  32.960  1.00  0.00    -0.206 F 
ATOM     82  C   UNL A   1      44.882  34.264  32.341  1.00  0.00     0.040 A 
ATOM     83  C   UNL A   1      45.101  34.847  30.016  1.00  0.00     0.040 A 
ATOM     84  F   UNL A   1      44.827  33.209  28.361  1.00  0.00    -0.206 F 
ATOM     85  C   UNL A   1      45.109  35.223  31.357  1.00  0.00     0.006 A 
ENDBRANCH  61  78
ENDBRANCH  35  36
ENDBRANCH  27  30
ENDBRANCH  25  26
ENDBRANCH  24  25
ENDBRANCH  23  24
ENDBRANCH   1  23
TORSDOF 17
ENDMDL
