MODEL 1
REMARK VINA RESULT:     -12.5      0.000      0.000
REMARK SMILES NS(=O)(=O)c1ccc(N2N=C(C(=O)NCCCCNC(=O)c3ccc(-c4c5nc(c(-c6c(F)cccc6F)c6ccc([nH]6)c(-c6c(F)cccc6F)c6nc(c(-c7c(F)cccc7F)c7ccc4[nH]7)C=C6)C=C5)cc3)C[C@H]2c2ccco2)cc1
REMARK SMILES IDX 16 1 15 2 14 3 12 4 13 5 11 7 9 8 10 9 77 10 76 11 8 12 5 13
REMARK SMILES IDX 6 14 84 15 7 16 83 17 2 18 3 19 4 20 1 21 78 24 79 25 82 26
REMARK SMILES IDX 80 27 81 28 17 29 18 30 19 31 20 32 21 34 22 35 23 36 75 37
REMARK SMILES IDX 24 38 74 39 25 40 26 41 27 42 68 43 28 44 73 45 67 46 69 47
REMARK SMILES IDX 29 48 72 49 66 50 65 51 30 53 56 54 39 55 55 56 40 57 43 58
REMARK SMILES IDX 54 59 70 60 41 61 42 62 53 64 71 65 44 66 31 67 32 68 37 69
REMARK SMILES IDX 33 70 34 71 36 72 38 73 35 74 57 75 58 76 63 77 59 78 60 79
REMARK SMILES IDX 62 80 64 81 61 82 45 83 46 84 51 85 47 86 48 87 50 88 52 89
REMARK SMILES IDX 49 90
REMARK H PARENT 14 6 1 22 1 23 19 33 69 52 43 63
REMARK Flexibility Score: inf
ROOT
ATOM      1  C   UNL A   1      33.132  29.241  24.637  1.00  0.00     0.023 C 
ENDROOT
BRANCH   1   2
ATOM      2  C   UNL A   1      33.137  27.719  24.708  1.00  0.00     0.116 C 
BRANCH   2   3
ATOM      3  N   UNL A   1      33.236  27.126  23.389  1.00  0.00    -0.351 N 
ATOM      4  C   UNL A   1      33.662  25.911  22.914  1.00  0.00     0.267 C 
ATOM      5  O   UNL A   1      33.687  25.755  21.695  1.00  0.00    -0.268 OA
ATOM      6  H   UNL A   1      32.930  27.731  22.674  1.00  0.00     0.163 HD
BRANCH   4   7
ATOM      7  C   UNL A   1      34.055  24.745  23.808  1.00  0.00     0.128 C 
ATOM      8  N   UNL A   1      35.282  23.232  24.663  1.00  0.00    -0.254 N 
ATOM      9  N   UNL A   1      35.298  24.398  23.965  1.00  0.00    -0.171 NA
ATOM     10  C   UNL A   1      33.968  22.856  25.183  1.00  0.00     0.180 C 
ATOM     11  C   UNL A   1      33.064  23.894  24.523  1.00  0.00     0.099 C 
BRANCH   8  12
ATOM     12  C   UNL A   1      36.461  22.651  25.103  1.00  0.00     0.060 A 
ATOM     13  C   UNL A   1      38.920  21.577  25.908  1.00  0.00     0.082 A 
ATOM     14  C   UNL A   1      38.028  20.790  25.176  1.00  0.00     0.024 A 
ATOM     15  C   UNL A   1      38.578  22.875  26.287  1.00  0.00     0.024 A 
ATOM     16  C   UNL A   1      36.798  21.330  24.782  1.00  0.00     0.029 A 
ATOM     17  C   UNL A   1      37.352  23.398  25.885  1.00  0.00     0.029 A 
BRANCH  13  18
ATOM     18  S   UNL A   1      40.491  20.940  26.396  1.00  0.00     0.238 S 
ATOM     19  O   UNL A   1      40.585  20.929  27.838  1.00  0.00    -0.207 OA
ATOM     20  O   UNL A   1      41.515  21.503  25.551  1.00  0.00    -0.207 OA
BRANCH  18  21
ATOM     21  N   UNL A   1      40.356  19.325  25.944  1.00  0.00    -0.225 NA
ATOM     22  H   UNL A   1      40.834  19.179  25.056  1.00  0.00     0.137 HD
ATOM     23  H   UNL A   1      39.370  19.082  25.843  1.00  0.00     0.137 HD
ENDBRANCH  18  21
ENDBRANCH  13  18
ENDBRANCH   8  12
BRANCH  10  24
ATOM     24  C   UNL A   1      33.492  21.448  24.948  1.00  0.00     0.128 A 
ATOM     25  C   UNL A   1      32.961  20.810  23.843  1.00  0.00     0.048 A 
ATOM     26  O   UNL A   1      33.573  20.559  25.984  1.00  0.00    -0.467 OA
ATOM     27  C   UNL A   1      32.677  19.480  24.239  1.00  0.00     0.042 A 
ATOM     28  C   UNL A   1      33.084  19.374  25.546  1.00  0.00     0.195 A 
ENDBRANCH  10  24
ENDBRANCH   4   7
ENDBRANCH   2   3
ENDBRANCH   1   2
BRANCH   1  29
ATOM     29  C   UNL A   1      31.906  29.883  25.277  1.00  0.00     0.023 C 
BRANCH  29  30
ATOM     30  C   UNL A   1      32.110  30.358  26.712  1.00  0.00     0.116 C 
BRANCH  30  31
ATOM     31  N   UNL A   1      31.969  31.800  26.869  1.00  0.00    -0.352 N 
ATOM     32  C   UNL A   1      32.846  32.690  27.442  1.00  0.00     0.251 C 
ATOM     33  H   UNL A   1      31.134  32.189  26.518  1.00  0.00     0.163 HD
ATOM     34  O   UNL A   1      32.530  33.862  27.613  1.00  0.00    -0.269 OA
BRANCH  32  35
ATOM     35  C   UNL A   1      34.163  32.198  27.885  1.00  0.00     0.039 A 
ATOM     36  C   UNL A   1      35.212  33.106  28.032  1.00  0.00     0.014 A 
ATOM     37  C   UNL A   1      34.326  30.856  28.240  1.00  0.00     0.014 A 
ATOM     38  C   UNL A   1      36.403  32.686  28.625  1.00  0.00     0.010 A 
ATOM     39  C   UNL A   1      35.479  30.461  28.907  1.00  0.00     0.010 A 
ATOM     40  C   UNL A   1      36.524  31.375  29.114  1.00  0.00    -0.014 A 
BRANCH  40  41
ATOM     41  C   UNL A   1      37.726  30.940  29.868  1.00  0.00     0.031 A 
ATOM     42  C   UNL A   1      38.706  29.992  29.238  1.00  0.00     0.074 A 
ATOM     43  C   UNL A   1      37.892  31.336  31.146  1.00  0.00     0.049 A 
ATOM     44  N   UNL A   1      39.762  29.425  29.763  1.00  0.00    -0.248 NA
ATOM     45  C   UNL A   1      38.448  29.606  27.842  1.00  0.00     0.031 C 
ATOM     46  C   UNL A   1      36.988  32.220  31.884  1.00  0.00     0.029 A 
ATOM     47  N   UNL A   1      38.874  31.032  32.056  1.00  0.00    -0.354 N 
ATOM     48  C   UNL A   1      40.287  28.612  28.767  1.00  0.00     0.074 A 
ATOM     49  C   UNL A   1      39.400  28.710  27.629  1.00  0.00     0.031 C 
ATOM     50  C   UNL A   1      37.471  32.408  33.123  1.00  0.00     0.029 A 
ATOM     51  C   UNL A   1      38.688  31.619  33.285  1.00  0.00     0.049 A 
ATOM     52  H   UNL A   1      39.641  30.451  31.847  1.00  0.00     0.167 HD
ATOM     53  C   UNL A   1      41.419  27.870  28.791  1.00  0.00     0.037 A 
ATOM     54  C   UNL A   1      39.407  31.521  34.419  1.00  0.00     0.037 A 
ATOM     55  C   UNL A   1      42.305  27.785  29.923  1.00  0.00     0.049 A 
ATOM     56  C   UNL A   1      40.639  30.657  34.432  1.00  0.00     0.074 A 
ATOM     57  C   UNL A   1      43.503  27.102  30.027  1.00  0.00     0.029 A 
ATOM     58  N   UNL A   1      42.081  28.393  31.149  1.00  0.00    -0.354 N 
ATOM     59  N   UNL A   1      41.164  29.950  33.459  1.00  0.00    -0.248 NA
ATOM     60  C   UNL A   1      41.379  30.576  35.699  1.00  0.00     0.031 C 
ATOM     61  C   UNL A   1      43.976  27.251  31.335  1.00  0.00     0.029 A 
ATOM     62  C   UNL A   1      43.105  28.075  32.026  1.00  0.00     0.049 A 
ATOM     63  H   UNL A   1      41.310  28.967  31.364  1.00  0.00     0.167 HD
ATOM     64  C   UNL A   1      42.309  29.366  33.988  1.00  0.00     0.074 A 
ATOM     65  C   UNL A   1      42.410  29.813  35.362  1.00  0.00     0.031 C 
ATOM     66  C   UNL A   1      43.196  28.535  33.390  1.00  0.00     0.037 A 
BRANCH  53  67
ATOM     67  C   UNL A   1      41.761  27.088  27.555  1.00  0.00     0.057 A 
ATOM     68  C   UNL A   1      41.344  25.761  27.380  1.00  0.00     0.134 A 
ATOM     69  C   UNL A   1      42.489  27.677  26.514  1.00  0.00     0.134 A 
ATOM     70  F   UNL A   1      40.654  25.131  28.343  1.00  0.00    -0.206 F 
ATOM     71  C   UNL A   1      41.663  25.040  26.227  1.00  0.00     0.040 A 
ATOM     72  C   UNL A   1      42.787  26.977  25.344  1.00  0.00     0.040 A 
ATOM     73  F   UNL A   1      42.915  28.945  26.612  1.00  0.00    -0.206 F 
ATOM     74  C   UNL A   1      42.381  25.652  25.202  1.00  0.00     0.006 A 
ENDBRANCH  53  67
BRANCH  54  75
ATOM     75  C   UNL A   1      38.991  32.264  35.636  1.00  0.00     0.057 A 
ATOM     76  C   UNL A   1      38.213  31.650  36.625  1.00  0.00     0.134 A 
ATOM     77  C   UNL A   1      39.342  33.604  35.833  1.00  0.00     0.134 A 
ATOM     78  F   UNL A   1      37.829  30.373  36.486  1.00  0.00    -0.206 F 
ATOM     79  C   UNL A   1      37.782  32.348  37.755  1.00  0.00     0.040 A 
ATOM     80  C   UNL A   1      38.942  34.306  36.972  1.00  0.00     0.040 A 
ATOM     81  F   UNL A   1      40.092  34.250  34.927  1.00  0.00    -0.206 F 
ATOM     82  C   UNL A   1      38.151  33.680  37.932  1.00  0.00     0.006 A 
ENDBRANCH  54  75
BRANCH  66  83
ATOM     83  C   UNL A   1      44.375  28.080  34.201  1.00  0.00     0.057 A 
ATOM     84  C   UNL A   1      44.358  26.884  34.928  1.00  0.00     0.134 A 
ATOM     85  C   UNL A   1      45.562  28.825  34.209  1.00  0.00     0.134 A 
ATOM     86  F   UNL A   1      43.249  26.131  34.973  1.00  0.00    -0.206 F 
ATOM     87  C   UNL A   1      45.474  26.453  35.650  1.00  0.00     0.040 A 
ATOM     88  C   UNL A   1      46.693  28.391  34.901  1.00  0.00     0.040 A 
ATOM     89  F   UNL A   1      45.649  29.976  33.527  1.00  0.00    -0.206 F 
ATOM     90  C   UNL A   1      46.648  27.203  35.629  1.00  0.00     0.006 A 
ENDBRANCH  66  83
ENDBRANCH  40  41
ENDBRANCH  32  35
ENDBRANCH  30  31
ENDBRANCH  29  30
ENDBRANCH   1  29
TORSDOF 15
ENDMDL
MODEL 2
REMARK VINA RESULT:     -12.5      3.758      7.342
REMARK SMILES NS(=O)(=O)c1ccc(N2N=C(C(=O)NCCCCNC(=O)c3ccc(-c4c5nc(c(-c6c(F)cccc6F)c6ccc([nH]6)c(-c6c(F)cccc6F)c6nc(c(-c7c(F)cccc7F)c7ccc4[nH]7)C=C6)C=C5)cc3)C[C@H]2c2ccco2)cc1
REMARK SMILES IDX 16 1 15 2 14 3 12 4 13 5 11 7 9 8 10 9 77 10 76 11 8 12 5 13
REMARK SMILES IDX 6 14 84 15 7 16 83 17 2 18 3 19 4 20 1 21 78 24 79 25 82 26
REMARK SMILES IDX 80 27 81 28 17 29 18 30 19 31 20 32 21 34 22 35 23 36 75 37
REMARK SMILES IDX 24 38 74 39 25 40 26 41 27 42 68 43 28 44 73 45 67 46 69 47
REMARK SMILES IDX 29 48 72 49 66 50 65 51 30 53 56 54 39 55 55 56 40 57 43 58
REMARK SMILES IDX 54 59 70 60 41 61 42 62 53 64 71 65 44 66 31 67 32 68 37 69
REMARK SMILES IDX 33 70 34 71 36 72 38 73 35 74 57 75 58 76 63 77 59 78 60 79
REMARK SMILES IDX 62 80 64 81 61 82 45 83 46 84 51 85 47 86 48 87 50 88 52 89
REMARK SMILES IDX 49 90
REMARK H PARENT 14 6 1 22 1 23 19 33 69 52 43 63
REMARK Flexibility Score: inf
ROOT
ATOM      1  C   UNL A   1      31.494  28.478  25.663  1.00  0.00     0.023 C 
ENDROOT
BRANCH   1   2
ATOM      2  C   UNL A   1      30.936  27.265  24.930  1.00  0.00     0.116 C 
BRANCH   2   3
ATOM      3  N   UNL A   1      30.282  26.347  25.842  1.00  0.00    -0.351 N 
ATOM      4  C   UNL A   1      30.352  24.992  26.051  1.00  0.00     0.267 C 
ATOM      5  O   UNL A   1      29.585  24.505  26.879  1.00  0.00    -0.268 OA
ATOM      6  H   UNL A   1      29.646  26.796  26.446  1.00  0.00     0.163 HD
BRANCH   4   7
ATOM      7  C   UNL A   1      31.352  24.080  25.356  1.00  0.00     0.128 C 
ATOM      8  N   UNL A   1      32.423  22.299  24.902  1.00  0.00    -0.254 N 
ATOM      9  N   UNL A   1      31.301  22.788  25.492  1.00  0.00    -0.171 NA
ATOM     10  C   UNL A   1      33.191  23.291  24.149  1.00  0.00     0.180 C 
ATOM     11  C   UNL A   1      32.474  24.586  24.519  1.00  0.00     0.099 C 
BRANCH   8  12
ATOM     12  C   UNL A   1      32.618  20.934  24.767  1.00  0.00     0.060 A 
ATOM     13  C   UNL A   1      33.160  18.197  24.516  1.00  0.00     0.082 A 
ATOM     14  C   UNL A   1      32.625  18.898  23.433  1.00  0.00     0.024 A 
ATOM     15  C   UNL A   1      33.379  18.834  25.738  1.00  0.00     0.024 A 
ATOM     16  C   UNL A   1      32.350  20.263  23.567  1.00  0.00     0.029 A 
ATOM     17  C   UNL A   1      33.103  20.193  25.854  1.00  0.00     0.029 A 
BRANCH  13  18
ATOM     18  S   UNL A   1      33.547  16.481  24.376  1.00  0.00     0.238 S 
ATOM     19  O   UNL A   1      34.028  16.198  23.043  1.00  0.00    -0.207 OA
ATOM     20  O   UNL A   1      32.509  15.707  25.012  1.00  0.00    -0.207 OA
BRANCH  18  21
ATOM     21  N   UNL A   1      34.895  16.356  25.374  1.00  0.00    -0.225 NA
ATOM     22  H   UNL A   1      35.737  16.563  24.837  1.00  0.00     0.137 HD
ATOM     23  H   UNL A   1      34.955  15.409  25.748  1.00  0.00     0.137 HD
ENDBRANCH  18  21
ENDBRANCH  13  18
ENDBRANCH   8  12
BRANCH  10  24
ATOM     24  C   UNL A   1      34.674  23.366  24.390  1.00  0.00     0.128 A 
ATOM     25  C   UNL A   1      35.430  23.868  25.433  1.00  0.00     0.048 A 
ATOM     26  O   UNL A   1      35.510  22.852  23.437  1.00  0.00    -0.467 OA
ATOM     27  C   UNL A   1      36.789  23.679  25.078  1.00  0.00     0.042 A 
ATOM     28  C   UNL A   1      36.782  23.041  23.862  1.00  0.00     0.195 A 
ENDBRANCH  10  24
ENDBRANCH   4   7
ENDBRANCH   2   3
ENDBRANCH   1   2
BRANCH   1  29
ATOM     29  C   UNL A   1      32.092  28.151  27.028  1.00  0.00     0.023 C 
BRANCH  29  30
ATOM     30  C   UNL A   1      33.515  28.659  27.240  1.00  0.00     0.116 C 
BRANCH  30  31
ATOM     31  N   UNL A   1      33.574  30.056  27.651  1.00  0.00    -0.352 N 
ATOM     32  C   UNL A   1      34.629  30.742  28.205  1.00  0.00     0.251 C 
ATOM     33  H   UNL A   1      32.750  30.577  27.514  1.00  0.00     0.163 HD
ATOM     34  O   UNL A   1      34.486  31.888  28.615  1.00  0.00    -0.269 OA
BRANCH  32  35
ATOM     35  C   UNL A   1      35.928  30.057  28.332  1.00  0.00     0.039 A 
ATOM     36  C   UNL A   1      36.812  30.075  27.253  1.00  0.00     0.014 A 
ATOM     37  C   UNL A   1      36.300  29.481  29.550  1.00  0.00     0.014 A 
ATOM     38  C   UNL A   1      38.110  29.594  27.424  1.00  0.00     0.010 A 
ATOM     39  C   UNL A   1      37.617  29.082  29.743  1.00  0.00     0.010 A 
ATOM     40  C   UNL A   1      38.537  29.145  28.684  1.00  0.00    -0.014 A 
BRANCH  40  41
ATOM     41  C   UNL A   1      39.948  28.755  28.928  1.00  0.00     0.031 A 
ATOM     42  C   UNL A   1      40.910  29.746  29.519  1.00  0.00     0.074 A 
ATOM     43  C   UNL A   1      40.380  27.537  28.543  1.00  0.00     0.049 A 
ATOM     44  N   UNL A   1      42.197  29.628  29.722  1.00  0.00    -0.248 NA
ATOM     45  C   UNL A   1      40.357  31.053  29.908  1.00  0.00     0.031 C 
ATOM     46  C   UNL A   1      39.554  26.503  27.918  1.00  0.00     0.029 A 
ATOM     47  N   UNL A   1      41.628  26.970  28.609  1.00  0.00    -0.354 N 
ATOM     48  C   UNL A   1      42.607  30.845  30.251  1.00  0.00     0.074 A 
ATOM     49  C   UNL A   1      41.447  31.707  30.280  1.00  0.00     0.031 C 
ATOM     50  C   UNL A   1      40.311  25.419  27.681  1.00  0.00     0.029 A 
ATOM     51  C   UNL A   1      41.684  25.698  28.089  1.00  0.00     0.049 A 
ATOM     52  H   UNL A   1      42.410  27.429  28.993  1.00  0.00     0.167 HD
ATOM     53  C   UNL A   1      43.836  31.202  30.694  1.00  0.00     0.037 A 
ATOM     54  C   UNL A   1      42.726  24.858  27.944  1.00  0.00     0.037 A 
ATOM     55  C   UNL A   1      44.985  30.336  30.674  1.00  0.00     0.049 A 
ATOM     56  C   UNL A   1      44.089  25.295  28.408  1.00  0.00     0.074 A 
ATOM     57  C   UNL A   1      46.260  30.588  31.148  1.00  0.00     0.029 A 
ATOM     58  N   UNL A   1      45.001  29.056  30.140  1.00  0.00    -0.354 N 
ATOM     59  N   UNL A   1      44.448  26.423  28.973  1.00  0.00    -0.248 NA
ATOM     60  C   UNL A   1      45.192  24.343  28.214  1.00  0.00     0.031 C 
ATOM     61  C   UNL A   1      47.062  29.481  30.851  1.00  0.00     0.029 A 
ATOM     62  C   UNL A   1      46.272  28.517  30.246  1.00  0.00     0.049 A 
ATOM     63  H   UNL A   1      44.224  28.598  29.745  1.00  0.00     0.167 HD
ATOM     64  C   UNL A   1      45.810  26.304  29.229  1.00  0.00     0.074 A 
ATOM     65  C   UNL A   1      46.207  24.989  28.769  1.00  0.00     0.031 C 
ATOM     66  C   UNL A   1      46.653  27.203  29.792  1.00  0.00     0.037 A 
BRANCH  53  67
ATOM     67  C   UNL A   1      43.998  32.593  31.237  1.00  0.00     0.057 A 
ATOM     68  C   UNL A   1      43.829  32.880  32.599  1.00  0.00     0.134 A 
ATOM     69  C   UNL A   1      44.359  33.653  30.395  1.00  0.00     0.134 A 
ATOM     70  F   UNL A   1      43.472  31.915  33.459  1.00  0.00    -0.206 F 
ATOM     71  C   UNL A   1      43.985  34.175  33.098  1.00  0.00     0.040 A 
ATOM     72  C   UNL A   1      44.547  34.946  30.887  1.00  0.00     0.040 A 
ATOM     73  F   UNL A   1      44.542  33.449  29.083  1.00  0.00    -0.206 F 
ATOM     74  C   UNL A   1      44.352  35.210  32.241  1.00  0.00     0.006 A 
ENDBRANCH  53  67
BRANCH  54  75
ATOM     75  C   UNL A   1      42.525  23.515  27.341  1.00  0.00     0.057 A 
ATOM     76  C   UNL A   1      42.654  23.317  25.961  1.00  0.00     0.134 A 
ATOM     77  C   UNL A   1      42.185  22.404  28.121  1.00  0.00     0.134 A 
ATOM     78  F   UNL A   1      42.961  24.346  25.157  1.00  0.00    -0.206 F 
ATOM     79  C   UNL A   1      42.431  22.070  25.376  1.00  0.00     0.040 A 
ATOM     80  C   UNL A   1      41.986  21.144  27.554  1.00  0.00     0.040 A 
ATOM     81  F   UNL A   1      42.053  22.523  29.451  1.00  0.00    -0.206 F 
ATOM     82  C   UNL A   1      42.099  20.977  26.175  1.00  0.00     0.006 A 
ENDBRANCH  54  75
BRANCH  66  83
ATOM     83  C   UNL A   1      48.083  26.787  29.979  1.00  0.00     0.057 A 
ATOM     84  C   UNL A   1      48.495  26.018  31.074  1.00  0.00     0.134 A 
ATOM     85  C   UNL A   1      49.050  27.115  29.019  1.00  0.00     0.134 A 
ATOM     86  F   UNL A   1      47.623  25.681  32.035  1.00  0.00    -0.206 F 
ATOM     87  C   UNL A   1      49.822  25.606  31.218  1.00  0.00     0.040 A 
ATOM     88  C   UNL A   1      50.372  26.684  29.135  1.00  0.00     0.040 A 
ATOM     89  F   UNL A   1      48.721  27.842  27.941  1.00  0.00    -0.206 F 
ATOM     90  C   UNL A   1      50.762  25.931  30.241  1.00  0.00     0.006 A 
ENDBRANCH  66  83
ENDBRANCH  40  41
ENDBRANCH  32  35
ENDBRANCH  30  31
ENDBRANCH  29  30
ENDBRANCH   1  29
TORSDOF 15
ENDMDL
MODEL 3
REMARK VINA RESULT:     -12.4      3.491      8.056
REMARK SMILES NS(=O)(=O)c1ccc(N2N=C(C(=O)NCCCCNC(=O)c3ccc(-c4c5nc(c(-c6c(F)cccc6F)c6ccc([nH]6)c(-c6c(F)cccc6F)c6nc(c(-c7c(F)cccc7F)c7ccc4[nH]7)C=C6)C=C5)cc3)C[C@H]2c2ccco2)cc1
REMARK SMILES IDX 16 1 15 2 14 3 12 4 13 5 11 7 9 8 10 9 77 10 76 11 8 12 5 13
REMARK SMILES IDX 6 14 84 15 7 16 83 17 2 18 3 19 4 20 1 21 78 24 79 25 82 26
REMARK SMILES IDX 80 27 81 28 17 29 18 30 19 31 20 32 21 34 22 35 23 36 75 37
REMARK SMILES IDX 24 38 74 39 25 40 26 41 27 42 68 43 28 44 73 45 67 46 69 47
REMARK SMILES IDX 29 48 72 49 66 50 65 51 30 53 56 54 39 55 55 56 40 57 43 58
REMARK SMILES IDX 54 59 70 60 41 61 42 62 53 64 71 65 44 66 31 67 32 68 37 69
REMARK SMILES IDX 33 70 34 71 36 72 38 73 35 74 57 75 58 76 63 77 59 78 60 79
REMARK SMILES IDX 62 80 64 81 61 82 45 83 46 84 51 85 47 86 48 87 50 88 52 89
REMARK SMILES IDX 49 90
REMARK H PARENT 14 6 1 22 1 23 19 33 69 52 43 63
REMARK Flexibility Score: inf
ROOT
ATOM      1  C   UNL A   1      34.993  22.437  24.874  1.00  0.00     0.023 C 
ENDROOT
BRANCH   1   2
ATOM      2  C   UNL A   1      33.827  22.553  23.900  1.00  0.00     0.116 C 
BRANCH   2   3
ATOM      3  N   UNL A   1      32.618  21.969  24.447  1.00  0.00    -0.351 N 
ATOM      4  C   UNL A   1      31.524  22.473  25.106  1.00  0.00     0.267 C 
ATOM      5  O   UNL A   1      30.687  21.670  25.513  1.00  0.00    -0.268 OA
ATOM      6  H   UNL A   1      32.572  20.994  24.317  1.00  0.00     0.163 HD
BRANCH   4   7
ATOM      7  C   UNL A   1      31.274  23.959  25.316  1.00  0.00     0.128 C 
ATOM      8  N   UNL A   1      30.798  25.974  24.828  1.00  0.00    -0.254 N 
ATOM      9  N   UNL A   1      30.703  24.687  24.403  1.00  0.00    -0.171 NA
ATOM     10  C   UNL A   1      31.288  26.123  26.199  1.00  0.00     0.180 C 
ATOM     11  C   UNL A   1      31.697  24.693  26.540  1.00  0.00     0.099 C 
BRANCH   8  12
ATOM     12  C   UNL A   1      30.177  26.999  24.134  1.00  0.00     0.060 A 
ATOM     13  C   UNL A   1      28.957  29.166  22.842  1.00  0.00     0.082 A 
ATOM     14  C   UNL A   1      28.183  28.073  23.241  1.00  0.00     0.024 A 
ATOM     15  C   UNL A   1      30.338  29.167  23.034  1.00  0.00     0.024 A 
ATOM     16  C   UNL A   1      28.799  26.991  23.879  1.00  0.00     0.029 A 
ATOM     17  C   UNL A   1      30.936  28.083  23.674  1.00  0.00     0.029 A 
BRANCH  13  18
ATOM     18  S   UNL A   1      28.211  30.561  22.061  1.00  0.00     0.238 S 
ATOM     19  O   UNL A   1      27.185  31.108  22.920  1.00  0.00    -0.207 OA
ATOM     20  O   UNL A   1      27.985  30.260  20.668  1.00  0.00    -0.207 OA
BRANCH  18  21
ATOM     21  N   UNL A   1      29.467  31.679  22.095  1.00  0.00    -0.225 NA
ATOM     22  H   UNL A   1      29.655  31.950  23.060  1.00  0.00     0.137 HD
ATOM     23  H   UNL A   1      29.203  32.503  21.556  1.00  0.00     0.137 HD
ENDBRANCH  18  21
ENDBRANCH  13  18
ENDBRANCH   8  12
BRANCH  10  24
ATOM     24  C   UNL A   1      32.393  27.112  26.449  1.00  0.00     0.128 A 
ATOM     25  C   UNL A   1      33.698  27.195  25.999  1.00  0.00     0.048 A 
ATOM     26  O   UNL A   1      32.134  28.175  27.270  1.00  0.00    -0.467 OA
ATOM     27  C   UNL A   1      34.265  28.343  26.603  1.00  0.00     0.042 A 
ATOM     28  C   UNL A   1      33.267  28.914  27.354  1.00  0.00     0.195 A 
ENDBRANCH  10  24
ENDBRANCH   4   7
ENDBRANCH   2   3
ENDBRANCH   1   2
BRANCH   1  29
ATOM     29  C   UNL A   1      36.351  22.733  24.247  1.00  0.00     0.023 C 
BRANCH  29  30
ATOM     30  C   UNL A   1      37.342  23.433  25.171  1.00  0.00     0.116 C 
BRANCH  30  31
ATOM     31  N   UNL A   1      38.535  22.642  25.445  1.00  0.00    -0.352 N 
ATOM     32  C   UNL A   1      39.668  23.009  26.131  1.00  0.00     0.251 C 
ATOM     33  H   UNL A   1      38.528  21.722  25.093  1.00  0.00     0.163 HD
ATOM     34  O   UNL A   1      40.645  22.270  26.171  1.00  0.00    -0.269 OA
BRANCH  32  35
ATOM     35  C   UNL A   1      39.702  24.331  26.784  1.00  0.00     0.039 A 
ATOM     36  C   UNL A   1      39.133  24.475  28.050  1.00  0.00     0.014 A 
ATOM     37  C   UNL A   1      40.375  25.395  26.179  1.00  0.00     0.014 A 
ATOM     38  C   UNL A   1      39.321  25.665  28.752  1.00  0.00     0.010 A 
ATOM     39  C   UNL A   1      40.634  26.545  26.913  1.00  0.00     0.010 A 
ATOM     40  C   UNL A   1      40.118  26.687  28.210  1.00  0.00    -0.014 A 
BRANCH  40  41
ATOM     41  C   UNL A   1      40.445  27.907  28.990  1.00  0.00     0.031 A 
ATOM     42  C   UNL A   1      41.755  28.003  29.720  1.00  0.00     0.074 A 
ATOM     43  C   UNL A   1      39.531  28.891  29.106  1.00  0.00     0.049 A 
ATOM     44  N   UNL A   1      42.185  28.939  30.526  1.00  0.00    -0.248 NA
ATOM     45  C   UNL A   1      42.694  26.884  29.544  1.00  0.00     0.031 C 
ATOM     46  C   UNL A   1      38.207  28.895  28.482  1.00  0.00     0.029 A 
ATOM     47  N   UNL A   1      39.573  30.072  29.803  1.00  0.00    -0.354 N 
ATOM     48  C   UNL A   1      43.436  28.519  30.958  1.00  0.00     0.074 A 
ATOM     49  C   UNL A   1      43.669  27.216  30.376  1.00  0.00     0.031 C 
ATOM     50  C   UNL A   1      37.573  30.035  28.803  1.00  0.00     0.029 A 
ATOM     51  C   UNL A   1      38.423  30.817  29.695  1.00  0.00     0.049 A 
ATOM     52  H   UNL A   1      40.353  30.360  30.330  1.00  0.00     0.167 HD
ATOM     53  C   UNL A   1      44.320  29.171  31.749  1.00  0.00     0.037 A 
ATOM     54  C   UNL A   1      38.085  31.991  30.262  1.00  0.00     0.037 A 
ATOM     55  C   UNL A   1      44.088  30.473  32.317  1.00  0.00     0.049 A 
ATOM     56  C   UNL A   1      39.069  32.676  31.171  1.00  0.00     0.074 A 
ATOM     57  C   UNL A   1      44.943  31.240  33.089  1.00  0.00     0.029 A 
ATOM     58  N   UNL A   1      42.911  31.195  32.185  1.00  0.00    -0.354 N 
ATOM     59  N   UNL A   1      40.279  32.300  31.513  1.00  0.00    -0.248 NA
ATOM     60  C   UNL A   1      38.643  33.947  31.772  1.00  0.00     0.031 C 
ATOM     61  C   UNL A   1      44.262  32.400  33.470  1.00  0.00     0.029 A 
ATOM     62  C   UNL A   1      43.007  32.385  32.886  1.00  0.00     0.049 A 
ATOM     63  H   UNL A   1      42.125  30.904  31.667  1.00  0.00     0.167 HD
ATOM     64  C   UNL A   1      40.768  33.302  32.343  1.00  0.00     0.074 A 
ATOM     65  C   UNL A   1      39.730  34.307  32.442  1.00  0.00     0.031 C 
ATOM     66  C   UNL A   1      41.968  33.381  32.969  1.00  0.00     0.037 A 
BRANCH  53  67
ATOM     67  C   UNL A   1      45.621  28.482  32.049  1.00  0.00     0.057 A 
ATOM     68  C   UNL A   1      45.773  27.639  33.159  1.00  0.00     0.134 A 
ATOM     69  C   UNL A   1      46.725  28.637  31.202  1.00  0.00     0.134 A 
ATOM     70  F   UNL A   1      44.759  27.455  34.019  1.00  0.00    -0.206 F 
ATOM     71  C   UNL A   1      46.984  26.999  33.431  1.00  0.00     0.040 A 
ATOM     72  C   UNL A   1      47.931  27.978  31.446  1.00  0.00     0.040 A 
ATOM     73  F   UNL A   1      46.648  29.424  30.119  1.00  0.00    -0.206 F 
ATOM     74  C   UNL A   1      48.065  27.163  32.567  1.00  0.00     0.006 A 
ENDBRANCH  53  67
BRANCH  54  75
ATOM     75  C   UNL A   1      36.759  32.601  29.985  1.00  0.00     0.057 A 
ATOM     76  C   UNL A   1      36.572  33.456  28.892  1.00  0.00     0.134 A 
ATOM     77  C   UNL A   1      35.654  32.360  30.810  1.00  0.00     0.134 A 
ATOM     78  F   UNL A   1      37.596  33.740  28.075  1.00  0.00    -0.206 F 
ATOM     79  C   UNL A   1      35.341  34.066  28.642  1.00  0.00     0.040 A 
ATOM     80  C   UNL A   1      34.410  32.941  30.556  1.00  0.00     0.040 A 
ATOM     81  F   UNL A   1      35.763  31.545  31.870  1.00  0.00    -0.206 F 
ATOM     82  C   UNL A   1      34.255  33.806  29.474  1.00  0.00     0.006 A 
ENDBRANCH  54  75
BRANCH  66  83
ATOM     83  C   UNL A   1      42.242  34.610  33.786  1.00  0.00     0.057 A 
ATOM     84  C   UNL A   1      42.774  35.774  33.219  1.00  0.00     0.134 A 
ATOM     85  C   UNL A   1      41.918  34.644  35.149  1.00  0.00     0.134 A 
ATOM     86  F   UNL A   1      43.118  35.804  31.924  1.00  0.00    -0.206 F 
ATOM     87  C   UNL A   1      42.990  36.924  33.983  1.00  0.00     0.040 A 
ATOM     88  C   UNL A   1      42.101  35.795  35.916  1.00  0.00     0.040 A 
ATOM     89  F   UNL A   1      41.397  33.565  35.753  1.00  0.00    -0.206 F 
ATOM     90  C   UNL A   1      42.644  36.939  35.333  1.00  0.00     0.006 A 
ENDBRANCH  66  83
ENDBRANCH  40  41
ENDBRANCH  32  35
ENDBRANCH  30  31
ENDBRANCH  29  30
ENDBRANCH   1  29
TORSDOF 15
ENDMDL
