MODEL 1
REMARK VINA RESULT:     -11.5      0.000      0.000
REMARK SMILES CC(C)[C@@](C)(CC(=O)N[C@H]1CCCC1(C)C)C(=O)NCCCCNC(=O)c1ccc(-c2c3nc(c(-c4c(F)cccc4F)c4ccc([nH]4)c(-c4c(F)cccc4F)c4nc(c(-c5c(F)cccc5F)c5ccc2[nH]5)C=C4)C=C3)cc1
REMARK SMILES IDX 21 1 20 2 19 3 17 4 18 5 4 7 5 8 2 9 1 10 3 11 6 12 7 13
REMARK SMILES IDX 8 14 9 15 10 17 11 18 14 19 12 20 13 21 15 22 16 23 22 24
REMARK SMILES IDX 23 25 24 26 25 27 26 29 27 30 28 31 80 32 29 33 79 34 30 35
REMARK SMILES IDX 31 36 32 37 73 38 33 39 78 40 72 41 74 42 34 43 77 44 71 45
REMARK SMILES IDX 70 46 35 48 61 49 44 50 60 51 45 52 48 53 59 54 75 55 46 56
REMARK SMILES IDX 47 57 58 59 76 60 49 61 36 62 37 63 42 64 38 65 39 66 41 67
REMARK SMILES IDX 43 68 40 69 62 70 63 71 68 72 64 73 65 74 67 75 69 76 66 77
REMARK SMILES IDX 50 78 51 79 56 80 52 81 53 82 55 83 57 84 54 85
REMARK H PARENT 19 6 9 16 24 28 74 47 48 58
REMARK Flexibility Score: inf
ROOT
ATOM      1  C   UNL A   1      37.063  20.740  24.607  1.00  0.00     0.023 C 
ENDROOT
BRANCH   1   2
ATOM      2  C   UNL A   1      36.236  21.322  25.751  1.00  0.00     0.116 C 
BRANCH   2   3
ATOM      3  N   UNL A   1      34.931  20.703  25.837  1.00  0.00    -0.356 N 
ATOM      4  C   UNL A   1      33.662  21.104  25.608  1.00  0.00     0.226 C 
ATOM      5  O   UNL A   1      32.833  20.193  25.716  1.00  0.00    -0.274 OA
ATOM      6  H   UNL A   1      34.980  19.764  26.131  1.00  0.00     0.163 HD
BRANCH   4   7
ATOM      7  C   UNL A   1      33.255  22.524  25.150  1.00  0.00     0.057 C 
ATOM      8  C   UNL A   1      33.878  23.536  26.151  1.00  0.00     0.022 C 
BRANCH   7   9
ATOM      9  C   UNL A   1      33.860  22.833  23.709  1.00  0.00    -0.002 C 
ATOM     10  C   UNL A   1      32.828  22.945  22.571  1.00  0.00     0.008 C 
ATOM     11  C   UNL A   1      34.778  24.065  23.616  1.00  0.00     0.008 C 
ENDBRANCH   7   9
BRANCH   7  12
ATOM     12  C   UNL A   1      31.720  22.787  25.187  1.00  0.00     0.116 C 
BRANCH  12  13
ATOM     13  C   UNL A   1      31.164  23.845  26.120  1.00  0.00     0.221 C 
ATOM     14  O   UNL A   1      30.777  23.556  27.251  1.00  0.00    -0.275 OA
ATOM     15  N   UNL A   1      31.178  25.160  25.734  1.00  0.00    -0.353 N 
ATOM     16  H   UNL A   1      31.082  25.820  26.457  1.00  0.00     0.163 HD
BRANCH  15  17
ATOM     17  C   UNL A   1      31.318  25.707  24.388  1.00  0.00     0.087 C 
ATOM     18  C   UNL A   1      29.936  26.094  23.835  1.00  0.00     0.025 C 
ATOM     19  C   UNL A   1      32.178  26.982  24.262  1.00  0.00    -0.015 C 
ATOM     20  C   UNL A   1      29.882  27.617  23.790  1.00  0.00     0.003 C 
ATOM     21  C   UNL A   1      31.154  28.107  24.468  1.00  0.00     0.008 C 
ATOM     22  C   UNL A   1      33.325  27.078  25.271  1.00  0.00     0.013 C 
ATOM     23  C   UNL A   1      32.777  27.038  22.838  1.00  0.00     0.013 C 
ENDBRANCH  15  17
ENDBRANCH  12  13
ENDBRANCH   7  12
ENDBRANCH   4   7
ENDBRANCH   2   3
ENDBRANCH   1   2
BRANCH   1  24
ATOM     24  C   UNL A   1      38.016  19.608  25.001  1.00  0.00     0.023 C 
BRANCH  24  25
ATOM     25  C   UNL A   1      39.266  20.030  25.764  1.00  0.00     0.116 C 
BRANCH  25  26
ATOM     26  N   UNL A   1      40.294  19.001  25.794  1.00  0.00    -0.352 N 
ATOM     27  C   UNL A   1      41.638  19.127  26.037  1.00  0.00     0.251 C 
ATOM     28  H   UNL A   1      39.980  18.085  25.613  1.00  0.00     0.163 HD
ATOM     29  O   UNL A   1      42.383  18.157  25.922  1.00  0.00    -0.269 OA
BRANCH  27  30
ATOM     30  C   UNL A   1      42.195  20.447  26.398  1.00  0.00     0.039 A 
ATOM     31  C   UNL A   1      42.645  21.285  25.376  1.00  0.00     0.014 A 
ATOM     32  C   UNL A   1      42.246  20.867  27.731  1.00  0.00     0.014 A 
ATOM     33  C   UNL A   1      43.079  22.575  25.682  1.00  0.00     0.010 A 
ATOM     34  C   UNL A   1      42.614  22.176  28.027  1.00  0.00     0.010 A 
ATOM     35  C   UNL A   1      43.030  23.044  27.005  1.00  0.00    -0.014 A 
BRANCH  35  36
ATOM     36  C   UNL A   1      43.394  24.446  27.331  1.00  0.00     0.031 A 
ATOM     37  C   UNL A   1      44.827  24.895  27.260  1.00  0.00     0.074 A 
ATOM     38  C   UNL A   1      42.439  25.301  27.749  1.00  0.00     0.049 A 
ATOM     39  N   UNL A   1      45.342  26.062  27.552  1.00  0.00    -0.248 NA
ATOM     40  C   UNL A   1      45.814  23.894  26.826  1.00  0.00     0.031 C 
ATOM     41  C   UNL A   1      41.021  24.970  27.912  1.00  0.00     0.029 A 
ATOM     42  N   UNL A   1      42.517  26.619  28.121  1.00  0.00    -0.354 N 
ATOM     43  C   UNL A   1      46.710  25.932  27.349  1.00  0.00     0.074 A 
ATOM     44  C   UNL A   1      46.951  24.559  26.960  1.00  0.00     0.031 C 
ATOM     45  C   UNL A   1      40.361  26.063  28.327  1.00  0.00     0.029 A 
ATOM     46  C   UNL A   1      41.310  27.158  28.494  1.00  0.00     0.049 A 
ATOM     47  H   UNL A   1      43.358  27.129  28.120  1.00  0.00     0.167 HD
ATOM     48  C   UNL A   1      47.675  26.877  27.454  1.00  0.00     0.037 A 
ATOM     49  C   UNL A   1      41.004  28.396  28.927  1.00  0.00     0.037 A 
ATOM     50  C   UNL A   1      47.430  28.247  27.820  1.00  0.00     0.049 A 
ATOM     51  C   UNL A   1      42.094  29.425  29.036  1.00  0.00     0.074 A 
ATOM     52  C   UNL A   1      48.332  29.294  27.897  1.00  0.00     0.029 A 
ATOM     53  N   UNL A   1      46.191  28.760  28.174  1.00  0.00    -0.354 N 
ATOM     54  N   UNL A   1      43.373  29.308  28.771  1.00  0.00    -0.248 NA
ATOM     55  C   UNL A   1      41.698  30.762  29.501  1.00  0.00     0.031 C 
ATOM     56  C   UNL A   1      47.646  30.431  28.336  1.00  0.00     0.029 A 
ATOM     57  C   UNL A   1      46.308  30.104  28.489  1.00  0.00     0.049 A 
ATOM     58  H   UNL A   1      45.352  28.246  28.198  1.00  0.00     0.167 HD
ATOM     59  C   UNL A   1      43.927  30.558  29.008  1.00  0.00     0.074 A 
ATOM     60  C   UNL A   1      42.844  31.425  29.424  1.00  0.00     0.031 C 
ATOM     61  C   UNL A   1      45.219  30.954  28.894  1.00  0.00     0.037 A 
BRANCH  48  62
ATOM     62  C   UNL A   1      49.086  26.460  27.160  1.00  0.00     0.057 A 
ATOM     63  C   UNL A   1      49.946  26.005  28.169  1.00  0.00     0.134 A 
ATOM     64  C   UNL A   1      49.580  26.477  25.850  1.00  0.00     0.134 A 
ATOM     65  F   UNL A   1      49.538  25.974  29.447  1.00  0.00    -0.206 F 
ATOM     66  C   UNL A   1      51.253  25.603  27.889  1.00  0.00     0.040 A 
ATOM     67  C   UNL A   1      50.877  26.053  25.554  1.00  0.00     0.040 A 
ATOM     68  F   UNL A   1      48.809  26.896  24.836  1.00  0.00    -0.206 F 
ATOM     69  C   UNL A   1      51.720  25.620  26.576  1.00  0.00     0.006 A 
ENDBRANCH  48  62
BRANCH  49  70
ATOM     70  C   UNL A   1      39.601  28.742  29.268  1.00  0.00     0.057 A 
ATOM     71  C   UNL A   1      39.106  28.553  30.564  1.00  0.00     0.134 A 
ATOM     72  C   UNL A   1      38.719  29.254  28.309  1.00  0.00     0.134 A 
ATOM     73  F   UNL A   1      39.898  28.048  31.521  1.00  0.00    -0.206 F 
ATOM     74  C   UNL A   1      37.779  28.838  30.889  1.00  0.00     0.040 A 
ATOM     75  C   UNL A   1      37.396  29.568  28.627  1.00  0.00     0.040 A 
ATOM     76  F   UNL A   1      39.134  29.464  27.051  1.00  0.00    -0.206 F 
ATOM     77  C   UNL A   1      36.922  29.353  29.918  1.00  0.00     0.006 A 
ENDBRANCH  49  70
BRANCH  61  78
ATOM     78  C   UNL A   1      45.523  32.393  29.192  1.00  0.00     0.057 A 
ATOM     79  C   UNL A   1      45.917  32.817  30.467  1.00  0.00     0.134 A 
ATOM     80  C   UNL A   1      45.450  33.360  28.181  1.00  0.00     0.134 A 
ATOM     81  F   UNL A   1      45.992  31.942  31.481  1.00  0.00    -0.206 F 
ATOM     82  C   UNL A   1      46.206  34.156  30.731  1.00  0.00     0.040 A 
ATOM     83  C   UNL A   1      45.762  34.697  28.427  1.00  0.00     0.040 A 
ATOM     84  F   UNL A   1      45.087  33.018  26.935  1.00  0.00    -0.206 F 
ATOM     85  C   UNL A   1      46.135  35.100  29.707  1.00  0.00     0.006 A 
ENDBRANCH  61  78
ENDBRANCH  35  36
ENDBRANCH  27  30
ENDBRANCH  25  26
ENDBRANCH  24  25
ENDBRANCH   1  24
TORSDOF 15
ENDMDL
MODEL 2
REMARK VINA RESULT:     -11.4      5.111     10.268
REMARK SMILES CC(C)[C@@](C)(CC(=O)N[C@H]1CCCC1(C)C)C(=O)NCCCCNC(=O)c1ccc(-c2c3nc(c(-c4c(F)cccc4F)c4ccc([nH]4)c(-c4c(F)cccc4F)c4nc(c(-c5c(F)cccc5F)c5ccc2[nH]5)C=C4)C=C3)cc1
REMARK SMILES IDX 21 1 20 2 19 3 17 4 18 5 4 7 5 8 2 9 1 10 3 11 6 12 7 13
REMARK SMILES IDX 8 14 9 15 10 17 11 18 14 19 12 20 13 21 15 22 16 23 22 24
REMARK SMILES IDX 23 25 24 26 25 27 26 29 27 30 28 31 80 32 29 33 79 34 30 35
REMARK SMILES IDX 31 36 32 37 73 38 33 39 78 40 72 41 74 42 34 43 77 44 71 45
REMARK SMILES IDX 70 46 35 48 61 49 44 50 60 51 45 52 48 53 59 54 75 55 46 56
REMARK SMILES IDX 47 57 58 59 76 60 49 61 36 62 37 63 42 64 38 65 39 66 41 67
REMARK SMILES IDX 43 68 40 69 62 70 63 71 68 72 64 73 65 74 67 75 69 76 66 77
REMARK SMILES IDX 50 78 51 79 56 80 52 81 53 82 55 83 57 84 54 85
REMARK H PARENT 19 6 9 16 24 28 74 47 48 58
REMARK Flexibility Score: inf
ROOT
ATOM      1  C   UNL A   1      31.437  30.635  26.444  1.00  0.00     0.023 C 
ENDROOT
BRANCH   1   2
ATOM      2  C   UNL A   1      32.398  30.049  25.413  1.00  0.00     0.116 C 
BRANCH   2   3
ATOM      3  N   UNL A   1      31.719  29.709  24.181  1.00  0.00    -0.356 N 
ATOM      4  C   UNL A   1      31.467  28.565  23.508  1.00  0.00     0.226 C 
ATOM      5  O   UNL A   1      30.747  28.728  22.517  1.00  0.00    -0.274 OA
ATOM      6  H   UNL A   1      31.353  30.501  23.724  1.00  0.00     0.163 HD
BRANCH   4   7
ATOM      7  C   UNL A   1      31.923  27.158  23.960  1.00  0.00     0.057 C 
ATOM      8  C   UNL A   1      33.467  27.199  24.131  1.00  0.00     0.022 C 
BRANCH   7   9
ATOM      9  C   UNL A   1      31.287  26.799  25.375  1.00  0.00    -0.002 C 
ATOM     10  C   UNL A   1      30.241  25.670  25.361  1.00  0.00     0.008 C 
ATOM     11  C   UNL A   1      32.289  26.480  26.500  1.00  0.00     0.008 C 
ENDBRANCH   7   9
BRANCH   7  12
ATOM     12  C   UNL A   1      31.646  26.036  22.915  1.00  0.00     0.116 C 
BRANCH  12  13
ATOM     13  C   UNL A   1      32.811  25.295  22.286  1.00  0.00     0.221 C 
ATOM     14  O   UNL A   1      33.278  25.647  21.204  1.00  0.00    -0.275 OA
ATOM     15  N   UNL A   1      33.412  24.275  22.975  1.00  0.00    -0.353 N 
ATOM     16  H   UNL A   1      34.313  24.023  22.669  1.00  0.00     0.163 HD
BRANCH  15  17
ATOM     17  C   UNL A   1      32.890  23.513  24.104  1.00  0.00     0.087 C 
ATOM     18  C   UNL A   1      32.265  22.199  23.604  1.00  0.00     0.025 C 
ATOM     19  C   UNL A   1      33.921  23.091  25.172  1.00  0.00    -0.015 C 
ATOM     20  C   UNL A   1      33.184  21.067  24.051  1.00  0.00     0.003 C 
ATOM     21  C   UNL A   1      34.413  21.732  24.655  1.00  0.00     0.008 C 
ATOM     22  C   UNL A   1      35.081  24.072  25.358  1.00  0.00     0.013 C 
ATOM     23  C   UNL A   1      33.196  22.934  26.528  1.00  0.00     0.013 C 
ENDBRANCH  15  17
ENDBRANCH  12  13
ENDBRANCH   7  12
ENDBRANCH   4   7
ENDBRANCH   2   3
ENDBRANCH   1   2
BRANCH   1  24
ATOM     24  C   UNL A   1      31.406  32.164  26.511  1.00  0.00     0.023 C 
BRANCH  24  25
ATOM     25  C   UNL A   1      32.575  32.820  27.238  1.00  0.00     0.116 C 
BRANCH  25  26
ATOM     26  N   UNL A   1      32.306  34.193  27.634  1.00  0.00    -0.352 N 
ATOM     27  C   UNL A   1      32.957  34.970  28.559  1.00  0.00     0.251 C 
ATOM     28  H   UNL A   1      31.548  34.625  27.176  1.00  0.00     0.163 HD
ATOM     29  O   UNL A   1      32.529  36.085  28.844  1.00  0.00    -0.269 OA
BRANCH  27  30
ATOM     30  C   UNL A   1      34.156  34.442  29.242  1.00  0.00     0.039 A 
ATOM     31  C   UNL A   1      33.994  33.789  30.466  1.00  0.00     0.014 A 
ATOM     32  C   UNL A   1      35.425  34.564  28.668  1.00  0.00     0.014 A 
ATOM     33  C   UNL A   1      35.096  33.193  31.081  1.00  0.00     0.010 A 
ATOM     34  C   UNL A   1      36.509  33.911  29.247  1.00  0.00     0.010 A 
ATOM     35  C   UNL A   1      36.354  33.215  30.457  1.00  0.00    -0.014 A 
BRANCH  35  36
ATOM     36  C   UNL A   1      37.512  32.500  31.049  1.00  0.00     0.031 A 
ATOM     37  C   UNL A   1      38.133  32.989  32.328  1.00  0.00     0.074 A 
ATOM     38  C   UNL A   1      38.041  31.442  30.403  1.00  0.00     0.049 A 
ATOM     39  N   UNL A   1      39.175  32.526  32.970  1.00  0.00    -0.248 NA
ATOM     40  C   UNL A   1      37.517  34.169  32.955  1.00  0.00     0.031 C 
ATOM     41  C   UNL A   1      37.562  30.904  29.127  1.00  0.00     0.029 A 
ATOM     42  N   UNL A   1      39.103  30.635  30.726  1.00  0.00    -0.354 N 
ATOM     43  C   UNL A   1      39.345  33.361  34.067  1.00  0.00     0.074 A 
ATOM     44  C   UNL A   1      38.333  34.390  33.975  1.00  0.00     0.031 C 
ATOM     45  C   UNL A   1      38.312  29.843  28.790  1.00  0.00     0.029 A 
ATOM     46  C   UNL A   1      39.344  29.648  29.802  1.00  0.00     0.049 A 
ATOM     47  H   UNL A   1      39.641  30.753  31.541  1.00  0.00     0.167 HD
ATOM     48  C   UNL A   1      40.249  33.265  35.071  1.00  0.00     0.037 A 
ATOM     49  C   UNL A   1      40.294  28.693  29.773  1.00  0.00     0.037 A 
ATOM     50  C   UNL A   1      41.240  32.228  35.172  1.00  0.00     0.049 A 
ATOM     51  C   UNL A   1      41.286  28.611  30.899  1.00  0.00     0.074 A 
ATOM     52  C   UNL A   1      42.162  32.010  36.182  1.00  0.00     0.029 A 
ATOM     53  N   UNL A   1      41.443  31.234  34.226  1.00  0.00    -0.354 N 
ATOM     54  N   UNL A   1      41.389  29.364  31.968  1.00  0.00    -0.248 NA
ATOM     55  C   UNL A   1      42.291  27.541  30.820  1.00  0.00     0.031 C 
ATOM     56  C   UNL A   1      42.949  30.909  35.827  1.00  0.00     0.029 A 
ATOM     57  C   UNL A   1      42.487  30.413  34.619  1.00  0.00     0.049 A 
ATOM     58  H   UNL A   1      40.921  31.128  33.398  1.00  0.00     0.167 HD
ATOM     59  C   UNL A   1      42.448  28.844  32.699  1.00  0.00     0.074 A 
ATOM     60  C   UNL A   1      42.946  27.701  31.962  1.00  0.00     0.031 C 
ATOM     61  C   UNL A   1      42.965  29.275  33.876  1.00  0.00     0.037 A 
BRANCH  48  62
ATOM     62  C   UNL A   1      40.198  34.309  36.149  1.00  0.00     0.057 A 
ATOM     63  C   UNL A   1      40.954  35.485  36.071  1.00  0.00     0.134 A 
ATOM     64  C   UNL A   1      39.355  34.154  37.257  1.00  0.00     0.134 A 
ATOM     65  F   UNL A   1      41.789  35.691  35.042  1.00  0.00    -0.206 F 
ATOM     66  C   UNL A   1      40.892  36.461  37.069  1.00  0.00     0.040 A 
ATOM     67  C   UNL A   1      39.266  35.134  38.247  1.00  0.00     0.040 A 
ATOM     68  F   UNL A   1      38.600  33.054  37.391  1.00  0.00    -0.206 F 
ATOM     69  C   UNL A   1      40.040  36.289  38.157  1.00  0.00     0.006 A 
ENDBRANCH  48  62
BRANCH  49  70
ATOM     70  C   UNL A   1      40.343  27.723  28.650  1.00  0.00     0.057 A 
ATOM     71  C   UNL A   1      41.080  27.996  27.492  1.00  0.00     0.134 A 
ATOM     72  C   UNL A   1      39.646  26.510  28.700  1.00  0.00     0.134 A 
ATOM     73  F   UNL A   1      41.754  29.150  27.377  1.00  0.00    -0.206 F 
ATOM     74  C   UNL A   1      41.105  27.110  26.414  1.00  0.00     0.040 A 
ATOM     75  C   UNL A   1      39.682  25.603  27.640  1.00  0.00     0.040 A 
ATOM     76  F   UNL A   1      38.927  26.186  29.784  1.00  0.00    -0.206 F 
ATOM     77  C   UNL A   1      40.407  25.906  26.490  1.00  0.00     0.006 A 
ENDBRANCH  49  70
BRANCH  61  78
ATOM     78  C   UNL A   1      44.105  28.488  34.452  1.00  0.00     0.057 A 
ATOM     79  C   UNL A   1      43.893  27.381  35.284  1.00  0.00     0.134 A 
ATOM     80  C   UNL A   1      45.430  28.823  34.146  1.00  0.00     0.134 A 
ATOM     81  F   UNL A   1      42.648  27.016  35.626  1.00  0.00    -0.206 F 
ATOM     82  C   UNL A   1      44.960  26.650  35.808  1.00  0.00     0.040 A 
ATOM     83  C   UNL A   1      46.503  28.084  34.643  1.00  0.00     0.040 A 
ATOM     84  F   UNL A   1      45.701  29.868  33.347  1.00  0.00    -0.206 F 
ATOM     85  C   UNL A   1      46.270  26.997  35.482  1.00  0.00     0.006 A 
ENDBRANCH  61  78
ENDBRANCH  35  36
ENDBRANCH  27  30
ENDBRANCH  25  26
ENDBRANCH  24  25
ENDBRANCH   1  24
TORSDOF 15
ENDMDL
MODEL 3
REMARK VINA RESULT:     -11.4      5.319      9.770
REMARK SMILES CC(C)[C@@](C)(CC(=O)N[C@H]1CCCC1(C)C)C(=O)NCCCCNC(=O)c1ccc(-c2c3nc(c(-c4c(F)cccc4F)c4ccc([nH]4)c(-c4c(F)cccc4F)c4nc(c(-c5c(F)cccc5F)c5ccc2[nH]5)C=C4)C=C3)cc1
REMARK SMILES IDX 21 1 20 2 19 3 17 4 18 5 4 7 5 8 2 9 1 10 3 11 6 12 7 13
REMARK SMILES IDX 8 14 9 15 10 17 11 18 14 19 12 20 13 21 15 22 16 23 22 24
REMARK SMILES IDX 23 25 24 26 25 27 26 29 27 30 28 31 80 32 29 33 79 34 30 35
REMARK SMILES IDX 31 36 32 37 73 38 33 39 78 40 72 41 74 42 34 43 77 44 71 45
REMARK SMILES IDX 70 46 35 48 61 49 44 50 60 51 45 52 48 53 59 54 75 55 46 56
REMARK SMILES IDX 47 57 58 59 76 60 49 61 36 62 37 63 42 64 38 65 39 66 41 67
REMARK SMILES IDX 43 68 40 69 62 70 63 71 68 72 64 73 65 74 67 75 69 76 66 77
REMARK SMILES IDX 50 78 51 79 56 80 52 81 53 82 55 83 57 84 54 85
REMARK H PARENT 19 6 9 16 24 28 74 47 48 58
REMARK Flexibility Score: inf
ROOT
ATOM      1  C   UNL A   1      31.678  30.488  26.548  1.00  0.00     0.023 C 
ENDROOT
BRANCH   1   2
ATOM      2  C   UNL A   1      32.646  30.014  25.467  1.00  0.00     0.116 C 
BRANCH   2   3
ATOM      3  N   UNL A   1      31.969  29.764  24.213  1.00  0.00    -0.356 N 
ATOM      4  C   UNL A   1      31.648  28.663  23.499  1.00  0.00     0.226 C 
ATOM      5  O   UNL A   1      30.961  28.910  22.501  1.00  0.00    -0.274 OA
ATOM      6  H   UNL A   1      31.669  30.595  23.777  1.00  0.00     0.163 HD
BRANCH   4   7
ATOM      7  C   UNL A   1      31.993  27.214  23.910  1.00  0.00     0.057 C 
ATOM      8  C   UNL A   1      33.524  27.154  24.175  1.00  0.00     0.022 C 
BRANCH   7   9
ATOM      9  C   UNL A   1      31.251  26.833  25.267  1.00  0.00    -0.002 C 
ATOM     10  C   UNL A   1      30.151  25.763  25.139  1.00  0.00     0.008 C 
ATOM     11  C   UNL A   1      32.161  26.416  26.436  1.00  0.00     0.008 C 
ENDBRANCH   7   9
BRANCH   7  12
ATOM     12  C   UNL A   1      31.718  26.156  22.799  1.00  0.00     0.116 C 
BRANCH  12  13
ATOM     13  C   UNL A   1      32.873  25.367  22.215  1.00  0.00     0.221 C 
ATOM     14  O   UNL A   1      33.441  25.738  21.188  1.00  0.00    -0.275 OA
ATOM     15  N   UNL A   1      33.353  24.274  22.888  1.00  0.00    -0.353 N 
ATOM     16  H   UNL A   1      34.255  23.975  22.632  1.00  0.00     0.163 HD
BRANCH  15  17
ATOM     17  C   UNL A   1      32.699  23.496  23.934  1.00  0.00     0.087 C 
ATOM     18  C   UNL A   1      32.063  22.234  23.328  1.00  0.00     0.025 C 
ATOM     19  C   UNL A   1      33.612  22.986  25.069  1.00  0.00    -0.015 C 
ATOM     20  C   UNL A   1      32.888  21.043  23.805  1.00  0.00     0.003 C 
ATOM     21  C   UNL A   1      34.086  21.625  24.541  1.00  0.00     0.008 C 
ATOM     22  C   UNL A   1      34.794  23.902  25.395  1.00  0.00     0.013 C 
ATOM     23  C   UNL A   1      32.763  22.813  26.350  1.00  0.00     0.013 C 
ENDBRANCH  15  17
ENDBRANCH  12  13
ENDBRANCH   7  12
ENDBRANCH   4   7
ENDBRANCH   2   3
ENDBRANCH   1   2
BRANCH   1  24
ATOM     24  C   UNL A   1      31.515  32.007  26.656  1.00  0.00     0.023 C 
BRANCH  24  25
ATOM     25  C   UNL A   1      32.665  32.751  27.327  1.00  0.00     0.116 C 
BRANCH  25  26
ATOM     26  N   UNL A   1      32.349  34.137  27.634  1.00  0.00    -0.352 N 
ATOM     27  C   UNL A   1      32.954  34.985  28.527  1.00  0.00     0.251 C 
ATOM     28  H   UNL A   1      31.592  34.520  27.132  1.00  0.00     0.163 HD
ATOM     29  O   UNL A   1      32.489  36.103  28.734  1.00  0.00    -0.269 OA
BRANCH  27  30
ATOM     30  C   UNL A   1      34.148  34.533  29.270  1.00  0.00     0.039 A 
ATOM     31  C   UNL A   1      33.976  33.995  30.547  1.00  0.00     0.014 A 
ATOM     32  C   UNL A   1      35.423  34.611  28.701  1.00  0.00     0.014 A 
ATOM     33  C   UNL A   1      35.074  33.468  31.227  1.00  0.00     0.010 A 
ATOM     34  C   UNL A   1      36.504  34.022  29.351  1.00  0.00     0.010 A 
ATOM     35  C   UNL A   1      36.340  33.441  30.618  1.00  0.00    -0.014 A 
BRANCH  35  36
ATOM     36  C   UNL A   1      37.495  32.793  31.288  1.00  0.00     0.031 A 
ATOM     37  C   UNL A   1      38.153  31.590  30.671  1.00  0.00     0.074 A 
ATOM     38  C   UNL A   1      37.915  33.255  32.483  1.00  0.00     0.049 A 
ATOM     39  N   UNL A   1      39.141  30.864  31.129  1.00  0.00    -0.248 NA
ATOM     40  C   UNL A   1      37.616  31.130  29.382  1.00  0.00     0.031 C 
ATOM     41  C   UNL A   1      37.324  34.381  33.210  1.00  0.00     0.029 A 
ATOM     42  N   UNL A   1      38.931  32.828  33.300  1.00  0.00    -0.354 N 
ATOM     43  C   UNL A   1      39.334  29.856  30.193  1.00  0.00     0.074 A 
ATOM     44  C   UNL A   1      38.329  30.034  29.168  1.00  0.00     0.031 C 
ATOM     45  C   UNL A   1      38.003  34.570  34.352  1.00  0.00     0.029 A 
ATOM     46  C   UNL A   1      39.051  33.560  34.457  1.00  0.00     0.049 A 
ATOM     47  H   UNL A   1      39.518  32.070  33.080  1.00  0.00     0.167 HD
ATOM     48  C   UNL A   1      40.279  28.886  30.177  1.00  0.00     0.037 A 
ATOM     49  C   UNL A   1      39.908  33.429  35.487  1.00  0.00     0.037 A 
ATOM     50  C   UNL A   1      41.291  28.725  31.187  1.00  0.00     0.049 A 
ATOM     51  C   UNL A   1      40.945  32.342  35.445  1.00  0.00     0.074 A 
ATOM     52  C   UNL A   1      42.329  27.809  31.230  1.00  0.00     0.029 A 
ATOM     53  N   UNL A   1      41.391  29.496  32.335  1.00  0.00    -0.354 N 
ATOM     54  N   UNL A   1      41.163  31.441  34.517  1.00  0.00    -0.248 NA
ATOM     55  C   UNL A   1      41.861  32.256  36.592  1.00  0.00     0.031 C 
ATOM     56  C   UNL A   1      43.033  28.001  32.424  1.00  0.00     0.029 A 
ATOM     57  C   UNL A   1      42.462  29.066  33.102  1.00  0.00     0.049 A 
ATOM     58  H   UNL A   1      40.792  30.241  32.569  1.00  0.00     0.167 HD
ATOM     59  C   UNL A   1      42.254  30.702  34.953  1.00  0.00     0.074 A 
ATOM     60  C   UNL A   1      42.665  31.269  36.221  1.00  0.00     0.031 C 
ATOM     61  C   UNL A   1      42.861  29.646  34.359  1.00  0.00     0.037 A 
BRANCH  48  62
ATOM     62  C   UNL A   1      40.265  27.926  29.023  1.00  0.00     0.057 A 
ATOM     63  C   UNL A   1      39.526  26.737  29.062  1.00  0.00     0.134 A 
ATOM     64  C   UNL A   1      40.967  28.212  27.845  1.00  0.00     0.134 A 
ATOM     65  F   UNL A   1      38.840  26.398  30.165  1.00  0.00    -0.206 F 
ATOM     66  C   UNL A   1      39.504  25.854  27.981  1.00  0.00     0.040 A 
ATOM     67  C   UNL A   1      40.931  27.350  26.748  1.00  0.00     0.040 A 
ATOM     68  F   UNL A   1      41.690  29.336  27.738  1.00  0.00    -0.206 F 
ATOM     69  C   UNL A   1      40.202  26.164  26.816  1.00  0.00     0.006 A 
ENDBRANCH  48  62
BRANCH  49  70
ATOM     70  C   UNL A   1      39.839  34.364  36.638  1.00  0.00     0.057 A 
ATOM     71  C   UNL A   1      39.107  34.042  37.787  1.00  0.00     0.134 A 
ATOM     72  C   UNL A   1      40.489  35.604  36.614  1.00  0.00     0.134 A 
ATOM     73  F   UNL A   1      38.448  32.876  37.862  1.00  0.00    -0.206 F 
ATOM     74  C   UNL A   1      39.004  34.927  38.861  1.00  0.00     0.040 A 
ATOM     75  C   UNL A   1      40.415  36.489  37.692  1.00  0.00     0.040 A 
ATOM     76  F   UNL A   1      41.212  35.970  35.546  1.00  0.00    -0.206 F 
ATOM     77  C   UNL A   1      39.663  36.154  38.816  1.00  0.00     0.006 A 
ENDBRANCH  49  70
BRANCH  61  78
ATOM     78  C   UNL A   1      44.052  29.059  35.056  1.00  0.00     0.057 A 
ATOM     79  C   UNL A   1      45.353  29.516  34.809  1.00  0.00     0.134 A 
ATOM     80  C   UNL A   1      43.892  28.046  36.010  1.00  0.00     0.134 A 
ATOM     81  F   UNL A   1      45.576  30.474  33.897  1.00  0.00    -0.206 F 
ATOM     82  C   UNL A   1      46.454  28.969  35.470  1.00  0.00     0.040 A 
ATOM     83  C   UNL A   1      44.982  27.510  36.696  1.00  0.00     0.040 A 
ATOM     84  F   UNL A   1      42.671  27.570  36.300  1.00  0.00    -0.206 F 
ATOM     85  C   UNL A   1      46.269  27.967  36.422  1.00  0.00     0.006 A 
ENDBRANCH  61  78
ENDBRANCH  35  36
ENDBRANCH  27  30
ENDBRANCH  25  26
ENDBRANCH  24  25
ENDBRANCH   1  24
TORSDOF 15
ENDMDL
