MODEL 1
REMARK VINA RESULT:     -12.2      0.000      0.000
REMARK SMILES COc1cc(S(=O)(=O)Nc2cccc(C(=O)NCCCCNC(=O)c3ccc(-c4c5nc(c(-c6c(F)cccc6F)c6ccc([nH]6)c(-c6c(F)cccc6F)c6nc(c(-c7c(F)cccc7F)c7ccc4[nH]7)C=C6)C=C5)cc3)c2)c(OC)cc1C
REMARK SMILES IDX 18 1 17 2 15 3 16 4 14 6 10 7 11 8 79 9 12 10 13 11 9 12
REMARK SMILES IDX 6 14 7 15 8 16 5 17 3 18 4 19 84 20 83 21 85 22 80 23 2 24
REMARK SMILES IDX 1 25 81 26 82 27 19 28 20 29 21 30 22 31 23 32 24 34 25 35
REMARK SMILES IDX 26 36 78 37 27 38 77 39 28 40 29 41 30 42 71 43 31 44 76 45
REMARK SMILES IDX 70 46 72 47 32 48 75 49 69 50 68 51 33 53 59 54 42 55 58 56
REMARK SMILES IDX 43 57 46 58 57 59 73 60 44 61 45 62 56 64 74 65 47 66 34 67
REMARK SMILES IDX 35 68 40 69 36 70 37 71 39 72 41 73 38 74 60 75 61 76 66 77
REMARK SMILES IDX 62 78 63 79 65 80 67 81 64 82 48 83 49 84 54 85 50 86 51 87
REMARK SMILES IDX 53 88 55 89 52 90
REMARK H PARENT 17 5 9 13 22 33 72 52 46 63
REMARK Flexibility Score: inf
ROOT
ATOM      1  C   UNL A   1      36.875  22.189  25.491  1.00  0.00     0.116 C 
ENDROOT
BRANCH   1   2
ATOM      2  N   UNL A   1      36.370  22.825  24.286  1.00  0.00    -0.352 N 
ATOM      3  C   UNL A   1      35.160  22.770  23.646  1.00  0.00     0.251 C 
ATOM      4  O   UNL A   1      35.003  23.476  22.650  1.00  0.00    -0.269 OA
ATOM      5  H   UNL A   1      37.026  23.411  23.843  1.00  0.00     0.163 HD
BRANCH   3   6
ATOM      6  C   UNL A   1      34.011  21.977  24.152  1.00  0.00     0.041 A 
ATOM      7  C   UNL A   1      31.736  22.069  25.007  1.00  0.00     0.050 A 
ATOM      8  C   UNL A   1      31.767  20.699  25.250  1.00  0.00     0.027 A 
ATOM      9  C   UNL A   1      32.829  22.687  24.392  1.00  0.00     0.040 A 
ATOM     10  C   UNL A   1      32.921  19.970  24.954  1.00  0.00     0.003 A 
ATOM     11  C   UNL A   1      34.041  20.609  24.415  1.00  0.00     0.014 A 
BRANCH   7  12
ATOM     12  N   UNL A   1      30.674  22.925  25.399  1.00  0.00    -0.279 N 
ATOM     13  H   UNL A   1      29.775  22.720  25.052  1.00  0.00     0.180 HD
BRANCH  12  14
ATOM     14  S   UNL A   1      30.826  24.252  26.399  1.00  0.00     0.265 S 
ATOM     15  O   UNL A   1      31.769  23.920  27.437  1.00  0.00    -0.201 OA
ATOM     16  O   UNL A   1      29.454  24.612  26.744  1.00  0.00    -0.201 OA
BRANCH  14  17
ATOM     17  C   UNL A   1      31.493  25.663  25.543  1.00  0.00     0.133 A 
ATOM     18  C   UNL A   1      33.273  27.316  25.624  1.00  0.00     0.123 A 
ATOM     19  C   UNL A   1      32.550  26.292  26.227  1.00  0.00     0.073 A 
ATOM     20  C   UNL A   1      33.058  27.629  24.283  1.00  0.00    -0.005 A 
ATOM     21  C   UNL A   1      31.948  27.063  23.641  1.00  0.00     0.055 A 
ATOM     22  C   UNL A   1      33.941  28.574  23.524  1.00  0.00     0.048 C 
ATOM     23  C   UNL A   1      31.115  26.129  24.282  1.00  0.00     0.139 A 
BRANCH  18  24
ATOM     24  O   UNL A   1      34.215  27.952  26.386  1.00  0.00    -0.496 OA
ATOM     25  C   UNL A   1      33.598  28.915  27.248  1.00  0.00     0.278 C 
ENDBRANCH  18  24
BRANCH  23  26
ATOM     26  O   UNL A   1      29.933  25.720  23.741  1.00  0.00    -0.495 OA
ATOM     27  C   UNL A   1      28.795  26.563  23.895  1.00  0.00     0.278 C 
ENDBRANCH  23  26
ENDBRANCH  14  17
ENDBRANCH  12  14
ENDBRANCH   7  12
ENDBRANCH   3   6
ENDBRANCH   1   2
BRANCH   1  28
ATOM     28  C   UNL A   1      37.942  21.133  25.179  1.00  0.00     0.023 C 
BRANCH  28  29
ATOM     29  C   UNL A   1      39.259  21.310  25.938  1.00  0.00     0.023 C 
BRANCH  29  30
ATOM     30  C   UNL A   1      39.404  22.668  26.603  1.00  0.00     0.116 C 
BRANCH  30  31
ATOM     31  N   UNL A   1      40.769  23.000  26.992  1.00  0.00    -0.352 N 
ATOM     32  C   UNL A   1      41.334  24.227  27.294  1.00  0.00     0.251 C 
ATOM     33  H   UNL A   1      41.385  22.233  27.047  1.00  0.00     0.163 HD
ATOM     34  O   UNL A   1      42.533  24.294  27.550  1.00  0.00    -0.269 OA
BRANCH  32  35
ATOM     35  C   UNL A   1      40.473  25.426  27.469  1.00  0.00     0.039 A 
ATOM     36  C   UNL A   1      40.693  26.514  26.614  1.00  0.00     0.014 A 
ATOM     37  C   UNL A   1      39.659  25.577  28.584  1.00  0.00     0.014 A 
ATOM     38  C   UNL A   1      40.348  27.795  27.036  1.00  0.00     0.010 A 
ATOM     39  C   UNL A   1      39.429  26.848  29.064  1.00  0.00     0.010 A 
ATOM     40  C   UNL A   1      39.844  27.957  28.323  1.00  0.00    -0.014 A 
BRANCH  40  41
ATOM     41  C   UNL A   1      39.865  29.224  29.040  1.00  0.00     0.031 A 
ATOM     42  C   UNL A   1      38.791  30.218  28.852  1.00  0.00     0.074 A 
ATOM     43  C   UNL A   1      40.807  29.416  29.991  1.00  0.00     0.049 A 
ATOM     44  N   UNL A   1      38.922  31.473  29.120  1.00  0.00    -0.248 NA
ATOM     45  C   UNL A   1      37.478  29.876  28.319  1.00  0.00     0.031 C 
ATOM     46  C   UNL A   1      40.819  30.434  31.039  1.00  0.00     0.029 A 
ATOM     47  N   UNL A   1      42.068  28.812  30.080  1.00  0.00    -0.354 N 
ATOM     48  C   UNL A   1      37.671  32.042  29.069  1.00  0.00     0.074 A 
ATOM     49  C   UNL A   1      36.814  31.021  28.511  1.00  0.00     0.031 C 
ATOM     50  C   UNL A   1      42.076  30.586  31.482  1.00  0.00     0.029 A 
ATOM     51  C   UNL A   1      42.933  29.781  30.630  1.00  0.00     0.049 A 
ATOM     52  H   UNL A   1      42.302  27.895  29.813  1.00  0.00     0.167 HD
ATOM     53  C   UNL A   1      37.468  33.266  29.631  1.00  0.00     0.037 A 
ATOM     54  C   UNL A   1      43.998  30.260  29.924  1.00  0.00     0.037 A 
ATOM     55  C   UNL A   1      38.704  33.803  30.192  1.00  0.00     0.049 A 
ATOM     56  C   UNL A   1      43.947  31.751  29.679  1.00  0.00     0.074 A 
ATOM     57  C   UNL A   1      39.225  33.796  31.476  1.00  0.00     0.029 A 
ATOM     58  N   UNL A   1      39.746  34.161  29.346  1.00  0.00    -0.354 N 
ATOM     59  N   UNL A   1      42.857  32.462  29.761  1.00  0.00    -0.248 NA
ATOM     60  C   UNL A   1      45.107  32.554  29.303  1.00  0.00     0.031 C 
ATOM     61  C   UNL A   1      40.601  34.114  31.395  1.00  0.00     0.029 A 
ATOM     62  C   UNL A   1      40.914  34.330  30.065  1.00  0.00     0.049 A 
ATOM     63  H   UNL A   1      39.664  34.279  28.372  1.00  0.00     0.167 HD
ATOM     64  C   UNL A   1      43.133  33.767  29.439  1.00  0.00     0.074 A 
ATOM     65  C   UNL A   1      44.560  33.777  29.183  1.00  0.00     0.031 C 
ATOM     66  C   UNL A   1      42.152  34.718  29.406  1.00  0.00     0.037 A 
BRANCH  53  67
ATOM     67  C   UNL A   1      36.097  33.818  29.932  1.00  0.00     0.057 A 
ATOM     68  C   UNL A   1      35.243  34.253  28.899  1.00  0.00     0.134 A 
ATOM     69  C   UNL A   1      35.578  33.987  31.227  1.00  0.00     0.134 A 
ATOM     70  F   UNL A   1      35.545  34.070  27.607  1.00  0.00    -0.206 F 
ATOM     71  C   UNL A   1      34.030  34.909  29.139  1.00  0.00     0.040 A 
ATOM     72  C   UNL A   1      34.391  34.689  31.484  1.00  0.00     0.040 A 
ATOM     73  F   UNL A   1      36.181  33.445  32.293  1.00  0.00    -0.206 F 
ATOM     74  C   UNL A   1      33.617  35.167  30.436  1.00  0.00     0.006 A 
ENDBRANCH  53  67
BRANCH  54  75
ATOM     75  C   UNL A   1      44.577  29.257  28.992  1.00  0.00     0.057 A 
ATOM     76  C   UNL A   1      45.452  28.286  29.514  1.00  0.00     0.134 A 
ATOM     77  C   UNL A   1      44.000  28.990  27.749  1.00  0.00     0.134 A 
ATOM     78  F   UNL A   1      46.035  28.479  30.709  1.00  0.00    -0.206 F 
ATOM     79  C   UNL A   1      45.644  27.053  28.888  1.00  0.00     0.040 A 
ATOM     80  C   UNL A   1      44.196  27.762  27.105  1.00  0.00     0.040 A 
ATOM     81  F   UNL A   1      43.138  29.857  27.197  1.00  0.00    -0.206 F 
ATOM     82  C   UNL A   1      44.986  26.775  27.695  1.00  0.00     0.006 A 
ENDBRANCH  54  75
BRANCH  66  83
ATOM     83  C   UNL A   1      42.262  36.119  28.847  1.00  0.00     0.057 A 
ATOM     84  C   UNL A   1      42.918  37.181  29.485  1.00  0.00     0.134 A 
ATOM     85  C   UNL A   1      41.819  36.402  27.531  1.00  0.00     0.134 A 
ATOM     86  F   UNL A   1      43.488  37.035  30.687  1.00  0.00    -0.206 F 
ATOM     87  C   UNL A   1      43.076  38.440  28.886  1.00  0.00     0.040 A 
ATOM     88  C   UNL A   1      42.022  37.634  26.903  1.00  0.00     0.040 A 
ATOM     89  F   UNL A   1      41.191  35.483  26.783  1.00  0.00    -0.206 F 
ATOM     90  C   UNL A   1      42.642  38.666  27.586  1.00  0.00     0.006 A 
ENDBRANCH  66  83
ENDBRANCH  40  41
ENDBRANCH  32  35
ENDBRANCH  30  31
ENDBRANCH  29  30
ENDBRANCH  28  29
ENDBRANCH   1  28
TORSDOF 16
ENDMDL
MODEL 2
REMARK VINA RESULT:     -12.1      3.603      9.360
REMARK SMILES COc1cc(S(=O)(=O)Nc2cccc(C(=O)NCCCCNC(=O)c3ccc(-c4c5nc(c(-c6c(F)cccc6F)c6ccc([nH]6)c(-c6c(F)cccc6F)c6nc(c(-c7c(F)cccc7F)c7ccc4[nH]7)C=C6)C=C5)cc3)c2)c(OC)cc1C
REMARK SMILES IDX 18 1 17 2 15 3 16 4 14 6 10 7 11 8 79 9 12 10 13 11 9 12
REMARK SMILES IDX 6 14 7 15 8 16 5 17 3 18 4 19 84 20 83 21 85 22 80 23 2 24
REMARK SMILES IDX 1 25 81 26 82 27 19 28 20 29 21 30 22 31 23 32 24 34 25 35
REMARK SMILES IDX 26 36 78 37 27 38 77 39 28 40 29 41 30 42 71 43 31 44 76 45
REMARK SMILES IDX 70 46 72 47 32 48 75 49 69 50 68 51 33 53 59 54 42 55 58 56
REMARK SMILES IDX 43 57 46 58 57 59 73 60 44 61 45 62 56 64 74 65 47 66 34 67
REMARK SMILES IDX 35 68 40 69 36 70 37 71 39 72 41 73 38 74 60 75 61 76 66 77
REMARK SMILES IDX 62 78 63 79 65 80 67 81 64 82 48 83 49 84 54 85 50 86 51 87
REMARK SMILES IDX 53 88 55 89 52 90
REMARK H PARENT 17 5 9 13 22 33 72 52 46 63
REMARK Flexibility Score: inf
ROOT
ATOM      1  C   UNL A   1      32.966  29.502  26.396  1.00  0.00     0.116 C 
ENDROOT
BRANCH   1   2
ATOM      2  N   UNL A   1      32.202  28.360  26.868  1.00  0.00    -0.352 N 
ATOM      3  C   UNL A   1      31.349  27.492  26.239  1.00  0.00     0.251 C 
ATOM      4  O   UNL A   1      30.880  26.566  26.902  1.00  0.00    -0.269 OA
ATOM      5  H   UNL A   1      32.322  28.174  27.827  1.00  0.00     0.163 HD
BRANCH   3   6
ATOM      6  C   UNL A   1      31.045  27.562  24.788  1.00  0.00     0.041 A 
ATOM      7  C   UNL A   1      31.178  26.399  22.656  1.00  0.00     0.050 A 
ATOM      8  C   UNL A   1      30.681  27.525  22.006  1.00  0.00     0.027 A 
ATOM      9  C   UNL A   1      31.287  26.398  24.050  1.00  0.00     0.040 A 
ATOM     10  C   UNL A   1      30.377  28.671  22.742  1.00  0.00     0.003 A 
ATOM     11  C   UNL A   1      30.566  28.692  24.127  1.00  0.00     0.014 A 
BRANCH   7  12
ATOM     12  N   UNL A   1      31.651  25.237  21.991  1.00  0.00    -0.279 N 
ATOM     13  H   UNL A   1      30.986  24.681  21.524  1.00  0.00     0.180 HD
BRANCH  12  14
ATOM     14  S   UNL A   1      33.242  24.739  21.939  1.00  0.00     0.265 S 
ATOM     15  O   UNL A   1      34.077  25.912  22.005  1.00  0.00    -0.201 OA
ATOM     16  O   UNL A   1      33.313  23.854  20.780  1.00  0.00    -0.201 OA
BRANCH  14  17
ATOM     17  C   UNL A   1      33.676  23.732  23.341  1.00  0.00     0.133 A 
ATOM     18  C   UNL A   1      35.188  23.597  25.239  1.00  0.00     0.123 A 
ATOM     19  C   UNL A   1      34.809  24.189  24.038  1.00  0.00     0.073 A 
ATOM     20  C   UNL A   1      34.366  22.648  25.841  1.00  0.00    -0.005 A 
ATOM     21  C   UNL A   1      33.291  22.136  25.099  1.00  0.00     0.055 A 
ATOM     22  C   UNL A   1      34.613  22.128  27.226  1.00  0.00     0.048 C 
ATOM     23  C   UNL A   1      32.975  22.620  23.818  1.00  0.00     0.139 A 
BRANCH  18  24
ATOM     24  O   UNL A   1      36.359  24.022  25.805  1.00  0.00    -0.496 OA
ATOM     25  C   UNL A   1      37.420  23.108  25.511  1.00  0.00     0.278 C 
ENDBRANCH  18  24
BRANCH  23  26
ATOM     26  O   UNL A   1      32.062  22.007  23.015  1.00  0.00    -0.495 OA
ATOM     27  C   UNL A   1      32.154  20.595  22.846  1.00  0.00     0.278 C 
ENDBRANCH  23  26
ENDBRANCH  14  17
ENDBRANCH  12  14
ENDBRANCH   7  12
ENDBRANCH   3   6
ENDBRANCH   1   2
BRANCH   1  28
ATOM     28  C   UNL A   1      32.393  30.829  26.909  1.00  0.00     0.023 C 
BRANCH  28  29
ATOM     29  C   UNL A   1      33.405  31.733  27.615  1.00  0.00     0.023 C 
BRANCH  29  30
ATOM     30  C   UNL A   1      34.800  31.139  27.703  1.00  0.00     0.116 C 
BRANCH  30  31
ATOM     31  N   UNL A   1      35.704  31.865  28.587  1.00  0.00    -0.352 N 
ATOM     32  C   UNL A   1      36.837  31.430  29.252  1.00  0.00     0.251 C 
ATOM     33  H   UNL A   1      35.473  32.811  28.733  1.00  0.00     0.163 HD
ATOM     34  O   UNL A   1      37.434  32.201  29.999  1.00  0.00    -0.269 OA
BRANCH  32  35
ATOM     35  C   UNL A   1      37.423  30.099  28.943  1.00  0.00     0.039 A 
ATOM     36  C   UNL A   1      37.470  29.154  29.976  1.00  0.00     0.014 A 
ATOM     37  C   UNL A   1      38.127  29.872  27.767  1.00  0.00     0.014 A 
ATOM     38  C   UNL A   1      38.440  28.155  29.945  1.00  0.00     0.010 A 
ATOM     39  C   UNL A   1      39.167  28.968  27.786  1.00  0.00     0.010 A 
ATOM     40  C   UNL A   1      39.369  28.164  28.909  1.00  0.00    -0.014 A 
BRANCH  40  41
ATOM     41  C   UNL A   1      40.659  27.493  28.982  1.00  0.00     0.031 A 
ATOM     42  C   UNL A   1      40.796  26.072  28.606  1.00  0.00     0.074 A 
ATOM     43  C   UNL A   1      41.759  28.228  29.260  1.00  0.00     0.049 A 
ATOM     44  N   UNL A   1      41.764  25.317  29.000  1.00  0.00    -0.248 NA
ATOM     45  C   UNL A   1      39.828  25.377  27.766  1.00  0.00     0.031 C 
ATOM     46  C   UNL A   1      43.155  27.851  29.062  1.00  0.00     0.029 A 
ATOM     47  N   UNL A   1      41.823  29.435  29.969  1.00  0.00    -0.354 N 
ATOM     48  C   UNL A   1      41.711  24.155  28.267  1.00  0.00     0.074 A 
ATOM     49  C   UNL A   1      40.456  24.216  27.552  1.00  0.00     0.031 C 
ATOM     50  C   UNL A   1      43.929  28.622  29.841  1.00  0.00     0.029 A 
ATOM     51  C   UNL A   1      43.043  29.414  30.676  1.00  0.00     0.049 A 
ATOM     52  H   UNL A   1      41.151  30.154  29.973  1.00  0.00     0.167 HD
ATOM     53  C   UNL A   1      42.797  23.332  28.236  1.00  0.00     0.037 A 
ATOM     54  C   UNL A   1      43.072  29.432  32.040  1.00  0.00     0.037 A 
ATOM     55  C   UNL A   1      43.877  23.848  29.070  1.00  0.00     0.049 A 
ATOM     56  C   UNL A   1      43.732  28.219  32.653  1.00  0.00     0.074 A 
ATOM     57  C   UNL A   1      45.001  24.603  28.777  1.00  0.00     0.029 A 
ATOM     58  N   UNL A   1      43.721  23.893  30.450  1.00  0.00    -0.354 N 
ATOM     59  N   UNL A   1      43.909  27.093  32.021  1.00  0.00    -0.248 NA
ATOM     60  C   UNL A   1      44.228  28.169  34.026  1.00  0.00     0.031 C 
ATOM     61  C   UNL A   1      45.501  25.138  29.987  1.00  0.00     0.029 A 
ATOM     62  C   UNL A   1      44.691  24.697  31.018  1.00  0.00     0.049 A 
ATOM     63  H   UNL A   1      43.019  23.419  30.953  1.00  0.00     0.167 HD
ATOM     64  C   UNL A   1      44.493  26.179  32.861  1.00  0.00     0.074 A 
ATOM     65  C   UNL A   1      44.694  26.909  34.098  1.00  0.00     0.031 C 
ATOM     66  C   UNL A   1      44.749  24.898  32.458  1.00  0.00     0.037 A 
BRANCH  53  67
ATOM     67  C   UNL A   1      42.970  22.236  27.215  1.00  0.00     0.057 A 
ATOM     68  C   UNL A   1      42.195  21.061  27.267  1.00  0.00     0.134 A 
ATOM     69  C   UNL A   1      43.920  22.262  26.179  1.00  0.00     0.134 A 
ATOM     70  F   UNL A   1      41.180  20.920  28.129  1.00  0.00    -0.206 F 
ATOM     71  C   UNL A   1      42.426  19.958  26.435  1.00  0.00     0.040 A 
ATOM     72  C   UNL A   1      44.199  21.147  25.375  1.00  0.00     0.040 A 
ATOM     73  F   UNL A   1      44.590  23.383  25.879  1.00  0.00    -0.206 F 
ATOM     74  C   UNL A   1      43.458  19.981  25.511  1.00  0.00     0.006 A 
ENDBRANCH  53  67
BRANCH  54  75
ATOM     75  C   UNL A   1      41.934  30.183  32.635  1.00  0.00     0.057 A 
ATOM     76  C   UNL A   1      42.009  31.587  32.679  1.00  0.00     0.134 A 
ATOM     77  C   UNL A   1      40.669  29.608  32.775  1.00  0.00     0.134 A 
ATOM     78  F   UNL A   1      43.196  32.202  32.545  1.00  0.00    -0.206 F 
ATOM     79  C   UNL A   1      40.865  32.385  32.733  1.00  0.00     0.040 A 
ATOM     80  C   UNL A   1      39.515  30.399  32.843  1.00  0.00     0.040 A 
ATOM     81  F   UNL A   1      40.513  28.276  32.720  1.00  0.00    -0.206 F 
ATOM     82  C   UNL A   1      39.610  31.789  32.779  1.00  0.00     0.006 A 
ENDBRANCH  54  75
BRANCH  66  83
ATOM     83  C   UNL A   1      45.162  23.735  33.332  1.00  0.00     0.057 A 
ATOM     84  C   UNL A   1      46.445  23.559  33.870  1.00  0.00     0.134 A 
ATOM     85  C   UNL A   1      44.195  22.807  33.793  1.00  0.00     0.134 A 
ATOM     86  F   UNL A   1      47.438  24.420  33.616  1.00  0.00    -0.206 F 
ATOM     87  C   UNL A   1      46.757  22.514  34.753  1.00  0.00     0.040 A 
ATOM     88  C   UNL A   1      44.481  21.797  34.716  1.00  0.00     0.040 A 
ATOM     89  F   UNL A   1      42.918  22.854  33.386  1.00  0.00    -0.206 F 
ATOM     90  C   UNL A   1      45.772  21.639  35.191  1.00  0.00     0.006 A 
ENDBRANCH  66  83
ENDBRANCH  40  41
ENDBRANCH  32  35
ENDBRANCH  30  31
ENDBRANCH  29  30
ENDBRANCH  28  29
ENDBRANCH   1  28
TORSDOF 16
ENDMDL
MODEL 3
REMARK VINA RESULT:     -11.9      3.618      8.811
REMARK SMILES COc1cc(S(=O)(=O)Nc2cccc(C(=O)NCCCCNC(=O)c3ccc(-c4c5nc(c(-c6c(F)cccc6F)c6ccc([nH]6)c(-c6c(F)cccc6F)c6nc(c(-c7c(F)cccc7F)c7ccc4[nH]7)C=C6)C=C5)cc3)c2)c(OC)cc1C
REMARK SMILES IDX 18 1 17 2 15 3 16 4 14 6 10 7 11 8 79 9 12 10 13 11 9 12
REMARK SMILES IDX 6 14 7 15 8 16 5 17 3 18 4 19 84 20 83 21 85 22 80 23 2 24
REMARK SMILES IDX 1 25 81 26 82 27 19 28 20 29 21 30 22 31 23 32 24 34 25 35
REMARK SMILES IDX 26 36 78 37 27 38 77 39 28 40 29 41 30 42 71 43 31 44 76 45
REMARK SMILES IDX 70 46 72 47 32 48 75 49 69 50 68 51 33 53 59 54 42 55 58 56
REMARK SMILES IDX 43 57 46 58 57 59 73 60 44 61 45 62 56 64 74 65 47 66 34 67
REMARK SMILES IDX 35 68 40 69 36 70 37 71 39 72 41 73 38 74 60 75 61 76 66 77
REMARK SMILES IDX 62 78 63 79 65 80 67 81 64 82 48 83 49 84 54 85 50 86 51 87
REMARK SMILES IDX 53 88 55 89 52 90
REMARK H PARENT 17 5 9 13 22 33 72 52 46 63
REMARK Flexibility Score: inf
ROOT
ATOM      1  C   UNL A   1      32.273  29.428  24.430  1.00  0.00     0.116 C 
ENDROOT
BRANCH   1   2
ATOM      2  N   UNL A   1      31.205  29.491  23.447  1.00  0.00    -0.352 N 
ATOM      3  C   UNL A   1      30.701  28.571  22.566  1.00  0.00     0.251 C 
ATOM      4  O   UNL A   1      29.736  28.902  21.879  1.00  0.00    -0.269 OA
ATOM      5  H   UNL A   1      30.755  30.366  23.408  1.00  0.00     0.163 HD
BRANCH   3   6
ATOM      6  C   UNL A   1      31.203  27.177  22.474  1.00  0.00     0.041 A 
ATOM      7  C   UNL A   1      30.966  24.903  23.307  1.00  0.00     0.050 A 
ATOM      8  C   UNL A   1      32.071  24.509  22.559  1.00  0.00     0.027 A 
ATOM      9  C   UNL A   1      30.494  26.216  23.203  1.00  0.00     0.040 A 
ATOM     10  C   UNL A   1      32.749  25.448  21.778  1.00  0.00     0.003 A 
ATOM     11  C   UNL A   1      32.321  26.778  21.743  1.00  0.00     0.014 A 
BRANCH   7  12
ATOM     12  N   UNL A   1      30.294  24.070  24.238  1.00  0.00    -0.279 N 
ATOM     13  H   UNL A   1      29.408  23.725  23.981  1.00  0.00     0.180 HD
BRANCH  12  14
ATOM     14  S   UNL A   1      30.885  23.627  25.734  1.00  0.00     0.265 S 
ATOM     15  O   UNL A   1      30.653  22.215  25.904  1.00  0.00    -0.201 OA
ATOM     16  O   UNL A   1      30.290  24.584  26.663  1.00  0.00    -0.201 OA
BRANCH  14  17
ATOM     17  C   UNL A   1      32.645  23.868  25.858  1.00  0.00     0.133 A 
ATOM     18  C   UNL A   1      34.758  22.678  26.018  1.00  0.00     0.123 A 
ATOM     19  C   UNL A   1      33.367  22.676  26.049  1.00  0.00     0.073 A 
ATOM     20  C   UNL A   1      35.447  23.830  25.648  1.00  0.00    -0.005 A 
ATOM     21  C   UNL A   1      34.727  25.030  25.549  1.00  0.00     0.055 A 
ATOM     22  C   UNL A   1      36.926  23.841  25.397  1.00  0.00     0.048 C 
ATOM     23  C   UNL A   1      33.333  25.076  25.720  1.00  0.00     0.139 A 
BRANCH  18  24
ATOM     24  O   UNL A   1      35.394  21.504  26.317  1.00  0.00    -0.496 OA
ATOM     25  C   UNL A   1      35.411  20.637  25.178  1.00  0.00     0.278 C 
ENDBRANCH  18  24
BRANCH  23  26
ATOM     26  O   UNL A   1      32.652  26.252  25.815  1.00  0.00    -0.495 OA
ATOM     27  C   UNL A   1      32.484  26.830  27.106  1.00  0.00     0.278 C 
ENDBRANCH  23  26
ENDBRANCH  14  17
ENDBRANCH  12  14
ENDBRANCH   7  12
ENDBRANCH   3   6
ENDBRANCH   1   2
BRANCH   1  28
ATOM     28  C   UNL A   1      31.795  29.849  25.826  1.00  0.00     0.023 C 
BRANCH  28  29
ATOM     29  C   UNL A   1      32.648  30.928  26.495  1.00  0.00     0.023 C 
BRANCH  29  30
ATOM     30  C   UNL A   1      33.453  30.426  27.681  1.00  0.00     0.116 C 
BRANCH  30  31
ATOM     31  N   UNL A   1      34.211  31.462  28.371  1.00  0.00    -0.352 N 
ATOM     32  C   UNL A   1      35.456  31.402  28.973  1.00  0.00     0.251 C 
ATOM     33  H   UNL A   1      33.769  32.341  28.416  1.00  0.00     0.163 HD
ATOM     34  O   UNL A   1      35.897  32.390  29.552  1.00  0.00    -0.269 OA
BRANCH  32  35
ATOM     35  C   UNL A   1      36.323  30.210  28.782  1.00  0.00     0.039 A 
ATOM     36  C   UNL A   1      36.522  29.367  29.884  1.00  0.00     0.014 A 
ATOM     37  C   UNL A   1      37.112  30.060  27.649  1.00  0.00     0.014 A 
ATOM     38  C   UNL A   1      37.681  28.599  29.958  1.00  0.00     0.010 A 
ATOM     39  C   UNL A   1      38.318  29.404  27.767  1.00  0.00     0.010 A 
ATOM     40  C   UNL A   1      38.633  28.737  28.952  1.00  0.00    -0.014 A 
BRANCH  40  41
ATOM     41  C   UNL A   1      40.031  28.364  29.114  1.00  0.00     0.031 A 
ATOM     42  C   UNL A   1      40.544  27.093  28.569  1.00  0.00     0.074 A 
ATOM     43  C   UNL A   1      40.887  29.266  29.646  1.00  0.00     0.049 A 
ATOM     44  N   UNL A   1      41.617  26.514  28.988  1.00  0.00    -0.248 NA
ATOM     45  C   UNL A   1      39.866  26.353  27.511  1.00  0.00     0.031 C 
ATOM     46  C   UNL A   1      42.346  29.245  29.598  1.00  0.00     0.029 A 
ATOM     47  N   UNL A   1      40.584  30.321  30.518  1.00  0.00    -0.354 N 
ATOM     48  C   UNL A   1      41.922  25.509  28.101  1.00  0.00     0.074 A 
ATOM     49  C   UNL A   1      40.773  25.412  27.230  1.00  0.00     0.031 C 
ATOM     50  C   UNL A   1      42.825  30.025  30.580  1.00  0.00     0.029 A 
ATOM     51  C   UNL A   1      41.691  30.451  31.381  1.00  0.00     0.049 A 
ATOM     52  H   UNL A   1      39.763  30.863  30.525  1.00  0.00     0.167 HD
ATOM     53  C   UNL A   1      43.171  24.963  28.111  1.00  0.00     0.037 A 
ATOM     54  C   UNL A   1      41.570  30.245  32.725  1.00  0.00     0.037 A 
ATOM     55  C   UNL A   1      44.001  25.556  29.154  1.00  0.00     0.049 A 
ATOM     56  C   UNL A   1      42.432  29.122  33.252  1.00  0.00     0.074 A 
ATOM     57  C   UNL A   1      44.936  26.578  29.133  1.00  0.00     0.029 A 
ATOM     58  N   UNL A   1      43.693  25.333  30.491  1.00  0.00    -0.354 N 
ATOM     59  N   UNL A   1      42.940  28.185  32.501  1.00  0.00    -0.248 NA
ATOM     60  C   UNL A   1      42.776  28.952  34.661  1.00  0.00     0.031 C 
ATOM     61  C   UNL A   1      45.161  26.999  30.464  1.00  0.00     0.029 A 
ATOM     62  C   UNL A   1      44.376  26.223  31.297  1.00  0.00     0.049 A 
ATOM     63  H   UNL A   1      43.075  24.638  30.817  1.00  0.00     0.167 HD
ATOM     64  C   UNL A   1      43.634  27.294  33.281  1.00  0.00     0.074 A 
ATOM     65  C   UNL A   1      43.520  27.832  34.623  1.00  0.00     0.031 C 
ATOM     66  C   UNL A   1      44.230  26.187  32.745  1.00  0.00     0.037 A 
BRANCH  53  67
ATOM     67  C   UNL A   1      43.710  24.119  26.983  1.00  0.00     0.057 A 
ATOM     68  C   UNL A   1      44.415  24.699  25.910  1.00  0.00     0.134 A 
ATOM     69  C   UNL A   1      43.526  22.729  26.876  1.00  0.00     0.134 A 
ATOM     70  F   UNL A   1      44.760  25.993  25.908  1.00  0.00    -0.206 F 
ATOM     71  C   UNL A   1      44.799  23.979  24.772  1.00  0.00     0.040 A 
ATOM     72  C   UNL A   1      43.857  22.005  25.721  1.00  0.00     0.040 A 
ATOM     73  F   UNL A   1      43.054  22.010  27.903  1.00  0.00    -0.206 F 
ATOM     74  C   UNL A   1      44.485  22.635  24.655  1.00  0.00     0.006 A 
ENDBRANCH  53  67
BRANCH  54  75
ATOM     75  C   UNL A   1      40.228  30.616  33.250  1.00  0.00     0.057 A 
ATOM     76  C   UNL A   1      39.943  31.978  33.455  1.00  0.00     0.134 A 
ATOM     77  C   UNL A   1      39.141  29.743  33.167  1.00  0.00     0.134 A 
ATOM     78  F   UNL A   1      40.945  32.870  33.538  1.00  0.00    -0.206 F 
ATOM     79  C   UNL A   1      38.635  32.467  33.450  1.00  0.00     0.040 A 
ATOM     80  C   UNL A   1      37.824  30.221  33.174  1.00  0.00     0.040 A 
ATOM     81  F   UNL A   1      39.331  28.433  32.949  1.00  0.00    -0.206 F 
ATOM     82  C   UNL A   1      37.572  31.589  33.274  1.00  0.00     0.006 A 
ENDBRANCH  54  75
BRANCH  66  83
ATOM     83  C   UNL A   1      44.814  25.013  33.499  1.00  0.00     0.057 A 
ATOM     84  C   UNL A   1      46.183  24.718  33.574  1.00  0.00     0.134 A 
ATOM     85  C   UNL A   1      43.989  24.208  34.322  1.00  0.00     0.134 A 
ATOM     86  F   UNL A   1      47.099  25.460  32.940  1.00  0.00    -0.206 F 
ATOM     87  C   UNL A   1      46.687  23.673  34.363  1.00  0.00     0.040 A 
ATOM     88  C   UNL A   1      44.486  23.202  35.155  1.00  0.00     0.040 A 
ATOM     89  F   UNL A   1      42.660  24.380  34.375  1.00  0.00    -0.206 F 
ATOM     90  C   UNL A   1      45.841  22.921  35.169  1.00  0.00     0.006 A 
ENDBRANCH  66  83
ENDBRANCH  40  41
ENDBRANCH  32  35
ENDBRANCH  30  31
ENDBRANCH  29  30
ENDBRANCH  28  29
ENDBRANCH   1  28
TORSDOF 16
ENDMDL
