MODEL 1
REMARK VINA RESULT:     -11.9      0.000      0.000
REMARK SMILES Cc1cc(Oc2ccnc(C(=O)NCCCCNC(=O)c3ccc(-c4c5nc(c(-c6c(F)cccc6F)c6ccc([nH]6)c(-c6c(F)cccc6F)c6nc(c(-c7c(F)cccc7F)c7ccc4[nH]7)C=C6)C=C5)cc3)c2)cc(C)c1Cl
REMARK SMILES IDX 15 1 14 2 13 3 11 4 12 5 10 7 6 8 7 9 75 10 8 11 9 12 5 13
REMARK SMILES IDX 4 14 1 15 2 16 3 17 79 18 77 19 80 20 76 21 78 22 16 23
REMARK SMILES IDX 17 24 18 25 19 26 20 28 21 29 22 30 74 31 23 32 73 33 24 34
REMARK SMILES IDX 25 35 26 36 67 37 27 38 72 39 66 40 68 41 28 42 71 43 65 44
REMARK SMILES IDX 64 45 29 47 55 48 38 49 54 50 39 51 42 52 53 53 69 54 40 55
REMARK SMILES IDX 41 56 52 58 70 59 43 60 30 61 31 62 36 63 32 64 33 65 35 66
REMARK SMILES IDX 37 67 34 68 56 69 57 70 62 71 58 72 59 73 61 74 63 75 60 76
REMARK SMILES IDX 44 77 45 78 50 79 46 80 47 81 49 82 51 83 48 84
REMARK H PARENT 13 6 18 27 68 46 42 57
REMARK Flexibility Score: inf
ROOT
ATOM      1  C   UNL A   1      33.284  29.359  24.793  1.00  0.00     0.023 C 
ENDROOT
BRANCH   1   2
ATOM      2  C   UNL A   1      33.374  28.964  23.318  1.00  0.00     0.116 C 
BRANCH   2   3
ATOM      3  N   UNL A   1      32.074  29.060  22.686  1.00  0.00    -0.351 N 
ATOM      4  C   UNL A   1      30.977  28.230  22.644  1.00  0.00     0.270 C 
ATOM      5  O   UNL A   1      30.026  28.645  21.974  1.00  0.00    -0.268 OA
ATOM      6  H   UNL A   1      31.950  29.895  22.180  1.00  0.00     0.163 HD
BRANCH   4   7
ATOM      7  C   UNL A   1      30.859  26.913  23.371  1.00  0.00     0.131 A 
ATOM      8  C   UNL A   1      30.986  24.546  23.619  1.00  0.00     0.131 A 
ATOM      9  C   UNL A   1      30.698  24.663  24.971  1.00  0.00     0.067 A 
ATOM     10  C   UNL A   1      31.050  25.668  22.796  1.00  0.00     0.081 A 
ATOM     11  C   UNL A   1      30.452  25.931  25.450  1.00  0.00     0.116 A 
ATOM     12  N   UNL A   1      30.537  27.043  24.689  1.00  0.00    -0.251 NA
BRANCH   8  13
ATOM     13  O   UNL A   1      31.339  23.327  23.098  1.00  0.00    -0.457 OA
BRANCH  13  14
ATOM     14  C   UNL A   1      32.501  22.731  23.538  1.00  0.00     0.128 A 
ATOM     15  C   UNL A   1      36.278  23.109  23.630  1.00  0.00     0.046 C 
ATOM     16  C   UNL A   1      34.905  22.531  23.848  1.00  0.00    -0.028 A 
ATOM     17  C   UNL A   1      33.788  23.247  23.384  1.00  0.00     0.052 A 
ATOM     18  C   UNL A   1      34.711  21.286  24.479  1.00  0.00     0.047 A 
ATOM     19  C   UNL A   1      33.416  20.764  24.654  1.00  0.00    -0.028 A 
ATOM     20  Cl  UNL A   1      36.084  20.381  25.035  1.00  0.00    -0.084 Cl
ATOM     21  C   UNL A   1      32.322  21.497  24.167  1.00  0.00     0.052 A 
ATOM     22  C   UNL A   1      33.167  19.440  25.323  1.00  0.00     0.046 C 
ENDBRANCH  13  14
ENDBRANCH   8  13
ENDBRANCH   4   7
ENDBRANCH   2   3
ENDBRANCH   1   2
BRANCH   1  23
ATOM     23  C   UNL A   1      33.914  28.340  25.754  1.00  0.00     0.023 C 
BRANCH  23  24
ATOM     24  C   UNL A   1      33.575  28.545  27.229  1.00  0.00     0.116 C 
BRANCH  24  25
ATOM     25  N   UNL A   1      33.529  29.945  27.625  1.00  0.00    -0.352 N 
ATOM     26  C   UNL A   1      34.530  30.708  28.179  1.00  0.00     0.251 C 
ATOM     27  H   UNL A   1      32.670  30.403  27.479  1.00  0.00     0.163 HD
ATOM     28  O   UNL A   1      34.314  31.855  28.542  1.00  0.00    -0.269 OA
BRANCH  26  29
ATOM     29  C   UNL A   1      35.863  30.102  28.373  1.00  0.00     0.039 A 
ATOM     30  C   UNL A   1      36.778  30.141  27.318  1.00  0.00     0.014 A 
ATOM     31  C   UNL A   1      36.219  29.547  29.603  1.00  0.00     0.014 A 
ATOM     32  C   UNL A   1      38.082  29.689  27.522  1.00  0.00     0.010 A 
ATOM     33  C   UNL A   1      37.535  29.153  29.823  1.00  0.00     0.010 A 
ATOM     34  C   UNL A   1      38.479  29.229  28.788  1.00  0.00    -0.014 A 
BRANCH  34  35
ATOM     35  C   UNL A   1      39.882  28.830  29.060  1.00  0.00     0.031 A 
ATOM     36  C   UNL A   1      40.827  29.804  29.700  1.00  0.00     0.074 A 
ATOM     37  C   UNL A   1      40.321  27.624  28.654  1.00  0.00     0.049 A 
ATOM     38  N   UNL A   1      42.111  29.687  29.920  1.00  0.00    -0.248 NA
ATOM     39  C   UNL A   1      40.258  31.093  30.125  1.00  0.00     0.031 C 
ATOM     40  C   UNL A   1      39.508  26.606  27.985  1.00  0.00     0.029 A 
ATOM     41  N   UNL A   1      41.566  27.055  28.733  1.00  0.00    -0.354 N 
ATOM     42  C   UNL A   1      42.507  30.890  30.488  1.00  0.00     0.074 A 
ATOM     43  C   UNL A   1      41.337  31.740  30.538  1.00  0.00     0.031 C 
ATOM     44  C   UNL A   1      40.272  25.531  27.731  1.00  0.00     0.029 A 
ATOM     45  C   UNL A   1      41.634  25.797  28.184  1.00  0.00     0.049 A 
ATOM     46  H   UNL A   1      42.340  27.506  29.144  1.00  0.00     0.167 HD
ATOM     47  C   UNL A   1      43.730  31.246  30.946  1.00  0.00     0.037 A 
ATOM     48  C   UNL A   1      42.679  24.958  28.056  1.00  0.00     0.037 A 
ATOM     49  C   UNL A   1      44.885  30.389  30.922  1.00  0.00     0.049 A 
ATOM     50  C   UNL A   1      44.027  25.379  28.568  1.00  0.00     0.074 A 
ATOM     51  C   UNL A   1      46.155  30.638  31.411  1.00  0.00     0.029 A 
ATOM     52  N   UNL A   1      44.907  29.114  30.378  1.00  0.00    -0.354 N 
ATOM     53  N   UNL A   1      44.376  26.499  29.152  1.00  0.00    -0.248 NA
ATOM     54  C   UNL A   1      45.128  24.418  28.404  1.00  0.00     0.031 C 
ATOM     55  C   UNL A   1      46.955  29.523  31.135  1.00  0.00     0.029 A 
ATOM     56  C   UNL A   1      46.173  28.568  30.507  1.00  0.00     0.049 A 
ATOM     57  H   UNL A   1      44.137  28.664  29.961  1.00  0.00     0.167 HD
ATOM     58  C   UNL A   1      45.726  26.368  29.451  1.00  0.00     0.074 A 
ATOM     59  C   UNL A   1      46.131  25.056  28.991  1.00  0.00     0.031 C 
ATOM     60  C   UNL A   1      46.554  27.254  30.055  1.00  0.00     0.037 A 
BRANCH  47  61
ATOM     61  C   UNL A   1      43.873  32.625  31.519  1.00  0.00     0.057 A 
ATOM     62  C   UNL A   1      43.663  32.883  32.880  1.00  0.00     0.134 A 
ATOM     63  C   UNL A   1      44.241  33.705  30.706  1.00  0.00     0.134 A 
ATOM     64  F   UNL A   1      43.294  31.895  33.709  1.00  0.00    -0.206 F 
ATOM     65  C   UNL A   1      43.785  34.169  33.407  1.00  0.00     0.040 A 
ATOM     66  C   UNL A   1      44.391  34.991  31.226  1.00  0.00     0.040 A 
ATOM     67  F   UNL A   1      44.462  33.527  29.395  1.00  0.00    -0.206 F 
ATOM     68  C   UNL A   1      44.156  35.227  32.579  1.00  0.00     0.006 A 
ENDBRANCH  47  61
BRANCH  48  69
ATOM     69  C   UNL A   1      42.486  23.623  27.440  1.00  0.00     0.057 A 
ATOM     70  C   UNL A   1      42.657  23.438  26.062  1.00  0.00     0.134 A 
ATOM     71  C   UNL A   1      42.127  22.506  28.201  1.00  0.00     0.134 A 
ATOM     72  F   UNL A   1      42.983  24.477  25.279  1.00  0.00    -0.206 F 
ATOM     73  C   UNL A   1      42.462  22.195  25.461  1.00  0.00     0.040 A 
ATOM     74  C   UNL A   1      41.949  21.250  27.617  1.00  0.00     0.040 A 
ATOM     75  F   UNL A   1      41.955  22.616  29.526  1.00  0.00    -0.206 F 
ATOM     76  C   UNL A   1      42.111  21.094  26.241  1.00  0.00     0.006 A 
ENDBRANCH  48  69
BRANCH  60  77
ATOM     77  C   UNL A   1      47.969  26.820  30.289  1.00  0.00     0.057 A 
ATOM     78  C   UNL A   1      48.341  26.103  31.433  1.00  0.00     0.134 A 
ATOM     79  C   UNL A   1      48.960  27.079  29.334  1.00  0.00     0.134 A 
ATOM     80  F   UNL A   1      47.440  25.836  32.390  1.00  0.00    -0.206 F 
ATOM     81  C   UNL A   1      49.655  25.672  31.625  1.00  0.00     0.040 A 
ATOM     82  C   UNL A   1      50.270  26.635  29.504  1.00  0.00     0.040 A 
ATOM     83  F   UNL A   1      48.665  27.756  28.213  1.00  0.00    -0.206 F 
ATOM     84  C   UNL A   1      50.621  25.931  30.655  1.00  0.00     0.006 A 
ENDBRANCH  60  77
ENDBRANCH  34  35
ENDBRANCH  26  29
ENDBRANCH  24  25
ENDBRANCH  23  24
ENDBRANCH   1  23
TORSDOF 13
ENDMDL
MODEL 2
REMARK VINA RESULT:     -11.7      3.174      7.947
REMARK SMILES Cc1cc(Oc2ccnc(C(=O)NCCCCNC(=O)c3ccc(-c4c5nc(c(-c6c(F)cccc6F)c6ccc([nH]6)c(-c6c(F)cccc6F)c6nc(c(-c7c(F)cccc7F)c7ccc4[nH]7)C=C6)C=C5)cc3)c2)cc(C)c1Cl
REMARK SMILES IDX 15 1 14 2 13 3 11 4 12 5 10 7 6 8 7 9 75 10 8 11 9 12 5 13
REMARK SMILES IDX 4 14 1 15 2 16 3 17 79 18 77 19 80 20 76 21 78 22 16 23
REMARK SMILES IDX 17 24 18 25 19 26 20 28 21 29 22 30 74 31 23 32 73 33 24 34
REMARK SMILES IDX 25 35 26 36 67 37 27 38 72 39 66 40 68 41 28 42 71 43 65 44
REMARK SMILES IDX 64 45 29 47 55 48 38 49 54 50 39 51 42 52 53 53 69 54 40 55
REMARK SMILES IDX 41 56 52 58 70 59 43 60 30 61 31 62 36 63 32 64 33 65 35 66
REMARK SMILES IDX 37 67 34 68 56 69 57 70 62 71 58 72 59 73 61 74 63 75 60 76
REMARK SMILES IDX 44 77 45 78 50 79 46 80 47 81 49 82 51 83 48 84
REMARK H PARENT 13 6 18 27 68 46 42 57
REMARK Flexibility Score: inf
ROOT
ATOM      1  C   UNL A   1      37.224  21.008  24.406  1.00  0.00     0.023 C 
ENDROOT
BRANCH   1   2
ATOM      2  C   UNL A   1      37.065  22.181  25.376  1.00  0.00     0.116 C 
BRANCH   2   3
ATOM      3  N   UNL A   1      36.073  21.872  26.386  1.00  0.00    -0.351 N 
ATOM      4  C   UNL A   1      34.708  21.698  26.353  1.00  0.00     0.270 C 
ATOM      5  O   UNL A   1      34.180  21.456  27.442  1.00  0.00    -0.268 OA
ATOM      6  H   UNL A   1      36.457  21.766  27.286  1.00  0.00     0.163 HD
BRANCH   4   7
ATOM      7  C   UNL A   1      33.860  21.745  25.105  1.00  0.00     0.131 A 
ATOM      8  C   UNL A   1      32.940  22.722  23.136  1.00  0.00     0.131 A 
ATOM      9  C   UNL A   1      32.341  21.516  22.806  1.00  0.00     0.067 A 
ATOM     10  C   UNL A   1      33.692  22.859  24.301  1.00  0.00     0.081 A 
ATOM     11  C   UNL A   1      32.499  20.476  23.695  1.00  0.00     0.116 A 
ATOM     12  N   UNL A   1      33.245  20.563  24.816  1.00  0.00    -0.251 NA
BRANCH   8  13
ATOM     13  O   UNL A   1      32.907  23.768  22.248  1.00  0.00    -0.457 OA
BRANCH  13  14
ATOM     14  C   UNL A   1      32.386  24.973  22.665  1.00  0.00     0.128 A 
ATOM     15  C   UNL A   1      29.216  26.669  23.885  1.00  0.00     0.046 C 
ATOM     16  C   UNL A   1      30.648  26.475  23.464  1.00  0.00    -0.028 A 
ATOM     17  C   UNL A   1      31.075  25.190  23.091  1.00  0.00     0.052 A 
ATOM     18  C   UNL A   1      31.563  27.546  23.412  1.00  0.00     0.047 A 
ATOM     19  C   UNL A   1      32.892  27.336  23.000  1.00  0.00    -0.028 A 
ATOM     20  Cl  UNL A   1      31.041  29.143  23.849  1.00  0.00    -0.084 Cl
ATOM     21  C   UNL A   1      33.284  26.043  22.620  1.00  0.00     0.052 A 
ATOM     22  C   UNL A   1      33.897  28.452  22.931  1.00  0.00     0.046 C 
ENDBRANCH  13  14
ENDBRANCH   8  13
ENDBRANCH   4   7
ENDBRANCH   2   3
ENDBRANCH   1   2
BRANCH   1  23
ATOM     23  C   UNL A   1      37.967  19.802  24.997  1.00  0.00     0.023 C 
BRANCH  23  24
ATOM     24  C   UNL A   1      39.192  20.146  25.841  1.00  0.00     0.116 C 
BRANCH  24  25
ATOM     25  N   UNL A   1      40.195  19.092  25.868  1.00  0.00    -0.352 N 
ATOM     26  C   UNL A   1      41.545  19.206  26.100  1.00  0.00     0.251 C 
ATOM     27  H   UNL A   1      39.863  18.181  25.696  1.00  0.00     0.163 HD
ATOM     28  O   UNL A   1      42.280  18.233  26.003  1.00  0.00    -0.269 OA
BRANCH  26  29
ATOM     29  C   UNL A   1      42.104  20.535  26.421  1.00  0.00     0.039 A 
ATOM     30  C   UNL A   1      42.541  21.350  25.374  1.00  0.00     0.014 A 
ATOM     31  C   UNL A   1      42.148  20.987  27.741  1.00  0.00     0.014 A 
ATOM     32  C   UNL A   1      42.953  22.655  25.646  1.00  0.00     0.010 A 
ATOM     33  C   UNL A   1      42.502  22.306  28.003  1.00  0.00     0.010 A 
ATOM     34  C   UNL A   1      42.899  23.154  26.957  1.00  0.00    -0.014 A 
BRANCH  34  35
ATOM     35  C   UNL A   1      43.241  24.564  27.263  1.00  0.00     0.031 A 
ATOM     36  C   UNL A   1      44.673  25.013  27.226  1.00  0.00     0.074 A 
ATOM     37  C   UNL A   1      42.273  25.414  27.654  1.00  0.00     0.049 A 
ATOM     38  N   UNL A   1      45.187  26.166  27.565  1.00  0.00    -0.248 NA
ATOM     39  C   UNL A   1      45.663  24.021  26.773  1.00  0.00     0.031 C 
ATOM     40  C   UNL A   1      40.851  25.086  27.768  1.00  0.00     0.029 A 
ATOM     41  N   UNL A   1      42.343  26.728  28.042  1.00  0.00    -0.354 N 
ATOM     42  C   UNL A   1      46.557  26.035  27.387  1.00  0.00     0.074 A 
ATOM     43  C   UNL A   1      46.800  24.676  26.953  1.00  0.00     0.031 C 
ATOM     44  C   UNL A   1      40.181  26.174  28.180  1.00  0.00     0.029 A 
ATOM     45  C   UNL A   1      41.128  27.264  28.394  1.00  0.00     0.049 A 
ATOM     46  H   UNL A   1      43.185  27.239  28.066  1.00  0.00     0.167 HD
ATOM     47  C   UNL A   1      47.524  26.968  27.549  1.00  0.00     0.037 A 
ATOM     48  C   UNL A   1      40.816  28.493  28.846  1.00  0.00     0.037 A 
ATOM     49  C   UNL A   1      47.278  28.327  27.953  1.00  0.00     0.049 A 
ATOM     50  C   UNL A   1      41.909  29.510  29.023  1.00  0.00     0.074 A 
ATOM     51  C   UNL A   1      48.184  29.363  28.094  1.00  0.00     0.029 A 
ATOM     52  N   UNL A   1      46.030  28.837  28.279  1.00  0.00    -0.354 N 
ATOM     53  N   UNL A   1      43.194  29.389  28.799  1.00  0.00    -0.248 NA
ATOM     54  C   UNL A   1      41.506  30.836  29.514  1.00  0.00     0.031 C 
ATOM     55  C   UNL A   1      47.488  30.494  28.536  1.00  0.00     0.029 A 
ATOM     56  C   UNL A   1      46.144  30.170  28.634  1.00  0.00     0.049 A 
ATOM     57  H   UNL A   1      45.189  28.327  28.261  1.00  0.00     0.167 HD
ATOM     58  C   UNL A   1      43.750  30.627  29.094  1.00  0.00     0.074 A 
ATOM     59  C   UNL A   1      42.661  31.488  29.505  1.00  0.00     0.031 C 
ATOM     60  C   UNL A   1      45.046  31.016  29.027  1.00  0.00     0.037 A 
BRANCH  47  61
ATOM     61  C   UNL A   1      48.939  26.545  27.282  1.00  0.00     0.057 A 
ATOM     62  C   UNL A   1      49.529  26.705  26.022  1.00  0.00     0.134 A 
ATOM     63  C   UNL A   1      49.725  25.989  28.299  1.00  0.00     0.134 A 
ATOM     64  F   UNL A   1      48.825  27.218  25.002  1.00  0.00    -0.206 F 
ATOM     65  C   UNL A   1      50.841  26.298  25.774  1.00  0.00     0.040 A 
ATOM     66  C   UNL A   1      51.046  25.602  28.069  1.00  0.00     0.040 A 
ATOM     67  F   UNL A   1      49.223  25.813  29.530  1.00  0.00    -0.206 F 
ATOM     68  C   UNL A   1      51.605  25.750  26.802  1.00  0.00     0.006 A 
ENDBRANCH  47  61
BRANCH  48  69
ATOM     69  C   UNL A   1      39.404  28.841  29.137  1.00  0.00     0.057 A 
ATOM     70  C   UNL A   1      38.586  29.401  28.148  1.00  0.00     0.134 A 
ATOM     71  C   UNL A   1      38.839  28.628  30.398  1.00  0.00     0.134 A 
ATOM     72  F   UNL A   1      39.079  29.645  26.924  1.00  0.00    -0.206 F 
ATOM     73  C   UNL A   1      37.261  29.752  28.407  1.00  0.00     0.040 A 
ATOM     74  C   UNL A   1      37.508  28.954  30.666  1.00  0.00     0.040 A 
ATOM     75  F   UNL A   1      39.568  28.088  31.385  1.00  0.00    -0.206 F 
ATOM     76  C   UNL A   1      36.717  29.524  29.670  1.00  0.00     0.006 A 
ENDBRANCH  48  69
BRANCH  60  77
ATOM     77  C   UNL A   1      45.352  32.443  29.368  1.00  0.00     0.057 A 
ATOM     78  C   UNL A   1      45.725  32.829  30.660  1.00  0.00     0.134 A 
ATOM     79  C   UNL A   1      45.320  33.433  28.377  1.00  0.00     0.134 A 
ATOM     80  F   UNL A   1      45.761  31.929  31.655  1.00  0.00    -0.206 F 
ATOM     81  C   UNL A   1      46.042  34.155  30.960  1.00  0.00     0.040 A 
ATOM     82  C   UNL A   1      45.655  34.757  28.659  1.00  0.00     0.040 A 
ATOM     83  F   UNL A   1      44.976  33.125  27.117  1.00  0.00    -0.206 F 
ATOM     84  C   UNL A   1      46.015  35.121  29.955  1.00  0.00     0.006 A 
ENDBRANCH  60  77
ENDBRANCH  34  35
ENDBRANCH  26  29
ENDBRANCH  24  25
ENDBRANCH  23  24
ENDBRANCH   1  23
TORSDOF 13
ENDMDL
MODEL 3
REMARK VINA RESULT:     -11.7      3.208      8.095
REMARK SMILES Cc1cc(Oc2ccnc(C(=O)NCCCCNC(=O)c3ccc(-c4c5nc(c(-c6c(F)cccc6F)c6ccc([nH]6)c(-c6c(F)cccc6F)c6nc(c(-c7c(F)cccc7F)c7ccc4[nH]7)C=C6)C=C5)cc3)c2)cc(C)c1Cl
REMARK SMILES IDX 15 1 14 2 13 3 11 4 12 5 10 7 6 8 7 9 75 10 8 11 9 12 5 13
REMARK SMILES IDX 4 14 1 15 2 16 3 17 79 18 77 19 80 20 76 21 78 22 16 23
REMARK SMILES IDX 17 24 18 25 19 26 20 28 21 29 22 30 74 31 23 32 73 33 24 34
REMARK SMILES IDX 25 35 26 36 67 37 27 38 72 39 66 40 68 41 28 42 71 43 65 44
REMARK SMILES IDX 64 45 29 47 55 48 38 49 54 50 39 51 42 52 53 53 69 54 40 55
REMARK SMILES IDX 41 56 52 58 70 59 43 60 30 61 31 62 36 63 32 64 33 65 35 66
REMARK SMILES IDX 37 67 34 68 56 69 57 70 62 71 58 72 59 73 61 74 63 75 60 76
REMARK SMILES IDX 44 77 45 78 50 79 46 80 47 81 49 82 51 83 48 84
REMARK H PARENT 13 6 18 27 68 46 42 57
REMARK Flexibility Score: inf
ROOT
ATOM      1  C   UNL A   1      36.519  20.561  25.017  1.00  0.00     0.023 C 
ENDROOT
BRANCH   1   2
ATOM      2  C   UNL A   1      36.605  21.890  25.770  1.00  0.00     0.116 C 
BRANCH   2   3
ATOM      3  N   UNL A   1      35.549  21.982  26.758  1.00  0.00    -0.351 N 
ATOM      4  C   UNL A   1      34.357  22.668  26.810  1.00  0.00     0.270 C 
ATOM      5  O   UNL A   1      33.704  22.515  27.847  1.00  0.00    -0.268 OA
ATOM      6  H   UNL A   1      35.721  21.440  27.561  1.00  0.00     0.163 HD
BRANCH   4   7
ATOM      7  C   UNL A   1      33.805  23.530  25.701  1.00  0.00     0.131 A 
ATOM      8  C   UNL A   1      33.584  25.507  24.388  1.00  0.00     0.131 A 
ATOM      9  C   UNL A   1      32.741  24.841  23.511  1.00  0.00     0.067 A 
ATOM     10  C   UNL A   1      34.111  24.866  25.507  1.00  0.00     0.081 A 
ATOM     11  C   UNL A   1      32.431  23.534  23.814  1.00  0.00     0.116 A 
ATOM     12  N   UNL A   1      32.947  22.873  24.871  1.00  0.00    -0.251 NA
BRANCH   8  13
ATOM     13  O   UNL A   1      34.013  26.776  24.093  1.00  0.00    -0.457 OA
BRANCH  13  14
ATOM     14  C   UNL A   1      33.267  27.846  24.536  1.00  0.00     0.128 A 
ATOM     15  C   UNL A   1      30.106  29.843  23.874  1.00  0.00     0.046 C 
ATOM     16  C   UNL A   1      31.396  29.401  24.511  1.00  0.00    -0.028 A 
ATOM     17  C   UNL A   1      32.053  28.271  23.994  1.00  0.00     0.052 A 
ATOM     18  C   UNL A   1      31.973  30.098  25.591  1.00  0.00     0.047 A 
ATOM     19  C   UNL A   1      33.188  29.668  26.156  1.00  0.00    -0.028 A 
ATOM     20  Cl  UNL A   1      31.183  31.508  26.225  1.00  0.00    -0.084 Cl
ATOM     21  C   UNL A   1      33.827  28.545  25.608  1.00  0.00     0.052 A 
ATOM     22  C   UNL A   1      33.836  30.384  27.310  1.00  0.00     0.046 C 
ENDBRANCH  13  14
ENDBRANCH   8  13
ENDBRANCH   4   7
ENDBRANCH   2   3
ENDBRANCH   1   2
BRANCH   1  23
ATOM     23  C   UNL A   1      37.884  19.945  24.678  1.00  0.00     0.023 C 
BRANCH  23  24
ATOM     24  C   UNL A   1      38.984  20.200  25.706  1.00  0.00     0.116 C 
BRANCH  24  25
ATOM     25  N   UNL A   1      39.954  19.119  25.800  1.00  0.00    -0.352 N 
ATOM     26  C   UNL A   1      41.290  19.198  26.116  1.00  0.00     0.251 C 
ATOM     27  H   UNL A   1      39.609  18.216  25.612  1.00  0.00     0.163 HD
ATOM     28  O   UNL A   1      42.003  18.206  26.070  1.00  0.00    -0.269 OA
BRANCH  26  29
ATOM     29  C   UNL A   1      41.863  20.513  26.466  1.00  0.00     0.039 A 
ATOM     30  C   UNL A   1      42.307  21.347  25.438  1.00  0.00     0.014 A 
ATOM     31  C   UNL A   1      41.914  20.935  27.796  1.00  0.00     0.014 A 
ATOM     32  C   UNL A   1      42.734  22.641  25.738  1.00  0.00     0.010 A 
ATOM     33  C   UNL A   1      42.282  22.244  28.088  1.00  0.00     0.010 A 
ATOM     34  C   UNL A   1      42.686  23.111  27.060  1.00  0.00    -0.014 A 
BRANCH  34  35
ATOM     35  C   UNL A   1      43.044  24.510  27.397  1.00  0.00     0.031 A 
ATOM     36  C   UNL A   1      44.484  24.935  27.402  1.00  0.00     0.074 A 
ATOM     37  C   UNL A   1      42.081  25.370  27.778  1.00  0.00     0.049 A 
ATOM     38  N   UNL A   1      45.008  26.075  27.772  1.00  0.00    -0.248 NA
ATOM     39  C   UNL A   1      45.468  23.935  26.957  1.00  0.00     0.031 C 
ATOM     40  C   UNL A   1      40.651  25.065  27.852  1.00  0.00     0.029 A 
ATOM     41  N   UNL A   1      42.162  26.676  28.189  1.00  0.00    -0.354 N 
ATOM     42  C   UNL A   1      46.380  25.923  27.625  1.00  0.00     0.074 A 
ATOM     43  C   UNL A   1      46.611  24.567  27.176  1.00  0.00     0.031 C 
ATOM     44  C   UNL A   1      39.989  26.157  28.265  1.00  0.00     0.029 A 
ATOM     45  C   UNL A   1      40.948  27.227  28.520  1.00  0.00     0.049 A 
ATOM     46  H   UNL A   1      43.012  27.172  28.242  1.00  0.00     0.167 HD
ATOM     47  C   UNL A   1      47.358  26.838  27.827  1.00  0.00     0.037 A 
ATOM     48  C   UNL A   1      40.646  28.454  28.983  1.00  0.00     0.037 A 
ATOM     49  C   UNL A   1      47.124  28.193  28.246  1.00  0.00     0.049 A 
ATOM     50  C   UNL A   1      41.750  29.450  29.204  1.00  0.00     0.074 A 
ATOM     51  C   UNL A   1      48.043  29.212  28.426  1.00  0.00     0.029 A 
ATOM     52  N   UNL A   1      45.877  28.720  28.550  1.00  0.00    -0.354 N 
ATOM     53  N   UNL A   1      43.038  29.310  29.010  1.00  0.00    -0.248 NA
ATOM     54  C   UNL A   1      41.357  30.774  29.706  1.00  0.00     0.031 C 
ATOM     55  C   UNL A   1      47.355  30.348  28.869  1.00  0.00     0.029 A 
ATOM     56  C   UNL A   1      46.004  30.045  28.929  1.00  0.00     0.049 A 
ATOM     57  H   UNL A   1      45.028  28.224  28.503  1.00  0.00     0.167 HD
ATOM     58  C   UNL A   1      43.607  30.534  29.338  1.00  0.00     0.074 A 
ATOM     59  C   UNL A   1      42.522  31.406  29.736  1.00  0.00     0.031 C 
ATOM     60  C   UNL A   1      44.911  30.902  29.309  1.00  0.00     0.037 A 
BRANCH  47  61
ATOM     61  C   UNL A   1      48.771  26.395  27.587  1.00  0.00     0.057 A 
ATOM     62  C   UNL A   1      49.565  25.876  28.618  1.00  0.00     0.134 A 
ATOM     63  C   UNL A   1      49.340  26.473  26.310  1.00  0.00     0.134 A 
ATOM     64  F   UNL A   1      49.084  25.790  29.868  1.00  0.00    -0.206 F 
ATOM     65  C   UNL A   1      50.883  25.478  28.395  1.00  0.00     0.040 A 
ATOM     66  C   UNL A   1      50.649  26.053  26.069  1.00  0.00     0.040 A 
ATOM     67  F   UNL A   1      48.634  26.955  25.277  1.00  0.00    -0.206 F 
ATOM     68  C   UNL A   1      51.427  25.560  27.114  1.00  0.00     0.006 A 
ENDBRANCH  47  61
BRANCH  48  69
ATOM     69  C   UNL A   1      39.233  28.821  29.245  1.00  0.00     0.057 A 
ATOM     70  C   UNL A   1      38.653  28.589  30.498  1.00  0.00     0.134 A 
ATOM     71  C   UNL A   1      38.429  29.404  28.261  1.00  0.00     0.134 A 
ATOM     72  F   UNL A   1      39.370  28.014  31.476  1.00  0.00    -0.206 F 
ATOM     73  C   UNL A   1      37.321  28.909  30.759  1.00  0.00     0.040 A 
ATOM     74  C   UNL A   1      37.100  29.750  28.512  1.00  0.00     0.040 A 
ATOM     75  F   UNL A   1      38.928  29.658  27.042  1.00  0.00    -0.206 F 
ATOM     76  C   UNL A   1      36.541  29.496  29.764  1.00  0.00     0.006 A 
ENDBRANCH  48  69
BRANCH  60  77
ATOM     77  C   UNL A   1      45.231  32.318  29.680  1.00  0.00     0.057 A 
ATOM     78  C   UNL A   1      45.203  33.352  28.736  1.00  0.00     0.134 A 
ATOM     79  C   UNL A   1      45.522  32.657  31.007  1.00  0.00     0.134 A 
ATOM     80  F   UNL A   1      44.945  33.089  27.446  1.00  0.00    -0.206 F 
ATOM     81  C   UNL A   1      45.469  34.674  29.099  1.00  0.00     0.040 A 
ATOM     82  C   UNL A   1      45.767  33.977  31.386  1.00  0.00     0.040 A 
ATOM     83  F   UNL A   1      45.557  31.712  31.960  1.00  0.00    -0.206 F 
ATOM     84  C   UNL A   1      45.744  34.989  30.428  1.00  0.00     0.006 A 
ENDBRANCH  60  77
ENDBRANCH  34  35
ENDBRANCH  26  29
ENDBRANCH  24  25
ENDBRANCH  23  24
ENDBRANCH   1  23
TORSDOF 13
ENDMDL
