MODEL 1
REMARK VINA RESULT:     -13.0      0.000      0.000
REMARK SMILES CCc1ccc(-c2cc(Cl)cc3c2O[C@H](C(F)(F)F)C(C(=O)NCCCCNC(=O)c2ccc(-c4c5nc(c(-c6c(F)cccc6F)c6ccc([nH]6)c(-c6c(F)cccc6F)c6nc(c(-c7c(F)cccc7F)c7ccc4[nH]7)C=C6)C=C5)cc2)=C3)cc1
REMARK SMILES IDX 25 1 24 2 23 3 21 4 22 5 20 7 7 8 8 9 13 10 9 11 12 12 14 13
REMARK SMILES IDX 10 14 11 15 85 16 15 17 6 18 3 19 4 20 87 21 5 22 86 23 2 24
REMARK SMILES IDX 1 25 16 26 17 27 18 28 19 29 26 30 27 31 28 32 29 33 30 35
REMARK SMILES IDX 31 36 32 37 84 38 33 39 83 40 34 41 35 42 36 43 77 44 37 45
REMARK SMILES IDX 82 46 76 47 78 48 38 49 81 50 75 51 74 52 39 54 65 55 48 56
REMARK SMILES IDX 64 57 49 58 52 59 63 60 79 61 50 62 51 63 62 65 80 66 53 67
REMARK SMILES IDX 40 68 41 69 46 70 42 71 43 72 45 73 47 74 44 75 66 76 67 77
REMARK SMILES IDX 72 78 68 79 69 80 71 81 73 82 70 83 54 84 55 85 60 86 56 87
REMARK SMILES IDX 57 88 59 89 61 90 58 91
REMARK H PARENT 23 6 28 34 78 53 52 64
REMARK Flexibility Score: inf
ROOT
ATOM      1  C   UNL A   1      31.536  30.390  26.527  1.00  0.00     0.023 C 
ENDROOT
BRANCH   1   2
ATOM      2  C   UNL A   1      32.874  29.716  26.194  1.00  0.00     0.116 C 
BRANCH   2   3
ATOM      3  N   UNL A   1      32.896  28.381  26.750  1.00  0.00    -0.352 N 
ATOM      4  C   UNL A   1      32.247  27.262  26.360  1.00  0.00     0.251 C 
ATOM      5  O   UNL A   1      32.008  26.413  27.214  1.00  0.00    -0.270 OA
ATOM      6  H   UNL A   1      33.475  28.270  27.538  1.00  0.00     0.163 HD
BRANCH   4   7
ATOM      7  C   UNL A   1      31.959  27.058  24.908  1.00  0.00     0.067 C 
ATOM      8  C   UNL A   1      32.990  23.125  24.627  1.00  0.00     0.026 A 
ATOM      9  C   UNL A   1      34.248  22.982  25.273  1.00  0.00     0.033 A 
ATOM     10  C   UNL A   1      32.582  24.443  24.345  1.00  0.00     0.135 A 
ATOM     11  C   UNL A   1      35.113  24.051  25.485  1.00  0.00     0.042 A 
ATOM     12  C   UNL A   1      33.528  25.496  24.457  1.00  0.00     0.019 A 
ATOM     13  O   UNL A   1      31.276  24.784  24.021  1.00  0.00    -0.475 OA
ATOM     14  Cl  UNL A   1      36.590  23.802  26.328  1.00  0.00    -0.084 Cl
ATOM     15  C   UNL A   1      34.790  25.304  25.009  1.00  0.00     0.032 A 
ATOM     16  C   UNL A   1      33.072  26.874  24.170  1.00  0.00     0.025 C 
ATOM     17  C   UNL A   1      30.823  26.087  24.602  1.00  0.00     0.314 C 
BRANCH   8  18
ATOM     18  C   UNL A   1      32.377  21.841  24.187  1.00  0.00    -0.015 A 
ATOM     19  C   UNL A   1      32.358  19.190  23.098  1.00  0.00    -0.048 A 
ATOM     20  C   UNL A   1      32.451  19.407  24.480  1.00  0.00     0.004 A 
ATOM     21  C   UNL A   1      32.141  20.306  22.283  1.00  0.00     0.004 A 
ATOM     22  C   UNL A   1      32.440  20.705  25.016  1.00  0.00     0.009 A 
ATOM     23  C   UNL A   1      32.142  21.612  22.820  1.00  0.00     0.009 A 
BRANCH  19  24
ATOM     24  C   UNL A   1      32.548  17.775  22.589  1.00  0.00     0.032 C 
ATOM     25  C   UNL A   1      33.781  17.005  23.047  1.00  0.00     0.009 C 
ENDBRANCH  19  24
ENDBRANCH   8  18
BRANCH  17  26
ATOM     26  C   UNL A   1      29.815  26.805  23.676  1.00  0.00     0.429 C 
ATOM     27  F   UNL A   1      28.589  26.236  23.693  1.00  0.00    -0.167 F 
ATOM     28  F   UNL A   1      29.671  28.108  24.022  1.00  0.00    -0.167 F 
ATOM     29  F   UNL A   1      30.219  26.806  22.377  1.00  0.00    -0.167 F 
ENDBRANCH  17  26
ENDBRANCH   4   7
ENDBRANCH   2   3
ENDBRANCH   1   2
BRANCH   1  30
ATOM     30  C   UNL A   1      31.549  31.926  26.504  1.00  0.00     0.023 C 
BRANCH  30  31
ATOM     31  C   UNL A   1      32.706  32.571  27.259  1.00  0.00     0.116 C 
BRANCH  31  32
ATOM     32  N   UNL A   1      32.446  33.970  27.558  1.00  0.00    -0.352 N 
ATOM     33  C   UNL A   1      33.028  34.783  28.497  1.00  0.00     0.251 C 
ATOM     34  H   UNL A   1      31.752  34.396  27.005  1.00  0.00     0.163 HD
ATOM     35  O   UNL A   1      32.539  35.885  28.745  1.00  0.00    -0.269 OA
BRANCH  33  36
ATOM     36  C   UNL A   1      34.224  34.327  29.237  1.00  0.00     0.039 A 
ATOM     37  C   UNL A   1      34.053  33.703  30.476  1.00  0.00     0.014 A 
ATOM     38  C   UNL A   1      35.507  34.506  28.712  1.00  0.00     0.014 A 
ATOM     39  C   UNL A   1      35.161  33.185  31.148  1.00  0.00     0.010 A 
ATOM     40  C   UNL A   1      36.602  33.926  29.348  1.00  0.00     0.010 A 
ATOM     41  C   UNL A   1      36.440  33.248  30.567  1.00  0.00    -0.014 A 
BRANCH  41  42
ATOM     42  C   UNL A   1      37.601  32.567  31.195  1.00  0.00     0.031 A 
ATOM     43  C   UNL A   1      38.268  31.404  30.516  1.00  0.00     0.074 A 
ATOM     44  C   UNL A   1      38.012  32.957  32.418  1.00  0.00     0.049 A 
ATOM     45  N   UNL A   1      39.254  30.654  30.941  1.00  0.00    -0.248 NA
ATOM     46  C   UNL A   1      37.747  31.018  29.196  1.00  0.00     0.031 C 
ATOM     47  C   UNL A   1      37.416  34.040  33.203  1.00  0.00     0.029 A 
ATOM     48  N   UNL A   1      39.019  32.482  33.221  1.00  0.00    -0.354 N 
ATOM     49  C   UNL A   1      39.465  29.705  29.948  1.00  0.00     0.074 A 
ATOM     50  C   UNL A   1      38.471  29.941  28.924  1.00  0.00     0.031 C 
ATOM     51  C   UNL A   1      38.082  34.161  34.362  1.00  0.00     0.029 A 
ATOM     52  C   UNL A   1      39.122  33.139  34.423  1.00  0.00     0.049 A 
ATOM     53  H   UNL A   1      39.612  31.741  32.959  1.00  0.00     0.167 HD
ATOM     54  C   UNL A   1      40.412  28.740  29.888  1.00  0.00     0.037 A 
ATOM     55  C   UNL A   1      39.949  32.934  35.465  1.00  0.00     0.037 A 
ATOM     56  C   UNL A   1      41.408  28.514  30.905  1.00  0.00     0.049 A 
ATOM     57  C   UNL A   1      40.972  31.835  35.386  1.00  0.00     0.074 A 
ATOM     58  C   UNL A   1      42.450  27.604  30.904  1.00  0.00     0.029 A 
ATOM     59  N   UNL A   1      41.475  29.197  32.112  1.00  0.00    -0.354 N 
ATOM     60  N   UNL A   1      41.212  30.999  34.405  1.00  0.00    -0.248 NA
ATOM     61  C   UNL A   1      41.838  31.650  36.559  1.00  0.00     0.031 C 
ATOM     62  C   UNL A   1      43.114  27.697  32.132  1.00  0.00     0.029 A 
ATOM     63  C   UNL A   1      42.518  28.702  32.877  1.00  0.00     0.049 A 
ATOM     64  H   UNL A   1      40.870  29.925  32.383  1.00  0.00     0.167 HD
ATOM     65  C   UNL A   1      42.266  30.203  34.834  1.00  0.00     0.074 A 
ATOM     66  C   UNL A   1      42.635  30.671  36.153  1.00  0.00     0.031 C 
ATOM     67  C   UNL A   1      42.871  29.172  34.193  1.00  0.00     0.037 A 
BRANCH  54  68
ATOM     68  C   UNL A   1      40.420  27.849  28.678  1.00  0.00     0.057 A 
ATOM     69  C   UNL A   1      41.152  28.170  27.527  1.00  0.00     0.134 A 
ATOM     70  C   UNL A   1      39.723  26.635  28.679  1.00  0.00     0.134 A 
ATOM     71  F   UNL A   1      41.837  29.322  27.456  1.00  0.00    -0.206 F 
ATOM     72  C   UNL A   1      41.169  27.330  26.412  1.00  0.00     0.040 A 
ATOM     73  C   UNL A   1      39.755  25.772  27.582  1.00  0.00     0.040 A 
ATOM     74  F   UNL A   1      39.008  26.259  29.751  1.00  0.00    -0.206 F 
ATOM     75  C   UNL A   1      40.474  26.122  26.442  1.00  0.00     0.006 A 
ENDBRANCH  54  68
BRANCH  55  76
ATOM     76  C   UNL A   1      39.849  33.791  36.674  1.00  0.00     0.057 A 
ATOM     77  C   UNL A   1      38.995  33.453  37.730  1.00  0.00     0.134 A 
ATOM     78  C   UNL A   1      40.596  34.967  36.802  1.00  0.00     0.134 A 
ATOM     79  F   UNL A   1      38.237  32.348  37.659  1.00  0.00    -0.206 F 
ATOM     80  C   UNL A   1      38.872  34.265  38.860  1.00  0.00     0.040 A 
ATOM     81  C   UNL A   1      40.505  35.774  37.937  1.00  0.00     0.040 A 
ATOM     82  F   UNL A   1      41.439  35.344  35.829  1.00  0.00    -0.206 F 
ATOM     83  C   UNL A   1      39.633  35.425  38.968  1.00  0.00     0.006 A 
ENDBRANCH  55  76
BRANCH  67  84
ATOM     84  C   UNL A   1      44.003  28.491  34.906  1.00  0.00     0.057 A 
ATOM     85  C   UNL A   1      43.799  27.349  35.691  1.00  0.00     0.134 A 
ATOM     86  C   UNL A   1      45.317  28.960  34.776  1.00  0.00     0.134 A 
ATOM     87  F   UNL A   1      42.563  26.857  35.869  1.00  0.00    -0.206 F 
ATOM     88  C   UNL A   1      44.858  26.711  36.340  1.00  0.00     0.040 A 
ATOM     89  C   UNL A   1      46.387  28.314  35.397  1.00  0.00     0.040 A 
ATOM     90  F   UNL A   1      45.584  30.043  34.033  1.00  0.00    -0.206 F 
ATOM     91  C   UNL A   1      46.157  27.189  36.187  1.00  0.00     0.006 A 
ENDBRANCH  67  84
ENDBRANCH  41  42
ENDBRANCH  33  36
ENDBRANCH  31  32
ENDBRANCH  30  31
ENDBRANCH   1  30
TORSDOF 14
ENDMDL
MODEL 2
REMARK VINA RESULT:     -13.0      5.206      9.579
REMARK SMILES CCc1ccc(-c2cc(Cl)cc3c2O[C@H](C(F)(F)F)C(C(=O)NCCCCNC(=O)c2ccc(-c4c5nc(c(-c6c(F)cccc6F)c6ccc([nH]6)c(-c6c(F)cccc6F)c6nc(c(-c7c(F)cccc7F)c7ccc4[nH]7)C=C6)C=C5)cc2)=C3)cc1
REMARK SMILES IDX 25 1 24 2 23 3 21 4 22 5 20 7 7 8 8 9 13 10 9 11 12 12 14 13
REMARK SMILES IDX 10 14 11 15 85 16 15 17 6 18 3 19 4 20 87 21 5 22 86 23 2 24
REMARK SMILES IDX 1 25 16 26 17 27 18 28 19 29 26 30 27 31 28 32 29 33 30 35
REMARK SMILES IDX 31 36 32 37 84 38 33 39 83 40 34 41 35 42 36 43 77 44 37 45
REMARK SMILES IDX 82 46 76 47 78 48 38 49 81 50 75 51 74 52 39 54 65 55 48 56
REMARK SMILES IDX 64 57 49 58 52 59 63 60 79 61 50 62 51 63 62 65 80 66 53 67
REMARK SMILES IDX 40 68 41 69 46 70 42 71 43 72 45 73 47 74 44 75 66 76 67 77
REMARK SMILES IDX 72 78 68 79 69 80 71 81 73 82 70 83 54 84 55 85 60 86 56 87
REMARK SMILES IDX 57 88 59 89 61 90 58 91
REMARK H PARENT 23 6 28 34 78 53 52 64
REMARK Flexibility Score: inf
ROOT
ATOM      1  C   UNL A   1      36.928  20.678  24.579  1.00  0.00     0.023 C 
ENDROOT
BRANCH   1   2
ATOM      2  C   UNL A   1      36.722  21.835  25.568  1.00  0.00     0.116 C 
BRANCH   2   3
ATOM      3  N   UNL A   1      36.456  23.054  24.837  1.00  0.00    -0.352 N 
ATOM      4  C   UNL A   1      35.370  23.426  24.125  1.00  0.00     0.251 C 
ATOM      5  O   UNL A   1      35.534  24.229  23.211  1.00  0.00    -0.270 OA
ATOM      6  H   UNL A   1      37.182  23.719  24.864  1.00  0.00     0.163 HD
BRANCH   4   7
ATOM      7  C   UNL A   1      34.022  22.943  24.551  1.00  0.00     0.067 C 
ATOM      8  C   UNL A   1      31.960  26.431  24.123  1.00  0.00     0.026 A 
ATOM      9  C   UNL A   1      32.734  27.447  24.746  1.00  0.00     0.033 A 
ATOM     10  C   UNL A   1      32.333  25.104  24.405  1.00  0.00     0.135 A 
ATOM     11  C   UNL A   1      33.709  27.174  25.702  1.00  0.00     0.042 A 
ATOM     12  C   UNL A   1      33.239  24.853  25.468  1.00  0.00     0.019 A 
ATOM     13  O   UNL A   1      31.909  24.016  23.652  1.00  0.00    -0.475 OA
ATOM     14  Cl  UNL A   1      34.643  28.456  26.362  1.00  0.00    -0.084 Cl
ATOM     15  C   UNL A   1      33.914  25.877  26.125  1.00  0.00     0.032 A 
ATOM     16  C   UNL A   1      33.628  23.451  25.736  1.00  0.00     0.025 C 
ATOM     17  C   UNL A   1      32.953  22.961  23.463  1.00  0.00     0.314 C 
BRANCH   8  18
ATOM     18  C   UNL A   1      30.754  26.933  23.406  1.00  0.00    -0.015 A 
ATOM     19  C   UNL A   1      28.494  28.640  22.967  1.00  0.00    -0.048 A 
ATOM     20  C   UNL A   1      29.740  28.919  22.385  1.00  0.00     0.004 A 
ATOM     21  C   UNL A   1      28.361  27.430  23.657  1.00  0.00     0.004 A 
ATOM     22  C   UNL A   1      30.842  28.072  22.584  1.00  0.00     0.009 A 
ATOM     23  C   UNL A   1      29.472  26.585  23.867  1.00  0.00     0.009 A 
BRANCH  19  24
ATOM     24  C   UNL A   1      27.405  29.686  22.845  1.00  0.00     0.032 C 
ATOM     25  C   UNL A   1      27.650  31.055  23.470  1.00  0.00     0.009 C 
ENDBRANCH  19  24
ENDBRANCH   8  18
BRANCH  17  26
ATOM     26  C   UNL A   1      32.329  21.549  23.380  1.00  0.00     0.429 C 
ATOM     27  F   UNL A   1      31.408  21.324  24.342  1.00  0.00    -0.167 F 
ATOM     28  F   UNL A   1      31.733  21.344  22.180  1.00  0.00    -0.167 F 
ATOM     29  F   UNL A   1      33.262  20.566  23.506  1.00  0.00    -0.167 F 
ENDBRANCH  17  26
ENDBRANCH   4   7
ENDBRANCH   2   3
ENDBRANCH   1   2
BRANCH   1  30
ATOM     30  C   UNL A   1      37.905  19.585  25.039  1.00  0.00     0.023 C 
BRANCH  30  31
ATOM     31  C   UNL A   1      39.166  20.097  25.726  1.00  0.00     0.116 C 
BRANCH  31  32
ATOM     32  N   UNL A   1      40.168  19.053  25.867  1.00  0.00    -0.352 N 
ATOM     33  C   UNL A   1      41.519  19.165  26.083  1.00  0.00     0.251 C 
ATOM     34  H   UNL A   1      39.829  18.132  25.799  1.00  0.00     0.163 HD
ATOM     35  O   UNL A   1      42.243  18.177  25.973  1.00  0.00    -0.269 OA
BRANCH  33  36
ATOM     36  C   UNL A   1      42.112  20.478  26.417  1.00  0.00     0.039 A 
ATOM     37  C   UNL A   1      42.593  21.283  25.382  1.00  0.00     0.014 A 
ATOM     38  C   UNL A   1      42.189  20.917  27.742  1.00  0.00     0.014 A 
ATOM     39  C   UNL A   1      43.074  22.562  25.667  1.00  0.00     0.010 A 
ATOM     40  C   UNL A   1      42.601  22.219  28.017  1.00  0.00     0.010 A 
ATOM     41  C   UNL A   1      43.036  23.060  26.981  1.00  0.00    -0.014 A 
BRANCH  41  42
ATOM     42  C   UNL A   1      43.398  24.471  27.276  1.00  0.00     0.031 A 
ATOM     43  C   UNL A   1      44.828  24.929  27.200  1.00  0.00     0.074 A 
ATOM     44  C   UNL A   1      42.439  25.325  27.683  1.00  0.00     0.049 A 
ATOM     45  N   UNL A   1      45.335  26.103  27.479  1.00  0.00    -0.248 NA
ATOM     46  C   UNL A   1      45.822  23.932  26.775  1.00  0.00     0.031 C 
ATOM     47  C   UNL A   1      41.023  24.991  27.846  1.00  0.00     0.029 A 
ATOM     48  N   UNL A   1      42.510  26.648  28.046  1.00  0.00    -0.354 N 
ATOM     49  C   UNL A   1      46.703  25.986  27.273  1.00  0.00     0.074 A 
ATOM     50  C   UNL A   1      46.954  24.611  26.896  1.00  0.00     0.031 C 
ATOM     51  C   UNL A   1      40.357  26.083  28.252  1.00  0.00     0.029 A 
ATOM     52  C   UNL A   1      41.301  27.181  28.422  1.00  0.00     0.049 A 
ATOM     53  H   UNL A   1      43.348  27.165  28.036  1.00  0.00     0.167 HD
ATOM     54  C   UNL A   1      47.659  26.940  27.370  1.00  0.00     0.037 A 
ATOM     55  C   UNL A   1      40.988  28.412  28.868  1.00  0.00     0.037 A 
ATOM     56  C   UNL A   1      47.404  28.310  27.735  1.00  0.00     0.049 A 
ATOM     57  C   UNL A   1      42.073  29.446  28.997  1.00  0.00     0.074 A 
ATOM     58  C   UNL A   1      48.296  29.366  27.796  1.00  0.00     0.029 A 
ATOM     59  N   UNL A   1      46.166  28.811  28.115  1.00  0.00    -0.354 N 
ATOM     60  N   UNL A   1      43.350  29.341  28.719  1.00  0.00    -0.248 NA
ATOM     61  C   UNL A   1      41.674  30.767  29.502  1.00  0.00     0.031 C 
ATOM     62  C   UNL A   1      47.612  30.492  28.267  1.00  0.00     0.029 A 
ATOM     63  C   UNL A   1      46.281  30.151  28.447  1.00  0.00     0.049 A 
ATOM     64  H   UNL A   1      45.332  28.290  28.144  1.00  0.00     0.167 HD
ATOM     65  C   UNL A   1      43.903  30.584  28.997  1.00  0.00     0.074 A 
ATOM     66  C   UNL A   1      42.818  31.434  29.441  1.00  0.00     0.031 C 
ATOM     67  C   UNL A   1      45.194  30.985  28.896  1.00  0.00     0.037 A 
BRANCH  54  68
ATOM     68  C   UNL A   1      49.076  26.537  27.076  1.00  0.00     0.057 A 
ATOM     69  C   UNL A   1      49.936  26.071  28.079  1.00  0.00     0.134 A 
ATOM     70  C   UNL A   1      49.574  26.574  25.768  1.00  0.00     0.134 A 
ATOM     71  F   UNL A   1      49.526  26.017  29.356  1.00  0.00    -0.206 F 
ATOM     72  C   UNL A   1      51.247  25.682  27.798  1.00  0.00     0.040 A 
ATOM     73  C   UNL A   1      50.874  26.160  25.468  1.00  0.00     0.040 A 
ATOM     74  F   UNL A   1      48.803  27.000  24.756  1.00  0.00    -0.206 F 
ATOM     75  C   UNL A   1      51.716  25.719  26.486  1.00  0.00     0.006 A 
ENDBRANCH  54  68
BRANCH  55  76
ATOM     76  C   UNL A   1      39.584  28.741  29.223  1.00  0.00     0.057 A 
ATOM     77  C   UNL A   1      38.701  29.264  28.271  1.00  0.00     0.134 A 
ATOM     78  C   UNL A   1      39.092  28.548  30.519  1.00  0.00     0.134 A 
ATOM     79  F   UNL A   1      39.118  29.491  27.017  1.00  0.00    -0.206 F 
ATOM     80  C   UNL A   1      37.387  29.602  28.600  1.00  0.00     0.040 A 
ATOM     81  C   UNL A   1      37.773  28.855  30.856  1.00  0.00     0.040 A 
ATOM     82  F   UNL A   1      39.884  28.043  31.477  1.00  0.00    -0.206 F 
ATOM     83  C   UNL A   1      36.918  29.392  29.894  1.00  0.00     0.006 A 
ENDBRANCH  55  76
BRANCH  67  84
ATOM     84  C   UNL A   1      45.502  32.408  29.263  1.00  0.00     0.057 A 
ATOM     85  C   UNL A   1      45.914  32.764  30.553  1.00  0.00     0.134 A 
ATOM     86  C   UNL A   1      45.419  33.428  28.306  1.00  0.00     0.134 A 
ATOM     87  F   UNL A   1      46.000  31.839  31.520  1.00  0.00    -0.206 F 
ATOM     88  C   UNL A   1      46.213  34.088  30.884  1.00  0.00     0.040 A 
ATOM     89  C   UNL A   1      45.743  34.749  28.617  1.00  0.00     0.040 A 
ATOM     90  F   UNL A   1      45.038  33.154  27.049  1.00  0.00    -0.206 F 
ATOM     91  C   UNL A   1      46.135  35.083  29.912  1.00  0.00     0.006 A 
ENDBRANCH  67  84
ENDBRANCH  41  42
ENDBRANCH  33  36
ENDBRANCH  31  32
ENDBRANCH  30  31
ENDBRANCH   1  30
TORSDOF 14
ENDMDL
MODEL 3
REMARK VINA RESULT:     -12.9      0.501      5.968
REMARK SMILES CCc1ccc(-c2cc(Cl)cc3c2O[C@H](C(F)(F)F)C(C(=O)NCCCCNC(=O)c2ccc(-c4c5nc(c(-c6c(F)cccc6F)c6ccc([nH]6)c(-c6c(F)cccc6F)c6nc(c(-c7c(F)cccc7F)c7ccc4[nH]7)C=C6)C=C5)cc2)=C3)cc1
REMARK SMILES IDX 25 1 24 2 23 3 21 4 22 5 20 7 7 8 8 9 13 10 9 11 12 12 14 13
REMARK SMILES IDX 10 14 11 15 85 16 15 17 6 18 3 19 4 20 87 21 5 22 86 23 2 24
REMARK SMILES IDX 1 25 16 26 17 27 18 28 19 29 26 30 27 31 28 32 29 33 30 35
REMARK SMILES IDX 31 36 32 37 84 38 33 39 83 40 34 41 35 42 36 43 77 44 37 45
REMARK SMILES IDX 82 46 76 47 78 48 38 49 81 50 75 51 74 52 39 54 65 55 48 56
REMARK SMILES IDX 64 57 49 58 52 59 63 60 79 61 50 62 51 63 62 65 80 66 53 67
REMARK SMILES IDX 40 68 41 69 46 70 42 71 43 72 45 73 47 74 44 75 66 76 67 77
REMARK SMILES IDX 72 78 68 79 69 80 71 81 73 82 70 83 54 84 55 85 60 86 56 87
REMARK SMILES IDX 57 88 59 89 61 90 58 91
REMARK H PARENT 23 6 28 34 78 53 52 64
REMARK Flexibility Score: inf
ROOT
ATOM      1  C   UNL A   1      31.407  30.388  26.393  1.00  0.00     0.023 C 
ENDROOT
BRANCH   1   2
ATOM      2  C   UNL A   1      32.759  29.756  26.033  1.00  0.00     0.116 C 
BRANCH   2   3
ATOM      3  N   UNL A   1      32.847  28.436  26.618  1.00  0.00    -0.352 N 
ATOM      4  C   UNL A   1      32.243  27.281  26.262  1.00  0.00     0.251 C 
ATOM      5  O   UNL A   1      32.053  26.442  27.137  1.00  0.00    -0.270 OA
ATOM      6  H   UNL A   1      33.441  28.369  27.401  1.00  0.00     0.163 HD
BRANCH   4   7
ATOM      7  C   UNL A   1      31.947  27.032  24.818  1.00  0.00     0.067 C 
ATOM      8  C   UNL A   1      33.013  23.103  24.644  1.00  0.00     0.026 A 
ATOM      9  C   UNL A   1      34.278  22.990  25.284  1.00  0.00     0.033 A 
ATOM     10  C   UNL A   1      32.590  24.408  24.327  1.00  0.00     0.135 A 
ATOM     11  C   UNL A   1      35.134  24.073  25.458  1.00  0.00     0.042 A 
ATOM     12  C   UNL A   1      33.527  25.472  24.400  1.00  0.00     0.019 A 
ATOM     13  O   UNL A   1      31.278  24.727  24.004  1.00  0.00    -0.475 OA
ATOM     14  Cl  UNL A   1      36.619  23.863  26.296  1.00  0.00    -0.084 Cl
ATOM     15  C   UNL A   1      34.795  25.309  24.948  1.00  0.00     0.032 A 
ATOM     16  C   UNL A   1      33.055  26.837  24.077  1.00  0.00     0.025 C 
ATOM     17  C   UNL A   1      30.818  26.042  24.550  1.00  0.00     0.314 C 
BRANCH   8  18
ATOM     18  C   UNL A   1      32.410  21.801  24.246  1.00  0.00    -0.015 A 
ATOM     19  C   UNL A   1      32.406  19.126  23.216  1.00  0.00    -0.048 A 
ATOM     20  C   UNL A   1      32.527  19.375  24.591  1.00  0.00     0.004 A 
ATOM     21  C   UNL A   1      32.153  20.221  22.382  1.00  0.00     0.004 A 
ATOM     22  C   UNL A   1      32.509  20.684  25.098  1.00  0.00     0.009 A 
ATOM     23  C   UNL A   1      32.147  21.538  22.891  1.00  0.00     0.009 A 
BRANCH  19  24
ATOM     24  C   UNL A   1      32.605  17.703  22.733  1.00  0.00     0.032 C 
ATOM     25  C   UNL A   1      33.890  16.983  23.127  1.00  0.00     0.009 C 
ENDBRANCH  19  24
ENDBRANCH   8  18
BRANCH  17  26
ATOM     26  C   UNL A   1      29.795  26.723  23.611  1.00  0.00     0.429 C 
ATOM     27  F   UNL A   1      30.278  26.923  22.366  1.00  0.00    -0.167 F 
ATOM     28  F   UNL A   1      28.662  25.988  23.502  1.00  0.00    -0.167 F 
ATOM     29  F   UNL A   1      29.407  27.943  24.072  1.00  0.00    -0.167 F 
ENDBRANCH  17  26
ENDBRANCH   4   7
ENDBRANCH   2   3
ENDBRANCH   1   2
BRANCH   1  30
ATOM     30  C   UNL A   1      31.403  31.922  26.490  1.00  0.00     0.023 C 
BRANCH  30  31
ATOM     31  C   UNL A   1      32.581  32.521  27.251  1.00  0.00     0.116 C 
BRANCH  31  32
ATOM     32  N   UNL A   1      32.369  33.926  27.561  1.00  0.00    -0.352 N 
ATOM     33  C   UNL A   1      32.996  34.718  28.489  1.00  0.00     0.251 C 
ATOM     34  H   UNL A   1      31.676  34.374  27.026  1.00  0.00     0.163 HD
ATOM     35  O   UNL A   1      32.545  35.832  28.751  1.00  0.00    -0.269 OA
BRANCH  33  36
ATOM     36  C   UNL A   1      34.194  34.224  29.201  1.00  0.00     0.039 A 
ATOM     37  C   UNL A   1      34.027  33.525  30.399  1.00  0.00     0.014 A 
ATOM     38  C   UNL A   1      35.476  34.441  28.688  1.00  0.00     0.014 A 
ATOM     39  C   UNL A   1      35.138  32.973  31.039  1.00  0.00     0.010 A 
ATOM     40  C   UNL A   1      36.575  33.829  29.287  1.00  0.00     0.010 A 
ATOM     41  C   UNL A   1      36.416  33.078  30.463  1.00  0.00    -0.014 A 
BRANCH  41  42
ATOM     42  C   UNL A   1      37.581  32.366  31.048  1.00  0.00     0.031 A 
ATOM     43  C   UNL A   1      38.242  32.874  32.299  1.00  0.00     0.074 A 
ATOM     44  C   UNL A   1      38.088  31.294  30.407  1.00  0.00     0.049 A 
ATOM     45  N   UNL A   1      39.301  32.416  32.917  1.00  0.00    -0.248 NA
ATOM     46  C   UNL A   1      37.650  34.064  32.926  1.00  0.00     0.031 C 
ATOM     47  C   UNL A   1      37.568  30.732  29.159  1.00  0.00     0.029 A 
ATOM     48  N   UNL A   1      39.160  30.491  30.710  1.00  0.00    -0.354 N 
ATOM     49  C   UNL A   1      39.507  33.264  33.998  1.00  0.00     0.074 A 
ATOM     50  C   UNL A   1      38.494  34.295  33.921  1.00  0.00     0.031 C 
ATOM     51  C   UNL A   1      38.306  29.665  28.816  1.00  0.00     0.029 A 
ATOM     52  C   UNL A   1      39.376  29.492  29.792  1.00  0.00     0.049 A 
ATOM     53  H   UNL A   1      39.720  30.619  31.509  1.00  0.00     0.167 HD
ATOM     54  C   UNL A   1      40.441  33.179  34.975  1.00  0.00     0.037 A 
ATOM     55  C   UNL A   1      40.336  28.550  29.733  1.00  0.00     0.037 A 
ATOM     56  C   UNL A   1      41.442  32.145  35.054  1.00  0.00     0.049 A 
ATOM     57  C   UNL A   1      41.381  28.497  30.813  1.00  0.00     0.074 A 
ATOM     58  C   UNL A   1      42.389  31.937  36.041  1.00  0.00     0.029 A 
ATOM     59  N   UNL A   1      41.632  31.153  34.102  1.00  0.00    -0.354 N 
ATOM     60  N   UNL A   1      41.512  29.257  31.873  1.00  0.00    -0.248 NA
ATOM     61  C   UNL A   1      42.411  27.456  30.688  1.00  0.00     0.031 C 
ATOM     62  C   UNL A   1      43.189  30.855  35.658  1.00  0.00     0.029 A 
ATOM     63  C   UNL A   1      42.705  30.354  34.460  1.00  0.00     0.049 A 
ATOM     64  H   UNL A   1      41.085  31.037  33.292  1.00  0.00     0.167 HD
ATOM     65  C   UNL A   1      42.626  28.776  32.550  1.00  0.00     0.074 A 
ATOM     66  C   UNL A   1      43.118  27.644  31.794  1.00  0.00     0.031 C 
ATOM     67  C   UNL A   1      43.192  29.234  33.694  1.00  0.00     0.037 A 
BRANCH  54  68
ATOM     68  C   UNL A   1      40.428  34.236  36.042  1.00  0.00     0.057 A 
ATOM     69  C   UNL A   1      41.187  35.409  35.932  1.00  0.00     0.134 A 
ATOM     70  C   UNL A   1      39.615  34.100  37.174  1.00  0.00     0.134 A 
ATOM     71  F   UNL A   1      41.995  35.600  34.876  1.00  0.00    -0.206 F 
ATOM     72  C   UNL A   1      41.159  36.395  36.919  1.00  0.00     0.040 A 
ATOM     73  C   UNL A   1      39.555  35.093  38.155  1.00  0.00     0.040 A 
ATOM     74  F   UNL A   1      38.855  33.007  37.341  1.00  0.00    -0.206 F 
ATOM     75  C   UNL A   1      40.334  36.241  38.032  1.00  0.00     0.006 A 
ENDBRANCH  54  68
BRANCH  55  76
ATOM     76  C   UNL A   1      40.355  27.576  28.613  1.00  0.00     0.057 A 
ATOM     77  C   UNL A   1      39.626  26.383  28.681  1.00  0.00     0.134 A 
ATOM     78  C   UNL A   1      41.104  27.806  27.453  1.00  0.00     0.134 A 
ATOM     79  F   UNL A   1      38.903  26.094  29.774  1.00  0.00    -0.206 F 
ATOM     80  C   UNL A   1      39.657  25.446  27.646  1.00  0.00     0.040 A 
ATOM     81  C   UNL A   1      41.123  26.892  26.399  1.00  0.00     0.040 A 
ATOM     82  F   UNL A   1      41.820  28.933  27.321  1.00  0.00    -0.206 F 
ATOM     83  C   UNL A   1      40.402  25.703  26.498  1.00  0.00     0.006 A 
ENDBRANCH  55  76
BRANCH  67  84
ATOM     84  C   UNL A   1      44.400  28.503  34.203  1.00  0.00     0.057 A 
ATOM     85  C   UNL A   1      45.700  28.905  33.868  1.00  0.00     0.134 A 
ATOM     86  C   UNL A   1      44.263  27.407  35.065  1.00  0.00     0.134 A 
ATOM     87  F   UNL A   1      45.900  29.937  33.036  1.00  0.00    -0.206 F 
ATOM     88  C   UNL A   1      46.820  28.228  34.356  1.00  0.00     0.040 A 
ATOM     89  C   UNL A   1      45.376  26.742  35.582  1.00  0.00     0.040 A 
ATOM     90  F   UNL A   1      43.048  26.975  35.431  1.00  0.00    -0.206 F 
ATOM     91  C   UNL A   1      46.660  27.149  35.222  1.00  0.00     0.006 A 
ENDBRANCH  67  84
ENDBRANCH  41  42
ENDBRANCH  33  36
ENDBRANCH  31  32
ENDBRANCH  30  31
ENDBRANCH   1  30
TORSDOF 14
ENDMDL
