MODEL 1
REMARK VINA RESULT:     -12.2      0.000      0.000
REMARK SMILES COc1cccc([C@@H]2CN(C(=O)CSc3nc(C)n[nH]3)C[C@H]2C(=O)NCCCCNC(=O)c2ccc(-c3c4nc(c(-c5c(F)cccc5F)c5ccc([nH]5)c(-c5c(F)cccc5F)c5nc(c(-c6c(F)cccc6F)c6ccc3[nH]6)C=C5)C=C4)cc2)c1
REMARK SMILES IDX 26 1 25 2 23 3 24 4 22 6 8 7 9 8 10 9 21 10 7 11 3 12 4 13
REMARK SMILES IDX 87 14 5 15 6 16 2 17 1 18 11 19 12 20 13 21 14 22 15 23
REMARK SMILES IDX 16 24 20 25 17 26 19 27 18 29 27 30 28 31 29 32 30 33 31 34
REMARK SMILES IDX 32 36 33 37 34 38 86 39 35 40 85 41 36 42 37 43 38 44 79 45
REMARK SMILES IDX 39 46 84 47 78 48 80 49 40 50 83 51 77 52 76 53 41 55 67 56
REMARK SMILES IDX 50 57 66 58 51 59 54 60 65 61 81 62 52 63 53 64 64 66 82 67
REMARK SMILES IDX 55 68 42 69 43 70 48 71 44 72 45 73 47 74 49 75 46 76 68 77
REMARK SMILES IDX 69 78 74 79 70 80 71 81 73 82 75 83 72 84 56 85 57 86 62 87
REMARK SMILES IDX 58 88 59 89 61 90 63 91 60 92
REMARK H PARENT 25 5 20 28 30 35 80 54 54 65
REMARK Flexibility Score: inf
ROOT
ATOM      1  C   UNL A   1      32.323  27.080  26.207  1.00  0.00     0.116 C 
ENDROOT
BRANCH   1   2
ATOM      2  N   UNL A   1      31.037  26.485  26.530  1.00  0.00    -0.356 N 
ATOM      3  C   UNL A   1      30.026  26.019  25.747  1.00  0.00     0.225 C 
ATOM      4  O   UNL A   1      29.070  25.493  26.323  1.00  0.00    -0.275 OA
ATOM      5  H   UNL A   1      30.865  26.403  27.497  1.00  0.00     0.163 HD
BRANCH   3   6
ATOM      6  C   UNL A   1      30.041  26.099  24.228  1.00  0.00     0.107 C 
ATOM      7  C   UNL A   1      30.589  27.428  23.679  1.00  0.00     0.053 C 
ATOM      8  C   UNL A   1      31.332  27.029  22.405  1.00  0.00     0.128 C 
ATOM      9  N   UNL A   1      31.793  25.676  22.675  1.00  0.00    -0.341 N 
ATOM     10  C   UNL A   1      30.891  25.000  23.595  1.00  0.00     0.133 C 
BRANCH   7  11
ATOM     11  C   UNL A   1      29.585  28.537  23.473  1.00  0.00    -0.039 A 
ATOM     12  C   UNL A   1      28.950  30.886  23.528  1.00  0.00     0.119 A 
ATOM     13  C   UNL A   1      27.640  30.534  23.205  1.00  0.00     0.046 A 
ATOM     14  C   UNL A   1      29.918  29.888  23.666  1.00  0.00     0.050 A 
ATOM     15  C   UNL A   1      27.300  29.202  22.988  1.00  0.00     0.004 A 
ATOM     16  C   UNL A   1      28.266  28.209  23.120  1.00  0.00     0.004 A 
BRANCH  12  17
ATOM     17  O   UNL A   1      29.153  32.223  23.736  1.00  0.00    -0.497 OA
ATOM     18  C   UNL A   1      28.772  33.090  22.673  1.00  0.00     0.278 C 
ENDBRANCH  12  17
ENDBRANCH   7  11
BRANCH   9  19
ATOM     19  C   UNL A   1      32.827  25.010  22.069  1.00  0.00     0.233 C 
ATOM     20  O   UNL A   1      33.637  25.598  21.345  1.00  0.00    -0.274 OA
BRANCH  19  21
ATOM     21  C   UNL A   1      32.997  23.524  22.304  1.00  0.00     0.178 C 
BRANCH  21  22
ATOM     22  S   UNL A   1      34.063  23.158  23.706  1.00  0.00    -0.077 SA
BRANCH  22  23
ATOM     23  C   UNL A   1      33.051  23.117  25.101  1.00  0.00     0.184 A 
ATOM     24  N   UNL A   1      31.852  22.589  25.111  1.00  0.00    -0.206 NA
ATOM     25  N   UNL A   1      33.327  23.640  26.330  1.00  0.00    -0.254 N 
ATOM     26  C   UNL A   1      31.423  22.811  26.391  1.00  0.00     0.148 A 
ATOM     27  N   UNL A   1      32.292  23.459  27.174  1.00  0.00    -0.158 NA
ATOM     28  H   UNL A   1      34.171  24.088  26.570  1.00  0.00     0.192 HD
ATOM     29  C   UNL A   1      30.094  22.364  26.852  1.00  0.00     0.092 C 
ENDBRANCH  22  23
ENDBRANCH  21  22
ENDBRANCH  19  21
ENDBRANCH   9  19
ENDBRANCH   3   6
ENDBRANCH   1   2
BRANCH   1  30
ATOM     30  C   UNL A   1      32.439  28.543  26.650  1.00  0.00     0.023 C 
BRANCH  30  31
ATOM     31  C   UNL A   1      33.601  28.880  27.591  1.00  0.00     0.023 C 
BRANCH  31  32
ATOM     32  C   UNL A   1      34.558  29.937  27.066  1.00  0.00     0.116 C 
BRANCH  32  33
ATOM     33  N   UNL A   1      34.386  31.241  27.707  1.00  0.00    -0.352 N 
ATOM     34  C   UNL A   1      34.983  31.695  28.871  1.00  0.00     0.251 C 
ATOM     35  H   UNL A   1      33.773  31.869  27.259  1.00  0.00     0.163 HD
ATOM     36  O   UNL A   1      34.515  32.619  29.516  1.00  0.00    -0.269 OA
BRANCH  34  37
ATOM     37  C   UNL A   1      36.227  31.036  29.299  1.00  0.00     0.039 A 
ATOM     38  C   UNL A   1      36.252  29.711  29.741  1.00  0.00     0.014 A 
ATOM     39  C   UNL A   1      37.397  31.773  29.158  1.00  0.00     0.014 A 
ATOM     40  C   UNL A   1      37.488  29.105  29.952  1.00  0.00     0.010 A 
ATOM     41  C   UNL A   1      38.600  31.125  29.189  1.00  0.00     0.010 A 
ATOM     42  C   UNL A   1      38.660  29.814  29.650  1.00  0.00    -0.014 A 
BRANCH  42  43
ATOM     43  C   UNL A   1      39.972  29.185  29.727  1.00  0.00     0.031 A 
ATOM     44  C   UNL A   1      40.526  29.007  31.098  1.00  0.00     0.074 A 
ATOM     45  C   UNL A   1      40.523  28.571  28.657  1.00  0.00     0.049 A 
ATOM     46  N   UNL A   1      41.599  29.533  31.589  1.00  0.00    -0.248 NA
ATOM     47  C   UNL A   1      39.743  28.236  32.079  1.00  0.00     0.031 C 
ATOM     48  C   UNL A   1      39.959  28.367  27.316  1.00  0.00     0.029 A 
ATOM     49  N   UNL A   1      41.684  27.871  28.593  1.00  0.00    -0.354 N 
ATOM     50  C   UNL A   1      41.738  29.010  32.874  1.00  0.00     0.074 A 
ATOM     51  C   UNL A   1      40.492  28.355  33.177  1.00  0.00     0.031 C 
ATOM     52  C   UNL A   1      40.645  27.394  26.679  1.00  0.00     0.029 A 
ATOM     53  C   UNL A   1      41.795  27.040  27.486  1.00  0.00     0.049 A 
ATOM     54  H   UNL A   1      42.389  27.944  29.276  1.00  0.00     0.167 HD
ATOM     55  C   UNL A   1      42.948  28.971  33.500  1.00  0.00     0.037 A 
ATOM     56  C   UNL A   1      42.751  26.101  27.283  1.00  0.00     0.037 A 
ATOM     57  C   UNL A   1      43.905  29.829  32.846  1.00  0.00     0.049 A 
ATOM     58  C   UNL A   1      43.891  26.445  28.175  1.00  0.00     0.074 A 
ATOM     59  C   UNL A   1      43.939  31.177  32.541  1.00  0.00     0.029 A 
ATOM     60  N   UNL A   1      44.848  29.245  32.033  1.00  0.00    -0.354 N 
ATOM     61  N   UNL A   1      44.630  27.510  28.022  1.00  0.00    -0.248 NA
ATOM     62  C   UNL A   1      43.889  25.875  29.516  1.00  0.00     0.031 C 
ATOM     63  C   UNL A   1      44.478  31.235  31.222  1.00  0.00     0.029 A 
ATOM     64  C   UNL A   1      44.820  29.935  30.846  1.00  0.00     0.049 A 
ATOM     65  H   UNL A   1      45.429  28.484  32.258  1.00  0.00     0.167 HD
ATOM     66  C   UNL A   1      44.836  27.989  29.308  1.00  0.00     0.074 A 
ATOM     67  C   UNL A   1      44.419  26.899  30.191  1.00  0.00     0.031 C 
ATOM     68  C   UNL A   1      45.033  29.319  29.556  1.00  0.00     0.037 A 
BRANCH  55  69
ATOM     69  C   UNL A   1      43.374  27.910  34.484  1.00  0.00     0.057 A 
ATOM     70  C   UNL A   1      43.764  28.287  35.783  1.00  0.00     0.134 A 
ATOM     71  C   UNL A   1      43.686  26.584  34.125  1.00  0.00     0.134 A 
ATOM     72  F   UNL A   1      43.540  29.530  36.236  1.00  0.00    -0.206 F 
ATOM     73  C   UNL A   1      44.472  27.427  36.633  1.00  0.00     0.040 A 
ATOM     74  C   UNL A   1      44.345  25.702  34.986  1.00  0.00     0.040 A 
ATOM     75  F   UNL A   1      43.468  26.106  32.895  1.00  0.00    -0.206 F 
ATOM     76  C   UNL A   1      44.769  26.131  36.233  1.00  0.00     0.006 A 
ENDBRANCH  55  69
BRANCH  56  77
ATOM     77  C   UNL A   1      42.609  24.789  26.610  1.00  0.00     0.057 A 
ATOM     78  C   UNL A   1      43.350  24.481  25.460  1.00  0.00     0.134 A 
ATOM     79  C   UNL A   1      41.942  23.709  27.217  1.00  0.00     0.134 A 
ATOM     80  F   UNL A   1      44.055  25.432  24.830  1.00  0.00    -0.206 F 
ATOM     81  C   UNL A   1      43.439  23.175  24.958  1.00  0.00     0.040 A 
ATOM     82  C   UNL A   1      42.016  22.402  26.721  1.00  0.00     0.040 A 
ATOM     83  F   UNL A   1      41.264  23.865  28.364  1.00  0.00    -0.206 F 
ATOM     84  C   UNL A   1      42.779  22.129  25.594  1.00  0.00     0.006 A 
ENDBRANCH  56  77
BRANCH  68  85
ATOM     85  C   UNL A   1      45.226  30.254  28.391  1.00  0.00     0.057 A 
ATOM     86  C   UNL A   1      44.183  30.947  27.756  1.00  0.00     0.134 A 
ATOM     87  C   UNL A   1      46.528  30.615  28.025  1.00  0.00     0.134 A 
ATOM     88  F   UNL A   1      42.907  30.756  28.106  1.00  0.00    -0.206 F 
ATOM     89  C   UNL A   1      44.422  31.921  26.781  1.00  0.00     0.040 A 
ATOM     90  C   UNL A   1      46.782  31.610  27.078  1.00  0.00     0.040 A 
ATOM     91  F   UNL A   1      47.582  30.044  28.630  1.00  0.00    -0.206 F 
ATOM     92  C   UNL A   1      45.728  32.261  26.445  1.00  0.00     0.006 A 
ENDBRANCH  68  85
ENDBRANCH  42  43
ENDBRANCH  34  37
ENDBRANCH  32  33
ENDBRANCH  31  32
ENDBRANCH  30  31
ENDBRANCH   1  30
TORSDOF 17
ENDMDL
MODEL 2
REMARK VINA RESULT:     -12.0      2.110      4.649
REMARK SMILES COc1cccc([C@@H]2CN(C(=O)CSc3nc(C)n[nH]3)C[C@H]2C(=O)NCCCCNC(=O)c2ccc(-c3c4nc(c(-c5c(F)cccc5F)c5ccc([nH]5)c(-c5c(F)cccc5F)c5nc(c(-c6c(F)cccc6F)c6ccc3[nH]6)C=C5)C=C4)cc2)c1
REMARK SMILES IDX 26 1 25 2 23 3 24 4 22 6 8 7 9 8 10 9 21 10 7 11 3 12 4 13
REMARK SMILES IDX 87 14 5 15 6 16 2 17 1 18 11 19 12 20 13 21 14 22 15 23
REMARK SMILES IDX 16 24 20 25 17 26 19 27 18 29 27 30 28 31 29 32 30 33 31 34
REMARK SMILES IDX 32 36 33 37 34 38 86 39 35 40 85 41 36 42 37 43 38 44 79 45
REMARK SMILES IDX 39 46 84 47 78 48 80 49 40 50 83 51 77 52 76 53 41 55 67 56
REMARK SMILES IDX 50 57 66 58 51 59 54 60 65 61 81 62 52 63 53 64 64 66 82 67
REMARK SMILES IDX 55 68 42 69 43 70 48 71 44 72 45 73 47 74 49 75 46 76 68 77
REMARK SMILES IDX 69 78 74 79 70 80 71 81 73 82 75 83 72 84 56 85 57 86 62 87
REMARK SMILES IDX 58 88 59 89 61 90 63 91 60 92
REMARK H PARENT 25 5 20 28 30 35 80 54 54 65
REMARK Flexibility Score: inf
ROOT
ATOM      1  C   UNL A   1      33.886  28.486  25.126  1.00  0.00     0.116 C 
ENDROOT
BRANCH   1   2
ATOM      2  N   UNL A   1      34.271  28.612  23.731  1.00  0.00    -0.356 N 
ATOM      3  C   UNL A   1      33.869  27.952  22.611  1.00  0.00     0.225 C 
ATOM      4  O   UNL A   1      34.334  28.339  21.536  1.00  0.00    -0.275 OA
ATOM      5  H   UNL A   1      34.950  29.306  23.564  1.00  0.00     0.163 HD
BRANCH   3   6
ATOM      6  C   UNL A   1      32.878  26.798  22.632  1.00  0.00     0.107 C 
ATOM      7  C   UNL A   1      32.819  26.050  23.975  1.00  0.00     0.053 C 
ATOM      8  C   UNL A   1      31.350  25.656  24.120  1.00  0.00     0.128 C 
ATOM      9  N   UNL A   1      30.633  26.703  23.412  1.00  0.00    -0.341 N 
ATOM     10  C   UNL A   1      31.449  27.253  22.341  1.00  0.00     0.133 C 
BRANCH   7  11
ATOM     11  C   UNL A   1      33.777  24.894  24.145  1.00  0.00    -0.039 A 
ATOM     12  C   UNL A   1      35.671  23.829  25.240  1.00  0.00     0.119 A 
ATOM     13  C   UNL A   1      35.607  22.782  24.321  1.00  0.00     0.046 A 
ATOM     14  C   UNL A   1      34.760  24.884  25.148  1.00  0.00     0.050 A 
ATOM     15  C   UNL A   1      34.624  22.767  23.335  1.00  0.00     0.004 A 
ATOM     16  C   UNL A   1      33.713  23.816  23.248  1.00  0.00     0.004 A 
BRANCH  12  17
ATOM     17  O   UNL A   1      36.693  23.739  26.145  1.00  0.00    -0.497 OA
ATOM     18  C   UNL A   1      37.827  22.980  25.741  1.00  0.00     0.278 C 
ENDBRANCH  12  17
ENDBRANCH   7  11
BRANCH   9  19
ATOM     19  C   UNL A   1      29.320  27.070  23.569  1.00  0.00     0.233 C 
ATOM     20  O   UNL A   1      28.519  26.353  24.178  1.00  0.00    -0.274 OA
BRANCH  19  21
ATOM     21  C   UNL A   1      28.841  28.390  23.003  1.00  0.00     0.178 C 
BRANCH  21  22
ATOM     22  S   UNL A   1      29.731  29.800  23.676  1.00  0.00    -0.077 SA
BRANCH  22  23
ATOM     23  C   UNL A   1      29.079  31.205  22.919  1.00  0.00     0.184 A 
ATOM     24  N   UNL A   1      28.577  31.209  21.708  1.00  0.00    -0.206 NA
ATOM     25  N   UNL A   1      29.028  32.466  23.436  1.00  0.00    -0.254 N 
ATOM     26  C   UNL A   1      28.221  32.516  21.521  1.00  0.00     0.148 A 
ATOM     27  N   UNL A   1      28.485  33.327  22.553  1.00  0.00    -0.158 NA
ATOM     28  H   UNL A   1      29.344  32.714  24.335  1.00  0.00     0.192 HD
ATOM     29  C   UNL A   1      27.597  32.979  20.267  1.00  0.00     0.092 C 
ENDBRANCH  22  23
ENDBRANCH  21  22
ENDBRANCH  19  21
ENDBRANCH   9  19
ENDBRANCH   3   6
ENDBRANCH   1   2
BRANCH   1  30
ATOM     30  C   UNL A   1      33.207  29.744  25.681  1.00  0.00     0.023 C 
BRANCH  30  31
ATOM     31  C   UNL A   1      33.266  29.935  27.200  1.00  0.00     0.023 C 
BRANCH  31  32
ATOM     32  C   UNL A   1      34.570  30.521  27.717  1.00  0.00     0.116 C 
BRANCH  32  33
ATOM     33  N   UNL A   1      34.375  31.680  28.590  1.00  0.00    -0.352 N 
ATOM     34  C   UNL A   1      34.979  31.927  29.812  1.00  0.00     0.251 C 
ATOM     35  H   UNL A   1      33.741  32.363  28.272  1.00  0.00     0.163 HD
ATOM     36  O   UNL A   1      34.498  32.703  30.622  1.00  0.00    -0.269 OA
BRANCH  34  37
ATOM     37  C   UNL A   1      36.244  31.233  30.099  1.00  0.00     0.039 A 
ATOM     38  C   UNL A   1      36.285  29.891  30.483  1.00  0.00     0.014 A 
ATOM     39  C   UNL A   1      37.409  31.958  29.882  1.00  0.00     0.014 A 
ATOM     40  C   UNL A   1      37.524  29.258  30.556  1.00  0.00     0.010 A 
ATOM     41  C   UNL A   1      38.598  31.293  29.778  1.00  0.00     0.010 A 
ATOM     42  C   UNL A   1      38.676  29.963  30.179  1.00  0.00    -0.014 A 
BRANCH  42  43
ATOM     43  C   UNL A   1      39.978  29.313  30.111  1.00  0.00     0.031 A 
ATOM     44  C   UNL A   1      40.663  29.097  31.416  1.00  0.00     0.074 A 
ATOM     45  C   UNL A   1      40.409  28.714  28.980  1.00  0.00     0.049 A 
ATOM     46  N   UNL A   1      41.789  29.596  31.808  1.00  0.00    -0.248 NA
ATOM     47  C   UNL A   1      39.969  28.317  32.455  1.00  0.00     0.031 C 
ATOM     48  C   UNL A   1      39.711  28.549  27.698  1.00  0.00     0.029 A 
ATOM     49  N   UNL A   1      41.546  27.999  28.786  1.00  0.00    -0.354 N 
ATOM     50  C   UNL A   1      42.046  29.043  33.062  1.00  0.00     0.074 A 
ATOM     51  C   UNL A   1      40.825  28.400  33.475  1.00  0.00     0.031 C 
ATOM     52  C   UNL A   1      40.313  27.580  26.976  1.00  0.00     0.029 A 
ATOM     53  C   UNL A   1      41.532  27.191  27.656  1.00  0.00     0.049 A 
ATOM     54  H   UNL A   1      42.316  28.046  29.396  1.00  0.00     0.167 HD
ATOM     55  C   UNL A   1      43.312  28.972  33.562  1.00  0.00     0.037 A 
ATOM     56  C   UNL A   1      42.446  26.242  27.340  1.00  0.00     0.037 A 
ATOM     57  C   UNL A   1      44.213  29.829  32.833  1.00  0.00     0.049 A 
ATOM     58  C   UNL A   1      43.676  26.549  28.120  1.00  0.00     0.074 A 
ATOM     59  C   UNL A   1      44.240  31.183  32.555  1.00  0.00     0.029 A 
ATOM     60  N   UNL A   1      45.060  29.249  31.919  1.00  0.00    -0.354 N 
ATOM     61  N   UNL A   1      44.414  27.607  27.915  1.00  0.00    -0.248 NA
ATOM     62  C   UNL A   1      43.798  25.950  29.442  1.00  0.00     0.031 C 
ATOM     63  C   UNL A   1      44.646  31.262  31.190  1.00  0.00     0.029 A 
ATOM     64  C   UNL A   1      44.926  29.965  30.755  1.00  0.00     0.049 A 
ATOM     65  H   UNL A   1      45.648  28.475  32.069  1.00  0.00     0.167 HD
ATOM     66  C   UNL A   1      44.755  28.054  29.184  1.00  0.00     0.074 A 
ATOM     67  C   UNL A   1      44.410  26.951  30.082  1.00  0.00     0.031 C 
ATOM     68  C   UNL A   1      44.999  29.375  29.438  1.00  0.00     0.037 A 
BRANCH  55  69
ATOM     69  C   UNL A   1      43.815  27.884  34.477  1.00  0.00     0.057 A 
ATOM     70  C   UNL A   1      43.731  26.540  34.067  1.00  0.00     0.134 A 
ATOM     71  C   UNL A   1      44.109  28.076  35.841  1.00  0.00     0.134 A 
ATOM     72  F   UNL A   1      43.438  26.225  32.797  1.00  0.00    -0.206 F 
ATOM     73  C   UNL A   1      43.864  25.471  34.963  1.00  0.00     0.040 A 
ATOM     74  C   UNL A   1      44.296  27.016  36.734  1.00  0.00     0.040 A 
ATOM     75  F   UNL A   1      44.128  29.290  36.404  1.00  0.00    -0.206 F 
ATOM     76  C   UNL A   1      44.142  25.708  36.303  1.00  0.00     0.006 A 
ENDBRANCH  55  69
BRANCH  56  77
ATOM     77  C   UNL A   1      42.216  24.947  26.657  1.00  0.00     0.057 A 
ATOM     78  C   UNL A   1      42.967  24.578  25.533  1.00  0.00     0.134 A 
ATOM     79  C   UNL A   1      41.438  23.929  27.238  1.00  0.00     0.134 A 
ATOM     80  F   UNL A   1      43.774  25.464  24.931  1.00  0.00    -0.206 F 
ATOM     81  C   UNL A   1      42.961  23.269  25.029  1.00  0.00     0.040 A 
ATOM     82  C   UNL A   1      41.416  22.621  26.740  1.00  0.00     0.040 A 
ATOM     83  F   UNL A   1      40.736  24.142  28.360  1.00  0.00    -0.206 F 
ATOM     84  C   UNL A   1      42.191  22.283  25.639  1.00  0.00     0.006 A 
ENDBRANCH  56  77
BRANCH  68  85
ATOM     85  C   UNL A   1      45.090  30.332  28.279  1.00  0.00     0.057 A 
ATOM     86  C   UNL A   1      44.000  31.050  27.761  1.00  0.00     0.134 A 
ATOM     87  C   UNL A   1      46.356  30.686  27.796  1.00  0.00     0.134 A 
ATOM     88  F   UNL A   1      42.762  30.866  28.230  1.00  0.00    -0.206 F 
ATOM     89  C   UNL A   1      44.157  32.042  26.788  1.00  0.00     0.040 A 
ATOM     90  C   UNL A   1      46.530  31.699  26.848  1.00  0.00     0.040 A 
ATOM     91  F   UNL A   1      47.455  30.091  28.284  1.00  0.00    -0.206 F 
ATOM     92  C   UNL A   1      45.428  32.374  26.334  1.00  0.00     0.006 A 
ENDBRANCH  68  85
ENDBRANCH  42  43
ENDBRANCH  34  37
ENDBRANCH  32  33
ENDBRANCH  31  32
ENDBRANCH  30  31
ENDBRANCH   1  30
TORSDOF 17
ENDMDL
MODEL 3
REMARK VINA RESULT:     -12.0      1.503      2.383
REMARK SMILES COc1cccc([C@@H]2CN(C(=O)CSc3nc(C)n[nH]3)C[C@H]2C(=O)NCCCCNC(=O)c2ccc(-c3c4nc(c(-c5c(F)cccc5F)c5ccc([nH]5)c(-c5c(F)cccc5F)c5nc(c(-c6c(F)cccc6F)c6ccc3[nH]6)C=C5)C=C4)cc2)c1
REMARK SMILES IDX 26 1 25 2 23 3 24 4 22 6 8 7 9 8 10 9 21 10 7 11 3 12 4 13
REMARK SMILES IDX 87 14 5 15 6 16 2 17 1 18 11 19 12 20 13 21 14 22 15 23
REMARK SMILES IDX 16 24 20 25 17 26 19 27 18 29 27 30 28 31 29 32 30 33 31 34
REMARK SMILES IDX 32 36 33 37 34 38 86 39 35 40 85 41 36 42 37 43 38 44 79 45
REMARK SMILES IDX 39 46 84 47 78 48 80 49 40 50 83 51 77 52 76 53 41 55 67 56
REMARK SMILES IDX 50 57 66 58 51 59 54 60 65 61 81 62 52 63 53 64 64 66 82 67
REMARK SMILES IDX 55 68 42 69 43 70 48 71 44 72 45 73 47 74 49 75 46 76 68 77
REMARK SMILES IDX 69 78 74 79 70 80 71 81 73 82 75 83 72 84 56 85 57 86 62 87
REMARK SMILES IDX 58 88 59 89 61 90 63 91 60 92
REMARK H PARENT 25 5 20 28 30 35 80 54 54 65
REMARK Flexibility Score: inf
ROOT
ATOM      1  C   UNL A   1      34.067  27.976  26.401  1.00  0.00     0.116 C 
ENDROOT
BRANCH   1   2
ATOM      2  N   UNL A   1      32.808  27.886  27.121  1.00  0.00    -0.356 N 
ATOM      3  C   UNL A   1      31.573  27.454  26.746  1.00  0.00     0.225 C 
ATOM      4  O   UNL A   1      30.700  27.430  27.618  1.00  0.00    -0.275 OA
ATOM      5  H   UNL A   1      32.857  28.195  28.055  1.00  0.00     0.163 HD
BRANCH   3   6
ATOM      6  C   UNL A   1      31.242  26.992  25.336  1.00  0.00     0.107 C 
ATOM      7  C   UNL A   1      31.686  27.972  24.236  1.00  0.00     0.053 C 
ATOM      8  C   UNL A   1      32.107  27.071  23.077  1.00  0.00     0.128 C 
ATOM      9  N   UNL A   1      32.579  25.859  23.727  1.00  0.00    -0.341 N 
ATOM     10  C   UNL A   1      31.894  25.653  24.993  1.00  0.00     0.133 C 
BRANCH   7  11
ATOM     11  C   UNL A   1      30.693  29.040  23.844  1.00  0.00    -0.039 A 
ATOM     12  C   UNL A   1      29.013  29.950  22.337  1.00  0.00     0.119 A 
ATOM     13  C   UNL A   1      28.968  31.117  23.099  1.00  0.00     0.046 A 
ATOM     14  C   UNL A   1      29.877  28.916  22.708  1.00  0.00     0.050 A 
ATOM     15  C   UNL A   1      29.755  31.246  24.241  1.00  0.00     0.004 A 
ATOM     16  C   UNL A   1      30.611  30.213  24.612  1.00  0.00     0.004 A 
BRANCH  12  17
ATOM     17  O   UNL A   1      28.209  29.954  21.230  1.00  0.00    -0.497 OA
ATOM     18  C   UNL A   1      27.974  31.222  20.628  1.00  0.00     0.278 C 
ENDBRANCH  12  17
ENDBRANCH   7  11
BRANCH   9  19
ATOM     19  C   UNL A   1      33.429  24.912  23.213  1.00  0.00     0.233 C 
ATOM     20  O   UNL A   1      33.741  24.906  22.017  1.00  0.00    -0.274 OA
BRANCH  19  21
ATOM     21  C   UNL A   1      34.015  23.860  24.130  1.00  0.00     0.178 C 
BRANCH  21  22
ATOM     22  S   UNL A   1      35.432  23.019  23.408  1.00  0.00    -0.077 SA
BRANCH  22  23
ATOM     23  C   UNL A   1      36.685  23.056  24.590  1.00  0.00     0.184 A 
ATOM     24  N   UNL A   1      36.899  24.073  25.389  1.00  0.00    -0.206 NA
ATOM     25  N   UNL A   1      37.618  22.089  24.828  1.00  0.00    -0.254 N 
ATOM     26  C   UNL A   1      37.989  23.678  26.114  1.00  0.00     0.148 A 
ATOM     27  N   UNL A   1      38.469  22.470  25.800  1.00  0.00    -0.158 NA
ATOM     28  H   UNL A   1      37.662  21.227  24.353  1.00  0.00     0.192 HD
ATOM     29  C   UNL A   1      38.578  24.538  27.159  1.00  0.00     0.092 C 
ENDBRANCH  22  23
ENDBRANCH  21  22
ENDBRANCH  19  21
ENDBRANCH   9  19
ENDBRANCH   3   6
ENDBRANCH   1   2
BRANCH   1  30
ATOM     30  C   UNL A   1      34.973  29.102  26.910  1.00  0.00     0.023 C 
BRANCH  30  31
ATOM     31  C   UNL A   1      34.290  30.438  27.220  1.00  0.00     0.023 C 
BRANCH  31  32
ATOM     32  C   UNL A   1      35.234  31.553  27.641  1.00  0.00     0.116 C 
BRANCH  32  33
ATOM     33  N   UNL A   1      34.796  32.254  28.849  1.00  0.00    -0.352 N 
ATOM     34  C   UNL A   1      35.131  31.965  30.161  1.00  0.00     0.251 C 
ATOM     35  H   UNL A   1      34.192  33.020  28.713  1.00  0.00     0.163 HD
ATOM     36  O   UNL A   1      34.451  32.349  31.099  1.00  0.00    -0.269 OA
BRANCH  34  37
ATOM     37  C   UNL A   1      36.360  31.190  30.395  1.00  0.00     0.039 A 
ATOM     38  C   UNL A   1      36.387  29.796  30.307  1.00  0.00     0.014 A 
ATOM     39  C   UNL A   1      37.519  31.922  30.622  1.00  0.00     0.014 A 
ATOM     40  C   UNL A   1      37.621  29.151  30.359  1.00  0.00     0.010 A 
ATOM     41  C   UNL A   1      38.732  31.308  30.490  1.00  0.00     0.010 A 
ATOM     42  C   UNL A   1      38.793  29.919  30.428  1.00  0.00    -0.014 A 
BRANCH  42  43
ATOM     43  C   UNL A   1      40.112  29.304  30.352  1.00  0.00     0.031 A 
ATOM     44  C   UNL A   1      40.792  29.068  31.657  1.00  0.00     0.074 A 
ATOM     45  C   UNL A   1      40.567  28.750  29.208  1.00  0.00     0.049 A 
ATOM     46  N   UNL A   1      41.901  29.583  32.072  1.00  0.00    -0.248 NA
ATOM     47  C   UNL A   1      40.109  28.240  32.666  1.00  0.00     0.031 C 
ATOM     48  C   UNL A   1      39.883  28.604  27.916  1.00  0.00     0.029 A 
ATOM     49  N   UNL A   1      41.723  28.069  29.003  1.00  0.00    -0.354 N 
ATOM     50  C   UNL A   1      42.163  29.000  33.312  1.00  0.00     0.074 A 
ATOM     51  C   UNL A   1      40.955  28.315  33.695  1.00  0.00     0.031 C 
ATOM     52  C   UNL A   1      40.515  27.672  27.171  1.00  0.00     0.029 A 
ATOM     53  C   UNL A   1      41.738  27.294  27.851  1.00  0.00     0.049 A 
ATOM     54  H   UNL A   1      42.487  28.118  29.621  1.00  0.00     0.167 HD
ATOM     55  C   UNL A   1      43.425  28.947  33.821  1.00  0.00     0.037 A 
ATOM     56  C   UNL A   1      42.679  26.378  27.515  1.00  0.00     0.037 A 
ATOM     57  C   UNL A   1      44.310  29.847  33.125  1.00  0.00     0.049 A 
ATOM     58  C   UNL A   1      43.894  26.693  28.314  1.00  0.00     0.074 A 
ATOM     59  C   UNL A   1      44.305  31.209  32.886  1.00  0.00     0.029 A 
ATOM     60  N   UNL A   1      45.179  29.315  32.201  1.00  0.00    -0.354 N 
ATOM     61  N   UNL A   1      44.607  27.775  28.146  1.00  0.00    -0.248 NA
ATOM     62  C   UNL A   1      44.021  26.060  29.619  1.00  0.00     0.031 C 
ATOM     63  C   UNL A   1      44.719  31.337  31.527  1.00  0.00     0.029 A 
ATOM     64  C   UNL A   1      45.036  30.062  31.057  1.00  0.00     0.049 A 
ATOM     65  H   UNL A   1      45.785  28.552  32.334  1.00  0.00     0.167 HD
ATOM     66  C   UNL A   1      44.926  28.193  29.430  1.00  0.00     0.074 A 
ATOM     67  C   UNL A   1      44.602  27.057  30.293  1.00  0.00     0.031 C 
ATOM     68  C   UNL A   1      45.134  29.512  29.724  1.00  0.00     0.037 A 
BRANCH  55  69
ATOM     69  C   UNL A   1      43.949  27.845  34.708  1.00  0.00     0.057 A 
ATOM     70  C   UNL A   1      43.896  26.511  34.262  1.00  0.00     0.134 A 
ATOM     71  C   UNL A   1      44.234  28.007  36.078  1.00  0.00     0.134 A 
ATOM     72  F   UNL A   1      43.614  26.225  32.982  1.00  0.00    -0.206 F 
ATOM     73  C   UNL A   1      44.049  25.422  35.129  1.00  0.00     0.040 A 
ATOM     74  C   UNL A   1      44.441  26.927  36.942  1.00  0.00     0.040 A 
ATOM     75  F   UNL A   1      44.224  29.205  36.674  1.00  0.00    -0.206 F 
ATOM     76  C   UNL A   1      44.316  25.629  36.476  1.00  0.00     0.006 A 
ENDBRANCH  55  69
BRANCH  56  77
ATOM     77  C   UNL A   1      42.487  25.099  26.793  1.00  0.00     0.057 A 
ATOM     78  C   UNL A   1      43.046  24.892  25.525  1.00  0.00     0.134 A 
ATOM     79  C   UNL A   1      41.972  23.955  27.431  1.00  0.00     0.134 A 
ATOM     80  F   UNL A   1      43.600  25.910  24.851  1.00  0.00    -0.206 F 
ATOM     81  C   UNL A   1      43.108  23.621  24.935  1.00  0.00     0.040 A 
ATOM     82  C   UNL A   1      42.021  22.682  26.851  1.00  0.00     0.040 A 
ATOM     83  F   UNL A   1      41.481  24.014  28.678  1.00  0.00    -0.206 F 
ATOM     84  C   UNL A   1      42.604  22.509  25.603  1.00  0.00     0.006 A 
ENDBRANCH  56  77
BRANCH  68  85
ATOM     85  C   UNL A   1      45.210  30.505  28.594  1.00  0.00     0.057 A 
ATOM     86  C   UNL A   1      46.364  30.746  27.832  1.00  0.00     0.134 A 
ATOM     87  C   UNL A   1      44.026  31.095  28.136  1.00  0.00     0.134 A 
ATOM     88  F   UNL A   1      47.524  30.146  28.119  1.00  0.00    -0.206 F 
ATOM     89  C   UNL A   1      46.349  31.561  26.696  1.00  0.00     0.040 A 
ATOM     90  C   UNL A   1      43.990  31.884  26.984  1.00  0.00     0.040 A 
ATOM     91  F   UNL A   1      42.867  30.864  28.773  1.00  0.00    -0.206 F 
ATOM     92  C   UNL A   1      45.155  32.128  26.264  1.00  0.00     0.006 A 
ENDBRANCH  68  85
ENDBRANCH  42  43
ENDBRANCH  34  37
ENDBRANCH  32  33
ENDBRANCH  31  32
ENDBRANCH  30  31
ENDBRANCH   1  30
TORSDOF 17
ENDMDL
