MODEL 1
REMARK VINA RESULT:     -11.5      0.000      0.000
REMARK SMILES Cn1ccnc1N1[C@@H]2CC[C@H]1C[C@H](CC(=O)NCCCCNC(=O)c1ccc(-c3c4nc(c(-c5c(F)cccc5F)c5ccc([nH]5)c(-c5c(F)cccc5F)c5nc(c(-c6c(F)cccc6F)c6ccc3[nH]6)C=C5)C=C4)cc1)C2
REMARK SMILES IDX 19 1 18 2 17 3 15 4 16 5 14 7 13 8 7 9 8 10 11 11 9 12 79 13
REMARK SMILES IDX 10 14 12 15 6 16 1 17 2 18 3 19 4 20 5 21 20 22 21 23 22 24
REMARK SMILES IDX 23 25 24 27 25 28 26 29 78 30 27 31 77 32 28 33 29 34 30 35
REMARK SMILES IDX 71 36 31 37 76 38 70 39 72 40 32 41 75 42 69 43 68 44 33 46
REMARK SMILES IDX 59 47 42 48 58 49 43 50 46 51 57 52 73 53 44 54 45 55 56 57
REMARK SMILES IDX 74 58 47 59 34 60 35 61 40 62 36 63 37 64 39 65 41 66 38 67
REMARK SMILES IDX 60 68 61 69 66 70 62 71 63 72 65 73 67 74 64 75 48 76 49 77
REMARK SMILES IDX 54 78 50 79 51 80 53 81 55 82 52 83
REMARK H PARENT 17 6 22 26 72 45 46 56
REMARK Flexibility Score: inf
ROOT
ATOM      1  C   UNL A   1      37.022  22.431  24.370  1.00  0.00     0.023 C 
ENDROOT
BRANCH   1   2
ATOM      2  C   UNL A   1      36.610  23.539  25.346  1.00  0.00     0.116 C 
BRANCH   2   3
ATOM      3  N   UNL A   1      35.904  23.005  26.498  1.00  0.00    -0.356 N 
ATOM      4  C   UNL A   1      34.569  22.959  26.784  1.00  0.00     0.220 C 
ATOM      5  O   UNL A   1      34.229  22.480  27.868  1.00  0.00    -0.275 OA
ATOM      6  H   UNL A   1      36.485  22.609  27.188  1.00  0.00     0.163 HD
BRANCH   4   7
ATOM      7  C   UNL A   1      33.529  23.502  25.811  1.00  0.00     0.103 C 
BRANCH   7   8
ATOM      8  C   UNL A   1      33.298  25.019  25.968  1.00  0.00     0.002 C 
ATOM      9  N   UNL A   1      31.602  27.071  24.767  1.00  0.00    -0.336 N 
ATOM     10  C   UNL A   1      31.489  26.833  26.216  1.00  0.00     0.086 C 
ATOM     11  C   UNL A   1      33.041  27.169  24.536  1.00  0.00     0.086 C 
ATOM     12  C   UNL A   1      32.530  27.803  26.813  1.00  0.00     0.027 C 
ATOM     13  C   UNL A   1      31.871  25.349  26.456  1.00  0.00     0.029 C 
ATOM     14  C   UNL A   1      33.530  28.060  25.679  1.00  0.00     0.027 C 
ATOM     15  C   UNL A   1      33.602  25.755  24.657  1.00  0.00     0.029 C 
BRANCH   9  16
ATOM     16  C   UNL A   1      30.789  27.999  24.194  1.00  0.00     0.205 A 
ATOM     17  C   UNL A   1      28.841  26.437  23.772  1.00  0.00     0.153 C 
ATOM     18  N   UNL A   1      29.553  27.686  23.671  1.00  0.00    -0.320 N 
ATOM     19  C   UNL A   1      29.065  28.805  23.049  1.00  0.00     0.109 A 
ATOM     20  C   UNL A   1      30.002  29.779  23.292  1.00  0.00     0.133 A 
ATOM     21  N   UNL A   1      31.047  29.277  24.020  1.00  0.00    -0.221 NA
ENDBRANCH   9  16
ENDBRANCH   7   8
ENDBRANCH   4   7
ENDBRANCH   2   3
ENDBRANCH   1   2
BRANCH   1  22
ATOM     22  C   UNL A   1      37.487  21.131  24.995  1.00  0.00     0.023 C 
BRANCH  22  23
ATOM     23  C   UNL A   1      38.799  21.239  25.740  1.00  0.00     0.116 C 
BRANCH  23  24
ATOM     24  N   UNL A   1      39.619  20.035  25.663  1.00  0.00    -0.352 N 
ATOM     25  C   UNL A   1      40.948  19.877  26.004  1.00  0.00     0.251 C 
ATOM     26  H   UNL A   1      39.165  19.229  25.324  1.00  0.00     0.163 HD
ATOM     27  O   UNL A   1      41.529  18.830  25.802  1.00  0.00    -0.269 OA
BRANCH  25  28
ATOM     28  C   UNL A   1      41.655  21.043  26.576  1.00  0.00     0.039 A 
ATOM     29  C   UNL A   1      42.170  22.015  25.716  1.00  0.00     0.014 A 
ATOM     30  C   UNL A   1      41.679  21.226  27.958  1.00  0.00     0.014 A 
ATOM     31  C   UNL A   1      42.622  23.224  26.248  1.00  0.00     0.010 A 
ATOM     32  C   UNL A   1      42.011  22.470  28.470  1.00  0.00     0.010 A 
ATOM     33  C   UNL A   1      42.494  23.480  27.623  1.00  0.00    -0.014 A 
BRANCH  33  34
ATOM     34  C   UNL A   1      42.881  24.779  28.222  1.00  0.00     0.031 A 
ATOM     35  C   UNL A   1      41.821  25.817  28.464  1.00  0.00     0.074 A 
ATOM     36  C   UNL A   1      44.178  25.065  28.445  1.00  0.00     0.049 A 
ATOM     37  N   UNL A   1      41.952  27.067  28.826  1.00  0.00    -0.248 NA
ATOM     38  C   UNL A   1      40.429  25.409  28.211  1.00  0.00     0.031 C 
ATOM     39  C   UNL A   1      45.307  24.167  28.189  1.00  0.00     0.029 A 
ATOM     40  N   UNL A   1      44.767  26.207  28.926  1.00  0.00    -0.354 N 
ATOM     41  C   UNL A   1      40.670  27.599  28.801  1.00  0.00     0.074 A 
ATOM     42  C   UNL A   1      39.784  26.558  28.332  1.00  0.00     0.031 C 
ATOM     43  C   UNL A   1      46.448  24.783  28.543  1.00  0.00     0.029 A 
ATOM     44  C   UNL A   1      46.137  26.128  29.013  1.00  0.00     0.049 A 
ATOM     45  H   UNL A   1      44.258  27.007  29.186  1.00  0.00     0.167 HD
ATOM     46  C   UNL A   1      40.260  28.836  29.167  1.00  0.00     0.037 A 
ATOM     47  C   UNL A   1      47.035  27.042  29.424  1.00  0.00     0.037 A 
ATOM     48  C   UNL A   1      41.134  29.843  29.698  1.00  0.00     0.049 A 
ATOM     49  C   UNL A   1      46.552  28.391  29.878  1.00  0.00     0.074 A 
ATOM     50  C   UNL A   1      40.810  31.098  30.183  1.00  0.00     0.029 A 
ATOM     51  N   UNL A   1      42.507  29.701  29.829  1.00  0.00    -0.354 N 
ATOM     52  N   UNL A   1      45.329  28.861  29.910  1.00  0.00    -0.248 NA
ATOM     53  C   UNL A   1      47.572  29.335  30.357  1.00  0.00     0.031 C 
ATOM     54  C   UNL A   1      41.993  31.726  30.584  1.00  0.00     0.029 A 
ATOM     55  C   UNL A   1      43.047  30.850  30.380  1.00  0.00     0.049 A 
ATOM     56  H   UNL A   1      43.021  28.904  29.568  1.00  0.00     0.167 HD
ATOM     57  C   UNL A   1      45.427  30.142  30.436  1.00  0.00     0.074 A 
ATOM     58  C   UNL A   1      46.830  30.373  30.717  1.00  0.00     0.031 C 
ATOM     59  C   UNL A   1      44.445  31.048  30.665  1.00  0.00     0.037 A 
BRANCH  46  60
ATOM     60  C   UNL A   1      38.801  29.147  29.019  1.00  0.00     0.057 A 
ATOM     61  C   UNL A   1      37.911  29.050  30.096  1.00  0.00     0.134 A 
ATOM     62  C   UNL A   1      38.279  29.548  27.782  1.00  0.00     0.134 A 
ATOM     63  F   UNL A   1      38.345  28.652  31.302  1.00  0.00    -0.206 F 
ATOM     64  C   UNL A   1      36.548  29.308  29.944  1.00  0.00     0.040 A 
ATOM     65  C   UNL A   1      36.922  29.837  27.624  1.00  0.00     0.040 A 
ATOM     66  F   UNL A   1      39.076  29.661  26.710  1.00  0.00    -0.206 F 
ATOM     67  C   UNL A   1      36.051  29.708  28.706  1.00  0.00     0.006 A 
ENDBRANCH  46  60
BRANCH  47  68
ATOM     68  C   UNL A   1      48.479  26.700  29.464  1.00  0.00     0.057 A 
ATOM     69  C   UNL A   1      49.027  26.030  30.564  1.00  0.00     0.134 A 
ATOM     70  C   UNL A   1      49.342  27.025  28.411  1.00  0.00     0.134 A 
ATOM     71  F   UNL A   1      48.252  25.707  31.610  1.00  0.00    -0.206 F 
ATOM     72  C   UNL A   1      50.384  25.712  30.627  1.00  0.00     0.040 A 
ATOM     73  C   UNL A   1      50.698  26.694  28.451  1.00  0.00     0.040 A 
ATOM     74  F   UNL A   1      48.877  27.658  27.325  1.00  0.00    -0.206 F 
ATOM     75  C   UNL A   1      51.224  26.040  29.564  1.00  0.00     0.006 A 
ENDBRANCH  47  68
BRANCH  59  76
ATOM     76  C   UNL A   1      44.845  32.353  31.283  1.00  0.00     0.057 A 
ATOM     77  C   UNL A   1      45.164  33.469  30.500  1.00  0.00     0.134 A 
ATOM     78  C   UNL A   1      44.852  32.508  32.674  1.00  0.00     0.134 A 
ATOM     79  F   UNL A   1      45.185  33.378  29.162  1.00  0.00    -0.206 F 
ATOM     80  C   UNL A   1      45.487  34.694  31.083  1.00  0.00     0.040 A 
ATOM     81  C   UNL A   1      45.154  33.734  33.267  1.00  0.00     0.040 A 
ATOM     82  F   UNL A   1      44.548  31.476  33.476  1.00  0.00    -0.206 F 
ATOM     83  C   UNL A   1      45.475  34.831  32.471  1.00  0.00     0.006 A 
ENDBRANCH  59  76
ENDBRANCH  33  34
ENDBRANCH  25  28
ENDBRANCH  23  24
ENDBRANCH  22  23
ENDBRANCH   1  22
TORSDOF 13
ENDMDL
MODEL 2
REMARK VINA RESULT:     -11.4      0.526      6.330
REMARK SMILES Cn1ccnc1N1[C@@H]2CC[C@H]1C[C@H](CC(=O)NCCCCNC(=O)c1ccc(-c3c4nc(c(-c5c(F)cccc5F)c5ccc([nH]5)c(-c5c(F)cccc5F)c5nc(c(-c6c(F)cccc6F)c6ccc3[nH]6)C=C5)C=C4)cc1)C2
REMARK SMILES IDX 19 1 18 2 17 3 15 4 16 5 14 7 13 8 7 9 8 10 11 11 9 12 79 13
REMARK SMILES IDX 10 14 12 15 6 16 1 17 2 18 3 19 4 20 5 21 20 22 21 23 22 24
REMARK SMILES IDX 23 25 24 27 25 28 26 29 78 30 27 31 77 32 28 33 29 34 30 35
REMARK SMILES IDX 71 36 31 37 76 38 70 39 72 40 32 41 75 42 69 43 68 44 33 46
REMARK SMILES IDX 59 47 42 48 58 49 43 50 46 51 57 52 73 53 44 54 45 55 56 57
REMARK SMILES IDX 74 58 47 59 34 60 35 61 40 62 36 63 37 64 39 65 41 66 38 67
REMARK SMILES IDX 60 68 61 69 66 70 62 71 63 72 65 73 67 74 64 75 48 76 49 77
REMARK SMILES IDX 54 78 50 79 51 80 53 81 55 82 52 83
REMARK H PARENT 17 6 22 26 72 45 46 56
REMARK Flexibility Score: inf
ROOT
ATOM      1  C   UNL A   1      37.163  21.698  24.410  1.00  0.00     0.023 C 
ENDROOT
BRANCH   1   2
ATOM      2  C   UNL A   1      36.812  22.819  25.394  1.00  0.00     0.116 C 
BRANCH   2   3
ATOM      3  N   UNL A   1      35.977  22.338  26.482  1.00  0.00    -0.356 N 
ATOM      4  C   UNL A   1      34.622  22.376  26.650  1.00  0.00     0.220 C 
ATOM      5  O   UNL A   1      34.160  21.927  27.701  1.00  0.00    -0.275 OA
ATOM      6  H   UNL A   1      36.470  21.912  27.220  1.00  0.00     0.163 HD
BRANCH   4   7
ATOM      7  C   UNL A   1      33.706  22.976  25.590  1.00  0.00     0.103 C 
BRANCH   7   8
ATOM      8  C   UNL A   1      33.479  24.489  25.781  1.00  0.00     0.002 C 
ATOM      9  N   UNL A   1      31.950  26.615  24.488  1.00  0.00    -0.336 N 
ATOM     10  C   UNL A   1      31.677  26.322  25.906  1.00  0.00     0.086 C 
ATOM     11  C   UNL A   1      33.406  26.697  24.419  1.00  0.00     0.086 C 
ATOM     12  C   UNL A   1      32.659  27.251  26.650  1.00  0.00     0.027 C 
ATOM     13  C   UNL A   1      32.012  24.825  26.125  1.00  0.00     0.029 C 
ATOM     14  C   UNL A   1      33.780  27.534  25.642  1.00  0.00     0.027 C 
ATOM     15  C   UNL A   1      33.933  25.270  24.543  1.00  0.00     0.029 C 
BRANCH   9  16
ATOM     16  C   UNL A   1      31.217  27.578  23.868  1.00  0.00     0.205 A 
ATOM     17  C   UNL A   1      29.000  26.358  23.988  1.00  0.00     0.153 C 
ATOM     18  N   UNL A   1      29.879  27.423  23.573  1.00  0.00    -0.320 N 
ATOM     19  C   UNL A   1      29.485  28.504  22.831  1.00  0.00     0.109 A 
ATOM     20  C   UNL A   1      30.593  29.313  22.772  1.00  0.00     0.133 A 
ATOM     21  N   UNL A   1      31.645  28.744  23.437  1.00  0.00    -0.221 NA
ENDBRANCH   9  16
ENDBRANCH   7   8
ENDBRANCH   4   7
ENDBRANCH   2   3
ENDBRANCH   1   2
BRANCH   1  22
ATOM     22  C   UNL A   1      37.772  20.448  25.012  1.00  0.00     0.023 C 
BRANCH  22  23
ATOM     23  C   UNL A   1      39.029  20.699  25.815  1.00  0.00     0.116 C 
BRANCH  23  24
ATOM     24  N   UNL A   1      39.977  19.590  25.785  1.00  0.00    -0.352 N 
ATOM     25  C   UNL A   1      41.318  19.597  26.111  1.00  0.00     0.251 C 
ATOM     26  H   UNL A   1      39.612  18.724  25.492  1.00  0.00     0.163 HD
ATOM     27  O   UNL A   1      42.010  18.611  25.952  1.00  0.00    -0.269 OA
BRANCH  25  28
ATOM     28  C   UNL A   1      41.898  20.861  26.614  1.00  0.00     0.039 A 
ATOM     29  C   UNL A   1      42.383  21.798  25.700  1.00  0.00     0.014 A 
ATOM     30  C   UNL A   1      41.829  21.160  27.975  1.00  0.00     0.014 A 
ATOM     31  C   UNL A   1      42.707  23.080  26.147  1.00  0.00     0.010 A 
ATOM     32  C   UNL A   1      42.032  22.465  28.393  1.00  0.00     0.010 A 
ATOM     33  C   UNL A   1      42.481  23.438  27.486  1.00  0.00    -0.014 A 
BRANCH  33  34
ATOM     34  C   UNL A   1      42.730  24.810  27.989  1.00  0.00     0.031 A 
ATOM     35  C   UNL A   1      44.119  25.189  28.421  1.00  0.00     0.074 A 
ATOM     36  C   UNL A   1      41.705  25.668  28.158  1.00  0.00     0.049 A 
ATOM     37  N   UNL A   1      44.530  26.269  29.034  1.00  0.00    -0.248 NA
ATOM     38  C   UNL A   1      45.179  24.196  28.178  1.00  0.00     0.031 C 
ATOM     39  C   UNL A   1      40.302  25.395  27.841  1.00  0.00     0.029 A 
ATOM     40  N   UNL A   1      41.688  26.945  28.659  1.00  0.00    -0.354 N 
ATOM     41  C   UNL A   1      45.880  26.062  29.286  1.00  0.00     0.074 A 
ATOM     42  C   UNL A   1      46.205  24.735  28.816  1.00  0.00     0.031 C 
ATOM     43  C   UNL A   1      39.566  26.483  28.127  1.00  0.00     0.029 A 
ATOM     44  C   UNL A   1      40.437  27.513  28.683  1.00  0.00     0.049 A 
ATOM     45  H   UNL A   1      42.496  27.412  28.971  1.00  0.00     0.167 HD
ATOM     46  C   UNL A   1      46.778  26.914  29.832  1.00  0.00     0.037 A 
ATOM     47  C   UNL A   1      40.042  28.727  29.109  1.00  0.00     0.037 A 
ATOM     48  C   UNL A   1      46.465  28.257  30.234  1.00  0.00     0.049 A 
ATOM     49  C   UNL A   1      41.066  29.678  29.661  1.00  0.00     0.074 A 
ATOM     50  C   UNL A   1      47.318  29.234  30.716  1.00  0.00     0.029 A 
ATOM     51  N   UNL A   1      45.197  28.816  30.183  1.00  0.00    -0.354 N 
ATOM     52  N   UNL A   1      42.353  29.495  29.837  1.00  0.00    -0.248 NA
ATOM     53  C   UNL A   1      40.587  31.006  30.071  1.00  0.00     0.031 C 
ATOM     54  C   UNL A   1      46.559  30.378  30.981  1.00  0.00     0.029 A 
ATOM     55  C   UNL A   1      45.242  30.124  30.633  1.00  0.00     0.049 A 
ATOM     56  H   UNL A   1      44.387  28.351  29.874  1.00  0.00     0.167 HD
ATOM     57  C   UNL A   1      42.841  30.688  30.350  1.00  0.00     0.074 A 
ATOM     58  C   UNL A   1      41.714  31.593  30.452  1.00  0.00     0.031 C 
ATOM     59  C   UNL A   1      44.109  31.008  30.708  1.00  0.00     0.037 A 
BRANCH  46  60
ATOM     60  C   UNL A   1      48.182  26.415  30.003  1.00  0.00     0.057 A 
ATOM     61  C   UNL A   1      49.153  26.584  29.008  1.00  0.00     0.134 A 
ATOM     62  C   UNL A   1      48.567  25.757  31.178  1.00  0.00     0.134 A 
ATOM     63  F   UNL A   1      48.842  27.189  27.851  1.00  0.00    -0.206 F 
ATOM     64  C   UNL A   1      50.448  26.088  29.159  1.00  0.00     0.040 A 
ATOM     65  C   UNL A   1      49.868  25.281  31.353  1.00  0.00     0.040 A 
ATOM     66  F   UNL A   1      47.687  25.562  32.171  1.00  0.00    -0.206 F 
ATOM     67  C   UNL A   1      50.810  25.438  30.337  1.00  0.00     0.006 A 
ENDBRANCH  46  60
BRANCH  47  68
ATOM     68  C   UNL A   1      38.618  29.128  28.993  1.00  0.00     0.057 A 
ATOM     69  C   UNL A   1      38.097  29.578  27.774  1.00  0.00     0.134 A 
ATOM     70  C   UNL A   1      37.745  29.069  30.085  1.00  0.00     0.134 A 
ATOM     71  F   UNL A   1      38.889  29.672  26.696  1.00  0.00    -0.206 F 
ATOM     72  C   UNL A   1      36.764  29.973  27.648  1.00  0.00     0.040 A 
ATOM     73  C   UNL A   1      36.404  29.442  29.969  1.00  0.00     0.040 A 
ATOM     74  F   UNL A   1      38.180  28.638  31.278  1.00  0.00    -0.206 F 
ATOM     75  C   UNL A   1      35.912  29.900  28.748  1.00  0.00     0.006 A 
ENDBRANCH  47  68
BRANCH  59  76
ATOM     76  C   UNL A   1      44.351  32.401  31.203  1.00  0.00     0.057 A 
ATOM     77  C   UNL A   1      44.605  33.460  30.324  1.00  0.00     0.134 A 
ATOM     78  C   UNL A   1      44.268  32.693  32.570  1.00  0.00     0.134 A 
ATOM     79  F   UNL A   1      44.707  33.240  29.005  1.00  0.00    -0.206 F 
ATOM     80  C   UNL A   1      44.780  34.763  30.790  1.00  0.00     0.040 A 
ATOM     81  C   UNL A   1      44.420  33.996  33.046  1.00  0.00     0.040 A 
ATOM     82  F   UNL A   1      44.019  31.720  33.460  1.00  0.00    -0.206 F 
ATOM     83  C   UNL A   1      44.680  35.034  32.155  1.00  0.00     0.006 A 
ENDBRANCH  59  76
ENDBRANCH  33  34
ENDBRANCH  25  28
ENDBRANCH  23  24
ENDBRANCH  22  23
ENDBRANCH   1  22
TORSDOF 13
ENDMDL
MODEL 3
REMARK VINA RESULT:     -11.4      5.300      9.891
REMARK SMILES Cn1ccnc1N1[C@@H]2CC[C@H]1C[C@H](CC(=O)NCCCCNC(=O)c1ccc(-c3c4nc(c(-c5c(F)cccc5F)c5ccc([nH]5)c(-c5c(F)cccc5F)c5nc(c(-c6c(F)cccc6F)c6ccc3[nH]6)C=C5)C=C4)cc1)C2
REMARK SMILES IDX 19 1 18 2 17 3 15 4 16 5 14 7 13 8 7 9 8 10 11 11 9 12 79 13
REMARK SMILES IDX 10 14 12 15 6 16 1 17 2 18 3 19 4 20 5 21 20 22 21 23 22 24
REMARK SMILES IDX 23 25 24 27 25 28 26 29 78 30 27 31 77 32 28 33 29 34 30 35
REMARK SMILES IDX 71 36 31 37 76 38 70 39 72 40 32 41 75 42 69 43 68 44 33 46
REMARK SMILES IDX 59 47 42 48 58 49 43 50 46 51 57 52 73 53 44 54 45 55 56 57
REMARK SMILES IDX 74 58 47 59 34 60 35 61 40 62 36 63 37 64 39 65 41 66 38 67
REMARK SMILES IDX 60 68 61 69 66 70 62 71 63 72 65 73 67 74 64 75 48 76 49 77
REMARK SMILES IDX 54 78 50 79 51 80 53 81 55 82 52 83
REMARK H PARENT 17 6 22 26 72 45 46 56
REMARK Flexibility Score: inf
ROOT
ATOM      1  C   UNL A   1      34.619  33.512  28.649  1.00  0.00     0.023 C 
ENDROOT
BRANCH   1   2
ATOM      2  C   UNL A   1      34.387  32.113  28.067  1.00  0.00     0.116 C 
BRANCH   2   3
ATOM      3  N   UNL A   1      35.639  31.418  27.822  1.00  0.00    -0.356 N 
ATOM      4  C   UNL A   1      35.900  30.092  27.626  1.00  0.00     0.220 C 
ATOM      5  O   UNL A   1      37.076  29.753  27.476  1.00  0.00    -0.275 OA
ATOM      6  H   UNL A   1      36.432  32.001  27.790  1.00  0.00     0.163 HD
BRANCH   4   7
ATOM      7  C   UNL A   1      34.783  29.055  27.616  1.00  0.00     0.103 C 
BRANCH   7   8
ATOM      8  C   UNL A   1      34.270  28.740  26.196  1.00  0.00     0.002 C 
ATOM      9  N   UNL A   1      31.740  28.004  24.938  1.00  0.00    -0.336 N 
ATOM     10  C   UNL A   1      32.402  29.245  24.500  1.00  0.00     0.086 C 
ATOM     11  C   UNL A   1      32.810  27.010  24.926  1.00  0.00     0.086 C 
ATOM     12  C   UNL A   1      33.309  28.769  23.346  1.00  0.00     0.027 C 
ATOM     13  C   UNL A   1      33.222  29.763  25.709  1.00  0.00     0.029 C 
ATOM     14  C   UNL A   1      33.536  27.276  23.608  1.00  0.00     0.027 C 
ATOM     15  C   UNL A   1      33.706  27.316  26.123  1.00  0.00     0.029 C 
BRANCH   9  16
ATOM     16  C   UNL A   1      30.543  27.674  24.383  1.00  0.00     0.205 A 
ATOM     17  C   UNL A   1      30.171  25.578  25.756  1.00  0.00     0.153 C 
ATOM     18  N   UNL A   1      29.864  26.519  24.708  1.00  0.00    -0.320 N 
ATOM     19  C   UNL A   1      28.780  26.421  23.876  1.00  0.00     0.109 A 
ATOM     20  C   UNL A   1      28.808  27.570  23.126  1.00  0.00     0.133 A 
ATOM     21  N   UNL A   1      29.883  28.346  23.466  1.00  0.00    -0.221 NA
ENDBRANCH   9  16
ENDBRANCH   7   8
ENDBRANCH   4   7
ENDBRANCH   2   3
ENDBRANCH   1   2
BRANCH   1  22
ATOM     22  C   UNL A   1      33.376  34.330  28.934  1.00  0.00     0.023 C 
BRANCH  22  23
ATOM     23  C   UNL A   1      33.654  35.678  29.562  1.00  0.00     0.116 C 
BRANCH  23  24
ATOM     24  N   UNL A   1      32.617  36.120  30.487  1.00  0.00    -0.352 N 
ATOM     25  C   UNL A   1      32.528  35.900  31.847  1.00  0.00     0.251 C 
ATOM     26  H   UNL A   1      31.884  36.644  30.090  1.00  0.00     0.163 HD
ATOM     27  O   UNL A   1      31.554  36.255  32.481  1.00  0.00    -0.269 OA
BRANCH  25  28
ATOM     28  C   UNL A   1      33.636  35.170  32.501  1.00  0.00     0.039 A 
ATOM     29  C   UNL A   1      33.446  33.839  32.876  1.00  0.00     0.014 A 
ATOM     30  C   UNL A   1      34.891  35.770  32.607  1.00  0.00     0.014 A 
ATOM     31  C   UNL A   1      34.549  33.078  33.268  1.00  0.00     0.010 A 
ATOM     32  C   UNL A   1      35.998  34.981  32.876  1.00  0.00     0.010 A 
ATOM     33  C   UNL A   1      35.839  33.629  33.218  1.00  0.00    -0.014 A 
BRANCH  33  34
ATOM     34  C   UNL A   1      37.048  32.837  33.544  1.00  0.00     0.031 A 
ATOM     35  C   UNL A   1      37.771  33.103  34.835  1.00  0.00     0.074 A 
ATOM     36  C   UNL A   1      37.555  31.969  32.647  1.00  0.00     0.049 A 
ATOM     37  N   UNL A   1      38.925  32.648  35.249  1.00  0.00    -0.248 NA
ATOM     38  C   UNL A   1      37.132  34.052  35.763  1.00  0.00     0.031 C 
ATOM     39  C   UNL A   1      36.985  31.672  31.331  1.00  0.00     0.029 A 
ATOM     40  N   UNL A   1      38.680  31.186  32.704  1.00  0.00    -0.354 N 
ATOM     41  C   UNL A   1      39.166  33.287  36.457  1.00  0.00     0.074 A 
ATOM     42  C   UNL A   1      38.072  34.205  36.682  1.00  0.00     0.031 C 
ATOM     43  C   UNL A   1      37.748  30.751  30.718  1.00  0.00     0.029 A 
ATOM     44  C   UNL A   1      38.878  30.421  31.579  1.00  0.00     0.049 A 
ATOM     45  H   UNL A   1      39.288  31.172  33.477  1.00  0.00     0.167 HD
ATOM     46  C   UNL A   1      40.192  33.105  37.321  1.00  0.00     0.037 A 
ATOM     47  C   UNL A   1      39.865  29.556  31.280  1.00  0.00     0.037 A 
ATOM     48  C   UNL A   1      41.240  32.142  37.126  1.00  0.00     0.049 A 
ATOM     49  C   UNL A   1      40.966  29.327  32.278  1.00  0.00     0.074 A 
ATOM     50  C   UNL A   1      42.278  31.812  37.979  1.00  0.00     0.029 A 
ATOM     51  N   UNL A   1      41.370  31.342  36.001  1.00  0.00    -0.354 N 
ATOM     52  N   UNL A   1      41.150  29.891  33.447  1.00  0.00    -0.248 NA
ATOM     53  C   UNL A   1      41.993  28.339  31.919  1.00  0.00     0.031 C 
ATOM     54  C   UNL A   1      43.052  30.828  37.357  1.00  0.00     0.029 A 
ATOM     55  C   UNL A   1      42.478  30.522  36.134  1.00  0.00     0.049 A 
ATOM     56  H   UNL A   1      40.766  31.354  35.225  1.00  0.00     0.167 HD
ATOM     57  C   UNL A   1      42.295  29.310  33.975  1.00  0.00     0.074 A 
ATOM     58  C   UNL A   1      42.760  28.343  33.001  1.00  0.00     0.031 C 
ATOM     59  C   UNL A   1      42.909  29.556  35.158  1.00  0.00     0.037 A 
BRANCH  46  60
ATOM     60  C   UNL A   1      40.209  33.954  38.556  1.00  0.00     0.057 A 
ATOM     61  C   UNL A   1      39.536  33.572  39.725  1.00  0.00     0.134 A 
ATOM     62  C   UNL A   1      40.906  35.168  38.579  1.00  0.00     0.134 A 
ATOM     63  F   UNL A   1      38.835  32.429  39.762  1.00  0.00    -0.206 F 
ATOM     64  C   UNL A   1      39.528  34.382  40.861  1.00  0.00     0.040 A 
ATOM     65  C   UNL A   1      40.928  35.974  39.718  1.00  0.00     0.040 A 
ATOM     66  F   UNL A   1      41.571  35.593  37.494  1.00  0.00    -0.206 F 
ATOM     67  C   UNL A   1      40.230  35.585  40.861  1.00  0.00     0.006 A 
ENDBRANCH  46  60
BRANCH  47  68
ATOM     68  C   UNL A   1      39.836  28.810  29.998  1.00  0.00     0.057 A 
ATOM     69  C   UNL A   1      39.151  27.593  29.891  1.00  0.00     0.134 A 
ATOM     70  C   UNL A   1      40.482  29.290  28.853  1.00  0.00     0.134 A 
ATOM     71  F   UNL A   1      38.528  27.075  30.959  1.00  0.00    -0.206 F 
ATOM     72  C   UNL A   1      39.124  26.870  28.698  1.00  0.00     0.040 A 
ATOM     73  C   UNL A   1      40.445  28.587  27.647  1.00  0.00     0.040 A 
ATOM     74  F   UNL A   1      41.146  30.453  28.887  1.00  0.00    -0.206 F 
ATOM     75  C   UNL A   1      39.769  27.370  27.568  1.00  0.00     0.006 A 
ENDBRANCH  47  68
BRANCH  59  76
ATOM     76  C   UNL A   1      44.123  28.741  35.482  1.00  0.00     0.057 A 
ATOM     77  C   UNL A   1      45.410  29.171  35.139  1.00  0.00     0.134 A 
ATOM     78  C   UNL A   1      44.006  27.545  36.200  1.00  0.00     0.134 A 
ATOM     79  F   UNL A   1      45.585  30.304  34.441  1.00  0.00    -0.206 F 
ATOM     80  C   UNL A   1      46.540  28.432  35.489  1.00  0.00     0.040 A 
ATOM     81  C   UNL A   1      45.129  26.807  36.574  1.00  0.00     0.040 A 
ATOM     82  F   UNL A   1      42.799  27.085  36.565  1.00  0.00    -0.206 F 
ATOM     83  C   UNL A   1      46.400  27.249  36.215  1.00  0.00     0.006 A 
ENDBRANCH  59  76
ENDBRANCH  33  34
ENDBRANCH  25  28
ENDBRANCH  23  24
ENDBRANCH  22  23
ENDBRANCH   1  22
TORSDOF 13
ENDMDL
