MODEL 1
REMARK VINA RESULT:     -12.6      0.000      0.000
REMARK SMILES COc1cc(/C=N/c2cccc(F)c2)ccc1OCc1cccc(C(=O)NCCCCNC(=O)c2ccc(-c3c4nc(c(-c5c(F)cccc5F)c5ccc([nH]5)c(-c5c(F)cccc5F)c5nc(c(-c6c(F)cccc6F)c6ccc3[nH]6)C=C5)C=C4)cc2)c1
REMARK SMILES IDX 28 1 27 2 25 3 26 4 24 6 20 7 21 8 89 9 22 10 23 11 19 12
REMARK SMILES IDX 18 13 17 14 3 15 4 16 5 17 16 18 15 19 2 20 1 21 6 22 7 23
REMARK SMILES IDX 8 24 9 25 14 26 10 27 12 28 11 29 13 30 29 31 30 32 31 33
REMARK SMILES IDX 32 34 33 35 34 37 35 38 36 39 88 40 37 41 87 42 38 43 39 44
REMARK SMILES IDX 40 45 81 46 41 47 86 48 80 49 82 50 42 51 85 52 79 53 78 54
REMARK SMILES IDX 43 56 69 57 52 58 68 59 53 60 56 61 67 62 83 63 54 64 55 65
REMARK SMILES IDX 66 67 84 68 57 69 44 70 45 71 50 72 46 73 47 74 49 75 51 76
REMARK SMILES IDX 48 77 70 78 71 79 76 80 72 81 73 82 75 83 77 84 74 85 58 86
REMARK SMILES IDX 59 87 64 88 60 89 61 90 63 91 65 92 62 93
REMARK H PARENT 27 5 32 36 82 55 56 66
REMARK Flexibility Score: inf
ROOT
ATOM      1  C   UNL A   1      32.222  29.621  25.324  1.00  0.00     0.116 C 
ENDROOT
BRANCH   1   2
ATOM      2  N   UNL A   1      31.398  29.912  24.171  1.00  0.00    -0.352 N 
ATOM      3  C   UNL A   1      30.767  29.110  23.253  1.00  0.00     0.251 C 
ATOM      4  O   UNL A   1      30.099  29.681  22.389  1.00  0.00    -0.269 OA
ATOM      5  H   UNL A   1      31.264  30.874  24.012  1.00  0.00     0.163 HD
BRANCH   3   6
ATOM      6  C   UNL A   1      30.818  27.616  23.257  1.00  0.00     0.040 A 
ATOM      7  C   UNL A   1      31.858  25.436  22.798  1.00  0.00    -0.010 A 
ATOM      8  C   UNL A   1      30.733  24.801  23.325  1.00  0.00     0.007 A 
ATOM      9  C   UNL A   1      31.851  26.841  22.722  1.00  0.00     0.021 A 
ATOM     10  C   UNL A   1      29.681  25.549  23.853  1.00  0.00     0.001 A 
ATOM     11  C   UNL A   1      29.730  26.944  23.832  1.00  0.00     0.014 A 
BRANCH   7  12
ATOM     12  C   UNL A   1      33.131  24.732  22.343  1.00  0.00     0.265 C 
BRANCH  12  13
ATOM     13  O   UNL A   1      33.238  23.324  22.530  1.00  0.00    -0.485 OA
BRANCH  13  14
ATOM     14  C   UNL A   1      34.186  22.820  23.377  1.00  0.00     0.161 A 
ATOM     15  C   UNL A   1      34.060  21.766  24.298  1.00  0.00     0.161 A 
ATOM     16  C   UNL A   1      35.202  21.288  24.958  1.00  0.00     0.060 A 
ATOM     17  C   UNL A   1      36.452  21.861  24.690  1.00  0.00    -0.003 A 
ATOM     18  C   UNL A   1      35.433  23.423  23.175  1.00  0.00     0.051 A 
ATOM     19  C   UNL A   1      36.567  22.940  23.816  1.00  0.00     0.014 A 
BRANCH  15  20
ATOM     20  O   UNL A   1      32.813  21.284  24.592  1.00  0.00    -0.493 OA
ATOM     21  C   UNL A   1      32.458  20.082  23.910  1.00  0.00     0.278 C 
ENDBRANCH  15  20
BRANCH  17  22
ATOM     22  C   UNL A   1      37.684  21.394  25.351  1.00  0.00     0.120 C 
ATOM     23  N   UNL A   1      38.452  22.178  26.039  1.00  0.00    -0.256 NA
BRANCH  23  24
ATOM     24  C   UNL A   1      39.653  21.613  26.502  1.00  0.00     0.066 A 
ATOM     25  C   UNL A   1      40.437  22.301  27.434  1.00  0.00     0.028 A 
ATOM     26  C   UNL A   1      40.117  20.397  25.992  1.00  0.00     0.067 A 
ATOM     27  C   UNL A   1      41.664  21.777  27.858  1.00  0.00     0.005 A 
ATOM     28  C   UNL A   1      41.332  19.880  26.421  1.00  0.00     0.125 A 
ATOM     29  C   UNL A   1      42.113  20.560  27.347  1.00  0.00     0.039 A 
ATOM     30  F   UNL A   1      41.761  18.712  25.926  1.00  0.00    -0.207 F 
ENDBRANCH  23  24
ENDBRANCH  17  22
ENDBRANCH  13  14
ENDBRANCH  12  13
ENDBRANCH   7  12
ENDBRANCH   3   6
ENDBRANCH   1   2
BRANCH   1  31
ATOM     31  C   UNL A   1      31.621  30.219  26.600  1.00  0.00     0.023 C 
BRANCH  31  32
ATOM     32  C   UNL A   1      31.508  31.743  26.591  1.00  0.00     0.023 C 
BRANCH  32  33
ATOM     33  C   UNL A   1      32.755  32.477  27.063  1.00  0.00     0.116 C 
BRANCH  33  34
ATOM     34  N   UNL A   1      32.484  33.821  27.550  1.00  0.00    -0.352 N 
ATOM     35  C   UNL A   1      33.130  34.513  28.544  1.00  0.00     0.251 C 
ATOM     36  H   UNL A   1      31.741  34.294  27.111  1.00  0.00     0.163 HD
ATOM     37  O   UNL A   1      32.711  35.606  28.914  1.00  0.00    -0.269 OA
BRANCH  35  38
ATOM     38  C   UNL A   1      34.311  33.910  29.192  1.00  0.00     0.039 A 
ATOM     39  C   UNL A   1      34.114  32.948  30.185  1.00  0.00     0.014 A 
ATOM     40  C   UNL A   1      35.602  34.268  28.796  1.00  0.00     0.014 A 
ATOM     41  C   UNL A   1      35.217  32.302  30.741  1.00  0.00     0.010 A 
ATOM     42  C   UNL A   1      36.694  33.568  29.295  1.00  0.00     0.010 A 
ATOM     43  C   UNL A   1      36.513  32.586  30.279  1.00  0.00    -0.014 A 
BRANCH  43  44
ATOM     44  C   UNL A   1      37.692  31.874  30.829  1.00  0.00     0.031 A 
ATOM     45  C   UNL A   1      38.191  32.202  32.209  1.00  0.00     0.074 A 
ATOM     46  C   UNL A   1      38.342  30.973  30.069  1.00  0.00     0.049 A 
ATOM     47  N   UNL A   1      39.222  31.718  32.852  1.00  0.00    -0.248 NA
ATOM     48  C   UNL A   1      37.450  33.234  32.953  1.00  0.00     0.031 C 
ATOM     49  C   UNL A   1      37.989  30.611  28.693  1.00  0.00     0.029 A 
ATOM     50  N   UNL A   1      39.441  30.199  30.344  1.00  0.00    -0.354 N 
ATOM     51  C   UNL A   1      39.260  32.392  34.066  1.00  0.00     0.074 A 
ATOM     52  C   UNL A   1      38.187  33.360  34.046  1.00  0.00     0.031 C 
ATOM     53  C   UNL A   1      38.837  29.666  28.257  1.00  0.00     0.029 A 
ATOM     54  C   UNL A   1      39.810  29.378  29.306  1.00  0.00     0.049 A 
ATOM     55  H   UNL A   1      39.920  30.229  31.204  1.00  0.00     0.167 HD
ATOM     56  C   UNL A   1      40.094  32.200  35.114  1.00  0.00     0.037 A 
ATOM     57  C   UNL A   1      40.819  28.492  29.215  1.00  0.00     0.037 A 
ATOM     58  C   UNL A   1      41.142  31.214  35.141  1.00  0.00     0.049 A 
ATOM     59  C   UNL A   1      41.728  28.291  30.396  1.00  0.00     0.074 A 
ATOM     60  C   UNL A   1      42.001  30.897  36.178  1.00  0.00     0.029 A 
ATOM     61  N   UNL A   1      41.471  30.386  34.078  1.00  0.00    -0.354 N 
ATOM     62  N   UNL A   1      41.703  28.879  31.568  1.00  0.00    -0.248 NA
ATOM     63  C   UNL A   1      42.798  27.296  30.247  1.00  0.00     0.031 C 
ATOM     64  C   UNL A   1      42.877  29.904  35.729  1.00  0.00     0.029 A 
ATOM     65  C   UNL A   1      42.535  29.571  34.429  1.00  0.00     0.049 A 
ATOM     66  H   UNL A   1      41.017  30.379  33.205  1.00  0.00     0.167 HD
ATOM     67  C   UNL A   1      42.734  28.309  32.302  1.00  0.00     0.074 A 
ATOM     68  C   UNL A   1      43.354  27.315  31.449  1.00  0.00     0.031 C 
ATOM     69  C   UNL A   1      43.134  28.582  33.568  1.00  0.00     0.037 A 
BRANCH  56  70
ATOM     70  C   UNL A   1      39.898  33.071  36.321  1.00  0.00     0.057 A 
ATOM     71  C   UNL A   1      40.610  34.265  36.492  1.00  0.00     0.134 A 
ATOM     72  C   UNL A   1      38.968  32.725  37.309  1.00  0.00     0.134 A 
ATOM     73  F   UNL A   1      41.526  34.647  35.590  1.00  0.00    -0.206 F 
ATOM     74  C   UNL A   1      40.426  35.071  37.618  1.00  0.00     0.040 A 
ATOM     75  C   UNL A   1      38.755  33.537  38.426  1.00  0.00     0.040 A 
ATOM     76  F   UNL A   1      38.249  31.598  37.206  1.00  0.00    -0.206 F 
ATOM     77  C   UNL A   1      39.490  34.710  38.584  1.00  0.00     0.006 A 
ENDBRANCH  56  70
BRANCH  57  78
ATOM     78  C   UNL A   1      41.007  27.702  27.973  1.00  0.00     0.057 A 
ATOM     79  C   UNL A   1      41.766  28.201  26.908  1.00  0.00     0.134 A 
ATOM     80  C   UNL A   1      40.424  26.439  27.813  1.00  0.00     0.134 A 
ATOM     81  F   UNL A   1      42.335  29.412  26.994  1.00  0.00    -0.206 F 
ATOM     82  C   UNL A   1      41.921  27.484  25.720  1.00  0.00     0.040 A 
ATOM     83  C   UNL A   1      40.591  25.701  26.640  1.00  0.00     0.040 A 
ATOM     84  F   UNL A   1      39.692  25.901  28.799  1.00  0.00    -0.206 F 
ATOM     85  C   UNL A   1      41.335  26.227  25.586  1.00  0.00     0.006 A 
ENDBRANCH  57  78
BRANCH  69  86
ATOM     86  C   UNL A   1      44.272  27.775  34.116  1.00  0.00     0.057 A 
ATOM     87  C   UNL A   1      44.070  26.537  34.739  1.00  0.00     0.134 A 
ATOM     88  C   UNL A   1      45.593  28.225  33.985  1.00  0.00     0.134 A 
ATOM     89  F   UNL A   1      42.829  26.056  34.907  1.00  0.00    -0.206 F 
ATOM     90  C   UNL A   1      45.138  25.787  35.234  1.00  0.00     0.040 A 
ATOM     91  C   UNL A   1      46.670  27.471  34.451  1.00  0.00     0.040 A 
ATOM     92  F   UNL A   1      45.856  29.398  33.389  1.00  0.00    -0.206 F 
ATOM     93  C   UNL A   1      46.443  26.251  35.084  1.00  0.00     0.006 A 
ENDBRANCH  69  86
ENDBRANCH  43  44
ENDBRANCH  35  38
ENDBRANCH  33  34
ENDBRANCH  32  33
ENDBRANCH  31  32
ENDBRANCH   1  31
TORSDOF 17
ENDMDL
MODEL 2
REMARK VINA RESULT:     -12.5      4.224      9.988
REMARK SMILES COc1cc(/C=N/c2cccc(F)c2)ccc1OCc1cccc(C(=O)NCCCCNC(=O)c2ccc(-c3c4nc(c(-c5c(F)cccc5F)c5ccc([nH]5)c(-c5c(F)cccc5F)c5nc(c(-c6c(F)cccc6F)c6ccc3[nH]6)C=C5)C=C4)cc2)c1
REMARK SMILES IDX 28 1 27 2 25 3 26 4 24 6 20 7 21 8 89 9 22 10 23 11 19 12
REMARK SMILES IDX 18 13 17 14 3 15 4 16 5 17 16 18 15 19 2 20 1 21 6 22 7 23
REMARK SMILES IDX 8 24 9 25 14 26 10 27 12 28 11 29 13 30 29 31 30 32 31 33
REMARK SMILES IDX 32 34 33 35 34 37 35 38 36 39 88 40 37 41 87 42 38 43 39 44
REMARK SMILES IDX 40 45 81 46 41 47 86 48 80 49 82 50 42 51 85 52 79 53 78 54
REMARK SMILES IDX 43 56 69 57 52 58 68 59 53 60 56 61 67 62 83 63 54 64 55 65
REMARK SMILES IDX 66 67 84 68 57 69 44 70 45 71 50 72 46 73 47 74 49 75 51 76
REMARK SMILES IDX 48 77 70 78 71 79 76 80 72 81 73 82 75 83 77 84 74 85 58 86
REMARK SMILES IDX 59 87 64 88 60 89 61 90 63 91 65 92 62 93
REMARK H PARENT 27 5 32 36 82 55 56 66
REMARK Flexibility Score: inf
ROOT
ATOM      1  C   UNL A   1      36.975  22.153  25.553  1.00  0.00     0.116 C 
ENDROOT
BRANCH   1   2
ATOM      2  N   UNL A   1      35.935  21.774  26.486  1.00  0.00    -0.352 N 
ATOM      3  C   UNL A   1      34.565  21.828  26.422  1.00  0.00     0.251 C 
ATOM      4  O   UNL A   1      33.951  21.386  27.396  1.00  0.00    -0.269 OA
ATOM      5  H   UNL A   1      36.277  21.406  27.332  1.00  0.00     0.163 HD
BRANCH   3   6
ATOM      6  C   UNL A   1      33.792  22.354  25.256  1.00  0.00     0.040 A 
ATOM      7  C   UNL A   1      32.723  24.125  23.928  1.00  0.00    -0.010 A 
ATOM      8  C   UNL A   1      32.303  23.164  23.006  1.00  0.00     0.007 A 
ATOM      9  C   UNL A   1      33.414  23.687  25.072  1.00  0.00     0.021 A 
ATOM     10  C   UNL A   1      32.653  21.824  23.172  1.00  0.00     0.001 A 
ATOM     11  C   UNL A   1      33.403  21.426  24.280  1.00  0.00     0.014 A 
BRANCH   7  12
ATOM     12  C   UNL A   1      32.541  25.630  23.770  1.00  0.00     0.265 C 
BRANCH  12  13
ATOM     13  O   UNL A   1      31.600  26.297  24.606  1.00  0.00    -0.485 OA
BRANCH  13  14
ATOM     14  C   UNL A   1      31.872  27.553  25.071  1.00  0.00     0.161 A 
ATOM     15  C   UNL A   1      31.207  28.755  24.776  1.00  0.00     0.161 A 
ATOM     16  C   UNL A   1      31.536  29.917  25.489  1.00  0.00     0.060 A 
ATOM     17  C   UNL A   1      32.517  29.868  26.487  1.00  0.00    -0.003 A 
ATOM     18  C   UNL A   1      32.897  27.540  26.024  1.00  0.00     0.051 A 
ATOM     19  C   UNL A   1      33.213  28.687  26.742  1.00  0.00     0.014 A 
BRANCH  15  20
ATOM     20  O   UNL A   1      30.310  28.783  23.742  1.00  0.00    -0.493 OA
ATOM     21  C   UNL A   1      30.890  28.939  22.448  1.00  0.00     0.278 C 
ENDBRANCH  15  20
BRANCH  17  22
ATOM     22  C   UNL A   1      32.898  31.057  27.269  1.00  0.00     0.120 C 
ATOM     23  N   UNL A   1      34.099  31.251  27.714  1.00  0.00    -0.256 NA
BRANCH  23  24
ATOM     24  C   UNL A   1      34.275  32.368  28.548  1.00  0.00     0.066 A 
ATOM     25  C   UNL A   1      34.766  32.204  29.847  1.00  0.00     0.028 A 
ATOM     26  C   UNL A   1      33.900  33.646  28.122  1.00  0.00     0.067 A 
ATOM     27  C   UNL A   1      34.889  33.301  30.707  1.00  0.00     0.005 A 
ATOM     28  C   UNL A   1      34.031  34.732  28.978  1.00  0.00     0.125 A 
ATOM     29  C   UNL A   1      34.518  34.572  30.269  1.00  0.00     0.039 A 
ATOM     30  F   UNL A   1      33.671  35.950  28.554  1.00  0.00    -0.207 F 
ENDBRANCH  23  24
ENDBRANCH  17  22
ENDBRANCH  13  14
ENDBRANCH  12  13
ENDBRANCH   7  12
ENDBRANCH   3   6
ENDBRANCH   1   2
BRANCH   1  31
ATOM     31  C   UNL A   1      37.190  21.068  24.493  1.00  0.00     0.023 C 
BRANCH  31  32
ATOM     32  C   UNL A   1      37.989  19.859  24.978  1.00  0.00     0.023 C 
BRANCH  32  33
ATOM     33  C   UNL A   1      39.200  20.197  25.836  1.00  0.00     0.116 C 
BRANCH  33  34
ATOM     34  N   UNL A   1      40.191  19.133  25.880  1.00  0.00    -0.352 N 
ATOM     35  C   UNL A   1      41.535  19.230  26.145  1.00  0.00     0.251 C 
ATOM     36  H   UNL A   1      39.855  18.227  25.696  1.00  0.00     0.163 HD
ATOM     37  O   UNL A   1      42.262  18.247  26.039  1.00  0.00    -0.269 OA
BRANCH  35  38
ATOM     38  C   UNL A   1      42.102  20.540  26.519  1.00  0.00     0.039 A 
ATOM     39  C   UNL A   1      42.552  21.390  25.507  1.00  0.00     0.014 A 
ATOM     40  C   UNL A   1      42.157  20.937  27.858  1.00  0.00     0.014 A 
ATOM     41  C   UNL A   1      43.005  22.668  25.836  1.00  0.00     0.010 A 
ATOM     42  C   UNL A   1      42.534  22.237  28.175  1.00  0.00     0.010 A 
ATOM     43  C   UNL A   1      42.971  23.110  27.169  1.00  0.00    -0.014 A 
BRANCH  43  44
ATOM     44  C   UNL A   1      43.408  24.481  27.529  1.00  0.00     0.031 A 
ATOM     45  C   UNL A   1      42.389  25.520  27.905  1.00  0.00     0.074 A 
ATOM     46  C   UNL A   1      44.715  24.802  27.468  1.00  0.00     0.049 A 
ATOM     47  N   UNL A   1      42.567  26.779  28.216  1.00  0.00    -0.248 NA
ATOM     48  C   UNL A   1      40.979  25.097  27.901  1.00  0.00     0.031 C 
ATOM     49  C   UNL A   1      45.792  23.898  27.060  1.00  0.00     0.029 A 
ATOM     50  N   UNL A   1      45.357  25.982  27.742  1.00  0.00    -0.354 N 
ATOM     51  C   UNL A   1      41.297  27.297  28.432  1.00  0.00     0.074 A 
ATOM     52  C   UNL A   1      40.354  26.236  28.158  1.00  0.00     0.031 C 
ATOM     53  C   UNL A   1      46.965  24.548  27.141  1.00  0.00     0.029 A 
ATOM     54  C   UNL A   1      46.720  25.920  27.573  1.00  0.00     0.049 A 
ATOM     55  H   UNL A   1      44.888  26.798  28.034  1.00  0.00     0.167 HD
ATOM     56  C   UNL A   1      40.949  28.536  28.850  1.00  0.00     0.037 A 
ATOM     57  C   UNL A   1      47.662  26.865  27.749  1.00  0.00     0.037 A 
ATOM     58  C   UNL A   1      41.892  29.580  29.151  1.00  0.00     0.049 A 
ATOM     59  C   UNL A   1      47.251  28.232  28.222  1.00  0.00     0.074 A 
ATOM     60  C   UNL A   1      41.646  30.850  29.641  1.00  0.00     0.029 A 
ATOM     61  N   UNL A   1      43.265  29.472  28.988  1.00  0.00    -0.354 N 
ATOM     62  N   UNL A   1      46.052  28.685  28.499  1.00  0.00    -0.248 NA
ATOM     63  C   UNL A   1      48.325  29.215  28.417  1.00  0.00     0.031 C 
ATOM     64  C   UNL A   1      42.867  31.525  29.737  1.00  0.00     0.029 A 
ATOM     65  C   UNL A   1      43.877  30.660  29.350  1.00  0.00     0.049 A 
ATOM     66  H   UNL A   1      43.735  28.670  28.662  1.00  0.00     0.167 HD
ATOM     67  C   UNL A   1      46.229  29.994  28.924  1.00  0.00     0.074 A 
ATOM     68  C   UNL A   1      47.653  30.257  28.886  1.00  0.00     0.031 C 
ATOM     69  C   UNL A   1      45.298  30.900  29.312  1.00  0.00     0.037 A 
BRANCH  56  70
ATOM     70  C   UNL A   1      39.485  28.824  29.015  1.00  0.00     0.057 A 
ATOM     71  C   UNL A   1      38.834  28.653  30.244  1.00  0.00     0.134 A 
ATOM     72  C   UNL A   1      38.724  29.302  27.941  1.00  0.00     0.134 A 
ATOM     73  F   UNL A   1      39.501  28.185  31.309  1.00  0.00    -0.206 F 
ATOM     74  C   UNL A   1      37.471  28.920  30.391  1.00  0.00     0.040 A 
ATOM     75  C   UNL A   1      37.367  29.599  28.084  1.00  0.00     0.040 A 
ATOM     76  F   UNL A   1      39.285  29.493  26.738  1.00  0.00    -0.206 F 
ATOM     77  C   UNL A   1      36.736  29.402  29.311  1.00  0.00     0.006 A 
ENDBRANCH  56  70
BRANCH  57  78
ATOM     78  C   UNL A   1      49.092  26.544  27.510  1.00  0.00     0.057 A 
ATOM     79  C   UNL A   1      49.918  26.109  28.553  1.00  0.00     0.134 A 
ATOM     80  C   UNL A   1      49.669  26.676  26.242  1.00  0.00     0.134 A 
ATOM     81  F   UNL A   1      49.426  25.981  29.795  1.00  0.00    -0.206 F 
ATOM     82  C   UNL A   1      51.272  25.839  28.350  1.00  0.00     0.040 A 
ATOM     83  C   UNL A   1      51.016  26.384  26.019  1.00  0.00     0.040 A 
ATOM     84  F   UNL A   1      48.929  27.079  25.199  1.00  0.00    -0.206 F 
ATOM     85  C   UNL A   1      51.823  25.972  27.077  1.00  0.00     0.006 A 
ENDBRANCH  57  78
BRANCH  69  86
ATOM     86  C   UNL A   1      45.792  32.245  29.754  1.00  0.00     0.057 A 
ATOM     87  C   UNL A   1      45.909  33.320  28.864  1.00  0.00     0.134 A 
ATOM     88  C   UNL A   1      46.120  32.478  31.096  1.00  0.00     0.134 A 
ATOM     89  F   UNL A   1      45.623  33.159  27.563  1.00  0.00    -0.206 F 
ATOM     90  C   UNL A   1      46.357  34.572  29.288  1.00  0.00     0.040 A 
ATOM     91  C   UNL A   1      46.543  33.732  31.537  1.00  0.00     0.040 A 
ATOM     92  F   UNL A   1      46.021  31.493  32.002  1.00  0.00    -0.206 F 
ATOM     93  C   UNL A   1      46.669  34.782  30.630  1.00  0.00     0.006 A 
ENDBRANCH  69  86
ENDBRANCH  43  44
ENDBRANCH  35  38
ENDBRANCH  33  34
ENDBRANCH  32  33
ENDBRANCH  31  32
ENDBRANCH   1  31
TORSDOF 17
ENDMDL
MODEL 3
REMARK VINA RESULT:     -12.5      0.635      6.043
REMARK SMILES COc1cc(/C=N/c2cccc(F)c2)ccc1OCc1cccc(C(=O)NCCCCNC(=O)c2ccc(-c3c4nc(c(-c5c(F)cccc5F)c5ccc([nH]5)c(-c5c(F)cccc5F)c5nc(c(-c6c(F)cccc6F)c6ccc3[nH]6)C=C5)C=C4)cc2)c1
REMARK SMILES IDX 28 1 27 2 25 3 26 4 24 6 20 7 21 8 89 9 22 10 23 11 19 12
REMARK SMILES IDX 18 13 17 14 3 15 4 16 5 17 16 18 15 19 2 20 1 21 6 22 7 23
REMARK SMILES IDX 8 24 9 25 14 26 10 27 12 28 11 29 13 30 29 31 30 32 31 33
REMARK SMILES IDX 32 34 33 35 34 37 35 38 36 39 88 40 37 41 87 42 38 43 39 44
REMARK SMILES IDX 40 45 81 46 41 47 86 48 80 49 82 50 42 51 85 52 79 53 78 54
REMARK SMILES IDX 43 56 69 57 52 58 68 59 53 60 56 61 67 62 83 63 54 64 55 65
REMARK SMILES IDX 66 67 84 68 57 69 44 70 45 71 50 72 46 73 47 74 49 75 51 76
REMARK SMILES IDX 48 77 70 78 71 79 76 80 72 81 73 82 75 83 77 84 74 85 58 86
REMARK SMILES IDX 59 87 64 88 60 89 61 90 63 91 65 92 62 93
REMARK H PARENT 27 5 32 36 82 55 56 66
REMARK Flexibility Score: inf
ROOT
ATOM      1  C   UNL A   1      32.270  29.770  25.224  1.00  0.00     0.116 C 
ENDROOT
BRANCH   1   2
ATOM      2  N   UNL A   1      31.232  29.768  24.216  1.00  0.00    -0.352 N 
ATOM      3  C   UNL A   1      30.582  28.757  23.553  1.00  0.00     0.251 C 
ATOM      4  O   UNL A   1      29.703  29.096  22.758  1.00  0.00    -0.269 OA
ATOM      5  H   UNL A   1      30.933  30.668  23.953  1.00  0.00     0.163 HD
BRANCH   3   6
ATOM      6  C   UNL A   1      30.852  27.301  23.755  1.00  0.00     0.040 A 
ATOM      7  C   UNL A   1      31.889  25.144  23.192  1.00  0.00    -0.010 A 
ATOM      8  C   UNL A   1      31.230  24.558  24.273  1.00  0.00     0.007 A 
ATOM      9  C   UNL A   1      31.638  26.501  22.920  1.00  0.00     0.021 A 
ATOM     10  C   UNL A   1      30.428  25.329  25.115  1.00  0.00     0.001 A 
ATOM     11  C   UNL A   1      30.253  26.691  24.866  1.00  0.00     0.014 A 
BRANCH   7  12
ATOM     12  C   UNL A   1      32.911  24.445  22.303  1.00  0.00     0.265 C 
BRANCH  12  13
ATOM     13  O   UNL A   1      33.113  23.044  22.465  1.00  0.00    -0.485 OA
BRANCH  13  14
ATOM     14  C   UNL A   1      34.080  22.589  23.318  1.00  0.00     0.161 A 
ATOM     15  C   UNL A   1      33.987  21.561  24.271  1.00  0.00     0.161 A 
ATOM     16  C   UNL A   1      35.146  21.131  24.934  1.00  0.00     0.060 A 
ATOM     17  C   UNL A   1      36.379  21.725  24.638  1.00  0.00    -0.003 A 
ATOM     18  C   UNL A   1      35.310  23.215  23.086  1.00  0.00     0.051 A 
ATOM     19  C   UNL A   1      36.461  22.779  23.730  1.00  0.00     0.014 A 
BRANCH  15  20
ATOM     20  O   UNL A   1      32.755  21.059  24.591  1.00  0.00    -0.493 OA
ATOM     21  C   UNL A   1      32.771  19.761  25.184  1.00  0.00     0.278 C 
ENDBRANCH  15  20
BRANCH  17  22
ATOM     22  C   UNL A   1      37.628  21.308  25.301  1.00  0.00     0.120 C 
ATOM     23  N   UNL A   1      38.352  22.116  26.008  1.00  0.00    -0.256 NA
BRANCH  23  24
ATOM     24  C   UNL A   1      39.575  21.603  26.471  1.00  0.00     0.066 A 
ATOM     25  C   UNL A   1      40.363  22.355  27.350  1.00  0.00     0.028 A 
ATOM     26  C   UNL A   1      40.058  20.375  26.011  1.00  0.00     0.067 A 
ATOM     27  C   UNL A   1      41.610  21.882  27.772  1.00  0.00     0.005 A 
ATOM     28  C   UNL A   1      41.294  19.908  26.438  1.00  0.00     0.125 A 
ATOM     29  C   UNL A   1      42.078  20.651  27.312  1.00  0.00     0.039 A 
ATOM     30  F   UNL A   1      41.741  18.727  25.992  1.00  0.00    -0.207 F 
ENDBRANCH  23  24
ENDBRANCH  17  22
ENDBRANCH  13  14
ENDBRANCH  12  13
ENDBRANCH   7  12
ENDBRANCH   3   6
ENDBRANCH   1   2
BRANCH   1  31
ATOM     31  C   UNL A   1      31.734  30.269  26.570  1.00  0.00     0.023 C 
BRANCH  31  32
ATOM     32  C   UNL A   1      31.579  31.786  26.666  1.00  0.00     0.023 C 
BRANCH  32  33
ATOM     33  C   UNL A   1      32.777  32.513  27.257  1.00  0.00     0.116 C 
BRANCH  33  34
ATOM     34  N   UNL A   1      32.495  33.894  27.616  1.00  0.00    -0.352 N 
ATOM     35  C   UNL A   1      33.120  34.676  28.556  1.00  0.00     0.251 C 
ATOM     36  H   UNL A   1      31.760  34.324  27.122  1.00  0.00     0.163 HD
ATOM     37  O   UNL A   1      32.692  35.796  28.817  1.00  0.00    -0.269 OA
BRANCH  35  38
ATOM     38  C   UNL A   1      34.289  34.138  29.279  1.00  0.00     0.039 A 
ATOM     39  C   UNL A   1      34.074  33.380  30.431  1.00  0.00     0.014 A 
ATOM     40  C   UNL A   1      35.584  34.351  28.799  1.00  0.00     0.014 A 
ATOM     41  C   UNL A   1      35.161  32.787  31.074  1.00  0.00     0.010 A 
ATOM     42  C   UNL A   1      36.655  33.696  29.395  1.00  0.00     0.010 A 
ATOM     43  C   UNL A   1      36.455  32.916  30.543  1.00  0.00    -0.014 A 
BRANCH  43  44
ATOM     44  C   UNL A   1      37.614  32.254  31.189  1.00  0.00     0.031 A 
ATOM     45  C   UNL A   1      38.351  31.158  30.471  1.00  0.00     0.074 A 
ATOM     46  C   UNL A   1      37.970  32.604  32.440  1.00  0.00     0.049 A 
ATOM     47  N   UNL A   1      39.364  30.437  30.879  1.00  0.00    -0.248 NA
ATOM     48  C   UNL A   1      37.867  30.807  29.125  1.00  0.00     0.031 C 
ATOM     49  C   UNL A   1      37.296  33.612  33.263  1.00  0.00     0.029 A 
ATOM     50  N   UNL A   1      38.984  32.146  33.241  1.00  0.00    -0.354 N 
ATOM     51  C   UNL A   1      39.627  29.542  29.850  1.00  0.00     0.074 A 
ATOM     52  C   UNL A   1      38.634  29.769  28.825  1.00  0.00     0.031 C 
ATOM     53  C   UNL A   1      37.934  33.716  34.440  1.00  0.00     0.029 A 
ATOM     54  C   UNL A   1      39.039  32.762  34.468  1.00  0.00     0.049 A 
ATOM     55  H   UNL A   1      39.614  31.442  32.964  1.00  0.00     0.167 HD
ATOM     56  C   UNL A   1      40.626  28.634  29.755  1.00  0.00     0.037 A 
ATOM     57  C   UNL A   1      39.887  32.578  35.497  1.00  0.00     0.037 A 
ATOM     58  C   UNL A   1      41.632  28.432  30.764  1.00  0.00     0.049 A 
ATOM     59  C   UNL A   1      40.993  31.569  35.364  1.00  0.00     0.074 A 
ATOM     60  C   UNL A   1      42.723  27.581  30.738  1.00  0.00     0.029 A 
ATOM     61  N   UNL A   1      41.666  29.091  31.985  1.00  0.00    -0.354 N 
ATOM     62  N   UNL A   1      41.279  30.784  34.353  1.00  0.00    -0.248 NA
ATOM     63  C   UNL A   1      41.901  31.426  36.510  1.00  0.00     0.031 C 
ATOM     64  C   UNL A   1      43.395  27.697  31.958  1.00  0.00     0.029 A 
ATOM     65  C   UNL A   1      42.749  28.651  32.727  1.00  0.00     0.049 A 
ATOM     66  H   UNL A   1      41.017  29.770  32.280  1.00  0.00     0.167 HD
ATOM     67  C   UNL A   1      42.412  30.075  34.730  1.00  0.00     0.074 A 
ATOM     68  C   UNL A   1      42.771  30.536  36.056  1.00  0.00     0.031 C 
ATOM     69  C   UNL A   1      43.095  29.127  34.042  1.00  0.00     0.037 A 
BRANCH  56  70
ATOM     70  C   UNL A   1      40.683  27.797  28.510  1.00  0.00     0.057 A 
ATOM     71  C   UNL A   1      39.994  26.582  28.407  1.00  0.00     0.134 A 
ATOM     72  C   UNL A   1      41.412  28.224  27.394  1.00  0.00     0.134 A 
ATOM     73  F   UNL A   1      39.289  26.108  29.445  1.00  0.00    -0.206 F 
ATOM     74  C   UNL A   1      40.051  25.806  27.247  1.00  0.00     0.040 A 
ATOM     75  C   UNL A   1      41.454  27.470  26.218  1.00  0.00     0.040 A 
ATOM     76  F   UNL A   1      42.091  29.380  27.423  1.00  0.00    -0.206 F 
ATOM     77  C   UNL A   1      40.777  26.255  26.146  1.00  0.00     0.006 A 
ENDBRANCH  56  70
BRANCH  57  78
ATOM     78  C   UNL A   1      39.746  33.389  36.732  1.00  0.00     0.057 A 
ATOM     79  C   UNL A   1      38.895  32.985  37.767  1.00  0.00     0.134 A 
ATOM     80  C   UNL A   1      40.445  34.590  36.903  1.00  0.00     0.134 A 
ATOM     81  F   UNL A   1      38.185  31.853  37.654  1.00  0.00    -0.206 F 
ATOM     82  C   UNL A   1      38.726  33.756  38.919  1.00  0.00     0.040 A 
ATOM     83  C   UNL A   1      40.305  35.358  38.060  1.00  0.00     0.040 A 
ATOM     84  F   UNL A   1      41.283  35.028  35.952  1.00  0.00    -0.206 F 
ATOM     85  C   UNL A   1      39.437  34.945  39.068  1.00  0.00     0.006 A 
ENDBRANCH  57  78
BRANCH  69  86
ATOM     86  C   UNL A   1      44.314  28.550  34.698  1.00  0.00     0.057 A 
ATOM     87  C   UNL A   1      45.577  29.139  34.560  1.00  0.00     0.134 A 
ATOM     88  C   UNL A   1      44.216  27.412  35.508  1.00  0.00     0.134 A 
ATOM     89  F   UNL A   1      45.740  30.224  33.788  1.00  0.00    -0.206 F 
ATOM     90  C   UNL A   1      46.703  28.603  35.186  1.00  0.00     0.040 A 
ATOM     91  C   UNL A   1      45.329  26.882  36.160  1.00  0.00     0.040 A 
ATOM     92  F   UNL A   1      43.033  26.805  35.690  1.00  0.00    -0.206 F 
ATOM     93  C   UNL A   1      46.579  27.474  35.994  1.00  0.00     0.006 A 
ENDBRANCH  69  86
ENDBRANCH  43  44
ENDBRANCH  35  38
ENDBRANCH  33  34
ENDBRANCH  32  33
ENDBRANCH  31  32
ENDBRANCH   1  31
TORSDOF 17
ENDMDL
