MODEL 1
REMARK VINA RESULT:     -11.6      0.000      0.000
REMARK SMILES Cc1cc(C(=O)NCCCCNC(=O)c2ccc(-c3c4nc(c(-c5c(F)cccc5F)c5ccc([nH]5)c(-c5c(F)cccc5F)c5nc(c(-c6c(F)cccc6F)c6ccc3[nH]6)C=C5)C=C4)cc2)c(C#Cc2ccccc2)s1
REMARK SMILES IDX 9 1 8 2 7 3 5 4 6 5 4 7 1 8 2 9 3 10 78 11 69 12 70 13 71 14
REMARK SMILES IDX 72 15 73 16 77 17 74 18 76 19 75 20 10 21 11 22 12 23 13 24
REMARK SMILES IDX 14 26 15 27 16 28 68 29 17 30 67 31 18 32 19 33 20 34 61 35
REMARK SMILES IDX 21 36 66 37 60 38 62 39 22 40 65 41 59 42 58 43 23 45 49 46
REMARK SMILES IDX 32 47 48 48 33 49 36 50 47 51 63 52 34 53 35 54 46 56 64 57
REMARK SMILES IDX 37 58 24 59 25 60 30 61 26 62 27 63 29 64 31 65 28 66 50 67
REMARK SMILES IDX 51 68 56 69 52 70 53 71 55 72 57 73 54 74 38 75 39 76 44 77
REMARK SMILES IDX 40 78 41 79 43 80 45 81 42 82
REMARK H PARENT 7 6 12 25 62 44 36 55
REMARK Flexibility Score: inf
ROOT
ATOM      1  C   UNL A   1      33.886  30.650  27.536  1.00  0.00     0.023 C 
ENDROOT
BRANCH   1   2
ATOM      2  C   UNL A   1      34.147  29.197  27.133  1.00  0.00     0.116 C 
BRANCH   2   3
ATOM      3  N   UNL A   1      34.237  29.065  25.696  1.00  0.00    -0.352 N 
ATOM      4  C   UNL A   1      33.707  28.202  24.771  1.00  0.00     0.253 C 
ATOM      5  O   UNL A   1      34.015  28.462  23.606  1.00  0.00    -0.269 OA
ATOM      6  H   UNL A   1      34.812  29.751  25.288  1.00  0.00     0.163 HD
BRANCH   4   7
ATOM      7  C   UNL A   1      32.810  27.086  25.121  1.00  0.00     0.066 A 
ATOM      8  C   UNL A   1      32.019  23.745  26.766  1.00  0.00     0.056 C 
ATOM      9  C   UNL A   1      32.028  25.043  26.037  1.00  0.00     0.004 A 
ATOM     10  C   UNL A   1      33.127  25.794  25.678  1.00  0.00     0.030 A 
ATOM     11  S   UNL A   1      30.592  25.781  25.524  1.00  0.00    -0.131 S 
ATOM     12  C   UNL A   1      31.432  27.141  24.902  1.00  0.00     0.090 A 
BRANCH  12  13
ATOM     13  C   UNL A   1      30.696  28.179  24.259  1.00  0.00    -0.050 C 
ATOM     14  C   UNL A   1      30.108  29.094  23.729  1.00  0.00    -0.061 C 
BRANCH  14  15
ATOM     15  C   UNL A   1      29.469  30.191  23.083  1.00  0.00     0.025 A 
ATOM     16  C   UNL A   1      29.134  31.339  23.804  1.00  0.00     0.017 A 
ATOM     17  C   UNL A   1      29.143  30.101  21.727  1.00  0.00     0.017 A 
ATOM     18  C   UNL A   1      28.458  32.386  23.173  1.00  0.00     0.001 A 
ATOM     19  C   UNL A   1      28.467  31.147  21.098  1.00  0.00     0.001 A 
ATOM     20  C   UNL A   1      28.119  32.286  21.823  1.00  0.00     0.000 A 
ENDBRANCH  14  15
ENDBRANCH  12  13
ENDBRANCH   4   7
ENDBRANCH   2   3
ENDBRANCH   1   2
BRANCH   1  21
ATOM     21  C   UNL A   1      32.447  31.116  27.266  1.00  0.00     0.023 C 
BRANCH  21  22
ATOM     22  C   UNL A   1      32.352  32.510  26.638  1.00  0.00     0.116 C 
BRANCH  22  23
ATOM     23  N   UNL A   1      32.115  33.564  27.603  1.00  0.00    -0.352 N 
ATOM     24  C   UNL A   1      32.917  34.321  28.409  1.00  0.00     0.251 C 
ATOM     25  H   UNL A   1      31.161  33.785  27.700  1.00  0.00     0.163 HD
ATOM     26  O   UNL A   1      32.379  35.269  28.983  1.00  0.00    -0.269 OA
BRANCH  24  27
ATOM     27  C   UNL A   1      34.334  34.004  28.720  1.00  0.00     0.039 A 
ATOM     28  C   UNL A   1      35.412  34.191  27.858  1.00  0.00     0.014 A 
ATOM     29  C   UNL A   1      34.552  33.360  29.952  1.00  0.00     0.014 A 
ATOM     30  C   UNL A   1      36.624  33.579  28.120  1.00  0.00     0.010 A 
ATOM     31  C   UNL A   1      35.776  32.784  30.243  1.00  0.00     0.010 A 
ATOM     32  C   UNL A   1      36.779  32.823  29.283  1.00  0.00    -0.014 A 
BRANCH  32  33
ATOM     33  C   UNL A   1      38.087  32.239  29.548  1.00  0.00     0.031 A 
ATOM     34  C   UNL A   1      38.128  30.795  29.180  1.00  0.00     0.074 A 
ATOM     35  C   UNL A   1      39.129  32.977  29.987  1.00  0.00     0.049 A 
ATOM     36  N   UNL A   1      38.303  29.784  29.965  1.00  0.00    -0.248 NA
ATOM     37  C   UNL A   1      37.699  30.416  27.819  1.00  0.00     0.031 C 
ATOM     38  C   UNL A   1      39.179  34.431  30.182  1.00  0.00     0.029 A 
ATOM     39  N   UNL A   1      40.410  32.597  30.272  1.00  0.00    -0.354 N 
ATOM     40  C   UNL A   1      38.249  28.655  29.148  1.00  0.00     0.074 A 
ATOM     41  C   UNL A   1      37.679  29.085  27.903  1.00  0.00     0.031 C 
ATOM     42  C   UNL A   1      40.465  34.832  30.307  1.00  0.00     0.029 A 
ATOM     43  C   UNL A   1      41.317  33.661  30.351  1.00  0.00     0.049 A 
ATOM     44  H   UNL A   1      40.672  31.657  30.409  1.00  0.00     0.167 HD
ATOM     45  C   UNL A   1      38.977  27.549  29.466  1.00  0.00     0.037 A 
ATOM     46  C   UNL A   1      42.672  33.561  30.398  1.00  0.00     0.037 A 
ATOM     47  C   UNL A   1      39.293  27.557  30.876  1.00  0.00     0.049 A 
ATOM     48  C   UNL A   1      42.987  32.179  30.826  1.00  0.00     0.074 A 
ATOM     49  C   UNL A   1      38.592  27.457  32.059  1.00  0.00     0.029 A 
ATOM     50  N   UNL A   1      40.517  28.082  31.197  1.00  0.00    -0.354 N 
ATOM     51  N   UNL A   1      42.721  31.720  32.016  1.00  0.00    -0.248 NA
ATOM     52  C   UNL A   1      43.148  31.179  29.785  1.00  0.00     0.031 C 
ATOM     53  C   UNL A   1      39.290  28.297  32.981  1.00  0.00     0.029 A 
ATOM     54  C   UNL A   1      40.424  28.806  32.348  1.00  0.00     0.049 A 
ATOM     55  H   UNL A   1      41.342  27.955  30.673  1.00  0.00     0.167 HD
ATOM     56  C   UNL A   1      42.231  30.442  31.793  1.00  0.00     0.074 A 
ATOM     57  C   UNL A   1      42.604  30.132  30.411  1.00  0.00     0.031 C 
ATOM     58  C   UNL A   1      41.320  29.896  32.654  1.00  0.00     0.037 A 
BRANCH  45  59
ATOM     59  C   UNL A   1      39.878  26.841  28.458  1.00  0.00     0.057 A 
ATOM     60  C   UNL A   1      39.679  25.536  27.960  1.00  0.00     0.134 A 
ATOM     61  C   UNL A   1      40.755  27.632  27.687  1.00  0.00     0.134 A 
ATOM     62  F   UNL A   1      38.912  24.628  28.571  1.00  0.00    -0.206 F 
ATOM     63  C   UNL A   1      40.198  25.100  26.738  1.00  0.00     0.040 A 
ATOM     64  C   UNL A   1      41.252  27.216  26.444  1.00  0.00     0.040 A 
ATOM     65  F   UNL A   1      41.070  28.880  28.065  1.00  0.00    -0.206 F 
ATOM     66  C   UNL A   1      40.950  25.955  25.952  1.00  0.00     0.006 A 
ENDBRANCH  45  59
BRANCH  46  67
ATOM     67  C   UNL A   1      43.706  34.431  29.785  1.00  0.00     0.057 A 
ATOM     68  C   UNL A   1      44.244  35.522  30.488  1.00  0.00     0.134 A 
ATOM     69  C   UNL A   1      43.966  34.406  28.403  1.00  0.00     0.134 A 
ATOM     70  F   UNL A   1      43.986  35.694  31.792  1.00  0.00    -0.206 F 
ATOM     71  C   UNL A   1      44.984  36.531  29.859  1.00  0.00     0.040 A 
ATOM     72  C   UNL A   1      44.705  35.412  27.761  1.00  0.00     0.040 A 
ATOM     73  F   UNL A   1      43.449  33.439  27.631  1.00  0.00    -0.206 F 
ATOM     74  C   UNL A   1      45.208  36.486  28.489  1.00  0.00     0.006 A 
ENDBRANCH  46  67
BRANCH  58  75
ATOM     75  C   UNL A   1      41.120  30.595  33.972  1.00  0.00     0.057 A 
ATOM     76  C   UNL A   1      40.101  31.546  34.067  1.00  0.00     0.134 A 
ATOM     77  C   UNL A   1      41.948  30.436  35.094  1.00  0.00     0.134 A 
ATOM     78  F   UNL A   1      39.305  31.789  33.013  1.00  0.00    -0.206 F 
ATOM     79  C   UNL A   1      39.900  32.299  35.224  1.00  0.00     0.040 A 
ATOM     80  C   UNL A   1      41.736  31.161  36.273  1.00  0.00     0.040 A 
ATOM     81  F   UNL A   1      43.006  29.615  35.066  1.00  0.00    -0.206 F 
ATOM     82  C   UNL A   1      40.710  32.098  36.338  1.00  0.00     0.006 A 
ENDBRANCH  58  75
ENDBRANCH  32  33
ENDBRANCH  24  27
ENDBRANCH  22  23
ENDBRANCH  21  22
ENDBRANCH   1  21
TORSDOF 13
ENDMDL
MODEL 2
REMARK VINA RESULT:     -11.5      3.841      5.338
REMARK SMILES Cc1cc(C(=O)NCCCCNC(=O)c2ccc(-c3c4nc(c(-c5c(F)cccc5F)c5ccc([nH]5)c(-c5c(F)cccc5F)c5nc(c(-c6c(F)cccc6F)c6ccc3[nH]6)C=C5)C=C4)cc2)c(C#Cc2ccccc2)s1
REMARK SMILES IDX 9 1 8 2 7 3 5 4 6 5 4 7 1 8 2 9 3 10 78 11 69 12 70 13 71 14
REMARK SMILES IDX 72 15 73 16 77 17 74 18 76 19 75 20 10 21 11 22 12 23 13 24
REMARK SMILES IDX 14 26 15 27 16 28 68 29 17 30 67 31 18 32 19 33 20 34 61 35
REMARK SMILES IDX 21 36 66 37 60 38 62 39 22 40 65 41 59 42 58 43 23 45 49 46
REMARK SMILES IDX 32 47 48 48 33 49 36 50 47 51 63 52 34 53 35 54 46 56 64 57
REMARK SMILES IDX 37 58 24 59 25 60 30 61 26 62 27 63 29 64 31 65 28 66 50 67
REMARK SMILES IDX 51 68 56 69 52 70 53 71 55 72 57 73 54 74 38 75 39 76 44 77
REMARK SMILES IDX 40 78 41 79 43 80 45 81 42 82
REMARK H PARENT 7 6 12 25 62 44 36 55
REMARK Flexibility Score: inf
ROOT
ATOM      1  C   UNL A   1      32.210  29.228  27.019  1.00  0.00     0.023 C 
ENDROOT
BRANCH   1   2
ATOM      2  C   UNL A   1      32.193  27.873  27.729  1.00  0.00     0.116 C 
BRANCH   2   3
ATOM      3  N   UNL A   1      31.105  27.050  27.250  1.00  0.00    -0.352 N 
ATOM      4  C   UNL A   1      30.914  26.244  26.158  1.00  0.00     0.253 C 
ATOM      5  O   UNL A   1      29.820  25.675  26.137  1.00  0.00    -0.269 OA
ATOM      6  H   UNL A   1      30.322  27.074  27.844  1.00  0.00     0.163 HD
BRANCH   4   7
ATOM      7  C   UNL A   1      31.935  26.031  25.115  1.00  0.00     0.066 A 
ATOM      8  C   UNL A   1      34.751  24.076  23.460  1.00  0.00     0.056 C 
ATOM      9  C   UNL A   1      33.694  25.040  23.871  1.00  0.00     0.004 A 
ATOM     10  C   UNL A   1      33.017  25.080  25.072  1.00  0.00     0.030 A 
ATOM     11  S   UNL A   1      33.180  26.284  22.842  1.00  0.00    -0.131 S 
ATOM     12  C   UNL A   1      31.999  26.820  23.965  1.00  0.00     0.090 A 
BRANCH  12  13
ATOM     13  C   UNL A   1      31.202  27.958  23.646  1.00  0.00    -0.050 C 
ATOM     14  C   UNL A   1      30.511  28.900  23.331  1.00  0.00    -0.061 C 
BRANCH  14  15
ATOM     15  C   UNL A   1      29.656  29.971  22.943  1.00  0.00     0.025 A 
ATOM     16  C   UNL A   1      29.190  30.064  21.630  1.00  0.00     0.017 A 
ATOM     17  C   UNL A   1      29.309  30.952  23.875  1.00  0.00     0.017 A 
ATOM     18  C   UNL A   1      28.397  31.148  21.246  1.00  0.00     0.001 A 
ATOM     19  C   UNL A   1      28.517  32.035  23.491  1.00  0.00     0.001 A 
ATOM     20  C   UNL A   1      28.067  32.135  22.175  1.00  0.00     0.000 A 
ENDBRANCH  14  15
ENDBRANCH  12  13
ENDBRANCH   4   7
ENDBRANCH   2   3
ENDBRANCH   1   2
BRANCH   1  21
ATOM     21  C   UNL A   1      33.562  29.570  26.374  1.00  0.00     0.023 C 
BRANCH  21  22
ATOM     22  C   UNL A   1      34.771  29.011  27.129  1.00  0.00     0.116 C 
BRANCH  22  23
ATOM     23  N   UNL A   1      35.077  29.733  28.347  1.00  0.00    -0.352 N 
ATOM     24  C   UNL A   1      36.223  29.993  29.043  1.00  0.00     0.251 C 
ATOM     25  H   UNL A   1      34.278  30.123  28.769  1.00  0.00     0.163 HD
ATOM     26  O   UNL A   1      36.133  30.808  29.963  1.00  0.00    -0.269 OA
BRANCH  24  27
ATOM     27  C   UNL A   1      37.509  29.280  28.840  1.00  0.00     0.039 A 
ATOM     28  C   UNL A   1      38.060  28.344  29.712  1.00  0.00     0.014 A 
ATOM     29  C   UNL A   1      38.259  29.692  27.723  1.00  0.00     0.014 A 
ATOM     30  C   UNL A   1      39.389  27.981  29.591  1.00  0.00     0.010 A 
ATOM     31  C   UNL A   1      39.576  29.297  27.569  1.00  0.00     0.010 A 
ATOM     32  C   UNL A   1      40.158  28.512  28.555  1.00  0.00    -0.014 A 
BRANCH  32  33
ATOM     33  C   UNL A   1      41.539  28.064  28.431  1.00  0.00     0.031 A 
ATOM     34  C   UNL A   1      41.630  26.749  27.736  1.00  0.00     0.074 A 
ATOM     35  C   UNL A   1      42.581  28.826  28.830  1.00  0.00     0.049 A 
ATOM     36  N   UNL A   1      42.054  25.628  28.219  1.00  0.00    -0.248 NA
ATOM     37  C   UNL A   1      40.960  26.610  26.428  1.00  0.00     0.031 C 
ATOM     38  C   UNL A   1      42.542  30.200  29.344  1.00  0.00     0.029 A 
ATOM     39  N   UNL A   1      43.921  28.568  28.777  1.00  0.00    -0.354 N 
ATOM     40  C   UNL A   1      41.930  24.698  27.186  1.00  0.00     0.074 A 
ATOM     41  C   UNL A   1      41.076  25.300  26.203  1.00  0.00     0.031 C 
ATOM     42  C   UNL A   1      43.785  30.734  29.320  1.00  0.00     0.029 A 
ATOM     43  C   UNL A   1      44.727  29.704  28.932  1.00  0.00     0.049 A 
ATOM     44  H   UNL A   1      44.289  27.664  28.641  1.00  0.00     0.167 HD
ATOM     45  C   UNL A   1      42.804  23.657  27.099  1.00  0.00     0.037 A 
ATOM     46  C   UNL A   1      46.066  29.777  28.703  1.00  0.00     0.037 A 
ATOM     47  C   UNL A   1      43.406  23.411  28.389  1.00  0.00     0.049 A 
ATOM     48  C   UNL A   1      46.584  28.391  28.733  1.00  0.00     0.074 A 
ATOM     49  C   UNL A   1      42.981  22.973  29.625  1.00  0.00     0.029 A 
ATOM     50  N   UNL A   1      44.619  24.015  28.591  1.00  0.00    -0.354 N 
ATOM     51  N   UNL A   1      46.615  27.661  29.812  1.00  0.00    -0.248 NA
ATOM     52  C   UNL A   1      46.611  27.662  27.477  1.00  0.00     0.031 C 
ATOM     53  C   UNL A   1      43.779  23.686  30.572  1.00  0.00     0.029 A 
ATOM     54  C   UNL A   1      44.706  24.463  29.876  1.00  0.00     0.049 A 
ATOM     55  H   UNL A   1      45.323  24.112  27.909  1.00  0.00     0.167 HD
ATOM     56  C   UNL A   1      46.204  26.404  29.393  1.00  0.00     0.074 A 
ATOM     57  C   UNL A   1      46.306  26.444  27.932  1.00  0.00     0.031 C 
ATOM     58  C   UNL A   1      45.546  25.574  30.256  1.00  0.00     0.037 A 
BRANCH  45  59
ATOM     59  C   UNL A   1      43.533  23.303  25.806  1.00  0.00     0.057 A 
ATOM     60  C   UNL A   1      44.430  24.146  25.117  1.00  0.00     0.134 A 
ATOM     61  C   UNL A   1      43.623  21.941  25.451  1.00  0.00     0.134 A 
ATOM     62  F   UNL A   1      44.470  25.470  25.291  1.00  0.00    -0.206 F 
ATOM     63  C   UNL A   1      45.416  23.664  24.252  1.00  0.00     0.040 A 
ATOM     64  C   UNL A   1      44.630  21.444  24.612  1.00  0.00     0.040 A 
ATOM     65  F   UNL A   1      42.801  21.030  25.995  1.00  0.00    -0.206 F 
ATOM     66  C   UNL A   1      45.550  22.304  24.031  1.00  0.00     0.006 A 
ENDBRANCH  45  59
BRANCH  46  67
ATOM     67  C   UNL A   1      46.867  30.886  28.129  1.00  0.00     0.057 A 
ATOM     68  C   UNL A   1      47.809  31.578  28.908  1.00  0.00     0.134 A 
ATOM     69  C   UNL A   1      46.517  31.495  26.911  1.00  0.00     0.134 A 
ATOM     70  F   UNL A   1      48.151  31.135  30.127  1.00  0.00    -0.206 F 
ATOM     71  C   UNL A   1      48.362  32.801  28.511  1.00  0.00     0.040 A 
ATOM     72  C   UNL A   1      47.062  32.722  26.501  1.00  0.00     0.040 A 
ATOM     73  F   UNL A   1      45.582  30.946  26.120  1.00  0.00    -0.206 F 
ATOM     74  C   UNL A   1      47.981  33.384  27.309  1.00  0.00     0.006 A 
ENDBRANCH  46  67
BRANCH  58  75
ATOM     75  C   UNL A   1      45.566  25.947  31.714  1.00  0.00     0.057 A 
ATOM     76  C   UNL A   1      44.462  26.626  32.237  1.00  0.00     0.134 A 
ATOM     77  C   UNL A   1      46.659  25.754  32.573  1.00  0.00     0.134 A 
ATOM     78  F   UNL A   1      43.403  26.892  31.456  1.00  0.00    -0.206 F 
ATOM     79  C   UNL A   1      44.432  27.081  33.555  1.00  0.00     0.040 A 
ATOM     80  C   UNL A   1      46.629  26.177  33.908  1.00  0.00     0.040 A 
ATOM     81  F   UNL A   1      47.795  25.197  32.137  1.00  0.00    -0.206 F 
ATOM     82  C   UNL A   1      45.513  26.846  34.401  1.00  0.00     0.006 A 
ENDBRANCH  58  75
ENDBRANCH  32  33
ENDBRANCH  24  27
ENDBRANCH  22  23
ENDBRANCH  21  22
ENDBRANCH   1  21
TORSDOF 13
ENDMDL
MODEL 3
REMARK VINA RESULT:     -11.4      3.761      8.560
REMARK SMILES Cc1cc(C(=O)NCCCCNC(=O)c2ccc(-c3c4nc(c(-c5c(F)cccc5F)c5ccc([nH]5)c(-c5c(F)cccc5F)c5nc(c(-c6c(F)cccc6F)c6ccc3[nH]6)C=C5)C=C4)cc2)c(C#Cc2ccccc2)s1
REMARK SMILES IDX 9 1 8 2 7 3 5 4 6 5 4 7 1 8 2 9 3 10 78 11 69 12 70 13 71 14
REMARK SMILES IDX 72 15 73 16 77 17 74 18 76 19 75 20 10 21 11 22 12 23 13 24
REMARK SMILES IDX 14 26 15 27 16 28 68 29 17 30 67 31 18 32 19 33 20 34 61 35
REMARK SMILES IDX 21 36 66 37 60 38 62 39 22 40 65 41 59 42 58 43 23 45 49 46
REMARK SMILES IDX 32 47 48 48 33 49 36 50 47 51 63 52 34 53 35 54 46 56 64 57
REMARK SMILES IDX 37 58 24 59 25 60 30 61 26 62 27 63 29 64 31 65 28 66 50 67
REMARK SMILES IDX 51 68 56 69 52 70 53 71 55 72 57 73 54 74 38 75 39 76 44 77
REMARK SMILES IDX 40 78 41 79 43 80 45 81 42 82
REMARK H PARENT 7 6 12 25 62 44 36 55
REMARK Flexibility Score: inf
ROOT
ATOM      1  C   UNL A   1      38.371  23.530  26.218  1.00  0.00     0.023 C 
ENDROOT
BRANCH   1   2
ATOM      2  C   UNL A   1      37.752  22.232  25.695  1.00  0.00     0.116 C 
BRANCH   2   3
ATOM      3  N   UNL A   1      37.283  22.392  24.337  1.00  0.00    -0.352 N 
ATOM      4  C   UNL A   1      36.147  22.899  23.761  1.00  0.00     0.253 C 
ATOM      5  O   UNL A   1      36.155  22.878  22.528  1.00  0.00    -0.269 OA
ATOM      6  H   UNL A   1      37.928  22.059  23.672  1.00  0.00     0.163 HD
BRANCH   4   7
ATOM      7  C   UNL A   1      35.027  23.464  24.535  1.00  0.00     0.066 A 
ATOM      8  C   UNL A   1      33.035  26.345  26.028  1.00  0.00     0.056 C 
ATOM      9  C   UNL A   1      33.593  25.041  25.576  1.00  0.00     0.004 A 
ATOM     10  C   UNL A   1      34.834  24.807  25.023  1.00  0.00     0.030 A 
ATOM     11  S   UNL A   1      32.707  23.603  25.711  1.00  0.00    -0.131 S 
ATOM     12  C   UNL A   1      33.944  22.688  24.954  1.00  0.00     0.090 A 
BRANCH  12  13
ATOM     13  C   UNL A   1      33.774  21.281  24.800  1.00  0.00    -0.050 C 
ATOM     14  C   UNL A   1      33.646  20.081  24.719  1.00  0.00    -0.061 C 
BRANCH  14  15
ATOM     15  C   UNL A   1      33.471  18.668  24.678  1.00  0.00     0.025 A 
ATOM     16  C   UNL A   1      32.782  18.010  25.699  1.00  0.00     0.017 A 
ATOM     17  C   UNL A   1      34.022  17.932  23.626  1.00  0.00     0.017 A 
ATOM     18  C   UNL A   1      32.663  16.619  25.677  1.00  0.00     0.001 A 
ATOM     19  C   UNL A   1      33.903  16.542  23.605  1.00  0.00     0.001 A 
ATOM     20  C   UNL A   1      33.229  15.885  24.634  1.00  0.00     0.000 A 
ENDBRANCH  14  15
ENDBRANCH  12  13
ENDBRANCH   4   7
ENDBRANCH   2   3
ENDBRANCH   1   2
BRANCH   1  21
ATOM     21  C   UNL A   1      39.564  23.309  27.161  1.00  0.00     0.023 C 
BRANCH  21  22
ATOM     22  C   UNL A   1      40.410  22.081  26.817  1.00  0.00     0.116 C 
BRANCH  22  23
ATOM     23  N   UNL A   1      41.370  22.317  25.758  1.00  0.00    -0.352 N 
ATOM     24  C   UNL A   1      42.340  23.253  25.538  1.00  0.00     0.251 C 
ATOM     25  H   UNL A   1      41.309  21.653  25.033  1.00  0.00     0.163 HD
ATOM     26  O   UNL A   1      43.104  23.039  24.595  1.00  0.00    -0.269 OA
BRANCH  24  27
ATOM     27  C   UNL A   1      42.449  24.538  26.272  1.00  0.00     0.039 A 
ATOM     28  C   UNL A   1      43.102  24.721  27.489  1.00  0.00     0.014 A 
ATOM     29  C   UNL A   1      41.725  25.612  25.722  1.00  0.00     0.014 A 
ATOM     30  C   UNL A   1      42.878  25.865  28.232  1.00  0.00     0.010 A 
ATOM     31  C   UNL A   1      41.534  26.779  26.440  1.00  0.00     0.010 A 
ATOM     32  C   UNL A   1      42.041  26.861  27.730  1.00  0.00    -0.014 A 
BRANCH  32  33
ATOM     33  C   UNL A   1      41.872  28.074  28.520  1.00  0.00     0.031 A 
ATOM     34  C   UNL A   1      43.008  29.019  28.326  1.00  0.00     0.074 A 
ATOM     35  C   UNL A   1      40.761  28.307  29.252  1.00  0.00     0.049 A 
ATOM     36  N   UNL A   1      43.868  29.413  29.206  1.00  0.00    -0.248 NA
ATOM     37  C   UNL A   1      43.369  29.392  26.943  1.00  0.00     0.031 C 
ATOM     38  C   UNL A   1      39.544  27.489  29.319  1.00  0.00     0.029 A 
ATOM     39  N   UNL A   1      40.438  29.381  30.031  1.00  0.00    -0.354 N 
ATOM     40  C   UNL A   1      44.731  30.278  28.533  1.00  0.00     0.074 A 
ATOM     41  C   UNL A   1      44.504  30.065  27.132  1.00  0.00     0.031 C 
ATOM     42  C   UNL A   1      38.543  28.203  29.884  1.00  0.00     0.029 A 
ATOM     43  C   UNL A   1      39.077  29.467  30.350  1.00  0.00     0.049 A 
ATOM     44  H   UNL A   1      41.104  30.039  30.341  1.00  0.00     0.167 HD
ATOM     45  C   UNL A   1      45.313  31.313  29.200  1.00  0.00     0.037 A 
ATOM     46  C   UNL A   1      38.448  30.533  30.914  1.00  0.00     0.037 A 
ATOM     47  C   UNL A   1      45.330  31.037  30.618  1.00  0.00     0.049 A 
ATOM     48  C   UNL A   1      39.495  31.362  31.551  1.00  0.00     0.074 A 
ATOM     49  C   UNL A   1      45.945  30.129  31.454  1.00  0.00     0.029 A 
ATOM     50  N   UNL A   1      44.284  31.566  31.329  1.00  0.00    -0.354 N 
ATOM     51  N   UNL A   1      40.182  30.977  32.589  1.00  0.00    -0.248 NA
ATOM     52  C   UNL A   1      40.106  32.402  30.742  1.00  0.00     0.031 C 
ATOM     53  C   UNL A   1      44.997  29.870  32.491  1.00  0.00     0.029 A 
ATOM     54  C   UNL A   1      43.884  30.686  32.290  1.00  0.00     0.049 A 
ATOM     55  H   UNL A   1      43.882  32.451  31.168  1.00  0.00     0.167 HD
ATOM     56  C   UNL A   1      41.481  31.376  32.313  1.00  0.00     0.074 A 
ATOM     57  C   UNL A   1      41.355  32.328  31.208  1.00  0.00     0.031 C 
ATOM     58  C   UNL A   1      42.538  30.666  32.812  1.00  0.00     0.037 A 
BRANCH  45  59
ATOM     59  C   UNL A   1      45.291  32.746  28.675  1.00  0.00     0.057 A 
ATOM     60  C   UNL A   1      44.135  33.540  28.517  1.00  0.00     0.134 A 
ATOM     61  C   UNL A   1      46.500  33.472  28.685  1.00  0.00     0.134 A 
ATOM     62  F   UNL A   1      42.902  33.031  28.448  1.00  0.00    -0.206 F 
ATOM     63  C   UNL A   1      44.168  34.937  28.503  1.00  0.00     0.040 A 
ATOM     64  C   UNL A   1      46.540  34.872  28.706  1.00  0.00     0.040 A 
ATOM     65  F   UNL A   1      47.681  32.843  28.786  1.00  0.00    -0.206 F 
ATOM     66  C   UNL A   1      45.368  35.611  28.644  1.00  0.00     0.006 A 
ENDBRANCH  45  59
BRANCH  46  67
ATOM     67  C   UNL A   1      37.089  31.070  30.660  1.00  0.00     0.057 A 
ATOM     68  C   UNL A   1      36.726  31.555  29.393  1.00  0.00     0.134 A 
ATOM     69  C   UNL A   1      36.220  31.404  31.714  1.00  0.00     0.134 A 
ATOM     70  F   UNL A   1      37.525  31.371  28.332  1.00  0.00    -0.206 F 
ATOM     71  C   UNL A   1      35.580  32.332  29.184  1.00  0.00     0.040 A 
ATOM     72  C   UNL A   1      35.069  32.183  31.518  1.00  0.00     0.040 A 
ATOM     73  F   UNL A   1      36.505  31.039  32.973  1.00  0.00    -0.206 F 
ATOM     74  C   UNL A   1      34.752  32.659  30.250  1.00  0.00     0.006 A 
ENDBRANCH  46  67
BRANCH  58  75
ATOM     75  C   UNL A   1      42.239  29.659  33.889  1.00  0.00     0.057 A 
ATOM     76  C   UNL A   1      42.392  30.051  35.221  1.00  0.00     0.134 A 
ATOM     77  C   UNL A   1      41.913  28.314  33.656  1.00  0.00     0.134 A 
ATOM     78  F   UNL A   1      42.756  31.309  35.516  1.00  0.00    -0.206 F 
ATOM     79  C   UNL A   1      42.216  29.158  36.278  1.00  0.00     0.040 A 
ATOM     80  C   UNL A   1      41.701  27.415  34.708  1.00  0.00     0.040 A 
ATOM     81  F   UNL A   1      41.836  27.823  32.412  1.00  0.00    -0.206 F 
ATOM     82  C   UNL A   1      41.856  27.837  36.025  1.00  0.00     0.006 A 
ENDBRANCH  58  75
ENDBRANCH  32  33
ENDBRANCH  24  27
ENDBRANCH  22  23
ENDBRANCH  21  22
ENDBRANCH   1  21
TORSDOF 13
ENDMDL
