MODEL 1
REMARK VINA RESULT:     -11.8      0.000      0.000
REMARK SMILES C[C@@H](C(=O)NCCCCNC(=O)c1ccc(-c2c3nc(c(-c4c(F)cccc4F)c4ccc([nH]4)c(-c4c(F)cccc4F)c4nc(c(-c5c(F)cccc5F)c5ccc2[nH]5)C=C4)C=C3)cc1)c1ccc(C[C@H]2CCCC2=O)cc1I
REMARK SMILES IDX 7 1 6 2 5 3 3 4 4 5 2 7 1 8 67 9 68 10 79 11 69 12 78 13
REMARK SMILES IDX 80 14 70 15 71 16 72 17 73 18 76 19 74 20 75 21 77 22 8 23
REMARK SMILES IDX 9 24 10 25 11 26 12 28 13 29 14 30 66 31 15 32 65 33 16 34
REMARK SMILES IDX 17 35 18 36 59 37 19 38 64 39 58 40 60 41 20 42 63 43 57 44
REMARK SMILES IDX 56 45 21 47 47 48 30 49 46 50 31 51 34 52 45 53 61 54 32 55
REMARK SMILES IDX 33 56 44 58 62 59 35 60 22 61 23 62 28 63 24 64 25 65 27 66
REMARK SMILES IDX 29 67 26 68 48 69 49 70 54 71 50 72 51 73 53 74 55 75 52 76
REMARK SMILES IDX 36 77 37 78 42 79 38 80 39 81 41 82 43 83 40 84
REMARK H PARENT 5 6 10 27 60 46 34 57
REMARK Flexibility Score: inf
ROOT
ATOM      1  C   UNL A   1      31.529  30.492  26.163  1.00  0.00     0.023 C 
ENDROOT
BRANCH   1   2
ATOM      2  C   UNL A   1      32.913  29.878  26.400  1.00  0.00     0.116 C 
BRANCH   2   3
ATOM      3  N   UNL A   1      33.631  29.783  25.144  1.00  0.00    -0.356 N 
ATOM      4  C   UNL A   1      33.756  28.687  24.330  1.00  0.00     0.227 C 
ATOM      5  O   UNL A   1      34.764  28.606  23.628  1.00  0.00    -0.274 OA
ATOM      6  H   UNL A   1      34.084  30.603  24.839  1.00  0.00     0.163 HD
BRANCH   4   7
ATOM      7  C   UNL A   1      32.646  27.626  24.352  1.00  0.00     0.106 C 
ATOM      8  C   UNL A   1      33.298  26.340  23.800  1.00  0.00     0.023 C 
BRANCH   7   9
ATOM      9  C   UNL A   1      31.370  28.017  23.591  1.00  0.00    -0.022 A 
ATOM     10  C   UNL A   1      31.475  28.953  22.541  1.00  0.00     0.006 A 
ATOM     11  C   UNL A   1      30.083  27.493  23.821  1.00  0.00     0.017 A 
ATOM     12  C   UNL A   1      30.359  29.476  21.895  1.00  0.00     0.004 A 
ATOM     13  C   UNL A   1      28.948  28.086  23.232  1.00  0.00     0.018 A 
ATOM     14  I   UNL A   1      29.691  25.711  24.890  1.00  0.00    -0.044 I 
ATOM     15  C   UNL A   1      29.078  29.127  22.308  1.00  0.00    -0.046 A 
BRANCH  15  16
ATOM     16  C   UNL A   1      27.874  29.837  21.742  1.00  0.00     0.047 C 
BRANCH  16  17
ATOM     17  C   UNL A   1      27.464  31.145  22.439  1.00  0.00     0.060 C 
ATOM     18  C   UNL A   1      27.910  31.308  23.897  1.00  0.00     0.012 C 
ATOM     19  C   UNL A   1      28.048  32.381  21.793  1.00  0.00     0.136 C 
ATOM     20  C   UNL A   1      29.157  32.183  23.878  1.00  0.00     0.009 C 
ATOM     21  C   UNL A   1      28.977  33.137  22.706  1.00  0.00     0.076 C 
ATOM     22  O   UNL A   1      27.792  32.736  20.648  1.00  0.00    -0.299 OA
ENDBRANCH  16  17
ENDBRANCH  15  16
ENDBRANCH   7   9
ENDBRANCH   4   7
ENDBRANCH   2   3
ENDBRANCH   1   2
BRANCH   1  23
ATOM     23  C   UNL A   1      31.393  31.938  26.645  1.00  0.00     0.023 C 
BRANCH  23  24
ATOM     24  C   UNL A   1      32.667  32.534  27.224  1.00  0.00     0.116 C 
BRANCH  24  25
ATOM     25  N   UNL A   1      32.498  33.924  27.616  1.00  0.00    -0.352 N 
ATOM     26  C   UNL A   1      33.177  34.647  28.561  1.00  0.00     0.251 C 
ATOM     27  H   UNL A   1      31.795  34.416  27.133  1.00  0.00     0.163 HD
ATOM     28  O   UNL A   1      32.779  35.767  28.876  1.00  0.00    -0.269 OA
BRANCH  26  29
ATOM     29  C   UNL A   1      34.365  34.071  29.224  1.00  0.00     0.039 A 
ATOM     30  C   UNL A   1      34.175  33.073  30.180  1.00  0.00     0.014 A 
ATOM     31  C   UNL A   1      35.656  34.509  28.912  1.00  0.00     0.014 A 
ATOM     32  C   UNL A   1      35.281  32.474  30.780  1.00  0.00     0.010 A 
ATOM     33  C   UNL A   1      36.761  33.855  29.452  1.00  0.00     0.010 A 
ATOM     34  C   UNL A   1      36.585  32.833  30.394  1.00  0.00    -0.014 A 
BRANCH  34  35
ATOM     35  C   UNL A   1      37.757  32.123  30.962  1.00  0.00     0.031 A 
ATOM     36  C   UNL A   1      38.264  32.451  32.339  1.00  0.00     0.074 A 
ATOM     37  C   UNL A   1      38.380  31.186  30.218  1.00  0.00     0.049 A 
ATOM     38  N   UNL A   1      39.261  31.917  32.999  1.00  0.00    -0.248 NA
ATOM     39  C   UNL A   1      37.579  33.534  33.063  1.00  0.00     0.031 C 
ATOM     40  C   UNL A   1      38.022  30.824  28.844  1.00  0.00     0.029 A 
ATOM     41  N   UNL A   1      39.440  30.368  30.510  1.00  0.00    -0.354 N 
ATOM     42  C   UNL A   1      39.316  32.590  34.213  1.00  0.00     0.074 A 
ATOM     43  C   UNL A   1      38.297  33.615  34.174  1.00  0.00     0.031 C 
ATOM     44  C   UNL A   1      38.825  29.832  28.428  1.00  0.00     0.029 A 
ATOM     45  C   UNL A   1      39.776  29.515  29.487  1.00  0.00     0.049 A 
ATOM     46  H   UNL A   1      39.917  30.389  31.372  1.00  0.00     0.167 HD
ATOM     47  C   UNL A   1      40.121  32.354  35.276  1.00  0.00     0.037 A 
ATOM     48  C   UNL A   1      40.744  28.583  29.410  1.00  0.00     0.037 A 
ATOM     49  C   UNL A   1      41.132  31.328  35.315  1.00  0.00     0.049 A 
ATOM     50  C   UNL A   1      41.630  28.351  30.603  1.00  0.00     0.074 A 
ATOM     51  C   UNL A   1      41.974  30.987  36.359  1.00  0.00     0.029 A 
ATOM     52  N   UNL A   1      41.439  30.480  34.262  1.00  0.00    -0.354 N 
ATOM     53  N   UNL A   1      41.620  28.945  31.770  1.00  0.00    -0.248 NA
ATOM     54  C   UNL A   1      42.655  27.306  30.468  1.00  0.00     0.031 C 
ATOM     55  C   UNL A   1      42.823  29.964  35.922  1.00  0.00     0.029 A 
ATOM     56  C   UNL A   1      42.471  29.629  34.625  1.00  0.00     0.049 A 
ATOM     57  H   UNL A   1      40.990  30.481  33.385  1.00  0.00     0.167 HD
ATOM     58  C   UNL A   1      42.619  28.334  32.517  1.00  0.00     0.074 A 
ATOM     59  C   UNL A   1      43.191  27.299  31.680  1.00  0.00     0.031 C 
ATOM     60  C   UNL A   1      43.032  28.608  33.779  1.00  0.00     0.037 A 
BRANCH  47  61
ATOM     61  C   UNL A   1      39.932  33.208  36.497  1.00  0.00     0.057 A 
ATOM     62  C   UNL A   1      40.679  34.376  36.698  1.00  0.00     0.134 A 
ATOM     63  C   UNL A   1      38.954  32.897  37.450  1.00  0.00     0.134 A 
ATOM     64  F   UNL A   1      41.640  34.727  35.830  1.00  0.00    -0.206 F 
ATOM     65  C   UNL A   1      40.473  35.194  37.810  1.00  0.00     0.040 A 
ATOM     66  C   UNL A   1      38.719  33.721  38.552  1.00  0.00     0.040 A 
ATOM     67  F   UNL A   1      38.198  31.797  37.317  1.00  0.00    -0.206 F 
ATOM     68  C   UNL A   1      39.483  34.873  38.736  1.00  0.00     0.006 A 
ENDBRANCH  47  61
BRANCH  48  69
ATOM     69  C   UNL A   1      40.927  27.791  28.165  1.00  0.00     0.057 A 
ATOM     70  C   UNL A   1      41.706  28.268  27.106  1.00  0.00     0.134 A 
ATOM     71  C   UNL A   1      40.295  26.553  27.993  1.00  0.00     0.134 A 
ATOM     72  F   UNL A   1      42.324  29.454  27.202  1.00  0.00    -0.206 F 
ATOM     73  C   UNL A   1      41.824  27.561  25.907  1.00  0.00     0.040 A 
ATOM     74  C   UNL A   1      40.430  25.820  26.812  1.00  0.00     0.040 A 
ATOM     75  F   UNL A   1      39.542  26.033  28.974  1.00  0.00    -0.206 F 
ATOM     76  C   UNL A   1      41.186  26.332  25.760  1.00  0.00     0.006 A 
ENDBRANCH  48  69
BRANCH  60  77
ATOM     77  C   UNL A   1      44.138  27.754  34.331  1.00  0.00     0.057 A 
ATOM     78  C   UNL A   1      45.484  28.136  34.241  1.00  0.00     0.134 A 
ATOM     79  C   UNL A   1      43.855  26.534  34.960  1.00  0.00     0.134 A 
ATOM     80  F   UNL A   1      45.827  29.285  33.639  1.00  0.00    -0.206 F 
ATOM     81  C   UNL A   1      46.509  27.316  34.718  1.00  0.00     0.040 A 
ATOM     82  C   UNL A   1      44.869  25.723  35.471  1.00  0.00     0.040 A 
ATOM     83  F   UNL A   1      42.588  26.114  35.092  1.00  0.00    -0.206 F 
ATOM     84  C   UNL A   1      46.201  26.107  35.339  1.00  0.00     0.006 A 
ENDBRANCH  60  77
ENDBRANCH  34  35
ENDBRANCH  26  29
ENDBRANCH  24  25
ENDBRANCH  23  24
ENDBRANCH   1  23
TORSDOF 14
ENDMDL
MODEL 2
REMARK VINA RESULT:     -11.6      0.885      6.303
REMARK SMILES C[C@@H](C(=O)NCCCCNC(=O)c1ccc(-c2c3nc(c(-c4c(F)cccc4F)c4ccc([nH]4)c(-c4c(F)cccc4F)c4nc(c(-c5c(F)cccc5F)c5ccc2[nH]5)C=C4)C=C3)cc1)c1ccc(C[C@H]2CCCC2=O)cc1I
REMARK SMILES IDX 7 1 6 2 5 3 3 4 4 5 2 7 1 8 67 9 68 10 79 11 69 12 78 13
REMARK SMILES IDX 80 14 70 15 71 16 72 17 73 18 76 19 74 20 75 21 77 22 8 23
REMARK SMILES IDX 9 24 10 25 11 26 12 28 13 29 14 30 66 31 15 32 65 33 16 34
REMARK SMILES IDX 17 35 18 36 59 37 19 38 64 39 58 40 60 41 20 42 63 43 57 44
REMARK SMILES IDX 56 45 21 47 47 48 30 49 46 50 31 51 34 52 45 53 61 54 32 55
REMARK SMILES IDX 33 56 44 58 62 59 35 60 22 61 23 62 28 63 24 64 25 65 27 66
REMARK SMILES IDX 29 67 26 68 48 69 49 70 54 71 50 72 51 73 53 74 55 75 52 76
REMARK SMILES IDX 36 77 37 78 42 79 38 80 39 81 41 82 43 83 40 84
REMARK H PARENT 5 6 10 27 60 46 34 57
REMARK Flexibility Score: inf
ROOT
ATOM      1  C   UNL A   1      31.530  30.713  26.221  1.00  0.00     0.023 C 
ENDROOT
BRANCH   1   2
ATOM      2  C   UNL A   1      32.835  29.954  26.482  1.00  0.00     0.116 C 
BRANCH   2   3
ATOM      3  N   UNL A   1      33.589  29.833  25.249  1.00  0.00    -0.356 N 
ATOM      4  C   UNL A   1      33.734  28.721  24.461  1.00  0.00     0.227 C 
ATOM      5  O   UNL A   1      34.761  28.624  23.790  1.00  0.00    -0.274 OA
ATOM      6  H   UNL A   1      34.052  30.646  24.941  1.00  0.00     0.163 HD
BRANCH   4   7
ATOM      7  C   UNL A   1      32.621  27.662  24.472  1.00  0.00     0.106 C 
ATOM      8  C   UNL A   1      33.285  26.365  23.963  1.00  0.00     0.023 C 
BRANCH   7   9
ATOM      9  C   UNL A   1      31.368  28.041  23.668  1.00  0.00    -0.022 A 
ATOM     10  C   UNL A   1      31.503  28.969  22.614  1.00  0.00     0.006 A 
ATOM     11  C   UNL A   1      30.076  27.514  23.862  1.00  0.00     0.017 A 
ATOM     12  C   UNL A   1      30.404  29.481  21.929  1.00  0.00     0.004 A 
ATOM     13  C   UNL A   1      28.959  28.096  23.233  1.00  0.00     0.018 A 
ATOM     14  I   UNL A   1      29.659  25.740  24.934  1.00  0.00    -0.044 I 
ATOM     15  C   UNL A   1      29.113  29.130  22.304  1.00  0.00    -0.046 A 
BRANCH  15  16
ATOM     16  C   UNL A   1      27.924  29.830  21.695  1.00  0.00     0.047 C 
BRANCH  16  17
ATOM     17  C   UNL A   1      27.468  31.126  22.386  1.00  0.00     0.060 C 
ATOM     18  C   UNL A   1      27.858  31.284  23.860  1.00  0.00     0.012 C 
ATOM     19  C   UNL A   1      28.055  32.376  21.770  1.00  0.00     0.136 C 
ATOM     20  C   UNL A   1      29.090  32.180  23.892  1.00  0.00     0.009 C 
ATOM     21  C   UNL A   1      28.938  33.140  22.722  1.00  0.00     0.076 C 
ATOM     22  O   UNL A   1      27.835  32.736  20.619  1.00  0.00    -0.299 OA
ENDBRANCH  16  17
ENDBRANCH  15  16
ENDBRANCH   7   9
ENDBRANCH   4   7
ENDBRANCH   2   3
ENDBRANCH   1   2
BRANCH   1  23
ATOM     23  C   UNL A   1      31.382  32.005  27.029  1.00  0.00     0.023 C 
BRANCH  23  24
ATOM     24  C   UNL A   1      32.666  32.807  27.180  1.00  0.00     0.116 C 
BRANCH  24  25
ATOM     25  N   UNL A   1      32.413  34.188  27.557  1.00  0.00    -0.352 N 
ATOM     26  C   UNL A   1      33.018  34.948  28.523  1.00  0.00     0.251 C 
ATOM     27  H   UNL A   1      31.706  34.642  27.045  1.00  0.00     0.163 HD
ATOM     28  O   UNL A   1      32.553  36.047  28.816  1.00  0.00    -0.269 OA
BRANCH  26  29
ATOM     29  C   UNL A   1      34.207  34.434  29.235  1.00  0.00     0.039 A 
ATOM     30  C   UNL A   1      34.023  33.789  30.458  1.00  0.00     0.014 A 
ATOM     31  C   UNL A   1      35.493  34.587  28.706  1.00  0.00     0.014 A 
ATOM     32  C   UNL A   1      35.122  33.246  31.123  1.00  0.00     0.010 A 
ATOM     33  C   UNL A   1      36.578  33.975  29.331  1.00  0.00     0.010 A 
ATOM     34  C   UNL A   1      36.404  33.302  30.547  1.00  0.00    -0.014 A 
BRANCH  34  35
ATOM     35  C   UNL A   1      37.552  32.635  31.209  1.00  0.00     0.031 A 
ATOM     36  C   UNL A   1      38.191  31.417  30.600  1.00  0.00     0.074 A 
ATOM     37  C   UNL A   1      38.008  33.124  32.380  1.00  0.00     0.049 A 
ATOM     38  N   UNL A   1      39.213  30.721  31.031  1.00  0.00    -0.248 NA
ATOM     39  C   UNL A   1      37.594  30.899  29.359  1.00  0.00     0.031 C 
ATOM     40  C   UNL A   1      37.432  34.261  33.103  1.00  0.00     0.029 A 
ATOM     41  N   UNL A   1      39.060  32.731  33.167  1.00  0.00    -0.354 N 
ATOM     42  C   UNL A   1      39.386  29.693  30.112  1.00  0.00     0.074 A 
ATOM     43  C   UNL A   1      38.324  29.815  29.138  1.00  0.00     0.031 C 
ATOM     44  C   UNL A   1      38.158  34.494  34.206  1.00  0.00     0.029 A 
ATOM     45  C   UNL A   1      39.227  33.504  34.290  1.00  0.00     0.049 A 
ATOM     46  H   UNL A   1      39.641  31.967  32.949  1.00  0.00     0.167 HD
ATOM     47  C   UNL A   1      40.359  28.753  30.067  1.00  0.00     0.037 A 
ATOM     48  C   UNL A   1      40.136  33.424  35.278  1.00  0.00     0.037 A 
ATOM     49  C   UNL A   1      41.419  28.637  31.036  1.00  0.00     0.049 A 
ATOM     50  C   UNL A   1      41.199  32.362  35.207  1.00  0.00     0.074 A 
ATOM     51  C   UNL A   1      42.473  27.739  31.058  1.00  0.00     0.029 A 
ATOM     52  N   UNL A   1      41.558  29.442  32.156  1.00  0.00    -0.354 N 
ATOM     53  N   UNL A   1      41.392  31.444  34.292  1.00  0.00    -0.248 NA
ATOM     54  C   UNL A   1      42.178  32.334  36.302  1.00  0.00     0.031 C 
ATOM     55  C   UNL A   1      43.223  27.971  32.216  1.00  0.00     0.029 A 
ATOM     56  C   UNL A   1      42.670  29.049  32.886  1.00  0.00     0.049 A 
ATOM     57  H   UNL A   1      40.957  30.183  32.398  1.00  0.00     0.167 HD
ATOM     58  C   UNL A   1      42.525  30.744  34.688  1.00  0.00     0.074 A 
ATOM     59  C   UNL A   1      42.994  31.368  35.908  1.00  0.00     0.031 C 
ATOM     60  C   UNL A   1      43.121  29.678  34.101  1.00  0.00     0.037 A 
BRANCH  47  61
ATOM     61  C   UNL A   1      40.336  27.781  28.922  1.00  0.00     0.057 A 
ATOM     62  C   UNL A   1      39.558  26.617  28.963  1.00  0.00     0.134 A 
ATOM     63  C   UNL A   1      41.050  28.039  27.745  1.00  0.00     0.134 A 
ATOM     64  F   UNL A   1      38.860  26.303  30.065  1.00  0.00    -0.206 F 
ATOM     65  C   UNL A   1      39.503  25.735  27.881  1.00  0.00     0.040 A 
ATOM     66  C   UNL A   1      40.980  27.180  26.646  1.00  0.00     0.040 A 
ATOM     67  F   UNL A   1      41.810  29.138  27.635  1.00  0.00    -0.206 F 
ATOM     68  C   UNL A   1      40.207  26.022  26.714  1.00  0.00     0.006 A 
ENDBRANCH  47  61
BRANCH  48  69
ATOM     69  C   UNL A   1      40.094  34.377  36.418  1.00  0.00     0.057 A 
ATOM     70  C   UNL A   1      39.334  34.113  37.562  1.00  0.00     0.134 A 
ATOM     71  C   UNL A   1      40.788  35.593  36.373  1.00  0.00     0.134 A 
ATOM     72  F   UNL A   1      38.634  32.972  37.659  1.00  0.00    -0.206 F 
ATOM     73  C   UNL A   1      39.233  35.035  38.605  1.00  0.00     0.040 A 
ATOM     74  C   UNL A   1      40.723  36.512  37.423  1.00  0.00     0.040 A 
ATOM     75  F   UNL A   1      41.544  35.905  35.310  1.00  0.00    -0.206 F 
ATOM     76  C   UNL A   1      39.932  36.239  38.537  1.00  0.00     0.006 A 
ENDBRANCH  48  69
BRANCH  60  77
ATOM     77  C   UNL A   1      44.358  29.142  34.762  1.00  0.00     0.057 A 
ATOM     78  C   UNL A   1      45.637  29.611  34.432  1.00  0.00     0.134 A 
ATOM     79  C   UNL A   1      44.271  28.144  35.743  1.00  0.00     0.134 A 
ATOM     80  F   UNL A   1      45.794  30.556  33.492  1.00  0.00    -0.206 F 
ATOM     81  C   UNL A   1      46.786  29.077  35.020  1.00  0.00     0.040 A 
ATOM     82  C   UNL A   1      45.410  27.628  36.362  1.00  0.00     0.040 A 
ATOM     83  F   UNL A   1      43.078  27.659  36.117  1.00  0.00    -0.206 F 
ATOM     84  C   UNL A   1      46.672  28.085  35.992  1.00  0.00     0.006 A 
ENDBRANCH  60  77
ENDBRANCH  34  35
ENDBRANCH  26  29
ENDBRANCH  24  25
ENDBRANCH  23  24
ENDBRANCH   1  23
TORSDOF 14
ENDMDL
MODEL 3
REMARK VINA RESULT:     -11.4      5.205     10.071
REMARK SMILES C[C@@H](C(=O)NCCCCNC(=O)c1ccc(-c2c3nc(c(-c4c(F)cccc4F)c4ccc([nH]4)c(-c4c(F)cccc4F)c4nc(c(-c5c(F)cccc5F)c5ccc2[nH]5)C=C4)C=C3)cc1)c1ccc(C[C@H]2CCCC2=O)cc1I
REMARK SMILES IDX 7 1 6 2 5 3 3 4 4 5 2 7 1 8 67 9 68 10 79 11 69 12 78 13
REMARK SMILES IDX 80 14 70 15 71 16 72 17 73 18 76 19 74 20 75 21 77 22 8 23
REMARK SMILES IDX 9 24 10 25 11 26 12 28 13 29 14 30 66 31 15 32 65 33 16 34
REMARK SMILES IDX 17 35 18 36 59 37 19 38 64 39 58 40 60 41 20 42 63 43 57 44
REMARK SMILES IDX 56 45 21 47 47 48 30 49 46 50 31 51 34 52 45 53 61 54 32 55
REMARK SMILES IDX 33 56 44 58 62 59 35 60 22 61 23 62 28 63 24 64 25 65 27 66
REMARK SMILES IDX 29 67 26 68 48 69 49 70 54 71 50 72 51 73 53 74 55 75 52 76
REMARK SMILES IDX 36 77 37 78 42 79 38 80 39 81 41 82 43 83 40 84
REMARK H PARENT 5 6 10 27 60 46 34 57
REMARK Flexibility Score: inf
ROOT
ATOM      1  C   UNL A   1      37.079  20.374  24.600  1.00  0.00     0.023 C 
ENDROOT
BRANCH   1   2
ATOM      2  C   UNL A   1      35.779  20.596  25.380  1.00  0.00     0.116 C 
BRANCH   2   3
ATOM      3  N   UNL A   1      35.845  21.856  26.096  1.00  0.00    -0.356 N 
ATOM      4  C   UNL A   1      35.576  23.110  25.612  1.00  0.00     0.227 C 
ATOM      5  O   UNL A   1      36.153  24.063  26.138  1.00  0.00    -0.274 OA
ATOM      6  H   UNL A   1      36.116  21.805  27.041  1.00  0.00     0.163 HD
BRANCH   4   7
ATOM      7  C   UNL A   1      34.590  23.251  24.444  1.00  0.00     0.106 C 
ATOM      8  C   UNL A   1      35.465  23.311  23.173  1.00  0.00     0.023 C 
BRANCH   7   9
ATOM      9  C   UNL A   1      33.628  24.444  24.557  1.00  0.00    -0.022 A 
ATOM     10  C   UNL A   1      33.963  25.641  23.891  1.00  0.00     0.006 A 
ATOM     11  C   UNL A   1      32.401  24.447  25.248  1.00  0.00     0.017 A 
ATOM     12  C   UNL A   1      33.232  26.814  24.056  1.00  0.00     0.004 A 
ATOM     13  C   UNL A   1      31.712  25.653  25.487  1.00  0.00     0.018 A 
ATOM     14  I   UNL A   1      31.361  22.705  25.846  1.00  0.00    -0.044 I 
ATOM     15  C   UNL A   1      32.161  26.859  24.941  1.00  0.00    -0.046 A 
BRANCH  15  16
ATOM     16  C   UNL A   1      31.493  28.171  25.266  1.00  0.00     0.047 C 
BRANCH  16  17
ATOM     17  C   UNL A   1      31.834  28.790  26.631  1.00  0.00     0.060 C 
ATOM     18  C   UNL A   1      33.024  28.177  27.378  1.00  0.00     0.012 C 
ATOM     19  C   UNL A   1      32.232  30.247  26.551  1.00  0.00     0.136 C 
ATOM     20  C   UNL A   1      34.218  29.088  27.122  1.00  0.00     0.009 C 
ATOM     21  C   UNL A   1      33.650  30.494  26.995  1.00  0.00     0.076 C 
ATOM     22  O   UNL A   1      31.481  31.137  26.166  1.00  0.00    -0.299 OA
ENDBRANCH  16  17
ENDBRANCH  15  16
ENDBRANCH   7   9
ENDBRANCH   4   7
ENDBRANCH   2   3
ENDBRANCH   1   2
BRANCH   1  23
ATOM     23  C   UNL A   1      38.019  19.342  25.228  1.00  0.00     0.023 C 
BRANCH  23  24
ATOM     24  C   UNL A   1      39.315  19.918  25.778  1.00  0.00     0.116 C 
BRANCH  24  25
ATOM     25  N   UNL A   1      40.387  18.938  25.807  1.00  0.00    -0.352 N 
ATOM     26  C   UNL A   1      41.725  19.122  26.040  1.00  0.00     0.251 C 
ATOM     27  H   UNL A   1      40.113  18.008  25.636  1.00  0.00     0.163 HD
ATOM     28  O   UNL A   1      42.511  18.195  25.854  1.00  0.00    -0.269 OA
BRANCH  26  29
ATOM     29  C   UNL A   1      42.226  20.440  26.481  1.00  0.00     0.039 A 
ATOM     30  C   UNL A   1      42.734  21.315  25.519  1.00  0.00     0.014 A 
ATOM     31  C   UNL A   1      42.200  20.815  27.828  1.00  0.00     0.014 A 
ATOM     32  C   UNL A   1      43.162  22.585  25.901  1.00  0.00     0.010 A 
ATOM     33  C   UNL A   1      42.553  22.111  28.196  1.00  0.00     0.010 A 
ATOM     34  C   UNL A   1      43.041  23.008  27.237  1.00  0.00    -0.014 A 
BRANCH  34  35
ATOM     35  C   UNL A   1      43.403  24.395  27.619  1.00  0.00     0.031 A 
ATOM     36  C   UNL A   1      44.837  24.848  27.604  1.00  0.00     0.074 A 
ATOM     37  C   UNL A   1      42.429  25.246  28.002  1.00  0.00     0.049 A 
ATOM     38  N   UNL A   1      45.331  26.027  27.888  1.00  0.00    -0.248 NA
ATOM     39  C   UNL A   1      45.852  23.845  27.245  1.00  0.00     0.031 C 
ATOM     40  C   UNL A   1      41.009  24.906  28.119  1.00  0.00     0.029 A 
ATOM     41  N   UNL A   1      42.484  26.568  28.360  1.00  0.00    -0.354 N 
ATOM     42  C   UNL A   1      46.707  25.909  27.733  1.00  0.00     0.074 A 
ATOM     43  C   UNL A   1      46.976  24.528  27.396  1.00  0.00     0.031 C 
ATOM     44  C   UNL A   1      40.324  26.000  28.486  1.00  0.00     0.029 A 
ATOM     45  C   UNL A   1      41.257  27.107  28.667  1.00  0.00     0.049 A 
ATOM     46  H   UNL A   1      43.322  27.084  28.395  1.00  0.00     0.167 HD
ATOM     47  C   UNL A   1      47.656  26.870  27.831  1.00  0.00     0.037 A 
ATOM     48  C   UNL A   1      40.922  28.352  29.052  1.00  0.00     0.037 A 
ATOM     49  C   UNL A   1      47.384  28.246  28.162  1.00  0.00     0.049 A 
ATOM     50  C   UNL A   1      42.000  29.396  29.164  1.00  0.00     0.074 A 
ATOM     51  C   UNL A   1      48.274  29.303  28.252  1.00  0.00     0.029 A 
ATOM     52  N   UNL A   1      46.129  28.755  28.460  1.00  0.00    -0.354 N 
ATOM     53  N   UNL A   1      43.286  29.285  28.942  1.00  0.00    -0.248 NA
ATOM     54  C   UNL A   1      41.573  30.742  29.568  1.00  0.00     0.031 C 
ATOM     55  C   UNL A   1      47.564  30.441  28.649  1.00  0.00     0.029 A 
ATOM     56  C   UNL A   1      46.224  30.107  28.753  1.00  0.00     0.049 A 
ATOM     57  H   UNL A   1      45.294  28.233  28.463  1.00  0.00     0.167 HD
ATOM     58  C   UNL A   1      43.820  30.549  29.157  1.00  0.00     0.074 A 
ATOM     59  C   UNL A   1      42.710  31.418  29.494  1.00  0.00     0.031 C 
ATOM     60  C   UNL A   1      45.111  30.956  29.090  1.00  0.00     0.037 A 
BRANCH  47  61
ATOM     61  C   UNL A   1      49.079  26.474  27.562  1.00  0.00     0.057 A 
ATOM     62  C   UNL A   1      49.933  26.057  28.591  1.00  0.00     0.134 A 
ATOM     63  C   UNL A   1      49.585  26.451  26.256  1.00  0.00     0.134 A 
ATOM     64  F   UNL A   1      49.516  26.066  29.867  1.00  0.00    -0.206 F 
ATOM     65  C   UNL A   1      51.243  25.647  28.335  1.00  0.00     0.040 A 
ATOM     66  C   UNL A   1      50.884  26.017  25.984  1.00  0.00     0.040 A 
ATOM     67  F   UNL A   1      48.821  26.832  25.222  1.00  0.00    -0.206 F 
ATOM     68  C   UNL A   1      51.718  25.616  27.026  1.00  0.00     0.006 A 
ENDBRANCH  47  61
BRANCH  48  69
ATOM     69  C   UNL A   1      39.507  28.689  29.355  1.00  0.00     0.057 A 
ATOM     70  C   UNL A   1      38.665  29.241  28.382  1.00  0.00     0.134 A 
ATOM     71  C   UNL A   1      38.973  28.501  30.636  1.00  0.00     0.134 A 
ATOM     72  F   UNL A   1      39.122  29.461  27.140  1.00  0.00    -0.206 F 
ATOM     73  C   UNL A   1      37.357  29.626  28.679  1.00  0.00     0.040 A 
ATOM     74  C   UNL A   1      37.656  28.851  30.939  1.00  0.00     0.040 A 
ATOM     75  F   UNL A   1      39.722  27.967  31.611  1.00  0.00    -0.206 F 
ATOM     76  C   UNL A   1      36.848  29.429  29.961  1.00  0.00     0.006 A 
ENDBRANCH  48  69
BRANCH  60  77
ATOM     77  C   UNL A   1      45.380  32.408  29.362  1.00  0.00     0.057 A 
ATOM     78  C   UNL A   1      45.688  32.877  30.647  1.00  0.00     0.134 A 
ATOM     79  C   UNL A   1      45.332  33.351  28.327  1.00  0.00     0.134 A 
ATOM     80  F   UNL A   1      45.738  32.030  31.686  1.00  0.00    -0.206 F 
ATOM     81  C   UNL A   1      45.895  34.235  30.900  1.00  0.00     0.040 A 
ATOM     82  C   UNL A   1      45.570  34.706  28.562  1.00  0.00     0.040 A 
ATOM     83  F   UNL A   1      45.056  32.970  27.071  1.00  0.00    -0.206 F 
ATOM     84  C   UNL A   1      45.839  35.153  29.853  1.00  0.00     0.006 A 
ENDBRANCH  60  77
ENDBRANCH  34  35
ENDBRANCH  26  29
ENDBRANCH  24  25
ENDBRANCH  23  24
ENDBRANCH   1  23
TORSDOF 14
ENDMDL
