MODEL 1
REMARK VINA RESULT:     -11.8      0.000      0.000
REMARK SMILES C[C@@H](C(=O)NCCCCNC(=O)c1ccc(-c2c3nc(c(-c4c(F)cccc4F)c4ccc([nH]4)c(-c4c(F)cccc4F)c4nc(c(-c5c(F)cccc5F)c5ccc2[nH]5)C=C4)C=C3)cc1)c1ccc(N[C@H]2CCC[C@@H]2O)cc1F
REMARK SMILES IDX 6 1 5 2 3 3 4 4 2 6 1 7 67 8 68 9 79 10 69 11 78 12 80 13
REMARK SMILES IDX 70 14 71 15 72 17 73 18 76 19 74 20 75 21 77 22 7 24 8 25
REMARK SMILES IDX 9 26 10 27 11 28 12 30 13 31 14 32 66 33 15 34 65 35 16 36
REMARK SMILES IDX 17 37 18 38 59 39 19 40 64 41 58 42 60 43 20 44 63 45 57 46
REMARK SMILES IDX 56 47 21 49 47 50 30 51 46 52 31 53 34 54 45 55 61 56 32 57
REMARK SMILES IDX 33 58 44 60 62 61 35 62 22 63 23 64 28 65 24 66 25 67 27 68
REMARK SMILES IDX 29 69 26 70 48 71 49 72 54 73 50 74 51 75 53 76 55 77 52 78
REMARK SMILES IDX 36 79 37 80 42 81 38 82 39 83 41 84 43 85 40 86
REMARK H PARENT 5 5 71 16 77 23 10 29 60 48 34 59
REMARK Flexibility Score: inf
ROOT
ATOM      1  C   UNL A   1      36.420  22.013  25.072  1.00  0.00     0.116 C 
ENDROOT
BRANCH   1   2
ATOM      2  N   UNL A   1      35.930  22.479  23.798  1.00  0.00    -0.356 N 
ATOM      3  C   UNL A   1      34.746  23.052  23.453  1.00  0.00     0.227 C 
ATOM      4  O   UNL A   1      34.654  23.341  22.258  1.00  0.00    -0.274 OA
ATOM      5  H   UNL A   1      36.560  22.365  23.051  1.00  0.00     0.163 HD
BRANCH   3   6
ATOM      6  C   UNL A   1      33.667  23.350  24.518  1.00  0.00     0.108 C 
ATOM      7  C   UNL A   1      32.688  22.191  24.730  1.00  0.00     0.023 C 
BRANCH   6   8
ATOM      8  C   UNL A   1      32.834  24.600  24.262  1.00  0.00     0.000 A 
ATOM      9  C   UNL A   1      31.612  24.568  23.593  1.00  0.00     0.009 A 
ATOM     10  C   UNL A   1      33.232  25.830  24.793  1.00  0.00     0.129 A 
ATOM     11  C   UNL A   1      30.861  25.729  23.408  1.00  0.00     0.026 A 
ATOM     12  C   UNL A   1      32.446  26.979  24.663  1.00  0.00     0.065 A 
ATOM     13  F   UNL A   1      34.380  25.914  25.483  1.00  0.00    -0.207 F 
ATOM     14  C   UNL A   1      31.230  26.948  23.973  1.00  0.00     0.037 A 
BRANCH  14  15
ATOM     15  N   UNL A   1      30.478  28.099  23.862  1.00  0.00    -0.380 N 
ATOM     16  H   UNL A   1      30.583  28.752  24.591  1.00  0.00     0.160 HD
BRANCH  15  17
ATOM     17  C   UNL A   1      29.546  28.471  22.800  1.00  0.00     0.107 C 
ATOM     18  C   UNL A   1      28.076  28.266  23.188  1.00  0.00     0.027 C 
ATOM     19  C   UNL A   1      29.667  29.922  22.284  1.00  0.00     0.136 C 
ATOM     20  C   UNL A   1      27.340  29.533  22.757  1.00  0.00     0.005 C 
ATOM     21  C   UNL A   1      28.265  30.228  21.769  1.00  0.00     0.034 C 
BRANCH  19  22
ATOM     22  O   UNL A   1      30.633  30.077  21.249  1.00  0.00    -0.391 OA
ATOM     23  H   UNL A   1      30.191  30.045  20.387  1.00  0.00     0.211 HD
ENDBRANCH  19  22
ENDBRANCH  15  17
ENDBRANCH  14  15
ENDBRANCH   6   8
ENDBRANCH   3   6
ENDBRANCH   1   2
BRANCH   1  24
ATOM     24  C   UNL A   1      36.465  20.485  25.119  1.00  0.00     0.023 C 
BRANCH  24  25
ATOM     25  C   UNL A   1      37.826  19.871  24.780  1.00  0.00     0.023 C 
BRANCH  25  26
ATOM     26  C   UNL A   1      38.945  20.207  25.755  1.00  0.00     0.116 C 
BRANCH  26  27
ATOM     27  N   UNL A   1      39.938  19.148  25.851  1.00  0.00    -0.352 N 
ATOM     28  C   UNL A   1      41.286  19.250  26.077  1.00  0.00     0.251 C 
ATOM     29  H   UNL A   1      39.593  18.233  25.741  1.00  0.00     0.163 HD
ATOM     30  O   UNL A   1      42.007  18.260  25.977  1.00  0.00    -0.269 OA
BRANCH  28  31
ATOM     31  C   UNL A   1      41.872  20.563  26.411  1.00  0.00     0.039 A 
ATOM     32  C   UNL A   1      42.207  21.436  25.375  1.00  0.00     0.014 A 
ATOM     33  C   UNL A   1      42.074  20.935  27.743  1.00  0.00     0.014 A 
ATOM     34  C   UNL A   1      42.700  22.705  25.676  1.00  0.00     0.010 A 
ATOM     35  C   UNL A   1      42.482  22.230  28.043  1.00  0.00     0.010 A 
ATOM     36  C   UNL A   1      42.814  23.123  27.013  1.00  0.00    -0.014 A 
BRANCH  36  37
ATOM     37  C   UNL A   1      43.304  24.481  27.355  1.00  0.00     0.031 A 
ATOM     38  C   UNL A   1      42.332  25.541  27.794  1.00  0.00     0.074 A 
ATOM     39  C   UNL A   1      44.610  24.776  27.218  1.00  0.00     0.049 A 
ATOM     40  N   UNL A   1      42.554  26.796  28.090  1.00  0.00    -0.248 NA
ATOM     41  C   UNL A   1      40.918  25.144  27.883  1.00  0.00     0.031 C 
ATOM     42  C   UNL A   1      45.645  23.848  26.759  1.00  0.00     0.029 A 
ATOM     43  N   UNL A   1      45.290  25.945  27.448  1.00  0.00    -0.354 N 
ATOM     44  C   UNL A   1      41.310  27.340  28.383  1.00  0.00     0.074 A 
ATOM     45  C   UNL A   1      40.331  26.297  28.165  1.00  0.00     0.031 C 
ATOM     46  C   UNL A   1      46.832  24.473  26.772  1.00  0.00     0.029 A 
ATOM     47  C   UNL A   1      46.637  25.855  27.200  1.00  0.00     0.049 A 
ATOM     48  H   UNL A   1      44.853  26.769  27.760  1.00  0.00     0.167 HD
ATOM     49  C   UNL A   1      41.010  28.587  28.819  1.00  0.00     0.037 A 
ATOM     50  C   UNL A   1      47.607  26.783  27.306  1.00  0.00     0.037 A 
ATOM     51  C   UNL A   1      41.989  29.616  29.048  1.00  0.00     0.049 A 
ATOM     52  C   UNL A   1      47.250  28.166  27.775  1.00  0.00     0.074 A 
ATOM     53  C   UNL A   1      41.799  30.895  29.541  1.00  0.00     0.029 A 
ATOM     54  N   UNL A   1      43.347  29.486  28.789  1.00  0.00    -0.354 N 
ATOM     55  N   UNL A   1      46.080  28.649  28.116  1.00  0.00    -0.248 NA
ATOM     56  C   UNL A   1      48.351  29.133  27.879  1.00  0.00     0.031 C 
ATOM     57  C   UNL A   1      43.031  31.557  29.529  1.00  0.00     0.029 A 
ATOM     58  C   UNL A   1      44.001  30.670  29.088  1.00  0.00     0.049 A 
ATOM     59  H   UNL A   1      43.781  28.672  28.444  1.00  0.00     0.167 HD
ATOM     60  C   UNL A   1      46.308  29.962  28.510  1.00  0.00     0.074 A 
ATOM     61  C   UNL A   1      47.731  30.195  28.372  1.00  0.00     0.031 C 
ATOM     62  C   UNL A   1      45.421  30.887  28.951  1.00  0.00     0.037 A 
BRANCH  49  63
ATOM     63  C   UNL A   1      39.560  28.900  29.061  1.00  0.00     0.057 A 
ATOM     64  C   UNL A   1      38.956  28.703  30.312  1.00  0.00     0.134 A 
ATOM     65  C   UNL A   1      38.756  29.405  28.032  1.00  0.00     0.134 A 
ATOM     66  F   UNL A   1      39.664  28.210  31.340  1.00  0.00    -0.206 F 
ATOM     67  C   UNL A   1      37.598  28.954  30.516  1.00  0.00     0.040 A 
ATOM     68  C   UNL A   1      37.405  29.692  28.234  1.00  0.00     0.040 A 
ATOM     69  F   UNL A   1      39.268  29.626  26.812  1.00  0.00    -0.206 F 
ATOM     70  C   UNL A   1      36.819  29.455  29.476  1.00  0.00     0.006 A 
ENDBRANCH  49  63
BRANCH  50  71
ATOM     71  C   UNL A   1      49.014  26.422  27.001  1.00  0.00     0.057 A 
ATOM     72  C   UNL A   1      49.859  25.915  27.996  1.00  0.00     0.134 A 
ATOM     73  C   UNL A   1      49.546  26.564  25.714  1.00  0.00     0.134 A 
ATOM     74  F   UNL A   1      49.411  25.772  29.251  1.00  0.00    -0.206 F 
ATOM     75  C   UNL A   1      51.186  25.577  27.727  1.00  0.00     0.040 A 
ATOM     76  C   UNL A   1      50.864  26.206  25.425  1.00  0.00     0.040 A 
ATOM     77  F   UNL A   1      48.786  27.035  24.715  1.00  0.00    -0.206 F 
ATOM     78  C   UNL A   1      51.690  25.716  26.435  1.00  0.00     0.006 A 
ENDBRANCH  50  71
BRANCH  62  79
ATOM     79  C   UNL A   1      45.967  32.224  29.364  1.00  0.00     0.057 A 
ATOM     80  C   UNL A   1      46.049  33.304  28.476  1.00  0.00     0.134 A 
ATOM     81  C   UNL A   1      46.384  32.442  30.685  1.00  0.00     0.134 A 
ATOM     82  F   UNL A   1      45.679  33.160  27.195  1.00  0.00    -0.206 F 
ATOM     83  C   UNL A   1      46.551  34.542  28.878  1.00  0.00     0.040 A 
ATOM     84  C   UNL A   1      46.858  33.684  31.107  1.00  0.00     0.040 A 
ATOM     85  F   UNL A   1      46.323  31.454  31.591  1.00  0.00    -0.206 F 
ATOM     86  C   UNL A   1      46.950  34.737  30.200  1.00  0.00     0.006 A 
ENDBRANCH  62  79
ENDBRANCH  36  37
ENDBRANCH  28  31
ENDBRANCH  26  27
ENDBRANCH  25  26
ENDBRANCH  24  25
ENDBRANCH   1  24
TORSDOF 15
ENDMDL
MODEL 2
REMARK VINA RESULT:     -11.7      5.097      9.771
REMARK SMILES C[C@@H](C(=O)NCCCCNC(=O)c1ccc(-c2c3nc(c(-c4c(F)cccc4F)c4ccc([nH]4)c(-c4c(F)cccc4F)c4nc(c(-c5c(F)cccc5F)c5ccc2[nH]5)C=C4)C=C3)cc1)c1ccc(N[C@H]2CCC[C@@H]2O)cc1F
REMARK SMILES IDX 6 1 5 2 3 3 4 4 2 6 1 7 67 8 68 9 79 10 69 11 78 12 80 13
REMARK SMILES IDX 70 14 71 15 72 17 73 18 76 19 74 20 75 21 77 22 7 24 8 25
REMARK SMILES IDX 9 26 10 27 11 28 12 30 13 31 14 32 66 33 15 34 65 35 16 36
REMARK SMILES IDX 17 37 18 38 59 39 19 40 64 41 58 42 60 43 20 44 63 45 57 46
REMARK SMILES IDX 56 47 21 49 47 50 30 51 46 52 31 53 34 54 45 55 61 56 32 57
REMARK SMILES IDX 33 58 44 60 62 61 35 62 22 63 23 64 28 65 24 66 25 67 27 68
REMARK SMILES IDX 29 69 26 70 48 71 49 72 54 73 50 74 51 75 53 76 55 77 52 78
REMARK SMILES IDX 36 79 37 80 42 81 38 82 39 83 41 84 43 85 40 86
REMARK H PARENT 5 5 71 16 77 23 10 29 60 48 34 59
REMARK Flexibility Score: inf
ROOT
ATOM      1  C   UNL A   1      32.551  30.158  26.239  1.00  0.00     0.116 C 
ENDROOT
BRANCH   1   2
ATOM      2  N   UNL A   1      32.122  29.257  27.281  1.00  0.00    -0.356 N 
ATOM      3  C   UNL A   1      31.801  27.935  27.241  1.00  0.00     0.227 C 
ATOM      4  O   UNL A   1      31.475  27.462  28.332  1.00  0.00    -0.274 OA
ATOM      5  H   UNL A   1      32.049  29.667  28.173  1.00  0.00     0.163 HD
BRANCH   3   6
ATOM      6  C   UNL A   1      31.912  27.130  25.928  1.00  0.00     0.108 C 
ATOM      7  C   UNL A   1      30.709  27.317  24.998  1.00  0.00     0.023 C 
BRANCH   6   8
ATOM      8  C   UNL A   1      32.113  25.630  26.105  1.00  0.00     0.000 A 
ATOM      9  C   UNL A   1      31.058  24.750  26.340  1.00  0.00     0.009 A 
ATOM     10  C   UNL A   1      33.380  25.066  25.931  1.00  0.00     0.129 A 
ATOM     11  C   UNL A   1      31.278  23.378  26.462  1.00  0.00     0.026 A 
ATOM     12  C   UNL A   1      33.587  23.684  25.989  1.00  0.00     0.065 A 
ATOM     13  F   UNL A   1      34.428  25.860  25.662  1.00  0.00    -0.207 F 
ATOM     14  C   UNL A   1      32.529  22.806  26.246  1.00  0.00     0.037 A 
BRANCH  14  15
ATOM     15  N   UNL A   1      32.766  21.448  26.297  1.00  0.00    -0.380 N 
ATOM     16  H   UNL A   1      33.377  21.145  27.007  1.00  0.00     0.160 HD
BRANCH  15  17
ATOM     17  C   UNL A   1      32.225  20.403  25.431  1.00  0.00     0.107 C 
ATOM     18  C   UNL A   1      32.146  20.822  23.957  1.00  0.00     0.027 C 
ATOM     19  C   UNL A   1      32.976  19.053  25.465  1.00  0.00     0.136 C 
ATOM     20  C   UNL A   1      32.708  19.654  23.150  1.00  0.00     0.005 C 
ATOM     21  C   UNL A   1      32.688  18.458  24.091  1.00  0.00     0.034 C 
BRANCH  19  22
ATOM     22  O   UNL A   1      32.528  18.182  26.499  1.00  0.00    -0.391 OA
ATOM     23  H   UNL A   1      31.560  18.145  26.494  1.00  0.00     0.211 HD
ENDBRANCH  19  22
ENDBRANCH  15  17
ENDBRANCH  14  15
ENDBRANCH   6   8
ENDBRANCH   3   6
ENDBRANCH   1   2
BRANCH   1  24
ATOM     24  C   UNL A   1      31.391  31.024  25.747  1.00  0.00     0.023 C 
BRANCH  24  25
ATOM     25  C   UNL A   1      31.178  32.321  26.533  1.00  0.00     0.023 C 
BRANCH  25  26
ATOM     26  C   UNL A   1      32.417  32.860  27.232  1.00  0.00     0.116 C 
BRANCH  26  27
ATOM     27  N   UNL A   1      32.274  34.253  27.626  1.00  0.00    -0.352 N 
ATOM     28  C   UNL A   1      32.975  34.957  28.571  1.00  0.00     0.251 C 
ATOM     29  H   UNL A   1      31.579  34.760  27.147  1.00  0.00     0.163 HD
ATOM     30  O   UNL A   1      32.622  36.092  28.885  1.00  0.00    -0.269 OA
BRANCH  28  31
ATOM     31  C   UNL A   1      34.138  34.334  29.230  1.00  0.00     0.039 A 
ATOM     32  C   UNL A   1      33.926  33.509  30.336  1.00  0.00     0.014 A 
ATOM     33  C   UNL A   1      35.432  34.552  28.747  1.00  0.00     0.014 A 
ATOM     34  C   UNL A   1      35.009  32.860  30.928  1.00  0.00     0.010 A 
ATOM     35  C   UNL A   1      36.498  33.837  29.284  1.00  0.00     0.010 A 
ATOM     36  C   UNL A   1      36.299  32.996  30.389  1.00  0.00    -0.014 A 
BRANCH  36  37
ATOM     37  C   UNL A   1      37.460  32.288  30.984  1.00  0.00     0.031 A 
ATOM     38  C   UNL A   1      37.990  32.711  32.325  1.00  0.00     0.074 A 
ATOM     39  C   UNL A   1      38.070  31.306  30.295  1.00  0.00     0.049 A 
ATOM     40  N   UNL A   1      39.019  32.253  32.991  1.00  0.00    -0.248 NA
ATOM     41  C   UNL A   1      37.286  33.816  32.995  1.00  0.00     0.031 C 
ATOM     42  C   UNL A   1      37.679  30.834  28.965  1.00  0.00     0.029 A 
ATOM     43  N   UNL A   1      39.155  30.530  30.617  1.00  0.00    -0.354 N 
ATOM     44  C   UNL A   1      39.096  33.024  34.144  1.00  0.00     0.074 A 
ATOM     45  C   UNL A   1      38.051  34.019  34.057  1.00  0.00     0.031 C 
ATOM     46  C   UNL A   1      38.490  29.829  28.601  1.00  0.00     0.029 A 
ATOM     47  C   UNL A   1      39.481  29.613  29.649  1.00  0.00     0.049 A 
ATOM     48  H   UNL A   1      39.651  30.623  31.462  1.00  0.00     0.167 HD
ATOM     49  C   UNL A   1      39.942  32.898  35.194  1.00  0.00     0.037 A 
ATOM     50  C   UNL A   1      40.471  28.700  29.612  1.00  0.00     0.037 A 
ATOM     51  C   UNL A   1      40.971  31.896  35.282  1.00  0.00     0.049 A 
ATOM     52  C   UNL A   1      41.411  28.589  30.780  1.00  0.00     0.074 A 
ATOM     53  C   UNL A   1      41.846  31.646  36.325  1.00  0.00     0.029 A 
ATOM     54  N   UNL A   1      41.270  30.980  34.283  1.00  0.00    -0.354 N 
ATOM     55  N   UNL A   1      41.429  29.277  31.897  1.00  0.00    -0.248 NA
ATOM     56  C   UNL A   1      42.465  27.570  30.686  1.00  0.00     0.031 C 
ATOM     57  C   UNL A   1      42.710  30.618  35.935  1.00  0.00     0.029 A 
ATOM     58  C   UNL A   1      42.332  30.182  34.674  1.00  0.00     0.049 A 
ATOM     59  H   UNL A   1      40.796  30.909  33.422  1.00  0.00     0.167 HD
ATOM     60  C   UNL A   1      42.471  28.751  32.652  1.00  0.00     0.074 A 
ATOM     61  C   UNL A   1      43.053  27.681  31.868  1.00  0.00     0.031 C 
ATOM     62  C   UNL A   1      42.900  29.116  33.885  1.00  0.00     0.037 A 
BRANCH  49  63
ATOM     63  C   UNL A   1      39.791  33.881  36.320  1.00  0.00     0.057 A 
ATOM     64  C   UNL A   1      40.376  35.156  36.278  1.00  0.00     0.134 A 
ATOM     65  C   UNL A   1      39.052  33.552  37.463  1.00  0.00     0.134 A 
ATOM     66  F   UNL A   1      41.108  35.534  35.219  1.00  0.00    -0.206 F 
ATOM     67  C   UNL A   1      40.268  36.046  37.349  1.00  0.00     0.040 A 
ATOM     68  C   UNL A   1      38.908  34.447  38.524  1.00  0.00     0.040 A 
ATOM     69  F   UNL A   1      38.458  32.354  37.569  1.00  0.00    -0.206 F 
ATOM     70  C   UNL A   1      39.528  35.694  38.474  1.00  0.00     0.006 A 
ENDBRANCH  49  63
BRANCH  50  71
ATOM     71  C   UNL A   1      40.597  27.792  28.444  1.00  0.00     0.057 A 
ATOM     72  C   UNL A   1      39.939  26.557  28.419  1.00  0.00     0.134 A 
ATOM     73  C   UNL A   1      41.366  28.137  27.326  1.00  0.00     0.134 A 
ATOM     74  F   UNL A   1      39.202  26.165  29.468  1.00  0.00    -0.206 F 
ATOM     75  C   UNL A   1      40.053  25.690  27.332  1.00  0.00     0.040 A 
ATOM     76  C   UNL A   1      41.468  27.290  26.221  1.00  0.00     0.040 A 
ATOM     77  F   UNL A   1      42.014  29.310  27.284  1.00  0.00    -0.206 F 
ATOM     78  C   UNL A   1      40.815  26.058  26.225  1.00  0.00     0.006 A 
ENDBRANCH  50  71
BRANCH  62  79
ATOM     79  C   UNL A   1      44.024  28.323  34.486  1.00  0.00     0.057 A 
ATOM     80  C   UNL A   1      45.363  28.715  34.364  1.00  0.00     0.134 A 
ATOM     81  C   UNL A   1      43.758  27.165  35.231  1.00  0.00     0.134 A 
ATOM     82  F   UNL A   1      45.690  29.805  33.653  1.00  0.00    -0.206 F 
ATOM     83  C   UNL A   1      46.397  27.972  34.936  1.00  0.00     0.040 A 
ATOM     84  C   UNL A   1      44.778  26.432  35.835  1.00  0.00     0.040 A 
ATOM     85  F   UNL A   1      42.496  26.739  35.397  1.00  0.00    -0.206 F 
ATOM     86  C   UNL A   1      46.104  26.830  35.681  1.00  0.00     0.006 A 
ENDBRANCH  62  79
ENDBRANCH  36  37
ENDBRANCH  28  31
ENDBRANCH  26  27
ENDBRANCH  25  26
ENDBRANCH  24  25
ENDBRANCH   1  24
TORSDOF 15
ENDMDL
MODEL 3
REMARK VINA RESULT:     -11.6      4.715     10.337
REMARK SMILES C[C@@H](C(=O)NCCCCNC(=O)c1ccc(-c2c3nc(c(-c4c(F)cccc4F)c4ccc([nH]4)c(-c4c(F)cccc4F)c4nc(c(-c5c(F)cccc5F)c5ccc2[nH]5)C=C4)C=C3)cc1)c1ccc(N[C@H]2CCC[C@@H]2O)cc1F
REMARK SMILES IDX 6 1 5 2 3 3 4 4 2 6 1 7 67 8 68 9 79 10 69 11 78 12 80 13
REMARK SMILES IDX 70 14 71 15 72 17 73 18 76 19 74 20 75 21 77 22 7 24 8 25
REMARK SMILES IDX 9 26 10 27 11 28 12 30 13 31 14 32 66 33 15 34 65 35 16 36
REMARK SMILES IDX 17 37 18 38 59 39 19 40 64 41 58 42 60 43 20 44 63 45 57 46
REMARK SMILES IDX 56 47 21 49 47 50 30 51 46 52 31 53 34 54 45 55 61 56 32 57
REMARK SMILES IDX 33 58 44 60 62 61 35 62 22 63 23 64 28 65 24 66 25 67 27 68
REMARK SMILES IDX 29 69 26 70 48 71 49 72 54 73 50 74 51 75 53 76 55 77 52 78
REMARK SMILES IDX 36 79 37 80 42 81 38 82 39 83 41 84 43 85 40 86
REMARK H PARENT 5 5 71 16 77 23 10 29 60 48 34 59
REMARK Flexibility Score: inf
ROOT
ATOM      1  C   UNL A   1      34.706  34.661  32.120  1.00  0.00     0.116 C 
ENDROOT
BRANCH   1   2
ATOM      2  N   UNL A   1      36.118  34.959  32.148  1.00  0.00    -0.356 N 
ATOM      3  C   UNL A   1      37.131  34.414  32.872  1.00  0.00     0.227 C 
ATOM      4  O   UNL A   1      38.238  34.907  32.644  1.00  0.00    -0.274 OA
ATOM      5  H   UNL A   1      36.396  35.680  31.538  1.00  0.00     0.163 HD
BRANCH   3   6
ATOM      6  C   UNL A   1      36.872  33.236  33.839  1.00  0.00     0.108 C 
ATOM      7  C   UNL A   1      36.820  33.660  35.310  1.00  0.00     0.023 C 
BRANCH   6   8
ATOM      8  C   UNL A   1      37.868  32.087  33.738  1.00  0.00     0.000 A 
ATOM      9  C   UNL A   1      39.151  32.150  34.279  1.00  0.00     0.009 A 
ATOM     10  C   UNL A   1      37.479  30.868  33.174  1.00  0.00     0.129 A 
ATOM     11  C   UNL A   1      40.021  31.064  34.197  1.00  0.00     0.026 A 
ATOM     12  C   UNL A   1      38.331  29.760  33.151  1.00  0.00     0.065 A 
ATOM     13  F   UNL A   1      36.242  30.735  32.673  1.00  0.00    -0.207 F 
ATOM     14  C   UNL A   1      39.625  29.834  33.677  1.00  0.00     0.037 A 
BRANCH  14  15
ATOM     15  N   UNL A   1      40.442  28.723  33.639  1.00  0.00    -0.380 N 
ATOM     16  H   UNL A   1      39.982  27.852  33.620  1.00  0.00     0.160 HD
BRANCH  15  17
ATOM     17  C   UNL A   1      41.902  28.674  33.622  1.00  0.00     0.107 C 
ATOM     18  C   UNL A   1      42.527  28.845  35.012  1.00  0.00     0.027 C 
ATOM     19  C   UNL A   1      42.520  27.395  33.015  1.00  0.00     0.136 C 
ATOM     20  C   UNL A   1      43.599  27.764  35.134  1.00  0.00     0.005 C 
ATOM     21  C   UNL A   1      43.873  27.296  33.712  1.00  0.00     0.034 C 
BRANCH  19  22
ATOM     22  O   UNL A   1      42.681  27.459  31.602  1.00  0.00    -0.391 OA
ATOM     23  H   UNL A   1      43.472  27.978  31.390  1.00  0.00     0.211 HD
ENDBRANCH  19  22
ENDBRANCH  15  17
ENDBRANCH  14  15
ENDBRANCH   6   8
ENDBRANCH   3   6
ENDBRANCH   1   2
BRANCH   1  24
ATOM     24  C   UNL A   1      34.264  34.221  30.724  1.00  0.00     0.023 C 
BRANCH  24  25
ATOM     25  C   UNL A   1      34.950  32.956  30.201  1.00  0.00     0.023 C 
BRANCH  25  26
ATOM     26  C   UNL A   1      34.908  32.779  28.690  1.00  0.00     0.116 C 
BRANCH  26  27
ATOM     27  N   UNL A   1      34.056  31.673  28.282  1.00  0.00    -0.352 N 
ATOM     28  C   UNL A   1      34.404  30.376  28.002  1.00  0.00     0.251 C 
ATOM     29  H   UNL A   1      33.099  31.884  28.195  1.00  0.00     0.163 HD
ATOM     30  O   UNL A   1      33.578  29.604  27.522  1.00  0.00    -0.269 OA
BRANCH  28  31
ATOM     31  C   UNL A   1      35.785  29.922  28.254  1.00  0.00     0.039 A 
ATOM     32  C   UNL A   1      36.743  30.083  27.252  1.00  0.00     0.014 A 
ATOM     33  C   UNL A   1      36.135  29.352  29.482  1.00  0.00     0.014 A 
ATOM     34  C   UNL A   1      38.066  29.720  27.498  1.00  0.00     0.010 A 
ATOM     35  C   UNL A   1      37.469  29.072  29.756  1.00  0.00     0.010 A 
ATOM     36  C   UNL A   1      38.446  29.238  28.762  1.00  0.00    -0.014 A 
BRANCH  36  37
ATOM     37  C   UNL A   1      39.854  28.877  29.057  1.00  0.00     0.031 A 
ATOM     38  C   UNL A   1      40.738  29.843  29.794  1.00  0.00     0.074 A 
ATOM     39  C   UNL A   1      40.352  27.708  28.613  1.00  0.00     0.049 A 
ATOM     40  N   UNL A   1      42.005  29.735  30.105  1.00  0.00    -0.248 NA
ATOM     41  C   UNL A   1      40.124  31.113  30.212  1.00  0.00     0.031 C 
ATOM     42  C   UNL A   1      39.609  26.705  27.848  1.00  0.00     0.029 A 
ATOM     43  N   UNL A   1      41.607  27.167  28.738  1.00  0.00    -0.354 N 
ATOM     44  C   UNL A   1      42.341  30.926  30.737  1.00  0.00     0.074 A 
ATOM     45  C   UNL A   1      41.165  31.767  30.706  1.00  0.00     0.031 C 
ATOM     46  C   UNL A   1      40.411  25.658  27.602  1.00  0.00     0.029 A 
ATOM     47  C   UNL A   1      41.734  25.932  28.153  1.00  0.00     0.049 A 
ATOM     48  H   UNL A   1      42.345  27.622  29.203  1.00  0.00     0.167 HD
ATOM     49  C   UNL A   1      43.515  31.279  31.313  1.00  0.00     0.037 A 
ATOM     50  C   UNL A   1      42.799  25.112  28.071  1.00  0.00     0.037 A 
ATOM     51  C   UNL A   1      44.678  30.432  31.353  1.00  0.00     0.049 A 
ATOM     52  C   UNL A   1      44.098  25.530  28.702  1.00  0.00     0.074 A 
ATOM     53  C   UNL A   1      45.899  30.670  31.960  1.00  0.00     0.029 A 
ATOM     54  N   UNL A   1      44.767  29.184  30.753  1.00  0.00    -0.354 N 
ATOM     55  N   UNL A   1      44.383  26.629  29.359  1.00  0.00    -0.248 NA
ATOM     56  C   UNL A   1      45.221  24.590  28.587  1.00  0.00     0.031 C 
ATOM     57  C   UNL A   1      46.744  29.592  31.679  1.00  0.00     0.029 A 
ATOM     58  C   UNL A   1      46.031  28.652  30.952  1.00  0.00     0.049 A 
ATOM     59  H   UNL A   1      44.040  28.742  30.257  1.00  0.00     0.167 HD
ATOM     60  C   UNL A   1      45.706  26.498  29.765  1.00  0.00     0.074 A 
ATOM     61  C   UNL A   1      46.161  25.208  29.288  1.00  0.00     0.031 C 
ATOM     62  C   UNL A   1      46.470  27.364  30.475  1.00  0.00     0.037 A 
BRANCH  49  63
ATOM     63  C   UNL A   1      43.592  32.646  31.934  1.00  0.00     0.057 A 
ATOM     64  C   UNL A   1      43.856  33.794  31.171  1.00  0.00     0.134 A 
ATOM     65  C   UNL A   1      43.403  32.818  33.310  1.00  0.00     0.134 A 
ATOM     66  F   UNL A   1      44.060  33.701  29.849  1.00  0.00    -0.206 F 
ATOM     67  C   UNL A   1      43.971  35.053  31.763  1.00  0.00     0.040 A 
ATOM     68  C   UNL A   1      43.481  34.078  33.907  1.00  0.00     0.040 A 
ATOM     69  F   UNL A   1      43.139  31.766  34.099  1.00  0.00    -0.206 F 
ATOM     70  C   UNL A   1      43.779  35.198  33.134  1.00  0.00     0.006 A 
ENDBRANCH  49  63
BRANCH  50  71
ATOM     71  C   UNL A   1      42.669  23.795  27.397  1.00  0.00     0.057 A 
ATOM     72  C   UNL A   1      42.389  22.636  28.131  1.00  0.00     0.134 A 
ATOM     73  C   UNL A   1      42.811  23.662  26.011  1.00  0.00     0.134 A 
ATOM     74  F   UNL A   1      42.258  22.698  29.464  1.00  0.00    -0.206 F 
ATOM     75  C   UNL A   1      42.270  21.390  27.514  1.00  0.00     0.040 A 
ATOM     76  C   UNL A   1      42.670  22.426  25.377  1.00  0.00     0.040 A 
ATOM     77  F   UNL A   1      43.071  24.735  25.250  1.00  0.00    -0.206 F 
ATOM     78  C   UNL A   1      42.405  21.284  26.131  1.00  0.00     0.006 A 
ENDBRANCH  50  71
BRANCH  62  79
ATOM     79  C   UNL A   1      47.864  26.927  30.822  1.00  0.00     0.057 A 
ATOM     80  C   UNL A   1      48.140  26.125  31.937  1.00  0.00     0.134 A 
ATOM     81  C   UNL A   1      48.945  27.285  30.004  1.00  0.00     0.134 A 
ATOM     82  F   UNL A   1      47.154  25.756  32.770  1.00  0.00    -0.206 F 
ATOM     83  C   UNL A   1      49.440  25.719  32.241  1.00  0.00     0.040 A 
ATOM     84  C   UNL A   1      50.244  26.860  30.278  1.00  0.00     0.040 A 
ATOM     85  F   UNL A   1      48.750  28.043  28.914  1.00  0.00    -0.206 F 
ATOM     86  C   UNL A   1      50.496  26.081  31.405  1.00  0.00     0.006 A 
ENDBRANCH  62  79
ENDBRANCH  36  37
ENDBRANCH  28  31
ENDBRANCH  26  27
ENDBRANCH  25  26
ENDBRANCH  24  25
ENDBRANCH   1  24
TORSDOF 15
ENDMDL
