MODEL 1
REMARK VINA RESULT:     -12.7      0.000      0.000
REMARK SMILES Cc1ccc(NC(=O)CN2C(=O)S/C(=C\c3cc(Cl)c(OCC(=O)NCCCCNC(=O)c4ccc(-c5c6nc(c(-c7c(F)cccc7F)c7ccc([nH]7)c(-c7c(F)cccc7F)c7nc(c(-c8c(F)cccc8F)c8ccc5[nH]8)C=C7)C=C6)cc4)c(Cl)c3)C2=O)cc1
REMARK SMILES IDX 23 1 24 2 25 3 22 5 21 6 20 7 16 8 17 9 89 10 18 11 87 12
REMARK SMILES IDX 19 13 88 14 15 15 10 16 11 17 90 18 12 19 13 20 14 21 91 22
REMARK SMILES IDX 9 23 7 24 6 25 8 27 5 28 1 29 2 30 3 31 93 32 4 33 92 34
REMARK SMILES IDX 26 35 27 36 28 37 29 38 30 39 31 40 32 42 33 43 34 44 86 45
REMARK SMILES IDX 35 46 85 47 36 48 37 49 38 50 79 51 39 52 84 53 78 54 80 55
REMARK SMILES IDX 40 56 83 57 77 58 76 59 41 61 67 62 50 63 66 64 51 65 54 66
REMARK SMILES IDX 65 67 81 68 52 69 53 70 64 72 82 73 55 74 42 75 43 76 48 77
REMARK SMILES IDX 44 78 45 79 47 80 49 81 46 82 68 83 69 84 74 85 70 86 71 87
REMARK SMILES IDX 73 88 75 89 72 90 56 91 57 92 62 93 58 94 59 95 61 96 63 97
REMARK SMILES IDX 60 98
REMARK H PARENT 25 4 6 26 30 41 80 60 54 71
REMARK Flexibility Score: inf
ROOT
ATOM      1  C   UNL A   1      41.382  21.080  27.459  1.00  0.00     0.257 C 
ATOM      2  O   UNL A   1      41.532  22.236  27.858  1.00  0.00    -0.271 OA
ATOM      3  N   UNL A   1      42.293  20.153  27.875  1.00  0.00    -0.353 N 
ATOM      4  H   UNL A   1      43.070  20.511  28.361  1.00  0.00     0.163 HD
ENDROOT
BRANCH   1   5
ATOM      5  C   UNL A   1      40.195  20.655  26.577  1.00  0.00     0.329 C 
BRANCH   5   6
ATOM      6  O   UNL A   1      39.589  21.630  25.750  1.00  0.00    -0.481 OA
BRANCH   6   7
ATOM      7  C   UNL A   1      38.240  21.865  25.727  1.00  0.00     0.157 A 
ATOM      8  C   UNL A   1      35.506  22.715  25.836  1.00  0.00    -0.021 A 
ATOM      9  C   UNL A   1      36.524  23.611  26.137  1.00  0.00     0.032 A 
ATOM     10  C   UNL A   1      35.869  21.401  25.517  1.00  0.00     0.032 A 
ATOM     11  C   UNL A   1      37.867  23.187  26.085  1.00  0.00     0.085 A 
ATOM     12  C   UNL A   1      37.204  20.991  25.392  1.00  0.00     0.085 A 
ATOM     13  Cl  UNL A   1      39.069  24.382  26.465  1.00  0.00    -0.080 Cl
ATOM     14  Cl  UNL A   1      37.368  19.420  24.696  1.00  0.00    -0.080 Cl
BRANCH   8  15
ATOM     15  C   UNL A   1      34.074  23.071  25.896  1.00  0.00     0.029 C 
ATOM     16  N   UNL A   1      32.102  25.458  24.141  1.00  0.00    -0.259 N 
ATOM     17  C   UNL A   1      33.299  26.055  23.842  1.00  0.00     0.294 C 
ATOM     18  C   UNL A   1      32.161  24.431  25.063  1.00  0.00     0.268 C 
ATOM     19  O   UNL A   1      33.592  26.692  22.846  1.00  0.00    -0.261 OA
ATOM     20  S   UNL A   1      34.466  25.675  25.084  1.00  0.00    -0.022 SA
ATOM     21  C   UNL A   1      33.577  24.263  25.517  1.00  0.00     0.083 C 
ATOM     22  O   UNL A   1      31.256  23.660  25.351  1.00  0.00    -0.268 OA
BRANCH  16  23
ATOM     23  C   UNL A   1      30.993  25.568  23.207  1.00  0.00     0.230 C 
BRANCH  23  24
ATOM     24  C   UNL A   1      29.808  26.360  23.768  1.00  0.00     0.244 C 
ATOM     25  N   UNL A   1      29.990  27.565  24.383  1.00  0.00    -0.325 N 
ATOM     26  H   UNL A   1      29.235  28.189  24.286  1.00  0.00     0.169 HD
ATOM     27  O   UNL A   1      28.658  25.927  23.648  1.00  0.00    -0.273 OA
BRANCH  25  28
ATOM     28  C   UNL A   1      31.066  28.068  25.125  1.00  0.00     0.041 A 
ATOM     29  C   UNL A   1      34.183  30.002  27.399  1.00  0.00     0.044 C 
ATOM     30  C   UNL A   1      33.109  29.333  26.594  1.00  0.00    -0.051 A 
ATOM     31  C   UNL A   1      32.342  28.316  27.169  1.00  0.00     0.005 A 
ATOM     32  C   UNL A   1      32.846  29.715  25.276  1.00  0.00     0.005 A 
ATOM     33  C   UNL A   1      31.327  27.688  26.441  1.00  0.00     0.026 A 
ATOM     34  C   UNL A   1      31.821  29.096  24.553  1.00  0.00     0.026 A 
ENDBRANCH  25  28
ENDBRANCH  23  24
ENDBRANCH  16  23
ENDBRANCH   8  15
ENDBRANCH   6   7
ENDBRANCH   5   6
ENDBRANCH   1   5
BRANCH   3  35
ATOM     35  C   UNL A   1      42.276  18.715  27.701  1.00  0.00     0.116 C 
BRANCH  35  36
ATOM     36  C   UNL A   1      43.441  18.190  26.863  1.00  0.00     0.023 C 
BRANCH  36  37
ATOM     37  C   UNL A   1      43.485  18.659  25.412  1.00  0.00     0.023 C 
BRANCH  37  38
ATOM     38  C   UNL A   1      44.707  19.476  25.027  1.00  0.00     0.116 C 
BRANCH  38  39
ATOM     39  N   UNL A   1      44.511  20.387  23.904  1.00  0.00    -0.352 N 
ATOM     40  C   UNL A   1      44.671  21.762  23.831  1.00  0.00     0.251 C 
ATOM     41  H   UNL A   1      44.222  19.957  23.068  1.00  0.00     0.163 HD
ATOM     42  O   UNL A   1      44.402  22.346  22.784  1.00  0.00    -0.269 OA
BRANCH  40  43
ATOM     43  C   UNL A   1      45.339  22.506  24.932  1.00  0.00     0.039 A 
ATOM     44  C   UNL A   1      44.881  22.268  26.235  1.00  0.00     0.014 A 
ATOM     45  C   UNL A   1      46.106  23.631  24.666  1.00  0.00     0.014 A 
ATOM     46  C   UNL A   1      44.877  23.311  27.152  1.00  0.00     0.010 A 
ATOM     47  C   UNL A   1      45.958  24.711  25.498  1.00  0.00     0.010 A 
ATOM     48  C   UNL A   1      45.274  24.563  26.707  1.00  0.00    -0.014 A 
BRANCH  48  49
ATOM     49  C   UNL A   1      44.992  25.807  27.395  1.00  0.00     0.031 A 
ATOM     50  C   UNL A   1      43.642  26.379  27.289  1.00  0.00     0.074 A 
ATOM     51  C   UNL A   1      45.905  26.290  28.266  1.00  0.00     0.049 A 
ATOM     52  N   UNL A   1      43.345  27.590  27.595  1.00  0.00    -0.248 NA
ATOM     53  C   UNL A   1      42.508  25.622  26.772  1.00  0.00     0.031 C 
ATOM     54  C   UNL A   1      45.695  27.269  29.327  1.00  0.00     0.029 A 
ATOM     55  N   UNL A   1      47.293  26.105  28.236  1.00  0.00    -0.354 N 
ATOM     56  C   UNL A   1      41.971  27.688  27.619  1.00  0.00     0.074 A 
ATOM     57  C   UNL A   1      41.503  26.469  27.007  1.00  0.00     0.031 C 
ATOM     58  C   UNL A   1      46.877  27.814  29.657  1.00  0.00     0.029 A 
ATOM     59  C   UNL A   1      47.853  27.315  28.704  1.00  0.00     0.049 A 
ATOM     60  H   UNL A   1      47.779  25.299  27.950  1.00  0.00     0.167 HD
ATOM     61  C   UNL A   1      41.413  28.733  28.294  1.00  0.00     0.037 A 
ATOM     62  C   UNL A   1      48.608  28.105  27.883  1.00  0.00     0.037 A 
ATOM     63  C   UNL A   1      42.460  29.631  28.783  1.00  0.00     0.049 A 
ATOM     64  C   UNL A   1      48.023  29.483  27.683  1.00  0.00     0.074 A 
ATOM     65  C   UNL A   1      43.080  29.760  30.015  1.00  0.00     0.029 A 
ATOM     66  N   UNL A   1      43.246  30.324  27.870  1.00  0.00    -0.354 N 
ATOM     67  N   UNL A   1      46.756  29.764  27.833  1.00  0.00    -0.248 NA
ATOM     68  C   UNL A   1      48.814  30.657  27.330  1.00  0.00     0.031 C 
ATOM     69  C   UNL A   1      44.269  30.511  29.830  1.00  0.00     0.029 A 
ATOM     70  C   UNL A   1      44.358  30.854  28.492  1.00  0.00     0.049 A 
ATOM     71  H   UNL A   1      43.040  30.421  26.912  1.00  0.00     0.167 HD
ATOM     72  C   UNL A   1      46.553  31.107  27.629  1.00  0.00     0.074 A 
ATOM     73  C   UNL A   1      47.874  31.620  27.320  1.00  0.00     0.031 C 
ATOM     74  C   UNL A   1      45.310  31.669  27.749  1.00  0.00     0.037 A 
BRANCH  61  75
ATOM     75  C   UNL A   1      39.975  28.808  28.766  1.00  0.00     0.057 A 
ATOM     76  C   UNL A   1      38.967  29.285  27.902  1.00  0.00     0.134 A 
ATOM     77  C   UNL A   1      39.511  28.487  30.054  1.00  0.00     0.134 A 
ATOM     78  F   UNL A   1      39.208  29.545  26.610  1.00  0.00    -0.206 F 
ATOM     79  C   UNL A   1      37.648  29.523  28.313  1.00  0.00     0.040 A 
ATOM     80  C   UNL A   1      38.204  28.753  30.492  1.00  0.00     0.040 A 
ATOM     81  F   UNL A   1      40.270  27.841  30.943  1.00  0.00    -0.206 F 
ATOM     82  C   UNL A   1      37.268  29.286  29.623  1.00  0.00     0.006 A 
ENDBRANCH  61  75
BRANCH  62  83
ATOM     83  C   UNL A   1      49.354  27.310  26.868  1.00  0.00     0.057 A 
ATOM     84  C   UNL A   1      48.857  27.302  25.549  1.00  0.00     0.134 A 
ATOM     85  C   UNL A   1      50.704  26.993  27.040  1.00  0.00     0.134 A 
ATOM     86  F   UNL A   1      47.566  27.587  25.316  1.00  0.00    -0.206 F 
ATOM     87  C   UNL A   1      49.700  27.154  24.445  1.00  0.00     0.040 A 
ATOM     88  C   UNL A   1      51.552  26.820  25.938  1.00  0.00     0.040 A 
ATOM     89  F   UNL A   1      51.255  26.985  28.262  1.00  0.00    -0.206 F 
ATOM     90  C   UNL A   1      51.063  26.956  24.639  1.00  0.00     0.006 A 
ENDBRANCH  62  83
BRANCH  74  91
ATOM     91  C   UNL A   1      44.858  33.044  27.287  1.00  0.00     0.057 A 
ATOM     92  C   UNL A   1      44.121  33.302  26.123  1.00  0.00     0.134 A 
ATOM     93  C   UNL A   1      45.038  34.179  28.124  1.00  0.00     0.134 A 
ATOM     94  F   UNL A   1      43.768  32.329  25.277  1.00  0.00    -0.206 F 
ATOM     95  C   UNL A   1      43.646  34.582  25.795  1.00  0.00     0.040 A 
ATOM     96  C   UNL A   1      44.514  35.442  27.838  1.00  0.00     0.040 A 
ATOM     97  F   UNL A   1      45.710  34.114  29.282  1.00  0.00    -0.206 F 
ATOM     98  C   UNL A   1      43.826  35.654  26.659  1.00  0.00     0.006 A 
ENDBRANCH  74  91
ENDBRANCH  48  49
ENDBRANCH  40  43
ENDBRANCH  38  39
ENDBRANCH  37  38
ENDBRANCH  36  37
ENDBRANCH  35  36
ENDBRANCH   3  35
TORSDOF 17
ENDMDL
MODEL 2
REMARK VINA RESULT:     -12.7      1.140      2.057
REMARK SMILES Cc1ccc(NC(=O)CN2C(=O)S/C(=C\c3cc(Cl)c(OCC(=O)NCCCCNC(=O)c4ccc(-c5c6nc(c(-c7c(F)cccc7F)c7ccc([nH]7)c(-c7c(F)cccc7F)c7nc(c(-c8c(F)cccc8F)c8ccc5[nH]8)C=C7)C=C6)cc4)c(Cl)c3)C2=O)cc1
REMARK SMILES IDX 23 1 24 2 25 3 22 5 21 6 20 7 16 8 17 9 89 10 18 11 87 12
REMARK SMILES IDX 19 13 88 14 15 15 10 16 11 17 90 18 12 19 13 20 14 21 91 22
REMARK SMILES IDX 9 23 7 24 6 25 8 27 5 28 1 29 2 30 3 31 93 32 4 33 92 34
REMARK SMILES IDX 26 35 27 36 28 37 29 38 30 39 31 40 32 42 33 43 34 44 86 45
REMARK SMILES IDX 35 46 85 47 36 48 37 49 38 50 79 51 39 52 84 53 78 54 80 55
REMARK SMILES IDX 40 56 83 57 77 58 76 59 41 61 67 62 50 63 66 64 51 65 54 66
REMARK SMILES IDX 65 67 81 68 52 69 53 70 64 72 82 73 55 74 42 75 43 76 48 77
REMARK SMILES IDX 44 78 45 79 47 80 49 81 46 82 68 83 69 84 74 85 70 86 71 87
REMARK SMILES IDX 73 88 75 89 72 90 56 91 57 92 62 93 58 94 59 95 61 96 63 97
REMARK SMILES IDX 60 98
REMARK H PARENT 25 4 6 26 30 41 80 60 54 71
REMARK Flexibility Score: inf
ROOT
ATOM      1  C   UNL A   1      41.399  21.479  26.223  1.00  0.00     0.257 C 
ATOM      2  O   UNL A   1      41.635  22.660  26.486  1.00  0.00    -0.271 OA
ATOM      3  N   UNL A   1      42.458  20.696  25.865  1.00  0.00    -0.353 N 
ATOM      4  H   UNL A   1      43.308  21.172  25.724  1.00  0.00     0.163 HD
ENDROOT
BRANCH   1   5
ATOM      5  C   UNL A   1      39.993  20.868  26.343  1.00  0.00     0.329 C 
BRANCH   5   6
ATOM      6  O   UNL A   1      39.058  21.126  25.313  1.00  0.00    -0.481 OA
BRANCH   6   7
ATOM      7  C   UNL A   1      37.838  21.708  25.532  1.00  0.00     0.157 A 
ATOM      8  C   UNL A   1      35.128  22.589  25.838  1.00  0.00    -0.021 A 
ATOM      9  C   UNL A   1      35.394  21.285  25.441  1.00  0.00     0.032 A 
ATOM     10  C   UNL A   1      36.221  23.442  26.043  1.00  0.00     0.032 A 
ATOM     11  C   UNL A   1      36.728  20.858  25.289  1.00  0.00     0.085 A 
ATOM     12  C   UNL A   1      37.550  23.004  25.966  1.00  0.00     0.085 A 
ATOM     13  Cl  UNL A   1      36.958  19.205  24.803  1.00  0.00    -0.080 Cl
ATOM     14  Cl  UNL A   1      38.681  24.164  26.559  1.00  0.00    -0.080 Cl
BRANCH   8  15
ATOM     15  C   UNL A   1      33.761  23.124  25.991  1.00  0.00     0.029 C 
ATOM     16  N   UNL A   1      31.875  25.503  24.133  1.00  0.00    -0.259 N 
ATOM     17  C   UNL A   1      33.089  25.906  23.638  1.00  0.00     0.294 C 
ATOM     18  C   UNL A   1      31.926  24.598  25.176  1.00  0.00     0.268 C 
ATOM     19  O   UNL A   1      33.333  26.374  22.541  1.00  0.00    -0.261 OA
ATOM     20  S   UNL A   1      34.341  25.540  24.798  1.00  0.00    -0.022 SA
ATOM     21  C   UNL A   1      33.358  24.313  25.504  1.00  0.00     0.083 C 
ATOM     22  O   UNL A   1      30.981  23.987  25.654  1.00  0.00    -0.268 OA
BRANCH  16  23
ATOM     23  C   UNL A   1      30.685  25.634  23.307  1.00  0.00     0.230 C 
BRANCH  23  24
ATOM     24  C   UNL A   1      29.644  26.590  23.897  1.00  0.00     0.244 C 
ATOM     25  N   UNL A   1      30.015  27.771  24.474  1.00  0.00    -0.325 N 
ATOM     26  H   UNL A   1      29.347  28.490  24.393  1.00  0.00     0.169 HD
ATOM     27  O   UNL A   1      28.442  26.316  23.837  1.00  0.00    -0.273 OA
BRANCH  25  28
ATOM     28  C   UNL A   1      31.181  28.137  25.158  1.00  0.00     0.041 A 
ATOM     29  C   UNL A   1      34.631  29.672  27.248  1.00  0.00     0.044 C 
ATOM     30  C   UNL A   1      33.441  29.140  26.506  1.00  0.00    -0.051 A 
ATOM     31  C   UNL A   1      32.565  28.256  27.143  1.00  0.00     0.005 A 
ATOM     32  C   UNL A   1      33.177  29.522  25.189  1.00  0.00     0.005 A 
ATOM     33  C   UNL A   1      31.442  27.758  26.474  1.00  0.00     0.026 A 
ATOM     34  C   UNL A   1      32.046  29.035  24.526  1.00  0.00     0.026 A 
ENDBRANCH  25  28
ENDBRANCH  23  24
ENDBRANCH  16  23
ENDBRANCH   8  15
ENDBRANCH   6   7
ENDBRANCH   5   6
ENDBRANCH   1   5
BRANCH   3  35
ATOM     35  C   UNL A   1      42.506  19.262  25.663  1.00  0.00     0.116 C 
BRANCH  35  36
ATOM     36  C   UNL A   1      43.886  18.753  25.245  1.00  0.00     0.023 C 
BRANCH  36  37
ATOM     37  C   UNL A   1      44.725  19.712  24.406  1.00  0.00     0.023 C 
BRANCH  37  38
ATOM     38  C   UNL A   1      45.983  20.237  25.078  1.00  0.00     0.116 C 
BRANCH  38  39
ATOM     39  N   UNL A   1      46.616  21.366  24.405  1.00  0.00    -0.352 N 
ATOM     40  C   UNL A   1      46.230  22.696  24.337  1.00  0.00     0.251 C 
ATOM     41  H   UNL A   1      47.448  21.150  23.926  1.00  0.00     0.163 HD
ATOM     42  O   UNL A   1      46.893  23.483  23.665  1.00  0.00    -0.269 OA
BRANCH  40  43
ATOM     43  C   UNL A   1      45.145  23.215  25.211  1.00  0.00     0.039 A 
ATOM     44  C   UNL A   1      44.236  24.115  24.636  1.00  0.00     0.014 A 
ATOM     45  C   UNL A   1      45.234  23.114  26.591  1.00  0.00     0.014 A 
ATOM     46  C   UNL A   1      43.710  25.136  25.417  1.00  0.00     0.010 A 
ATOM     47  C   UNL A   1      44.861  24.204  27.333  1.00  0.00     0.010 A 
ATOM     48  C   UNL A   1      44.165  25.250  26.722  1.00  0.00    -0.014 A 
BRANCH  48  49
ATOM     49  C   UNL A   1      44.016  26.435  27.543  1.00  0.00     0.031 A 
ATOM     50  C   UNL A   1      42.664  26.962  27.778  1.00  0.00     0.074 A 
ATOM     51  C   UNL A   1      45.089  26.893  28.226  1.00  0.00     0.049 A 
ATOM     52  N   UNL A   1      42.415  28.138  28.230  1.00  0.00    -0.248 NA
ATOM     53  C   UNL A   1      41.461  26.198  27.470  1.00  0.00     0.031 C 
ATOM     54  C   UNL A   1      45.098  27.791  29.375  1.00  0.00     0.029 A 
ATOM     55  N   UNL A   1      46.439  26.763  27.878  1.00  0.00    -0.354 N 
ATOM     56  C   UNL A   1      41.079  28.182  28.561  1.00  0.00     0.074 A 
ATOM     57  C   UNL A   1      40.514  26.990  27.981  1.00  0.00     0.031 C 
ATOM     58  C   UNL A   1      46.311  28.358  29.475  1.00  0.00     0.029 A 
ATOM     59  C   UNL A   1      47.062  27.960  28.298  1.00  0.00     0.049 A 
ATOM     60  H   UNL A   1      46.867  25.996  27.435  1.00  0.00     0.167 HD
ATOM     61  C   UNL A   1      40.661  29.159  29.416  1.00  0.00     0.037 A 
ATOM     62  C   UNL A   1      47.598  28.829  27.391  1.00  0.00     0.037 A 
ATOM     63  C   UNL A   1      41.771  30.062  29.727  1.00  0.00     0.049 A 
ATOM     64  C   UNL A   1      46.954  30.195  27.424  1.00  0.00     0.074 A 
ATOM     65  C   UNL A   1      42.646  30.133  30.799  1.00  0.00     0.029 A 
ATOM     66  N   UNL A   1      42.320  30.842  28.717  1.00  0.00    -0.354 N 
ATOM     67  N   UNL A   1      45.746  30.417  27.869  1.00  0.00    -0.248 NA
ATOM     68  C   UNL A   1      47.621  31.418  26.992  1.00  0.00     0.031 C 
ATOM     69  C   UNL A   1      43.747  30.938  30.412  1.00  0.00     0.029 A 
ATOM     70  C   UNL A   1      43.530  31.371  29.116  1.00  0.00     0.049 A 
ATOM     71  H   UNL A   1      41.904  30.994  27.837  1.00  0.00     0.167 HD
ATOM     72  C   UNL A   1      45.473  31.762  27.813  1.00  0.00     0.074 A 
ATOM     73  C   UNL A   1      46.681  32.343  27.260  1.00  0.00     0.031 C 
ATOM     74  C   UNL A   1      44.275  32.269  28.243  1.00  0.00     0.037 A 
BRANCH  61  75
ATOM     75  C   UNL A   1      39.363  29.149  30.197  1.00  0.00     0.057 A 
ATOM     76  C   UNL A   1      38.176  29.635  29.609  1.00  0.00     0.134 A 
ATOM     77  C   UNL A   1      39.205  28.735  31.531  1.00  0.00     0.134 A 
ATOM     78  F   UNL A   1      38.117  29.980  28.316  1.00  0.00    -0.206 F 
ATOM     79  C   UNL A   1      36.976  29.795  30.315  1.00  0.00     0.040 A 
ATOM     80  C   UNL A   1      38.022  28.923  32.262  1.00  0.00     0.040 A 
ATOM     81  F   UNL A   1      40.159  28.069  32.188  1.00  0.00    -0.206 F 
ATOM     82  C   UNL A   1      36.902  29.468  31.658  1.00  0.00     0.006 A 
ENDBRANCH  61  75
BRANCH  62  83
ATOM     83  C   UNL A   1      48.118  28.131  26.182  1.00  0.00     0.057 A 
ATOM     84  C   UNL A   1      49.374  27.499  26.281  1.00  0.00     0.134 A 
ATOM     85  C   UNL A   1      47.260  27.684  25.173  1.00  0.00     0.134 A 
ATOM     86  F   UNL A   1      50.250  27.889  27.221  1.00  0.00    -0.206 F 
ATOM     87  C   UNL A   1      49.692  26.367  25.526  1.00  0.00     0.040 A 
ATOM     88  C   UNL A   1      47.581  26.563  24.396  1.00  0.00     0.040 A 
ATOM     89  F   UNL A   1      46.045  28.229  25.018  1.00  0.00    -0.206 F 
ATOM     90  C   UNL A   1      48.772  25.869  24.610  1.00  0.00     0.006 A 
ENDBRANCH  62  83
BRANCH  74  91
ATOM     91  C   UNL A   1      43.702  33.653  27.993  1.00  0.00     0.057 A 
ATOM     92  C   UNL A   1      43.459  34.616  28.983  1.00  0.00     0.134 A 
ATOM     93  C   UNL A   1      43.512  34.125  26.666  1.00  0.00     0.134 A 
ATOM     94  F   UNL A   1      43.689  34.375  30.278  1.00  0.00    -0.206 F 
ATOM     95  C   UNL A   1      43.018  35.915  28.685  1.00  0.00     0.040 A 
ATOM     96  C   UNL A   1      43.137  35.434  26.356  1.00  0.00     0.040 A 
ATOM     97  F   UNL A   1      43.709  33.343  25.595  1.00  0.00    -0.206 F 
ATOM     98  C   UNL A   1      42.871  36.335  27.370  1.00  0.00     0.006 A 
ENDBRANCH  74  91
ENDBRANCH  48  49
ENDBRANCH  40  43
ENDBRANCH  38  39
ENDBRANCH  37  38
ENDBRANCH  36  37
ENDBRANCH  35  36
ENDBRANCH   3  35
TORSDOF 17
ENDMDL
MODEL 3
REMARK VINA RESULT:     -12.6      1.483      2.167
REMARK SMILES Cc1ccc(NC(=O)CN2C(=O)S/C(=C\c3cc(Cl)c(OCC(=O)NCCCCNC(=O)c4ccc(-c5c6nc(c(-c7c(F)cccc7F)c7ccc([nH]7)c(-c7c(F)cccc7F)c7nc(c(-c8c(F)cccc8F)c8ccc5[nH]8)C=C7)C=C6)cc4)c(Cl)c3)C2=O)cc1
REMARK SMILES IDX 23 1 24 2 25 3 22 5 21 6 20 7 16 8 17 9 89 10 18 11 87 12
REMARK SMILES IDX 19 13 88 14 15 15 10 16 11 17 90 18 12 19 13 20 14 21 91 22
REMARK SMILES IDX 9 23 7 24 6 25 8 27 5 28 1 29 2 30 3 31 93 32 4 33 92 34
REMARK SMILES IDX 26 35 27 36 28 37 29 38 30 39 31 40 32 42 33 43 34 44 86 45
REMARK SMILES IDX 35 46 85 47 36 48 37 49 38 50 79 51 39 52 84 53 78 54 80 55
REMARK SMILES IDX 40 56 83 57 77 58 76 59 41 61 67 62 50 63 66 64 51 65 54 66
REMARK SMILES IDX 65 67 81 68 52 69 53 70 64 72 82 73 55 74 42 75 43 76 48 77
REMARK SMILES IDX 44 78 45 79 47 80 49 81 46 82 68 83 69 84 74 85 70 86 71 87
REMARK SMILES IDX 73 88 75 89 72 90 56 91 57 92 62 93 58 94 59 95 61 96 63 97
REMARK SMILES IDX 60 98
REMARK H PARENT 25 4 6 26 30 41 80 60 54 71
REMARK Flexibility Score: inf
ROOT
ATOM      1  C   UNL A   1      40.885  21.180  26.026  1.00  0.00     0.257 C 
ATOM      2  O   UNL A   1      41.060  22.391  26.169  1.00  0.00    -0.271 OA
ATOM      3  N   UNL A   1      41.983  20.375  26.113  1.00  0.00    -0.353 N 
ATOM      4  H   UNL A   1      42.848  20.843  26.159  1.00  0.00     0.163 HD
ENDROOT
BRANCH   1   5
ATOM      5  C   UNL A   1      39.490  20.564  25.818  1.00  0.00     0.329 C 
BRANCH   5   6
ATOM      6  O   UNL A   1      38.556  21.269  25.022  1.00  0.00    -0.481 OA
BRANCH   6   7
ATOM      7  C   UNL A   1      37.393  21.796  25.515  1.00  0.00     0.157 A 
ATOM      8  C   UNL A   1      34.782  22.565  26.411  1.00  0.00    -0.021 A 
ATOM      9  C   UNL A   1      34.992  21.294  25.895  1.00  0.00     0.032 A 
ATOM     10  C   UNL A   1      35.873  23.444  26.441  1.00  0.00     0.032 A 
ATOM     11  C   UNL A   1      36.277  20.921  25.453  1.00  0.00     0.085 A 
ATOM     12  C   UNL A   1      37.169  23.057  26.072  1.00  0.00     0.085 A 
ATOM     13  Cl  UNL A   1      36.443  19.305  24.836  1.00  0.00    -0.080 Cl
ATOM     14  Cl  UNL A   1      38.369  24.224  26.492  1.00  0.00    -0.080 Cl
BRANCH   8  15
ATOM     15  C   UNL A   1      33.462  23.044  26.868  1.00  0.00     0.029 C 
ATOM     16  N   UNL A   1      31.325  25.663  25.755  1.00  0.00    -0.259 N 
ATOM     17  C   UNL A   1      32.447  26.163  25.146  1.00  0.00     0.294 C 
ATOM     18  C   UNL A   1      31.534  24.599  26.612  1.00  0.00     0.268 C 
ATOM     19  O   UNL A   1      32.516  26.809  24.116  1.00  0.00    -0.261 OA
ATOM     20  S   UNL A   1      33.866  25.633  26.014  1.00  0.00    -0.022 SA
ATOM     21  C   UNL A   1      32.997  24.289  26.656  1.00  0.00     0.083 C 
ATOM     22  O   UNL A   1      30.672  23.901  27.128  1.00  0.00    -0.268 OA
BRANCH  16  23
ATOM     23  C   UNL A   1      30.018  25.907  25.164  1.00  0.00     0.230 C 
BRANCH  23  24
ATOM     24  C   UNL A   1      29.990  25.685  23.649  1.00  0.00     0.244 C 
ATOM     25  N   UNL A   1      29.942  26.736  22.780  1.00  0.00    -0.325 N 
ATOM     26  H   UNL A   1      30.382  26.570  21.915  1.00  0.00     0.169 HD
ATOM     27  O   UNL A   1      30.037  24.541  23.187  1.00  0.00    -0.273 OA
BRANCH  25  28
ATOM     28  C   UNL A   1      29.376  28.012  22.907  1.00  0.00     0.041 A 
ATOM     29  C   UNL A   1      27.724  31.999  22.877  1.00  0.00     0.044 C 
ATOM     30  C   UNL A   1      28.314  30.620  22.893  1.00  0.00    -0.051 A 
ATOM     31  C   UNL A   1      27.495  29.517  23.151  1.00  0.00     0.005 A 
ATOM     32  C   UNL A   1      29.671  30.408  22.639  1.00  0.00     0.005 A 
ATOM     33  C   UNL A   1      28.021  28.222  23.157  1.00  0.00     0.026 A 
ATOM     34  C   UNL A   1      30.194  29.112  22.631  1.00  0.00     0.026 A 
ENDBRANCH  25  28
ENDBRANCH  23  24
ENDBRANCH  16  23
ENDBRANCH   8  15
ENDBRANCH   6   7
ENDBRANCH   5   6
ENDBRANCH   1   5
BRANCH   3  35
ATOM     35  C   UNL A   1      42.055  18.929  26.149  1.00  0.00     0.116 C 
BRANCH  35  36
ATOM     36  C   UNL A   1      43.425  18.378  25.756  1.00  0.00     0.023 C 
BRANCH  36  37
ATOM     37  C   UNL A   1      44.286  19.288  24.886  1.00  0.00     0.023 C 
BRANCH  37  38
ATOM     38  C   UNL A   1      45.661  19.615  25.444  1.00  0.00     0.116 C 
BRANCH  38  39
ATOM     39  N   UNL A   1      46.384  20.662  24.731  1.00  0.00    -0.352 N 
ATOM     40  C   UNL A   1      46.064  21.997  24.539  1.00  0.00     0.251 C 
ATOM     41  H   UNL A   1      47.233  20.375  24.322  1.00  0.00     0.163 HD
ATOM     42  O   UNL A   1      46.800  22.703  23.854  1.00  0.00    -0.269 OA
BRANCH  40  43
ATOM     43  C   UNL A   1      44.953  22.626  25.302  1.00  0.00     0.039 A 
ATOM     44  C   UNL A   1      44.146  23.546  24.616  1.00  0.00     0.014 A 
ATOM     45  C   UNL A   1      44.936  22.595  26.688  1.00  0.00     0.014 A 
ATOM     46  C   UNL A   1      43.630  24.637  25.303  1.00  0.00     0.010 A 
ATOM     47  C   UNL A   1      44.579  23.743  27.345  1.00  0.00     0.010 A 
ATOM     48  C   UNL A   1      43.996  24.794  26.632  1.00  0.00    -0.014 A 
BRANCH  48  49
ATOM     49  C   UNL A   1      43.863  26.028  27.380  1.00  0.00     0.031 A 
ATOM     50  C   UNL A   1      42.542  26.670  27.448  1.00  0.00     0.074 A 
ATOM     51  C   UNL A   1      44.895  26.437  28.151  1.00  0.00     0.049 A 
ATOM     52  N   UNL A   1      42.347  27.883  27.819  1.00  0.00    -0.248 NA
ATOM     53  C   UNL A   1      41.317  25.987  27.049  1.00  0.00     0.031 C 
ATOM     54  C   UNL A   1      44.861  27.391  29.254  1.00  0.00     0.029 A 
ATOM     55  N   UNL A   1      46.258  26.184  27.954  1.00  0.00    -0.354 N 
ATOM     56  C   UNL A   1      40.992  28.049  28.005  1.00  0.00     0.074 A 
ATOM     57  C   UNL A   1      40.392  26.875  27.422  1.00  0.00     0.031 C 
ATOM     58  C   UNL A   1      46.101  27.866  29.457  1.00  0.00     0.029 A 
ATOM     59  C   UNL A   1      46.932  27.349  28.384  1.00  0.00     0.049 A 
ATOM     60  H   UNL A   1      46.664  25.364  27.592  1.00  0.00     0.167 HD
ATOM     61  C   UNL A   1      40.572  29.098  28.768  1.00  0.00     0.037 A 
ATOM     62  C   UNL A   1      47.628  28.126  27.501  1.00  0.00     0.037 A 
ATOM     63  C   UNL A   1      41.715  29.928  29.154  1.00  0.00     0.049 A 
ATOM     64  C   UNL A   1      47.098  29.538  27.406  1.00  0.00     0.074 A 
ATOM     65  C   UNL A   1      42.480  29.986  30.308  1.00  0.00     0.029 A 
ATOM     66  N   UNL A   1      42.427  30.609  28.173  1.00  0.00    -0.354 N 
ATOM     67  N   UNL A   1      45.874  29.876  27.711  1.00  0.00    -0.248 NA
ATOM     68  C   UNL A   1      47.904  30.681  26.993  1.00  0.00     0.031 C 
ATOM     69  C   UNL A   1      43.677  30.682  30.004  1.00  0.00     0.029 A 
ATOM     70  C   UNL A   1      43.629  31.063  28.674  1.00  0.00     0.049 A 
ATOM     71  H   UNL A   1      42.116  30.746  27.249  1.00  0.00     0.167 HD
ATOM     72  C   UNL A   1      45.720  31.233  27.567  1.00  0.00     0.074 A 
ATOM     73  C   UNL A   1      47.022  31.689  27.119  1.00  0.00     0.031 C 
ATOM     74  C   UNL A   1      44.531  31.853  27.846  1.00  0.00     0.037 A 
BRANCH  61  75
ATOM     75  C   UNL A   1      39.205  29.230  29.407  1.00  0.00     0.057 A 
ATOM     76  C   UNL A   1      38.091  29.617  28.631  1.00  0.00     0.134 A 
ATOM     77  C   UNL A   1      38.909  29.050  30.770  1.00  0.00     0.134 A 
ATOM     78  F   UNL A   1      38.165  29.736  27.299  1.00  0.00    -0.206 F 
ATOM     79  C   UNL A   1      36.833  29.903  29.178  1.00  0.00     0.040 A 
ATOM     80  C   UNL A   1      37.666  29.368  31.338  1.00  0.00     0.040 A 
ATOM     81  F   UNL A   1      39.780  28.500  31.620  1.00  0.00    -0.206 F 
ATOM     82  C   UNL A   1      36.623  29.809  30.543  1.00  0.00     0.006 A 
ENDBRANCH  61  75
BRANCH  62  83
ATOM     83  C   UNL A   1      48.208  27.328  26.385  1.00  0.00     0.057 A 
ATOM     84  C   UNL A   1      47.537  27.351  25.146  1.00  0.00     0.134 A 
ATOM     85  C   UNL A   1      49.560  26.975  26.368  1.00  0.00     0.134 A 
ATOM     86  F   UNL A   1      46.234  27.671  25.094  1.00  0.00    -0.206 F 
ATOM     87  C   UNL A   1      48.218  27.198  23.936  1.00  0.00     0.040 A 
ATOM     88  C   UNL A   1      50.246  26.797  25.160  1.00  0.00     0.040 A 
ATOM     89  F   UNL A   1      50.271  26.936  27.505  1.00  0.00    -0.206 F 
ATOM     90  C   UNL A   1      49.589  26.964  23.941  1.00  0.00     0.006 A 
ENDBRANCH  62  83
BRANCH  74  91
ATOM     91  C   UNL A   1      44.102  33.263  27.477  1.00  0.00     0.057 A 
ATOM     92  C   UNL A   1      43.783  33.695  26.182  1.00  0.00     0.134 A 
ATOM     93  C   UNL A   1      43.847  34.226  28.490  1.00  0.00     0.134 A 
ATOM     94  F   UNL A   1      43.861  32.882  25.124  1.00  0.00    -0.206 F 
ATOM     95  C   UNL A   1      43.300  34.986  25.912  1.00  0.00     0.040 A 
ATOM     96  C   UNL A   1      43.305  35.489  28.238  1.00  0.00     0.040 A 
ATOM     97  F   UNL A   1      44.085  33.980  29.786  1.00  0.00    -0.206 F 
ATOM     98  C   UNL A   1      43.043  35.882  26.940  1.00  0.00     0.006 A 
ENDBRANCH  74  91
ENDBRANCH  48  49
ENDBRANCH  40  43
ENDBRANCH  38  39
ENDBRANCH  37  38
ENDBRANCH  36  37
ENDBRANCH  35  36
ENDBRANCH   3  35
TORSDOF 17
ENDMDL
