MODEL 1
REMARK VINA RESULT:     -11.6      0.000      0.000
REMARK SMILES C[C@@H](Sc1nc2ccccc2c(=O)n1N)C(=O)NCCCCNC(=O)c1ccc(-c2c3nc(c(-c4c(F)cccc4F)c4ccc([nH]4)c(-c4c(F)cccc4F)c4nc(c(-c5c(F)cccc5F)c5ccc2[nH]5)C=C4)C=C3)cc1
REMARK SMILES IDX 20 1 19 2 18 3 16 4 17 5 2 7 1 8 3 9 4 10 5 11 14 12 6 13
REMARK SMILES IDX 12 14 7 15 11 16 13 17 8 18 10 19 9 20 15 21 21 24 22 25
REMARK SMILES IDX 23 26 24 27 25 29 26 30 27 31 79 32 28 33 78 34 29 35 30 36
REMARK SMILES IDX 31 37 72 38 32 39 77 40 71 41 73 42 33 43 76 44 70 45 69 46
REMARK SMILES IDX 34 48 60 49 43 50 59 51 44 52 47 53 58 54 74 55 45 56 46 57
REMARK SMILES IDX 57 59 75 60 48 61 35 62 36 63 41 64 37 65 38 66 40 67 42 68
REMARK SMILES IDX 39 69 61 70 62 71 67 72 63 73 64 74 66 75 68 76 65 77 49 78
REMARK SMILES IDX 50 79 55 80 51 81 52 82 54 83 56 84 53 85
REMARK H PARENT 18 6 15 22 15 23 23 28 73 47 47 58
REMARK Flexibility Score: inf
ROOT
ATOM      1  C   UNL A   1      36.403  20.555  25.001  1.00  0.00     0.023 C 
ENDROOT
BRANCH   1   2
ATOM      2  C   UNL A   1      36.352  22.077  24.903  1.00  0.00     0.116 C 
BRANCH   2   3
ATOM      3  N   UNL A   1      35.663  22.503  23.700  1.00  0.00    -0.355 N 
ATOM      4  C   UNL A   1      34.401  22.996  23.530  1.00  0.00     0.233 C 
ATOM      5  O   UNL A   1      34.066  23.295  22.379  1.00  0.00    -0.274 OA
ATOM      6  H   UNL A   1      36.190  22.424  22.872  1.00  0.00     0.163 HD
BRANCH   4   7
ATOM      7  C   UNL A   1      33.429  23.176  24.700  1.00  0.00     0.141 C 
ATOM      8  C   UNL A   1      33.396  24.612  25.211  1.00  0.00     0.030 C 
BRANCH   7   9
ATOM      9  S   UNL A   1      31.825  22.428  24.231  1.00  0.00    -0.073 SA
BRANCH   9  10
ATOM     10  C   UNL A   1      32.274  20.767  23.938  1.00  0.00     0.191 A 
ATOM     11  N   UNL A   1      32.629  20.067  24.966  1.00  0.00    -0.222 NA
ATOM     12  N   UNL A   1      32.153  20.257  22.651  1.00  0.00    -0.202 N 
ATOM     13  C   UNL A   1      32.882  18.701  24.776  1.00  0.00     0.079 A 
ATOM     14  C   UNL A   1      32.377  18.907  22.378  1.00  0.00     0.280 A 
ATOM     15  C   UNL A   1      33.223  17.921  25.884  1.00  0.00     0.029 A 
ATOM     16  C   UNL A   1      32.764  18.078  23.532  1.00  0.00     0.068 A 
ATOM     17  O   UNL A   1      32.241  18.410  21.261  1.00  0.00    -0.267 OA
ATOM     18  C   UNL A   1      33.436  16.546  25.751  1.00  0.00     0.002 A 
ATOM     19  C   UNL A   1      32.979  16.702  23.387  1.00  0.00     0.016 A 
ATOM     20  C   UNL A   1      33.314  15.936  24.502  1.00  0.00     0.001 A 
BRANCH  12  21
ATOM     21  N   UNL A   1      31.778  21.085  21.542  1.00  0.00    -0.334 N 
ATOM     22  H   UNL A   1      32.406  21.758  21.195  1.00  0.00     0.178 HD
ATOM     23  H   UNL A   1      30.891  20.980  21.127  1.00  0.00     0.178 HD
ENDBRANCH  12  21
ENDBRANCH   9  10
ENDBRANCH   7   9
ENDBRANCH   4   7
ENDBRANCH   2   3
ENDBRANCH   1   2
BRANCH   1  24
ATOM     24  C   UNL A   1      37.774  19.949  24.688  1.00  0.00     0.023 C 
BRANCH  24  25
ATOM     25  C   UNL A   1      38.861  20.240  25.717  1.00  0.00     0.116 C 
BRANCH  25  26
ATOM     26  N   UNL A   1      39.860  19.185  25.803  1.00  0.00    -0.352 N 
ATOM     27  C   UNL A   1      41.206  19.291  26.057  1.00  0.00     0.251 C 
ATOM     28  H   UNL A   1      39.526  18.270  25.660  1.00  0.00     0.163 HD
ATOM     29  O   UNL A   1      41.935  18.308  25.969  1.00  0.00    -0.269 OA
BRANCH  27  30
ATOM     30  C   UNL A   1      41.778  20.607  26.406  1.00  0.00     0.039 A 
ATOM     31  C   UNL A   1      42.166  21.468  25.376  1.00  0.00     0.014 A 
ATOM     32  C   UNL A   1      41.902  21.001  27.741  1.00  0.00     0.014 A 
ATOM     33  C   UNL A   1      42.613  22.754  25.684  1.00  0.00     0.010 A 
ATOM     34  C   UNL A   1      42.278  22.306  28.043  1.00  0.00     0.010 A 
ATOM     35  C   UNL A   1      42.635  23.196  27.018  1.00  0.00    -0.014 A 
BRANCH  35  36
ATOM     36  C   UNL A   1      43.019  24.587  27.360  1.00  0.00     0.031 A 
ATOM     37  C   UNL A   1      44.462  25.006  27.311  1.00  0.00     0.074 A 
ATOM     38  C   UNL A   1      42.079  25.455  27.782  1.00  0.00     0.049 A 
ATOM     39  N   UNL A   1      45.003  26.152  27.641  1.00  0.00    -0.248 NA
ATOM     40  C   UNL A   1      45.430  23.995  26.858  1.00  0.00     0.031 C 
ATOM     41  C   UNL A   1      40.652  25.156  27.920  1.00  0.00     0.029 A 
ATOM     42  N   UNL A   1      42.183  26.763  28.184  1.00  0.00    -0.354 N 
ATOM     43  C   UNL A   1      46.369  25.992  27.452  1.00  0.00     0.074 A 
ATOM     44  C   UNL A   1      46.582  24.627  27.028  1.00  0.00     0.031 C 
ATOM     45  C   UNL A   1      40.012  26.255  28.352  1.00  0.00     0.029 A 
ATOM     46  C   UNL A   1      40.985  27.322  28.556  1.00  0.00     0.049 A 
ATOM     47  H   UNL A   1      43.037  27.253  28.203  1.00  0.00     0.167 HD
ATOM     48  C   UNL A   1      47.355  26.909  27.597  1.00  0.00     0.037 A 
ATOM     49  C   UNL A   1      40.704  28.556  29.016  1.00  0.00     0.037 A 
ATOM     50  C   UNL A   1      47.138  28.276  27.992  1.00  0.00     0.049 A 
ATOM     51  C   UNL A   1      41.818  29.554  29.172  1.00  0.00     0.074 A 
ATOM     52  C   UNL A   1      48.064  29.299  28.101  1.00  0.00     0.029 A 
ATOM     53  N   UNL A   1      45.908  28.811  28.343  1.00  0.00    -0.354 N 
ATOM     54  N   UNL A   1      43.097  29.412  28.920  1.00  0.00    -0.248 NA
ATOM     55  C   UNL A   1      41.449  30.886  29.671  1.00  0.00     0.031 C 
ATOM     56  C   UNL A   1      47.401  30.441  28.562  1.00  0.00     0.029 A 
ATOM     57  C   UNL A   1      46.054  30.143  28.692  1.00  0.00     0.049 A 
ATOM     58  H   UNL A   1      45.057  28.316  28.345  1.00  0.00     0.167 HD
ATOM     59  C   UNL A   1      43.679  30.641  29.199  1.00  0.00     0.074 A 
ATOM     60  C   UNL A   1      42.612  31.521  29.628  1.00  0.00     0.031 C 
ATOM     61  C   UNL A   1      44.980  31.008  29.108  1.00  0.00     0.037 A 
BRANCH  48  62
ATOM     62  C   UNL A   1      48.761  26.462  27.322  1.00  0.00     0.057 A 
ATOM     63  C   UNL A   1      49.568  25.902  28.322  1.00  0.00     0.134 A 
ATOM     64  C   UNL A   1      49.304  26.562  26.035  1.00  0.00     0.134 A 
ATOM     65  F   UNL A   1      49.113  25.789  29.579  1.00  0.00    -0.206 F 
ATOM     66  C   UNL A   1      50.872  25.481  28.057  1.00  0.00     0.040 A 
ATOM     67  C   UNL A   1      50.598  26.119  25.752  1.00  0.00     0.040 A 
ATOM     68  F   UNL A   1      48.585  27.082  25.030  1.00  0.00    -0.206 F 
ATOM     69  C   UNL A   1      51.388  25.583  26.766  1.00  0.00     0.006 A 
ENDBRANCH  48  62
BRANCH  49  70
ATOM     70  C   UNL A   1      39.305  28.929  29.342  1.00  0.00     0.057 A 
ATOM     71  C   UNL A   1      38.464  29.488  28.373  1.00  0.00     0.134 A 
ATOM     72  C   UNL A   1      38.778  28.750  30.626  1.00  0.00     0.134 A 
ATOM     73  F   UNL A   1      38.919  29.703  27.129  1.00  0.00    -0.206 F 
ATOM     74  C   UNL A   1      37.157  29.875  28.672  1.00  0.00     0.040 A 
ATOM     75  C   UNL A   1      37.464  29.108  30.934  1.00  0.00     0.040 A 
ATOM     76  F   UNL A   1      39.529  28.212  31.599  1.00  0.00    -0.206 F 
ATOM     77  C   UNL A   1      36.653  29.681  29.956  1.00  0.00     0.006 A 
ENDBRANCH  49  70
BRANCH  61  78
ATOM     78  C   UNL A   1      45.317  32.432  29.443  1.00  0.00     0.057 A 
ATOM     79  C   UNL A   1      45.697  32.820  30.733  1.00  0.00     0.134 A 
ATOM     80  C   UNL A   1      45.299  33.419  28.448  1.00  0.00     0.134 A 
ATOM     81  F   UNL A   1      45.722  31.924  31.733  1.00  0.00    -0.206 F 
ATOM     82  C   UNL A   1      46.025  34.143  31.030  1.00  0.00     0.040 A 
ATOM     83  C   UNL A   1      45.650  34.740  28.727  1.00  0.00     0.040 A 
ATOM     84  F   UNL A   1      44.953  33.113  27.190  1.00  0.00    -0.206 F 
ATOM     85  C   UNL A   1      46.009  35.106  30.023  1.00  0.00     0.006 A 
ENDBRANCH  61  78
ENDBRANCH  35  36
ENDBRANCH  27  30
ENDBRANCH  25  26
ENDBRANCH  24  25
ENDBRANCH   1  24
TORSDOF 14
ENDMDL
MODEL 2
REMARK VINA RESULT:     -11.5      2.362      4.303
REMARK SMILES C[C@@H](Sc1nc2ccccc2c(=O)n1N)C(=O)NCCCCNC(=O)c1ccc(-c2c3nc(c(-c4c(F)cccc4F)c4ccc([nH]4)c(-c4c(F)cccc4F)c4nc(c(-c5c(F)cccc5F)c5ccc2[nH]5)C=C4)C=C3)cc1
REMARK SMILES IDX 20 1 19 2 18 3 16 4 17 5 2 7 1 8 3 9 4 10 5 11 14 12 6 13
REMARK SMILES IDX 12 14 7 15 11 16 13 17 8 18 10 19 9 20 15 21 21 24 22 25
REMARK SMILES IDX 23 26 24 27 25 29 26 30 27 31 79 32 28 33 78 34 29 35 30 36
REMARK SMILES IDX 31 37 72 38 32 39 77 40 71 41 73 42 33 43 76 44 70 45 69 46
REMARK SMILES IDX 34 48 60 49 43 50 59 51 44 52 47 53 58 54 74 55 45 56 46 57
REMARK SMILES IDX 57 59 75 60 48 61 35 62 36 63 41 64 37 65 38 66 40 67 42 68
REMARK SMILES IDX 39 69 61 70 62 71 67 72 63 73 64 74 66 75 68 76 65 77 49 78
REMARK SMILES IDX 50 79 55 80 51 81 52 82 54 83 56 84 53 85
REMARK H PARENT 18 6 15 22 15 23 23 28 73 47 47 58
REMARK Flexibility Score: inf
ROOT
ATOM      1  C   UNL A   1      36.353  21.082  24.749  1.00  0.00     0.023 C 
ENDROOT
BRANCH   1   2
ATOM      2  C   UNL A   1      35.103  20.896  25.604  1.00  0.00     0.116 C 
BRANCH   2   3
ATOM      3  N   UNL A   1      33.897  21.111  24.825  1.00  0.00    -0.355 N 
ATOM      4  C   UNL A   1      32.906  22.039  24.966  1.00  0.00     0.233 C 
ATOM      5  O   UNL A   1      31.984  22.005  24.145  1.00  0.00    -0.274 OA
ATOM      6  H   UNL A   1      33.775  20.488  24.073  1.00  0.00     0.163 HD
BRANCH   4   7
ATOM      7  C   UNL A   1      32.916  23.083  26.087  1.00  0.00     0.141 C 
ATOM      8  C   UNL A   1      33.860  24.243  25.790  1.00  0.00     0.030 C 
BRANCH   7   9
ATOM      9  S   UNL A   1      31.182  23.509  26.487  1.00  0.00    -0.073 SA
BRANCH   9  10
ATOM     10  C   UNL A   1      31.101  25.184  26.005  1.00  0.00     0.191 A 
ATOM     11  N   UNL A   1      31.442  26.065  26.889  1.00  0.00    -0.222 NA
ATOM     12  N   UNL A   1      30.760  25.488  24.693  1.00  0.00    -0.202 N 
ATOM     13  C   UNL A   1      31.497  27.409  26.493  1.00  0.00     0.079 A 
ATOM     14  C   UNL A   1      30.799  26.799  24.215  1.00  0.00     0.280 A 
ATOM     15  C   UNL A   1      31.907  28.367  27.423  1.00  0.00     0.029 A 
ATOM     16  C   UNL A   1      31.203  27.824  25.192  1.00  0.00     0.068 A 
ATOM     17  O   UNL A   1      30.543  27.103  23.050  1.00  0.00    -0.267 OA
ATOM     18  C   UNL A   1      32.025  29.712  27.059  1.00  0.00     0.002 A 
ATOM     19  C   UNL A   1      31.313  29.168  24.818  1.00  0.00     0.016 A 
ATOM     20  C   UNL A   1      31.728  30.112  25.756  1.00  0.00     0.001 A 
BRANCH  12  21
ATOM     21  N   UNL A   1      30.366  24.474  23.760  1.00  0.00    -0.334 N 
ATOM     22  H   UNL A   1      30.763  24.452  22.860  1.00  0.00     0.178 HD
ATOM     23  H   UNL A   1      29.699  23.798  24.020  1.00  0.00     0.178 HD
ENDBRANCH  12  21
ENDBRANCH   9  10
ENDBRANCH   7   9
ENDBRANCH   4   7
ENDBRANCH   2   3
ENDBRANCH   1   2
BRANCH   1  24
ATOM     24  C   UNL A   1      37.426  20.012  24.961  1.00  0.00     0.023 C 
BRANCH  24  25
ATOM     25  C   UNL A   1      38.733  20.516  25.564  1.00  0.00     0.116 C 
BRANCH  25  26
ATOM     26  N   UNL A   1      39.755  19.483  25.650  1.00  0.00    -0.352 N 
ATOM     27  C   UNL A   1      41.058  19.594  26.070  1.00  0.00     0.251 C 
ATOM     28  H   UNL A   1      39.474  18.582  25.370  1.00  0.00     0.163 HD
ATOM     29  O   UNL A   1      41.830  18.645  25.960  1.00  0.00    -0.269 OA
BRANCH  27  30
ATOM     30  C   UNL A   1      41.538  20.876  26.624  1.00  0.00     0.039 A 
ATOM     31  C   UNL A   1      42.144  21.797  25.765  1.00  0.00     0.014 A 
ATOM     32  C   UNL A   1      41.361  21.180  27.976  1.00  0.00     0.014 A 
ATOM     33  C   UNL A   1      42.510  23.053  26.250  1.00  0.00     0.010 A 
ATOM     34  C   UNL A   1      41.659  22.458  28.440  1.00  0.00     0.010 A 
ATOM     35  C   UNL A   1      42.234  23.407  27.581  1.00  0.00    -0.014 A 
BRANCH  35  36
ATOM     36  C   UNL A   1      42.532  24.768  28.092  1.00  0.00     0.031 A 
ATOM     37  C   UNL A   1      43.926  25.123  28.527  1.00  0.00     0.074 A 
ATOM     38  C   UNL A   1      41.533  25.662  28.230  1.00  0.00     0.049 A 
ATOM     39  N   UNL A   1      44.368  26.232  29.065  1.00  0.00    -0.248 NA
ATOM     40  C   UNL A   1      44.956  24.085  28.362  1.00  0.00     0.031 C 
ATOM     41  C   UNL A   1      40.129  25.422  27.890  1.00  0.00     0.029 A 
ATOM     42  N   UNL A   1      41.544  26.950  28.704  1.00  0.00    -0.354 N 
ATOM     43  C   UNL A   1      45.717  26.018  29.317  1.00  0.00     0.074 A 
ATOM     44  C   UNL A   1      46.011  24.659  28.921  1.00  0.00     0.031 C 
ATOM     45  C   UNL A   1      39.419  26.534  28.144  1.00  0.00     0.029 A 
ATOM     46  C   UNL A   1      40.308  27.549  28.697  1.00  0.00     0.049 A 
ATOM     47  H   UNL A   1      42.361  27.401  29.017  1.00  0.00     0.167 HD
ATOM     48  C   UNL A   1      46.632  26.885  29.812  1.00  0.00     0.037 A 
ATOM     49  C   UNL A   1      39.933  28.779  29.100  1.00  0.00     0.037 A 
ATOM     50  C   UNL A   1      46.342  28.247  30.178  1.00  0.00     0.049 A 
ATOM     51  C   UNL A   1      40.969  29.720  29.649  1.00  0.00     0.074 A 
ATOM     52  C   UNL A   1      47.215  29.223  30.625  1.00  0.00     0.029 A 
ATOM     53  N   UNL A   1      45.082  28.823  30.142  1.00  0.00    -0.354 N 
ATOM     54  N   UNL A   1      42.256  29.529  29.814  1.00  0.00    -0.248 NA
ATOM     55  C   UNL A   1      40.501  31.050  30.064  1.00  0.00     0.031 C 
ATOM     56  C   UNL A   1      46.476  30.377  30.901  1.00  0.00     0.029 A 
ATOM     57  C   UNL A   1      45.150  30.135  30.580  1.00  0.00     0.049 A 
ATOM     58  H   UNL A   1      44.260  28.367  29.848  1.00  0.00     0.167 HD
ATOM     59  C   UNL A   1      42.755  30.722  30.322  1.00  0.00     0.074 A 
ATOM     60  C   UNL A   1      41.635  31.633  30.426  1.00  0.00     0.031 C 
ATOM     61  C   UNL A   1      44.027  31.033  30.669  1.00  0.00     0.037 A 
BRANCH  48  62
ATOM     62  C   UNL A   1      48.037  26.385  29.982  1.00  0.00     0.057 A 
ATOM     63  C   UNL A   1      48.470  25.786  31.172  1.00  0.00     0.134 A 
ATOM     64  C   UNL A   1      48.958  26.472  28.931  1.00  0.00     0.134 A 
ATOM     65  F   UNL A   1      47.640  25.682  32.222  1.00  0.00    -0.206 F 
ATOM     66  C   UNL A   1      49.776  25.317  31.320  1.00  0.00     0.040 A 
ATOM     67  C   UNL A   1      50.259  25.981  29.057  1.00  0.00     0.040 A 
ATOM     68  F   UNL A   1      48.609  27.028  27.761  1.00  0.00    -0.206 F 
ATOM     69  C   UNL A   1      50.673  25.407  30.258  1.00  0.00     0.006 A 
ENDBRANCH  48  62
BRANCH  49  70
ATOM     70  C   UNL A   1      38.516  29.203  28.977  1.00  0.00     0.057 A 
ATOM     71  C   UNL A   1      37.652  29.155  30.077  1.00  0.00     0.134 A 
ATOM     72  C   UNL A   1      37.988  29.654  27.762  1.00  0.00     0.134 A 
ATOM     73  F   UNL A   1      38.095  28.713  31.263  1.00  0.00    -0.206 F 
ATOM     74  C   UNL A   1      36.309  29.518  29.969  1.00  0.00     0.040 A 
ATOM     75  C   UNL A   1      36.653  30.045  27.645  1.00  0.00     0.040 A 
ATOM     76  F   UNL A   1      38.765  29.731  26.671  1.00  0.00    -0.206 F 
ATOM     77  C   UNL A   1      35.807  29.970  28.750  1.00  0.00     0.006 A 
ENDBRANCH  49  70
BRANCH  61  78
ATOM     78  C   UNL A   1      44.283  32.429  31.159  1.00  0.00     0.057 A 
ATOM     79  C   UNL A   1      44.576  33.479  30.281  1.00  0.00     0.134 A 
ATOM     80  C   UNL A   1      44.194  32.730  32.524  1.00  0.00     0.134 A 
ATOM     81  F   UNL A   1      44.687  33.253  28.962  1.00  0.00    -0.206 F 
ATOM     82  C   UNL A   1      44.794  34.777  30.745  1.00  0.00     0.040 A 
ATOM     83  C   UNL A   1      44.385  34.029  32.998  1.00  0.00     0.040 A 
ATOM     84  F   UNL A   1      43.908  31.771  33.417  1.00  0.00    -0.206 F 
ATOM     85  C   UNL A   1      44.692  35.056  32.107  1.00  0.00     0.006 A 
ENDBRANCH  61  78
ENDBRANCH  35  36
ENDBRANCH  27  30
ENDBRANCH  25  26
ENDBRANCH  24  25
ENDBRANCH   1  24
TORSDOF 14
ENDMDL
MODEL 3
REMARK VINA RESULT:     -11.5      2.373      7.467
REMARK SMILES C[C@@H](Sc1nc2ccccc2c(=O)n1N)C(=O)NCCCCNC(=O)c1ccc(-c2c3nc(c(-c4c(F)cccc4F)c4ccc([nH]4)c(-c4c(F)cccc4F)c4nc(c(-c5c(F)cccc5F)c5ccc2[nH]5)C=C4)C=C3)cc1
REMARK SMILES IDX 20 1 19 2 18 3 16 4 17 5 2 7 1 8 3 9 4 10 5 11 14 12 6 13
REMARK SMILES IDX 12 14 7 15 11 16 13 17 8 18 10 19 9 20 15 21 21 24 22 25
REMARK SMILES IDX 23 26 24 27 25 29 26 30 27 31 79 32 28 33 78 34 29 35 30 36
REMARK SMILES IDX 31 37 72 38 32 39 77 40 71 41 73 42 33 43 76 44 70 45 69 46
REMARK SMILES IDX 34 48 60 49 43 50 59 51 44 52 47 53 58 54 74 55 45 56 46 57
REMARK SMILES IDX 57 59 75 60 48 61 35 62 36 63 41 64 37 65 38 66 40 67 42 68
REMARK SMILES IDX 39 69 61 70 62 71 67 72 63 73 64 74 66 75 68 76 65 77 49 78
REMARK SMILES IDX 50 79 55 80 51 81 52 82 54 83 56 84 53 85
REMARK H PARENT 18 6 15 22 15 23 23 28 73 47 47 58
REMARK Flexibility Score: inf
ROOT
ATOM      1  C   UNL A   1      35.995  20.734  25.358  1.00  0.00     0.023 C 
ENDROOT
BRANCH   1   2
ATOM      2  C   UNL A   1      35.634  22.144  25.818  1.00  0.00     0.116 C 
BRANCH   2   3
ATOM      3  N   UNL A   1      34.774  22.111  26.986  1.00  0.00    -0.355 N 
ATOM      4  C   UNL A   1      33.432  22.334  27.104  1.00  0.00     0.233 C 
ATOM      5  O   UNL A   1      32.943  22.229  28.233  1.00  0.00    -0.274 OA
ATOM      6  H   UNL A   1      35.231  21.892  27.830  1.00  0.00     0.163 HD
BRANCH   4   7
ATOM      7  C   UNL A   1      32.556  22.702  25.903  1.00  0.00     0.141 C 
ATOM      8  C   UNL A   1      32.523  21.600  24.850  1.00  0.00     0.030 C 
BRANCH   7   9
ATOM      9  S   UNL A   1      30.942  23.292  26.533  1.00  0.00    -0.073 SA
BRANCH   9  10
ATOM     10  C   UNL A   1      30.948  24.963  26.031  1.00  0.00     0.191 A 
ATOM     11  N   UNL A   1      31.295  25.839  26.916  1.00  0.00    -0.222 NA
ATOM     12  N   UNL A   1      30.664  25.265  24.704  1.00  0.00    -0.202 N 
ATOM     13  C   UNL A   1      31.420  27.175  26.507  1.00  0.00     0.079 A 
ATOM     14  C   UNL A   1      30.774  26.567  24.213  1.00  0.00     0.280 A 
ATOM     15  C   UNL A   1      31.838  28.126  27.440  1.00  0.00     0.029 A 
ATOM     16  C   UNL A   1      31.187  27.586  25.193  1.00  0.00     0.068 A 
ATOM     17  O   UNL A   1      30.570  26.867  23.038  1.00  0.00    -0.267 OA
ATOM     18  C   UNL A   1      32.024  29.461  27.066  1.00  0.00     0.002 A 
ATOM     19  C   UNL A   1      31.366  28.920  24.808  1.00  0.00     0.016 A 
ATOM     20  C   UNL A   1      31.789  29.857  25.749  1.00  0.00     0.001 A 
BRANCH  12  21
ATOM     21  N   UNL A   1      30.259  24.256  23.769  1.00  0.00    -0.334 N 
ATOM     22  H   UNL A   1      29.992  23.365  24.090  1.00  0.00     0.178 HD
ATOM     23  H   UNL A   1      30.248  24.455  22.805  1.00  0.00     0.178 HD
ENDBRANCH  12  21
ENDBRANCH   9  10
ENDBRANCH   7   9
ENDBRANCH   4   7
ENDBRANCH   2   3
ENDBRANCH   1   2
BRANCH   1  24
ATOM     24  C   UNL A   1      37.386  20.612  24.732  1.00  0.00     0.023 C 
BRANCH  24  25
ATOM     25  C   UNL A   1      38.550  20.829  25.693  1.00  0.00     0.116 C 
BRANCH  25  26
ATOM     26  N   UNL A   1      39.530  19.753  25.652  1.00  0.00    -0.352 N 
ATOM     27  C   UNL A   1      40.862  19.788  25.986  1.00  0.00     0.251 C 
ATOM     28  H   UNL A   1      39.192  18.882  25.342  1.00  0.00     0.163 HD
ATOM     29  O   UNL A   1      41.582  18.817  25.772  1.00  0.00    -0.269 OA
BRANCH  27  30
ATOM     30  C   UNL A   1      41.432  21.016  26.576  1.00  0.00     0.039 A 
ATOM     31  C   UNL A   1      41.946  21.997  25.725  1.00  0.00     0.014 A 
ATOM     32  C   UNL A   1      41.431  21.211  27.960  1.00  0.00     0.014 A 
ATOM     33  C   UNL A   1      42.395  23.206  26.258  1.00  0.00     0.010 A 
ATOM     34  C   UNL A   1      41.809  22.443  28.483  1.00  0.00     0.010 A 
ATOM     35  C   UNL A   1      42.293  23.453  27.637  1.00  0.00    -0.014 A 
BRANCH  35  36
ATOM     36  C   UNL A   1      42.680  24.765  28.214  1.00  0.00     0.031 A 
ATOM     37  C   UNL A   1      41.644  25.833  28.422  1.00  0.00     0.074 A 
ATOM     38  C   UNL A   1      43.975  25.018  28.486  1.00  0.00     0.049 A 
ATOM     39  N   UNL A   1      41.796  27.063  28.845  1.00  0.00    -0.248 NA
ATOM     40  C   UNL A   1      40.255  25.484  28.082  1.00  0.00     0.031 C 
ATOM     41  C   UNL A   1      45.082  24.081  28.283  1.00  0.00     0.029 A 
ATOM     42  N   UNL A   1      44.581  26.145  28.983  1.00  0.00    -0.354 N 
ATOM     43  C   UNL A   1      40.531  27.635  28.806  1.00  0.00     0.074 A 
ATOM     44  C   UNL A   1      39.632  26.638  28.271  1.00  0.00     0.031 C 
ATOM     45  C   UNL A   1      46.228  24.663  28.673  1.00  0.00     0.029 A 
ATOM     46  C   UNL A   1      45.943  26.023  29.118  1.00  0.00     0.049 A 
ATOM     47  H   UNL A   1      44.086  26.962  29.220  1.00  0.00     0.167 HD
ATOM     48  C   UNL A   1      40.151  28.873  29.203  1.00  0.00     0.037 A 
ATOM     49  C   UNL A   1      46.859  26.911  29.547  1.00  0.00     0.037 A 
ATOM     50  C   UNL A   1      41.043  29.854  29.762  1.00  0.00     0.049 A 
ATOM     51  C   UNL A   1      46.410  28.280  29.978  1.00  0.00     0.074 A 
ATOM     52  C   UNL A   1      40.742  31.110  30.256  1.00  0.00     0.029 A 
ATOM     53  N   UNL A   1      42.413  29.687  29.899  1.00  0.00    -0.354 N 
ATOM     54  N   UNL A   1      45.200  28.784  30.004  1.00  0.00    -0.248 NA
ATOM     55  C   UNL A   1      47.455  29.203  30.444  1.00  0.00     0.031 C 
ATOM     56  C   UNL A   1      41.936  31.723  30.652  1.00  0.00     0.029 A 
ATOM     57  C   UNL A   1      42.974  30.828  30.449  1.00  0.00     0.049 A 
ATOM     58  H   UNL A   1      42.912  28.878  29.644  1.00  0.00     0.167 HD
ATOM     59  C   UNL A   1      45.333  30.068  30.516  1.00  0.00     0.074 A 
ATOM     60  C   UNL A   1      46.740  30.261  30.799  1.00  0.00     0.031 C 
ATOM     61  C   UNL A   1      44.376  31.002  30.733  1.00  0.00     0.037 A 
BRANCH  48  62
ATOM     62  C   UNL A   1      38.702  29.233  29.049  1.00  0.00     0.057 A 
ATOM     63  C   UNL A   1      38.166  29.630  27.816  1.00  0.00     0.134 A 
ATOM     64  C   UNL A   1      37.825  29.151  30.137  1.00  0.00     0.134 A 
ATOM     65  F   UNL A   1      38.954  29.742  26.736  1.00  0.00    -0.206 F 
ATOM     66  C   UNL A   1      36.816  29.957  27.679  1.00  0.00     0.040 A 
ATOM     67  C   UNL A   1      36.467  29.448  30.006  1.00  0.00     0.040 A 
ATOM     68  F   UNL A   1      38.270  28.771  31.344  1.00  0.00    -0.206 F 
ATOM     69  C   UNL A   1      35.961  29.859  28.774  1.00  0.00     0.006 A 
ENDBRANCH  48  62
BRANCH  49  70
ATOM     70  C   UNL A   1      48.292  26.530  29.615  1.00  0.00     0.057 A 
ATOM     71  C   UNL A   1      48.809  25.870  30.735  1.00  0.00     0.134 A 
ATOM     72  C   UNL A   1      49.180  26.824  28.573  1.00  0.00     0.134 A 
ATOM     73  F   UNL A   1      48.011  25.579  31.774  1.00  0.00    -0.206 F 
ATOM     74  C   UNL A   1      50.161  25.535  30.829  1.00  0.00     0.040 A 
ATOM     75  C   UNL A   1      50.529  26.472  28.642  1.00  0.00     0.040 A 
ATOM     76  F   UNL A   1      48.746  27.449  27.468  1.00  0.00    -0.206 F 
ATOM     77  C   UNL A   1      51.024  25.832  29.776  1.00  0.00     0.006 A 
ENDBRANCH  49  70
BRANCH  61  78
ATOM     78  C   UNL A   1      44.812  32.304  31.340  1.00  0.00     0.057 A 
ATOM     79  C   UNL A   1      45.178  33.401  30.552  1.00  0.00     0.134 A 
ATOM     80  C   UNL A   1      44.826  32.470  32.731  1.00  0.00     0.134 A 
ATOM     81  F   UNL A   1      45.198  33.302  29.214  1.00  0.00    -0.206 F 
ATOM     82  C   UNL A   1      45.565  34.613  31.126  1.00  0.00     0.040 A 
ATOM     83  C   UNL A   1      45.185  33.685  33.316  1.00  0.00     0.040 A 
ATOM     84  F   UNL A   1      44.477  31.461  33.542  1.00  0.00    -0.206 F 
ATOM     85  C   UNL A   1      45.562  34.759  32.512  1.00  0.00     0.006 A 
ENDBRANCH  61  78
ENDBRANCH  35  36
ENDBRANCH  27  30
ENDBRANCH  25  26
ENDBRANCH  24  25
ENDBRANCH   1  24
TORSDOF 14
ENDMDL
