MODEL 1
REMARK VINA RESULT:     -12.2      0.000      0.000
REMARK SMILES Nc1nc(SCc2c(C(=O)NCCCCNC(=O)c3ccc(-c4c5nc(c(-c6c(F)cccc6F)c6ccc([nH]6)c(-c6c(F)cccc6F)c6nc(c(-c7c(F)cccc7F)c7ccc4[nH]7)C=C6)C=C5)cc3)sc3cccc(F)c23)n[nH]1
REMARK SMILES IDX 12 1 11 2 9 3 10 4 8 6 7 7 80 8 73 9 74 10 78 11 75 12 77 13
REMARK SMILES IDX 79 14 76 15 6 16 5 17 4 18 2 19 3 20 82 21 81 22 1 24 13 27
REMARK SMILES IDX 14 28 15 29 16 30 17 31 18 33 19 34 20 35 72 36 21 37 71 38
REMARK SMILES IDX 22 39 23 40 24 41 65 42 25 43 70 44 64 45 66 46 26 47 69 48
REMARK SMILES IDX 63 49 62 50 27 52 53 53 36 54 52 55 37 56 40 57 51 58 67 59
REMARK SMILES IDX 38 60 39 61 50 63 68 64 41 65 28 66 29 67 34 68 30 69 31 70
REMARK SMILES IDX 33 71 35 72 32 73 54 74 55 75 60 76 56 77 57 78 59 79 61 80
REMARK SMILES IDX 58 81 42 82 43 83 48 84 44 85 45 86 47 87 49 88 46 89
REMARK H PARENT 11 5 82 23 1 25 1 26 16 32 66 51 40 62
REMARK Flexibility Score: inf
ROOT
ATOM      1  C   UNL A   1      33.972  27.245  25.172  1.00  0.00     0.116 C 
ENDROOT
BRANCH   1   2
ATOM      2  N   UNL A   1      33.974  27.076  23.728  1.00  0.00    -0.351 N 
ATOM      3  C   UNL A   1      33.528  26.061  22.906  1.00  0.00     0.261 C 
ATOM      4  O   UNL A   1      33.557  26.289  21.691  1.00  0.00    -0.268 OA
ATOM      5  H   UNL A   1      34.370  27.835  23.242  1.00  0.00     0.163 HD
BRANCH   3   6
ATOM      6  C   UNL A   1      33.154  24.783  23.457  1.00  0.00     0.097 A 
ATOM      7  C   UNL A   1      31.967  24.213  23.894  1.00  0.00    -0.003 A 
ATOM      8  C   UNL A   1      32.351  23.473  25.105  1.00  0.00     0.033 A 
ATOM      9  S   UNL A   1      34.374  23.564  23.554  1.00  0.00    -0.130 S 
ATOM     10  C   UNL A   1      33.654  22.974  24.994  1.00  0.00     0.038 A 
ATOM     11  C   UNL A   1      31.688  23.207  26.328  1.00  0.00     0.132 A 
ATOM     12  C   UNL A   1      34.255  22.155  25.969  1.00  0.00     0.020 A 
ATOM     13  C   UNL A   1      32.328  22.520  27.370  1.00  0.00     0.040 A 
ATOM     14  F   UNL A   1      30.478  23.738  26.562  1.00  0.00    -0.206 F 
ATOM     15  C   UNL A   1      33.591  21.974  27.181  1.00  0.00     0.005 A 
BRANCH   7  16
ATOM     16  C   UNL A   1      30.555  24.527  23.463  1.00  0.00     0.116 C 
BRANCH  16  17
ATOM     17  S   UNL A   1      29.717  25.979  24.162  1.00  0.00    -0.080 SA
BRANCH  17  18
ATOM     18  C   UNL A   1      30.310  27.503  23.549  1.00  0.00     0.210 A 
ATOM     19  C   UNL A   1      30.668  29.207  22.348  1.00  0.00     0.216 A 
ATOM     20  N   UNL A   1      30.361  27.931  22.249  1.00  0.00    -0.186 NA
ATOM     21  N   UNL A   1      31.042  29.453  23.635  1.00  0.00    -0.245 N 
ATOM     22  N   UNL A   1      30.840  28.380  24.415  1.00  0.00    -0.145 NA
ATOM     23  H   UNL A   1      31.412  30.308  23.952  1.00  0.00     0.193 HD
BRANCH  19  24
ATOM     24  N   UNL A   1      30.572  30.195  21.441  1.00  0.00    -0.368 N 
ATOM     25  H   UNL A   1      31.206  30.236  20.689  1.00  0.00     0.159 HD
ATOM     26  H   UNL A   1      29.869  30.878  21.530  1.00  0.00     0.159 HD
ENDBRANCH  19  24
ENDBRANCH  17  18
ENDBRANCH  16  17
ENDBRANCH   7  16
ENDBRANCH   3   6
ENDBRANCH   1   2
BRANCH   1  27
ATOM     27  C   UNL A   1      34.072  28.708  25.635  1.00  0.00     0.023 C 
BRANCH  27  28
ATOM     28  C   UNL A   1      34.186  28.950  27.155  1.00  0.00     0.023 C 
BRANCH  28  29
ATOM     29  C   UNL A   1      35.474  29.607  27.661  1.00  0.00     0.116 C 
BRANCH  29  30
ATOM     30  N   UNL A   1      35.512  29.784  29.105  1.00  0.00    -0.352 N 
ATOM     31  C   UNL A   1      36.490  29.440  30.008  1.00  0.00     0.251 C 
ATOM     32  H   UNL A   1      34.716  30.215  29.494  1.00  0.00     0.163 HD
ATOM     33  O   UNL A   1      36.223  29.491  31.214  1.00  0.00    -0.269 OA
BRANCH  31  34
ATOM     34  C   UNL A   1      37.860  29.038  29.594  1.00  0.00     0.039 A 
ATOM     35  C   UNL A   1      38.516  28.027  30.315  1.00  0.00     0.014 A 
ATOM     36  C   UNL A   1      38.554  29.715  28.585  1.00  0.00     0.014 A 
ATOM     37  C   UNL A   1      39.846  27.720  30.034  1.00  0.00     0.010 A 
ATOM     38  C   UNL A   1      39.859  29.379  28.268  1.00  0.00     0.010 A 
ATOM     39  C   UNL A   1      40.518  28.418  29.022  1.00  0.00    -0.014 A 
BRANCH  39  40
ATOM     40  C   UNL A   1      41.899  28.083  28.704  1.00  0.00     0.031 A 
ATOM     41  C   UNL A   1      42.070  26.842  27.906  1.00  0.00     0.074 A 
ATOM     42  C   UNL A   1      42.951  28.885  28.961  1.00  0.00     0.049 A 
ATOM     43  N   UNL A   1      42.527  25.705  28.312  1.00  0.00    -0.248 NA
ATOM     44  C   UNL A   1      41.568  26.826  26.526  1.00  0.00     0.031 C 
ATOM     45  C   UNL A   1      42.962  30.270  29.441  1.00  0.00     0.029 A 
ATOM     46  N   UNL A   1      44.273  28.619  28.773  1.00  0.00    -0.354 N 
ATOM     47  C   UNL A   1      42.545  24.871  27.197  1.00  0.00     0.074 A 
ATOM     48  C   UNL A   1      41.801  25.559  26.174  1.00  0.00     0.031 C 
ATOM     49  C   UNL A   1      44.210  30.779  29.316  1.00  0.00     0.029 A 
ATOM     50  C   UNL A   1      45.113  29.718  28.899  1.00  0.00     0.049 A 
ATOM     51  H   UNL A   1      44.609  27.717  28.565  1.00  0.00     0.167 HD
ATOM     52  C   UNL A   1      43.357  23.777  27.153  1.00  0.00     0.037 A 
ATOM     53  C   UNL A   1      46.447  29.745  28.653  1.00  0.00     0.037 A 
ATOM     54  C   UNL A   1      43.869  23.460  28.466  1.00  0.00     0.049 A 
ATOM     55  C   UNL A   1      46.941  28.346  28.719  1.00  0.00     0.074 A 
ATOM     56  C   UNL A   1      43.307  23.110  29.678  1.00  0.00     0.029 A 
ATOM     57  N   UNL A   1      45.156  23.846  28.754  1.00  0.00    -0.354 N 
ATOM     58  N   UNL A   1      47.003  27.652  29.820  1.00  0.00    -0.248 NA
ATOM     59  C   UNL A   1      46.936  27.567  27.490  1.00  0.00     0.031 C 
ATOM     60  C   UNL A   1      44.102  23.779  30.657  1.00  0.00     0.029 A 
ATOM     61  C   UNL A   1      45.132  24.440  29.988  1.00  0.00     0.049 A 
ATOM     62  H   UNL A   1      45.946  23.720  28.181  1.00  0.00     0.167 HD
ATOM     63  C   UNL A   1      46.594  26.379  29.456  1.00  0.00     0.074 A 
ATOM     64  C   UNL A   1      46.655  26.362  27.996  1.00  0.00     0.031 C 
ATOM     65  C   UNL A   1      45.975  25.554  30.351  1.00  0.00     0.037 A 
BRANCH  52  66
ATOM     66  C   UNL A   1      44.013  23.222  25.908  1.00  0.00     0.057 A 
ATOM     67  C   UNL A   1      44.961  23.913  25.131  1.00  0.00     0.134 A 
ATOM     68  C   UNL A   1      43.944  21.834  25.670  1.00  0.00     0.134 A 
ATOM     69  F   UNL A   1      45.175  25.227  25.253  1.00  0.00    -0.206 F 
ATOM     70  C   UNL A   1      45.827  23.265  24.244  1.00  0.00     0.040 A 
ATOM     71  C   UNL A   1      44.839  21.171  24.823  1.00  0.00     0.040 A 
ATOM     72  F   UNL A   1      43.065  21.063  26.329  1.00  0.00    -0.206 F 
ATOM     73  C   UNL A   1      45.799  21.885  24.121  1.00  0.00     0.006 A 
ENDBRANCH  52  66
BRANCH  53  74
ATOM     74  C   UNL A   1      47.275  30.838  28.096  1.00  0.00     0.057 A 
ATOM     75  C   UNL A   1      48.296  31.432  28.857  1.00  0.00     0.134 A 
ATOM     76  C   UNL A   1      46.895  31.522  26.932  1.00  0.00     0.134 A 
ATOM     77  F   UNL A   1      48.687  30.899  30.024  1.00  0.00    -0.206 F 
ATOM     78  C   UNL A   1      48.886  32.649  28.498  1.00  0.00     0.040 A 
ATOM     79  C   UNL A   1      47.477  32.744  26.562  1.00  0.00     0.040 A 
ATOM     80  F   UNL A   1      45.902  31.057  26.161  1.00  0.00    -0.206 F 
ATOM     81  C   UNL A   1      48.466  33.317  27.355  1.00  0.00     0.006 A 
ENDBRANCH  53  74
BRANCH  65  82
ATOM     82  C   UNL A   1      45.974  25.968  31.797  1.00  0.00     0.057 A 
ATOM     83  C   UNL A   1      44.894  26.712  32.283  1.00  0.00     0.134 A 
ATOM     84  C   UNL A   1      47.050  25.766  32.676  1.00  0.00     0.134 A 
ATOM     85  F   UNL A   1      43.855  26.997  31.483  1.00  0.00    -0.206 F 
ATOM     86  C   UNL A   1      44.872  27.215  33.585  1.00  0.00     0.040 A 
ATOM     87  C   UNL A   1      47.025  26.234  33.993  1.00  0.00     0.040 A 
ATOM     88  F   UNL A   1      48.171  25.155  32.273  1.00  0.00    -0.206 F 
ATOM     89  C   UNL A   1      45.934  26.966  34.450  1.00  0.00     0.006 A 
ENDBRANCH  65  82
ENDBRANCH  39  40
ENDBRANCH  31  34
ENDBRANCH  29  30
ENDBRANCH  28  29
ENDBRANCH  27  28
ENDBRANCH   1  27
TORSDOF 15
ENDMDL
MODEL 2
REMARK VINA RESULT:     -12.0      4.062      8.137
REMARK SMILES Nc1nc(SCc2c(C(=O)NCCCCNC(=O)c3ccc(-c4c5nc(c(-c6c(F)cccc6F)c6ccc([nH]6)c(-c6c(F)cccc6F)c6nc(c(-c7c(F)cccc7F)c7ccc4[nH]7)C=C6)C=C5)cc3)sc3cccc(F)c23)n[nH]1
REMARK SMILES IDX 12 1 11 2 9 3 10 4 8 6 7 7 80 8 73 9 74 10 78 11 75 12 77 13
REMARK SMILES IDX 79 14 76 15 6 16 5 17 4 18 2 19 3 20 82 21 81 22 1 24 13 27
REMARK SMILES IDX 14 28 15 29 16 30 17 31 18 33 19 34 20 35 72 36 21 37 71 38
REMARK SMILES IDX 22 39 23 40 24 41 65 42 25 43 70 44 64 45 66 46 26 47 69 48
REMARK SMILES IDX 63 49 62 50 27 52 53 53 36 54 52 55 37 56 40 57 51 58 67 59
REMARK SMILES IDX 38 60 39 61 50 63 68 64 41 65 28 66 29 67 34 68 30 69 31 70
REMARK SMILES IDX 33 71 35 72 32 73 54 74 55 75 60 76 56 77 57 78 59 79 61 80
REMARK SMILES IDX 58 81 42 82 43 83 48 84 44 85 45 86 47 87 49 88 46 89
REMARK H PARENT 11 5 82 23 1 25 1 26 16 32 66 51 40 62
REMARK Flexibility Score: inf
ROOT
ATOM      1  C   UNL A   1      36.359  23.727  25.734  1.00  0.00     0.116 C 
ENDROOT
BRANCH   1   2
ATOM      2  N   UNL A   1      35.430  23.210  26.724  1.00  0.00    -0.351 N 
ATOM      3  C   UNL A   1      34.051  23.167  26.779  1.00  0.00     0.261 C 
ATOM      4  O   UNL A   1      33.561  22.528  27.717  1.00  0.00    -0.268 OA
ATOM      5  H   UNL A   1      35.870  22.813  27.509  1.00  0.00     0.163 HD
BRANCH   3   6
ATOM      6  C   UNL A   1      33.257  23.920  25.840  1.00  0.00     0.097 A 
ATOM      7  C   UNL A   1      32.491  23.603  24.728  1.00  0.00    -0.003 A 
ATOM      8  C   UNL A   1      32.790  24.677  23.771  1.00  0.00     0.033 A 
ATOM      9  S   UNL A   1      33.067  25.612  26.128  1.00  0.00    -0.130 S 
ATOM     10  C   UNL A   1      33.036  25.885  24.436  1.00  0.00     0.038 A 
ATOM     11  C   UNL A   1      32.902  24.713  22.359  1.00  0.00     0.132 A 
ATOM     12  C   UNL A   1      33.267  27.102  23.768  1.00  0.00     0.020 A 
ATOM     13  C   UNL A   1      33.278  25.885  21.688  1.00  0.00     0.040 A 
ATOM     14  F   UNL A   1      32.787  23.580  21.650  1.00  0.00    -0.206 F 
ATOM     15  C   UNL A   1      33.432  27.077  22.385  1.00  0.00     0.005 A 
BRANCH   7  16
ATOM     16  C   UNL A   1      31.782  22.309  24.408  1.00  0.00     0.116 C 
BRANCH  16  17
ATOM     17  S   UNL A   1      32.747  20.897  23.794  1.00  0.00    -0.080 SA
BRANCH  17  18
ATOM     18  C   UNL A   1      32.637  19.472  24.797  1.00  0.00     0.210 A 
ATOM     19  C   UNL A   1      32.527  17.474  25.480  1.00  0.00     0.216 A 
ATOM     20  N   UNL A   1      32.197  18.224  24.450  1.00  0.00    -0.186 NA
ATOM     21  N   UNL A   1      32.903  18.297  26.499  1.00  0.00    -0.245 N 
ATOM     22  N   UNL A   1      32.964  19.576  26.094  1.00  0.00    -0.145 NA
ATOM     23  H   UNL A   1      33.104  17.993  27.413  1.00  0.00     0.193 HD
BRANCH  19  24
ATOM     24  N   UNL A   1      32.611  16.136  25.588  1.00  0.00    -0.368 N 
ATOM     25  H   UNL A   1      32.770  15.723  26.467  1.00  0.00     0.159 HD
ATOM     26  H   UNL A   1      32.514  15.570  24.788  1.00  0.00     0.159 HD
ENDBRANCH  19  24
ENDBRANCH  17  18
ENDBRANCH  16  17
ENDBRANCH   7  16
ENDBRANCH   3   6
ENDBRANCH   1   2
BRANCH   1  27
ATOM     27  C   UNL A   1      37.838  23.615  26.138  1.00  0.00     0.023 C 
BRANCH  27  28
ATOM     28  C   UNL A   1      38.580  22.329  25.714  1.00  0.00     0.023 C 
BRANCH  28  29
ATOM     29  C   UNL A   1      39.682  21.821  26.648  1.00  0.00     0.116 C 
BRANCH  29  30
ATOM     30  N   UNL A   1      41.017  21.897  26.072  1.00  0.00    -0.352 N 
ATOM     31  C   UNL A   1      41.862  22.975  25.951  1.00  0.00     0.251 C 
ATOM     32  H   UNL A   1      41.367  21.049  25.716  1.00  0.00     0.163 HD
ATOM     33  O   UNL A   1      42.865  22.860  25.238  1.00  0.00    -0.269 OA
BRANCH  31  34
ATOM     34  C   UNL A   1      41.633  24.260  26.663  1.00  0.00     0.039 A 
ATOM     35  C   UNL A   1      41.008  25.313  25.974  1.00  0.00     0.014 A 
ATOM     36  C   UNL A   1      42.124  24.486  27.953  1.00  0.00     0.014 A 
ATOM     37  C   UNL A   1      40.897  26.567  26.571  1.00  0.00     0.010 A 
ATOM     38  C   UNL A   1      41.971  25.716  28.569  1.00  0.00     0.010 A 
ATOM     39  C   UNL A   1      41.403  26.767  27.863  1.00  0.00    -0.014 A 
BRANCH  39  40
ATOM     40  C   UNL A   1      41.265  28.067  28.503  1.00  0.00     0.031 A 
ATOM     41  C   UNL A   1      42.341  29.037  28.179  1.00  0.00     0.074 A 
ATOM     42  C   UNL A   1      40.187  28.450  29.215  1.00  0.00     0.049 A 
ATOM     43  N   UNL A   1      43.296  29.438  28.951  1.00  0.00    -0.248 NA
ATOM     44  C   UNL A   1      42.439  29.535  26.800  1.00  0.00     0.031 C 
ATOM     45  C   UNL A   1      38.899  27.770  29.380  1.00  0.00     0.029 A 
ATOM     46  N   UNL A   1      40.010  29.607  29.911  1.00  0.00    -0.354 N 
ATOM     47  C   UNL A   1      44.018  30.380  28.222  1.00  0.00     0.074 A 
ATOM     48  C   UNL A   1      43.545  30.280  26.865  1.00  0.00     0.031 C 
ATOM     49  C   UNL A   1      38.014  28.616  29.958  1.00  0.00     0.029 A 
ATOM     50  C   UNL A   1      38.710  29.832  30.346  1.00  0.00     0.049 A 
ATOM     51  H   UNL A   1      40.746  30.235  30.093  1.00  0.00     0.167 HD
ATOM     52  C   UNL A   1      44.794  31.308  28.851  1.00  0.00     0.037 A 
ATOM     53  C   UNL A   1      38.248  30.953  30.957  1.00  0.00     0.037 A 
ATOM     54  C   UNL A   1      45.005  30.952  30.234  1.00  0.00     0.049 A 
ATOM     55  C   UNL A   1      39.420  31.665  31.526  1.00  0.00     0.074 A 
ATOM     56  C   UNL A   1      45.583  29.886  30.895  1.00  0.00     0.029 A 
ATOM     57  N   UNL A   1      44.248  31.605  31.178  1.00  0.00    -0.354 N 
ATOM     58  N   UNL A   1      40.119  31.220  32.532  1.00  0.00    -0.248 NA
ATOM     59  C   UNL A   1      40.091  32.646  30.686  1.00  0.00     0.031 C 
ATOM     60  C   UNL A   1      44.752  29.668  32.036  1.00  0.00     0.029 A 
ATOM     61  C   UNL A   1      43.762  30.652  32.034  1.00  0.00     0.049 A 
ATOM     62  H   UNL A   1      44.085  32.573  31.229  1.00  0.00     0.167 HD
ATOM     63  C   UNL A   1      41.434  31.505  32.200  1.00  0.00     0.074 A 
ATOM     64  C   UNL A   1      41.349  32.465  31.100  1.00  0.00     0.031 C 
ATOM     65  C   UNL A   1      42.461  30.728  32.653  1.00  0.00     0.037 A 
BRANCH  52  66
ATOM     66  C   UNL A   1      45.043  32.718  28.362  1.00  0.00     0.057 A 
ATOM     67  C   UNL A   1      44.083  33.747  28.377  1.00  0.00     0.134 A 
ATOM     68  C   UNL A   1      46.374  33.146  28.185  1.00  0.00     0.134 A 
ATOM     69  F   UNL A   1      42.780  33.516  28.565  1.00  0.00    -0.206 F 
ATOM     70  C   UNL A   1      44.426  35.100  28.300  1.00  0.00     0.040 A 
ATOM     71  C   UNL A   1      46.732  34.499  28.158  1.00  0.00     0.040 A 
ATOM     72  F   UNL A   1      47.383  32.262  28.129  1.00  0.00    -0.206 F 
ATOM     73  C   UNL A   1      45.757  35.483  28.236  1.00  0.00     0.006 A 
ENDBRANCH  52  66
BRANCH  53  74
ATOM     74  C   UNL A   1      36.920  31.597  30.852  1.00  0.00     0.057 A 
ATOM     75  C   UNL A   1      36.547  32.303  29.696  1.00  0.00     0.134 A 
ATOM     76  C   UNL A   1      36.111  31.793  31.982  1.00  0.00     0.134 A 
ATOM     77  F   UNL A   1      37.291  32.244  28.581  1.00  0.00    -0.206 F 
ATOM     78  C   UNL A   1      35.451  33.173  29.670  1.00  0.00     0.040 A 
ATOM     79  C   UNL A   1      35.012  32.664  31.969  1.00  0.00     0.040 A 
ATOM     80  F   UNL A   1      36.409  31.195  33.144  1.00  0.00    -0.206 F 
ATOM     81  C   UNL A   1      34.689  33.368  30.814  1.00  0.00     0.006 A 
ENDBRANCH  53  74
BRANCH  65  82
ATOM     82  C   UNL A   1      42.149  29.710  33.716  1.00  0.00     0.057 A 
ATOM     83  C   UNL A   1      42.393  30.039  35.053  1.00  0.00     0.134 A 
ATOM     84  C   UNL A   1      41.742  28.394  33.451  1.00  0.00     0.134 A 
ATOM     85  F   UNL A   1      42.842  31.261  35.378  1.00  0.00    -0.206 F 
ATOM     86  C   UNL A   1      42.222  29.111  36.083  1.00  0.00     0.040 A 
ATOM     87  C   UNL A   1      41.533  27.465  34.476  1.00  0.00     0.040 A 
ATOM     88  F   UNL A   1      41.583  27.954  32.196  1.00  0.00    -0.206 F 
ATOM     89  C   UNL A   1      41.778  27.822  35.797  1.00  0.00     0.006 A 
ENDBRANCH  65  82
ENDBRANCH  39  40
ENDBRANCH  31  34
ENDBRANCH  29  30
ENDBRANCH  28  29
ENDBRANCH  27  28
ENDBRANCH   1  27
TORSDOF 15
ENDMDL
MODEL 3
REMARK VINA RESULT:     -12.0      2.020      6.176
REMARK SMILES Nc1nc(SCc2c(C(=O)NCCCCNC(=O)c3ccc(-c4c5nc(c(-c6c(F)cccc6F)c6ccc([nH]6)c(-c6c(F)cccc6F)c6nc(c(-c7c(F)cccc7F)c7ccc4[nH]7)C=C6)C=C5)cc3)sc3cccc(F)c23)n[nH]1
REMARK SMILES IDX 12 1 11 2 9 3 10 4 8 6 7 7 80 8 73 9 74 10 78 11 75 12 77 13
REMARK SMILES IDX 79 14 76 15 6 16 5 17 4 18 2 19 3 20 82 21 81 22 1 24 13 27
REMARK SMILES IDX 14 28 15 29 16 30 17 31 18 33 19 34 20 35 72 36 21 37 71 38
REMARK SMILES IDX 22 39 23 40 24 41 65 42 25 43 70 44 64 45 66 46 26 47 69 48
REMARK SMILES IDX 63 49 62 50 27 52 53 53 36 54 52 55 37 56 40 57 51 58 67 59
REMARK SMILES IDX 38 60 39 61 50 63 68 64 41 65 28 66 29 67 34 68 30 69 31 70
REMARK SMILES IDX 33 71 35 72 32 73 54 74 55 75 60 76 56 77 57 78 59 79 61 80
REMARK SMILES IDX 58 81 42 82 43 83 48 84 44 85 45 86 47 87 49 88 46 89
REMARK H PARENT 11 5 82 23 1 25 1 26 16 32 66 51 40 62
REMARK Flexibility Score: inf
ROOT
ATOM      1  C   UNL A   1      33.928  28.274  26.480  1.00  0.00     0.116 C 
ENDROOT
BRANCH   1   2
ATOM      2  N   UNL A   1      34.059  28.752  25.114  1.00  0.00    -0.351 N 
ATOM      3  C   UNL A   1      33.588  28.273  23.908  1.00  0.00     0.261 C 
ATOM      4  O   UNL A   1      33.768  29.000  22.923  1.00  0.00    -0.268 OA
ATOM      5  H   UNL A   1      34.587  29.578  25.033  1.00  0.00     0.163 HD
BRANCH   3   6
ATOM      6  C   UNL A   1      33.016  26.953  23.816  1.00  0.00     0.097 A 
ATOM      7  C   UNL A   1      31.925  26.316  24.389  1.00  0.00    -0.003 A 
ATOM      8  C   UNL A   1      32.421  24.966  24.694  1.00  0.00     0.033 A 
ATOM      9  S   UNL A   1      33.716  25.853  22.683  1.00  0.00    -0.130 S 
ATOM     10  C   UNL A   1      33.366  24.554  23.746  1.00  0.00     0.038 A 
ATOM     11  C   UNL A   1      32.157  24.051  25.743  1.00  0.00     0.132 A 
ATOM     12  C   UNL A   1      33.948  23.272  23.740  1.00  0.00     0.020 A 
ATOM     13  C   UNL A   1      32.839  22.830  25.834  1.00  0.00     0.040 A 
ATOM     14  F   UNL A   1      31.346  24.406  26.752  1.00  0.00    -0.206 F 
ATOM     15  C   UNL A   1      33.707  22.432  24.825  1.00  0.00     0.005 A 
BRANCH   7  16
ATOM     16  C   UNL A   1      30.642  26.921  24.904  1.00  0.00     0.116 C 
BRANCH  16  17
ATOM     17  S   UNL A   1      29.285  27.246  23.740  1.00  0.00    -0.080 SA
BRANCH  17  18
ATOM     18  C   UNL A   1      29.494  28.701  22.797  1.00  0.00     0.210 A 
ATOM     19  C   UNL A   1      29.384  30.686  22.076  1.00  0.00     0.216 A 
ATOM     20  N   UNL A   1      28.673  29.795  22.733  1.00  0.00    -0.186 NA
ATOM     21  N   UNL A   1      30.468  30.054  21.545  1.00  0.00    -0.245 N 
ATOM     22  N   UNL A   1      30.551  28.785  21.975  1.00  0.00    -0.145 NA
ATOM     23  H   UNL A   1      31.108  30.474  20.926  1.00  0.00     0.193 HD
BRANCH  19  24
ATOM     24  N   UNL A   1      29.220  32.016  21.965  1.00  0.00    -0.368 N 
ATOM     25  H   UNL A   1      28.544  32.476  22.512  1.00  0.00     0.159 HD
ATOM     26  H   UNL A   1      29.776  32.529  21.335  1.00  0.00     0.159 HD
ENDBRANCH  19  24
ENDBRANCH  17  18
ENDBRANCH  16  17
ENDBRANCH   7  16
ENDBRANCH   3   6
ENDBRANCH   1   2
BRANCH   1  27
ATOM     27  C   UNL A   1      32.951  29.091  27.341  1.00  0.00     0.023 C 
BRANCH  27  28
ATOM     28  C   UNL A   1      32.920  30.616  27.102  1.00  0.00     0.023 C 
BRANCH  28  29
ATOM     29  C   UNL A   1      34.207  31.392  27.396  1.00  0.00     0.116 C 
BRANCH  29  30
ATOM     30  N   UNL A   1      34.206  32.057  28.691  1.00  0.00    -0.352 N 
ATOM     31  C   UNL A   1      35.049  31.892  29.764  1.00  0.00     0.251 C 
ATOM     32  H   UNL A   1      33.493  32.725  28.817  1.00  0.00     0.163 HD
ATOM     33  O   UNL A   1      34.737  32.409  30.843  1.00  0.00    -0.269 OA
BRANCH  31  34
ATOM     34  C   UNL A   1      36.331  31.145  29.672  1.00  0.00     0.039 A 
ATOM     35  C   UNL A   1      36.305  29.744  29.762  1.00  0.00     0.014 A 
ATOM     36  C   UNL A   1      37.565  31.801  29.615  1.00  0.00     0.014 A 
ATOM     37  C   UNL A   1      37.498  29.026  29.809  1.00  0.00     0.010 A 
ATOM     38  C   UNL A   1      38.752  31.089  29.611  1.00  0.00     0.010 A 
ATOM     39  C   UNL A   1      38.721  29.710  29.757  1.00  0.00    -0.014 A 
BRANCH  39  40
ATOM     40  C   UNL A   1      39.971  28.964  29.777  1.00  0.00     0.031 A 
ATOM     41  C   UNL A   1      40.558  28.771  31.127  1.00  0.00     0.074 A 
ATOM     42  C   UNL A   1      40.504  28.351  28.702  1.00  0.00     0.049 A 
ATOM     43  N   UNL A   1      41.602  29.351  31.619  1.00  0.00    -0.248 NA
ATOM     44  C   UNL A   1      39.837  27.924  32.087  1.00  0.00     0.031 C 
ATOM     45  C   UNL A   1      39.926  28.151  27.371  1.00  0.00     0.029 A 
ATOM     46  N   UNL A   1      41.700  27.706  28.613  1.00  0.00    -0.354 N 
ATOM     47  C   UNL A   1      41.786  28.810  32.890  1.00  0.00     0.074 A 
ATOM     48  C   UNL A   1      40.589  28.064  33.181  1.00  0.00     0.031 C 
ATOM     49  C   UNL A   1      40.684  27.268  26.678  1.00  0.00     0.029 A 
ATOM     50  C   UNL A   1      41.877  26.965  27.452  1.00  0.00     0.049 A 
ATOM     51  H   UNL A   1      42.386  27.761  29.316  1.00  0.00     0.167 HD
ATOM     52  C   UNL A   1      43.004  28.855  33.500  1.00  0.00     0.037 A 
ATOM     53  C   UNL A   1      42.923  26.147  27.170  1.00  0.00     0.037 A 
ATOM     54  C   UNL A   1      43.884  29.782  32.830  1.00  0.00     0.049 A 
ATOM     55  C   UNL A   1      44.053  26.550  28.045  1.00  0.00     0.074 A 
ATOM     56  C   UNL A   1      43.863  31.139  32.568  1.00  0.00     0.029 A 
ATOM     57  N   UNL A   1      44.830  29.258  31.982  1.00  0.00    -0.354 N 
ATOM     58  N   UNL A   1      44.700  27.674  27.920  1.00  0.00    -0.248 NA
ATOM     59  C   UNL A   1      44.164  25.908  29.347  1.00  0.00     0.031 C 
ATOM     60  C   UNL A   1      44.410  31.267  31.256  1.00  0.00     0.029 A 
ATOM     61  C   UNL A   1      44.789  29.994  30.828  1.00  0.00     0.049 A 
ATOM     62  H   UNL A   1      45.424  28.497  32.169  1.00  0.00     0.167 HD
ATOM     63  C   UNL A   1      44.916  28.102  29.220  1.00  0.00     0.074 A 
ATOM     64  C   UNL A   1      44.649  26.933  30.055  1.00  0.00     0.031 C 
ATOM     65  C   UNL A   1      45.014  29.431  29.518  1.00  0.00     0.037 A 
BRANCH  52  66
ATOM     66  C   UNL A   1      43.550  27.804  34.441  1.00  0.00     0.057 A 
ATOM     67  C   UNL A   1      43.948  26.513  34.049  1.00  0.00     0.134 A 
ATOM     68  C   UNL A   1      44.005  28.208  35.713  1.00  0.00     0.134 A 
ATOM     69  F   UNL A   1      43.629  25.988  32.862  1.00  0.00    -0.206 F 
ATOM     70  C   UNL A   1      44.795  25.715  34.825  1.00  0.00     0.040 A 
ATOM     71  C   UNL A   1      44.893  27.439  36.474  1.00  0.00     0.040 A 
ATOM     72  F   UNL A   1      43.676  29.409  36.216  1.00  0.00    -0.206 F 
ATOM     73  C   UNL A   1      45.308  26.195  36.021  1.00  0.00     0.006 A 
ENDBRANCH  52  66
BRANCH  53  74
ATOM     74  C   UNL A   1      42.941  24.877  26.411  1.00  0.00     0.057 A 
ATOM     75  C   UNL A   1      42.356  23.711  26.935  1.00  0.00     0.134 A 
ATOM     76  C   UNL A   1      43.782  24.699  25.303  1.00  0.00     0.134 A 
ATOM     77  F   UNL A   1      41.592  23.759  28.037  1.00  0.00    -0.206 F 
ATOM     78  C   UNL A   1      42.614  22.441  26.408  1.00  0.00     0.040 A 
ATOM     79  C   UNL A   1      44.050  23.431  24.766  1.00  0.00     0.040 A 
ATOM     80  F   UNL A   1      44.419  25.745  24.756  1.00  0.00    -0.206 F 
ATOM     81  C   UNL A   1      43.476  22.296  25.329  1.00  0.00     0.006 A 
ENDBRANCH  53  74
BRANCH  65  82
ATOM     82  C   UNL A   1      45.130  30.397  28.370  1.00  0.00     0.057 A 
ATOM     83  C   UNL A   1      46.401  30.829  27.981  1.00  0.00     0.134 A 
ATOM     84  C   UNL A   1      44.033  30.998  27.733  1.00  0.00     0.134 A 
ATOM     85  F   UNL A   1      47.496  30.343  28.586  1.00  0.00    -0.206 F 
ATOM     86  C   UNL A   1      46.579  31.799  26.992  1.00  0.00     0.040 A 
ATOM     87  C   UNL A   1      44.198  31.945  26.717  1.00  0.00     0.040 A 
ATOM     88  F   UNL A   1      42.777  30.727  28.107  1.00  0.00    -0.206 F 
ATOM     89  C   UNL A   1      45.475  32.351  26.346  1.00  0.00     0.006 A 
ENDBRANCH  65  82
ENDBRANCH  39  40
ENDBRANCH  31  34
ENDBRANCH  29  30
ENDBRANCH  28  29
ENDBRANCH  27  28
ENDBRANCH   1  27
TORSDOF 15
ENDMDL
