MODEL 1
REMARK VINA RESULT:     -12.5      0.000      0.000
REMARK SMILES Cc1ccc(C[C@@H](Cc2cc(F)cc(Br)c2)C(=O)NCCCCNC(=O)c2ccc(-c3c4nc(c(-c5c(F)cccc5F)c5ccc([nH]5)c(-c5c(F)cccc5F)c5nc(c(-c6c(F)cccc6F)c6ccc3[nH]6)C=C5)C=C4)cc2)cc1
REMARK SMILES IDX 21 1 20 2 19 3 17 4 18 5 7 7 6 8 5 9 1 10 2 11 3 12 82 13
REMARK SMILES IDX 4 14 81 15 8 16 9 17 10 18 16 19 11 20 14 21 12 22 13 23
REMARK SMILES IDX 15 24 22 25 23 26 24 27 25 28 26 30 27 31 28 32 80 33 29 34
REMARK SMILES IDX 79 35 30 36 31 37 32 38 73 39 33 40 78 41 72 42 74 43 34 44
REMARK SMILES IDX 77 45 71 46 70 47 35 49 61 50 44 51 60 52 45 53 48 54 59 55
REMARK SMILES IDX 75 56 46 57 47 58 58 60 76 61 49 62 36 63 37 64 42 65 38 66
REMARK SMILES IDX 39 67 41 68 43 69 40 70 62 71 63 72 68 73 64 74 65 75 67 76
REMARK SMILES IDX 69 77 66 78 50 79 51 80 56 81 52 82 53 83 55 84 57 85 54 86
REMARK H PARENT 19 6 24 29 74 48 48 59
REMARK Flexibility Score: inf
ROOT
ATOM      1  C   UNL A   1      31.945  30.615  26.125  1.00  0.00     0.023 C 
ENDROOT
BRANCH   1   2
ATOM      2  C   UNL A   1      31.636  29.709  24.926  1.00  0.00     0.116 C 
BRANCH   2   3
ATOM      3  N   UNL A   1      32.782  29.581  24.042  1.00  0.00    -0.356 N 
ATOM      4  C   UNL A   1      33.428  28.487  23.560  1.00  0.00     0.223 C 
ATOM      5  O   UNL A   1      34.381  28.682  22.800  1.00  0.00    -0.275 OA
ATOM      6  H   UNL A   1      33.158  30.440  23.739  1.00  0.00     0.163 HD
BRANCH   4   7
ATOM      7  C   UNL A   1      33.013  27.070  23.924  1.00  0.00     0.087 C 
BRANCH   7   8
ATOM      8  C   UNL A   1      33.517  26.148  22.785  1.00  0.00     0.049 C 
BRANCH   8   9
ATOM      9  C   UNL A   1      33.243  24.664  22.851  1.00  0.00    -0.047 A 
ATOM     10  C   UNL A   1      32.444  20.471  23.548  1.00  0.00     0.044 C 
ATOM     11  C   UNL A   1      32.735  21.920  23.297  1.00  0.00    -0.051 A 
ATOM     12  C   UNL A   1      31.683  22.805  23.047  1.00  0.00     0.004 A 
ATOM     13  C   UNL A   1      34.044  22.410  23.301  1.00  0.00     0.004 A 
ATOM     14  C   UNL A   1      31.935  24.164  22.846  1.00  0.00     0.004 A 
ATOM     15  C   UNL A   1      34.296  23.768  23.076  1.00  0.00     0.004 A 
ENDBRANCH   8   9
ENDBRANCH   7   8
BRANCH   7  16
ATOM     16  C   UNL A   1      33.362  26.604  25.357  1.00  0.00     0.049 C 
BRANCH  16  17
ATOM     17  C   UNL A   1      32.856  25.334  26.014  1.00  0.00    -0.043 A 
ATOM     18  C   UNL A   1      31.463  25.227  26.176  1.00  0.00     0.043 A 
ATOM     19  C   UNL A   1      33.638  24.260  26.458  1.00  0.00     0.019 A 
ATOM     20  C   UNL A   1      30.884  24.068  26.678  1.00  0.00     0.124 A 
ATOM     21  C   UNL A   1      33.035  23.069  26.892  1.00  0.00     0.021 A 
ATOM     22  F   UNL A   1      29.557  24.029  26.835  1.00  0.00    -0.207 F 
ATOM     23  C   UNL A   1      31.654  22.965  27.000  1.00  0.00     0.055 A 
ATOM     24  Br  UNL A   1      34.113  21.566  27.289  1.00  0.00    -0.051 Br
ENDBRANCH  16  17
ENDBRANCH   7  16
ENDBRANCH   4   7
ENDBRANCH   2   3
ENDBRANCH   1   2
BRANCH   1  25
ATOM     25  C   UNL A   1      32.619  29.900  27.301  1.00  0.00     0.023 C 
BRANCH  25  26
ATOM     26  C   UNL A   1      34.134  30.045  27.307  1.00  0.00     0.116 C 
BRANCH  26  27
ATOM     27  N   UNL A   1      34.647  30.964  28.307  1.00  0.00    -0.352 N 
ATOM     28  C   UNL A   1      35.777  30.877  29.107  1.00  0.00     0.251 C 
ATOM     29  H   UNL A   1      34.106  31.776  28.439  1.00  0.00     0.163 HD
ATOM     30  O   UNL A   1      35.971  31.727  29.953  1.00  0.00    -0.269 OA
BRANCH  28  31
ATOM     31  C   UNL A   1      36.816  29.841  28.840  1.00  0.00     0.039 A 
ATOM     32  C   UNL A   1      37.080  28.917  29.861  1.00  0.00     0.014 A 
ATOM     33  C   UNL A   1      37.633  29.867  27.713  1.00  0.00     0.014 A 
ATOM     34  C   UNL A   1      38.286  28.217  29.865  1.00  0.00     0.010 A 
ATOM     35  C   UNL A   1      38.869  29.254  27.757  1.00  0.00     0.010 A 
ATOM     36  C   UNL A   1      39.217  28.480  28.863  1.00  0.00    -0.014 A 
BRANCH  36  37
ATOM     37  C   UNL A   1      40.609  28.071  28.949  1.00  0.00     0.031 A 
ATOM     38  C   UNL A   1      41.062  26.811  28.335  1.00  0.00     0.074 A 
ATOM     39  C   UNL A   1      41.504  28.873  29.565  1.00  0.00     0.049 A 
ATOM     40  N   UNL A   1      42.025  26.095  28.807  1.00  0.00    -0.248 NA
ATOM     41  C   UNL A   1      40.446  26.247  27.139  1.00  0.00     0.031 C 
ATOM     42  C   UNL A   1      42.953  28.719  29.587  1.00  0.00     0.029 A 
ATOM     43  N   UNL A   1      41.244  29.902  30.480  1.00  0.00    -0.354 N 
ATOM     44  C   UNL A   1      42.339  25.159  27.855  1.00  0.00     0.074 A 
ATOM     45  C   UNL A   1      41.281  25.237  26.872  1.00  0.00     0.031 C 
ATOM     46  C   UNL A   1      43.439  29.380  30.648  1.00  0.00     0.029 A 
ATOM     47  C   UNL A   1      42.305  29.876  31.408  1.00  0.00     0.049 A 
ATOM     48  H   UNL A   1      40.476  30.518  30.475  1.00  0.00     0.167 HD
ATOM     49  C   UNL A   1      43.537  24.517  27.897  1.00  0.00     0.037 A 
ATOM     50  C   UNL A   1      42.094  29.641  32.734  1.00  0.00     0.037 A 
ATOM     51  C   UNL A   1      44.366  24.978  29.003  1.00  0.00     0.049 A 
ATOM     52  C   UNL A   1      42.830  28.425  33.240  1.00  0.00     0.074 A 
ATOM     53  C   UNL A   1      45.373  25.927  29.070  1.00  0.00     0.029 A 
ATOM     54  N   UNL A   1      43.982  24.719  30.315  1.00  0.00    -0.354 N 
ATOM     55  N   UNL A   1      43.253  27.468  32.462  1.00  0.00    -0.248 NA
ATOM     56  C   UNL A   1      43.159  28.187  34.643  1.00  0.00     0.031 C 
ATOM     57  C   UNL A   1      45.558  26.281  30.427  1.00  0.00     0.029 A 
ATOM     58  C   UNL A   1      44.685  25.525  31.189  1.00  0.00     0.049 A 
ATOM     59  H   UNL A   1      43.306  24.055  30.582  1.00  0.00     0.167 HD
ATOM     60  C   UNL A   1      43.913  26.526  33.206  1.00  0.00     0.074 A 
ATOM     61  C   UNL A   1      43.820  27.016  34.568  1.00  0.00     0.031 C 
ATOM     62  C   UNL A   1      44.492  25.433  32.628  1.00  0.00     0.037 A 
BRANCH  49  63
ATOM     63  C   UNL A   1      44.029  23.721  26.721  1.00  0.00     0.057 A 
ATOM     64  C   UNL A   1      44.839  24.291  25.724  1.00  0.00     0.134 A 
ATOM     65  C   UNL A   1      43.675  22.377  26.509  1.00  0.00     0.134 A 
ATOM     66  F   UNL A   1      45.301  25.543  25.822  1.00  0.00    -0.206 F 
ATOM     67  C   UNL A   1      45.190  23.607  24.555  1.00  0.00     0.040 A 
ATOM     68  C   UNL A   1      43.984  21.694  25.325  1.00  0.00     0.040 A 
ATOM     69  F   UNL A   1      43.005  21.686  27.444  1.00  0.00    -0.206 F 
ATOM     70  C   UNL A   1      44.736  22.314  24.336  1.00  0.00     0.006 A 
ENDBRANCH  49  63
BRANCH  50  71
ATOM     71  C   UNL A   1      40.774  30.130  33.209  1.00  0.00     0.057 A 
ATOM     72  C   UNL A   1      40.595  31.518  33.363  1.00  0.00     0.134 A 
ATOM     73  C   UNL A   1      39.622  29.347  33.116  1.00  0.00     0.134 A 
ATOM     74  F   UNL A   1      41.661  32.329  33.455  1.00  0.00    -0.206 F 
ATOM     75  C   UNL A   1      39.332  32.111  33.304  1.00  0.00     0.040 A 
ATOM     76  C   UNL A   1      38.350  29.932  33.068  1.00  0.00     0.040 A 
ATOM     77  F   UNL A   1      39.709  28.019  32.948  1.00  0.00    -0.206 F 
ATOM     78  C   UNL A   1      38.205  31.318  33.119  1.00  0.00     0.006 A 
ENDBRANCH  50  71
BRANCH  62  79
ATOM     79  C   UNL A   1      45.037  24.226  33.345  1.00  0.00     0.057 A 
ATOM     80  C   UNL A   1      46.286  24.189  33.979  1.00  0.00     0.134 A 
ATOM     81  C   UNL A   1      44.216  23.095  33.568  1.00  0.00     0.134 A 
ATOM     82  F   UNL A   1      47.129  25.229  33.929  1.00  0.00    -0.206 F 
ATOM     83  C   UNL A   1      46.704  23.093  34.748  1.00  0.00     0.040 A 
ATOM     84  C   UNL A   1      44.601  22.023  34.375  1.00  0.00     0.040 A 
ATOM     85  F   UNL A   1      42.991  22.995  33.033  1.00  0.00    -0.206 F 
ATOM     86  C   UNL A   1      45.854  22.014  34.962  1.00  0.00     0.006 A 
ENDBRANCH  62  79
ENDBRANCH  36  37
ENDBRANCH  28  31
ENDBRANCH  26  27
ENDBRANCH  25  26
ENDBRANCH   1  25
TORSDOF 15
ENDMDL
MODEL 2
REMARK VINA RESULT:     -12.3      4.134      9.106
REMARK SMILES Cc1ccc(C[C@@H](Cc2cc(F)cc(Br)c2)C(=O)NCCCCNC(=O)c2ccc(-c3c4nc(c(-c5c(F)cccc5F)c5ccc([nH]5)c(-c5c(F)cccc5F)c5nc(c(-c6c(F)cccc6F)c6ccc3[nH]6)C=C5)C=C4)cc2)cc1
REMARK SMILES IDX 21 1 20 2 19 3 17 4 18 5 7 7 6 8 5 9 1 10 2 11 3 12 82 13
REMARK SMILES IDX 4 14 81 15 8 16 9 17 10 18 16 19 11 20 14 21 12 22 13 23
REMARK SMILES IDX 15 24 22 25 23 26 24 27 25 28 26 30 27 31 28 32 80 33 29 34
REMARK SMILES IDX 79 35 30 36 31 37 32 38 73 39 33 40 78 41 72 42 74 43 34 44
REMARK SMILES IDX 77 45 71 46 70 47 35 49 61 50 44 51 60 52 45 53 48 54 59 55
REMARK SMILES IDX 75 56 46 57 47 58 58 60 76 61 49 62 36 63 37 64 42 65 38 66
REMARK SMILES IDX 39 67 41 68 43 69 40 70 62 71 63 72 68 73 64 74 65 75 67 76
REMARK SMILES IDX 69 77 66 78 50 79 51 80 56 81 52 82 53 83 55 84 57 85 54 86
REMARK H PARENT 19 6 24 29 74 48 48 59
REMARK Flexibility Score: inf
ROOT
ATOM      1  C   UNL A   1      36.943  21.948  24.469  1.00  0.00     0.023 C 
ENDROOT
BRANCH   1   2
ATOM      2  C   UNL A   1      35.802  20.937  24.637  1.00  0.00     0.116 C 
BRANCH   2   3
ATOM      3  N   UNL A   1      35.261  20.959  25.986  1.00  0.00    -0.356 N 
ATOM      4  C   UNL A   1      34.354  21.780  26.577  1.00  0.00     0.223 C 
ATOM      5  O   UNL A   1      34.067  21.551  27.755  1.00  0.00    -0.275 OA
ATOM      6  H   UNL A   1      35.615  20.255  26.577  1.00  0.00     0.163 HD
BRANCH   4   7
ATOM      7  C   UNL A   1      33.704  22.941  25.840  1.00  0.00     0.087 C 
BRANCH   7   8
ATOM      8  C   UNL A   1      32.195  22.905  26.189  1.00  0.00     0.049 C 
BRANCH   8   9
ATOM      9  C   UNL A   1      31.256  23.894  25.538  1.00  0.00    -0.047 A 
ATOM     10  C   UNL A   1      28.976  27.023  23.612  1.00  0.00     0.044 C 
ATOM     11  C   UNL A   1      29.755  25.939  24.292  1.00  0.00    -0.051 A 
ATOM     12  C   UNL A   1      30.267  24.877  23.543  1.00  0.00     0.004 A 
ATOM     13  C   UNL A   1      29.978  25.961  25.672  1.00  0.00     0.004 A 
ATOM     14  C   UNL A   1      31.024  23.877  24.157  1.00  0.00     0.004 A 
ATOM     15  C   UNL A   1      30.717  24.946  26.290  1.00  0.00     0.004 A 
ENDBRANCH   8   9
ENDBRANCH   7   8
BRANCH   7  16
ATOM     16  C   UNL A   1      34.388  24.319  25.997  1.00  0.00     0.049 C 
BRANCH  16  17
ATOM     17  C   UNL A   1      34.033  25.570  25.216  1.00  0.00    -0.043 A 
ATOM     18  C   UNL A   1      34.012  25.444  23.815  1.00  0.00     0.043 A 
ATOM     19  C   UNL A   1      33.713  26.822  25.754  1.00  0.00     0.019 A 
ATOM     20  C   UNL A   1      33.607  26.498  23.005  1.00  0.00     0.124 A 
ATOM     21  C   UNL A   1      33.235  27.852  24.929  1.00  0.00     0.021 A 
ATOM     22  F   UNL A   1      33.629  26.335  21.678  1.00  0.00    -0.207 F 
ATOM     23  C   UNL A   1      33.175  27.694  23.550  1.00  0.00     0.055 A 
ATOM     24  Br  UNL A   1      32.617  29.462  25.707  1.00  0.00    -0.051 Br
ENDBRANCH  16  17
ENDBRANCH   7  16
ENDBRANCH   4   7
ENDBRANCH   2   3
ENDBRANCH   1   2
BRANCH   1  25
ATOM     25  C   UNL A   1      38.158  21.686  25.365  1.00  0.00     0.023 C 
BRANCH  25  26
ATOM     26  C   UNL A   1      38.596  22.908  26.161  1.00  0.00     0.116 C 
BRANCH  26  27
ATOM     27  N   UNL A   1      40.023  22.980  26.416  1.00  0.00    -0.352 N 
ATOM     28  C   UNL A   1      40.815  24.060  26.778  1.00  0.00     0.251 C 
ATOM     29  H   UNL A   1      40.506  22.128  26.313  1.00  0.00     0.163 HD
ATOM     30  O   UNL A   1      42.018  23.915  26.852  1.00  0.00    -0.269 OA
BRANCH  28  31
ATOM     31  C   UNL A   1      40.191  25.343  27.215  1.00  0.00     0.039 A 
ATOM     32  C   UNL A   1      40.533  26.501  26.502  1.00  0.00     0.014 A 
ATOM     33  C   UNL A   1      39.440  25.456  28.382  1.00  0.00     0.014 A 
ATOM     34  C   UNL A   1      40.347  27.752  27.086  1.00  0.00     0.010 A 
ATOM     35  C   UNL A   1      39.341  26.681  29.009  1.00  0.00     0.010 A 
ATOM     36  C   UNL A   1      39.851  27.819  28.386  1.00  0.00    -0.014 A 
BRANCH  36  37
ATOM     37  C   UNL A   1      39.928  29.019  29.202  1.00  0.00     0.031 A 
ATOM     38  C   UNL A   1      38.862  30.034  29.150  1.00  0.00     0.074 A 
ATOM     39  C   UNL A   1      40.970  29.187  30.045  1.00  0.00     0.049 A 
ATOM     40  N   UNL A   1      39.070  31.294  29.330  1.00  0.00    -0.248 NA
ATOM     41  C   UNL A   1      37.468  29.703  28.874  1.00  0.00     0.031 C 
ATOM     42  C   UNL A   1      41.121  30.222  31.061  1.00  0.00     0.029 A 
ATOM     43  N   UNL A   1      42.216  28.548  30.004  1.00  0.00    -0.354 N 
ATOM     44  C   UNL A   1      37.842  31.890  29.473  1.00  0.00     0.074 A 
ATOM     45  C   UNL A   1      36.876  30.881  29.102  1.00  0.00     0.031 C 
ATOM     46  C   UNL A   1      42.425  30.360  31.342  1.00  0.00     0.029 A 
ATOM     47  C   UNL A   1      43.160  29.506  30.427  1.00  0.00     0.049 A 
ATOM     48  H   UNL A   1      42.396  27.617  29.736  1.00  0.00     0.167 HD
ATOM     49  C   UNL A   1      37.744  33.122  30.041  1.00  0.00     0.037 A 
ATOM     50  C   UNL A   1      44.172  29.923  29.614  1.00  0.00     0.037 A 
ATOM     51  C   UNL A   1      39.041  33.634  30.463  1.00  0.00     0.049 A 
ATOM     52  C   UNL A   1      44.140  31.409  29.352  1.00  0.00     0.074 A 
ATOM     53  C   UNL A   1      39.690  33.611  31.686  1.00  0.00     0.029 A 
ATOM     54  N   UNL A   1      40.004  33.956  29.512  1.00  0.00    -0.354 N 
ATOM     55  N   UNL A   1      43.069  32.140  29.497  1.00  0.00    -0.248 NA
ATOM     56  C   UNL A   1      45.293  32.193  28.918  1.00  0.00     0.031 C 
ATOM     57  C   UNL A   1      41.064  33.865  31.463  1.00  0.00     0.029 A 
ATOM     58  C   UNL A   1      41.246  34.074  30.107  1.00  0.00     0.049 A 
ATOM     59  H   UNL A   1      39.827  34.083  28.552  1.00  0.00     0.167 HD
ATOM     60  C   UNL A   1      43.364  33.448  29.221  1.00  0.00     0.074 A 
ATOM     61  C   UNL A   1      44.767  33.431  28.854  1.00  0.00     0.031 C 
ATOM     62  C   UNL A   1      42.425  34.433  29.337  1.00  0.00     0.037 A 
BRANCH  49  63
ATOM     63  C   UNL A   1      36.414  33.666  30.481  1.00  0.00     0.057 A 
ATOM     64  C   UNL A   1      35.473  34.162  29.562  1.00  0.00     0.134 A 
ATOM     65  C   UNL A   1      36.042  33.767  31.833  1.00  0.00     0.134 A 
ATOM     66  F   UNL A   1      35.666  34.079  28.241  1.00  0.00    -0.206 F 
ATOM     67  C   UNL A   1      34.292  34.797  29.961  1.00  0.00     0.040 A 
ATOM     68  C   UNL A   1      34.884  34.438  32.248  1.00  0.00     0.040 A 
ATOM     69  F   UNL A   1      36.800  33.224  32.798  1.00  0.00    -0.206 F 
ATOM     70  C   UNL A   1      34.008  34.967  31.309  1.00  0.00     0.006 A 
ENDBRANCH  49  63
BRANCH  50  71
ATOM     71  C   UNL A   1      44.631  28.874  28.668  1.00  0.00     0.057 A 
ATOM     72  C   UNL A   1      45.447  27.840  29.167  1.00  0.00     0.134 A 
ATOM     73  C   UNL A   1      43.981  28.641  27.455  1.00  0.00     0.134 A 
ATOM     74  F   UNL A   1      46.097  27.996  30.331  1.00  0.00    -0.206 F 
ATOM     75  C   UNL A   1      45.515  26.589  28.548  1.00  0.00     0.040 A 
ATOM     76  C   UNL A   1      44.053  27.394  26.820  1.00  0.00     0.040 A 
ATOM     77  F   UNL A   1      43.171  29.570  26.925  1.00  0.00    -0.206 F 
ATOM     78  C   UNL A   1      44.786  26.352  27.389  1.00  0.00     0.006 A 
ENDBRANCH  50  71
BRANCH  62  79
ATOM     79  C   UNL A   1      42.554  35.853  28.848  1.00  0.00     0.057 A 
ATOM     80  C   UNL A   1      41.908  36.352  27.710  1.00  0.00     0.134 A 
ATOM     81  C   UNL A   1      43.217  36.823  29.638  1.00  0.00     0.134 A 
ATOM     82  F   UNL A   1      41.168  35.561  26.922  1.00  0.00    -0.206 F 
ATOM     83  C   UNL A   1      41.947  37.708  27.360  1.00  0.00     0.040 A 
ATOM     84  C   UNL A   1      43.217  38.184  29.327  1.00  0.00     0.040 A 
ATOM     85  F   UNL A   1      43.871  36.495  30.761  1.00  0.00    -0.206 F 
ATOM     86  C   UNL A   1      42.588  38.632  28.178  1.00  0.00     0.006 A 
ENDBRANCH  62  79
ENDBRANCH  36  37
ENDBRANCH  28  31
ENDBRANCH  26  27
ENDBRANCH  25  26
ENDBRANCH   1  25
TORSDOF 15
ENDMDL
MODEL 3
REMARK VINA RESULT:     -12.1      1.423      2.108
REMARK SMILES Cc1ccc(C[C@@H](Cc2cc(F)cc(Br)c2)C(=O)NCCCCNC(=O)c2ccc(-c3c4nc(c(-c5c(F)cccc5F)c5ccc([nH]5)c(-c5c(F)cccc5F)c5nc(c(-c6c(F)cccc6F)c6ccc3[nH]6)C=C5)C=C4)cc2)cc1
REMARK SMILES IDX 21 1 20 2 19 3 17 4 18 5 7 7 6 8 5 9 1 10 2 11 3 12 82 13
REMARK SMILES IDX 4 14 81 15 8 16 9 17 10 18 16 19 11 20 14 21 12 22 13 23
REMARK SMILES IDX 15 24 22 25 23 26 24 27 25 28 26 30 27 31 28 32 80 33 29 34
REMARK SMILES IDX 79 35 30 36 31 37 32 38 73 39 33 40 78 41 72 42 74 43 34 44
REMARK SMILES IDX 77 45 71 46 70 47 35 49 61 50 44 51 60 52 45 53 48 54 59 55
REMARK SMILES IDX 75 56 46 57 47 58 58 60 76 61 49 62 36 63 37 64 42 65 38 66
REMARK SMILES IDX 39 67 41 68 43 69 40 70 62 71 63 72 68 73 64 74 65 75 67 76
REMARK SMILES IDX 69 77 66 78 50 79 51 80 56 81 52 82 53 83 55 84 57 85 54 86
REMARK H PARENT 19 6 24 29 74 48 48 59
REMARK Flexibility Score: inf
ROOT
ATOM      1  C   UNL A   1      34.304  28.511  26.213  1.00  0.00     0.023 C 
ENDROOT
BRANCH   1   2
ATOM      2  C   UNL A   1      33.184  28.154  25.229  1.00  0.00     0.116 C 
BRANCH   2   3
ATOM      3  N   UNL A   1      31.993  27.687  25.918  1.00  0.00    -0.356 N 
ATOM      4  C   UNL A   1      31.486  26.438  26.093  1.00  0.00     0.223 C 
ATOM      5  O   UNL A   1      30.445  26.336  26.748  1.00  0.00    -0.275 OA
ATOM      6  H   UNL A   1      31.457  28.403  26.332  1.00  0.00     0.163 HD
BRANCH   4   7
ATOM      7  C   UNL A   1      32.155  25.200  25.516  1.00  0.00     0.087 C 
BRANCH   7   8
ATOM      8  C   UNL A   1      33.579  25.134  26.125  1.00  0.00     0.049 C 
BRANCH   8   9
ATOM      9  C   UNL A   1      34.460  23.943  25.833  1.00  0.00    -0.047 A 
ATOM     10  C   UNL A   1      36.555  20.286  24.865  1.00  0.00     0.044 C 
ATOM     11  C   UNL A   1      35.837  21.553  25.216  1.00  0.00    -0.051 A 
ATOM     12  C   UNL A   1      35.698  22.560  24.257  1.00  0.00     0.004 A 
ATOM     13  C   UNL A   1      35.303  21.756  26.492  1.00  0.00     0.004 A 
ATOM     14  C   UNL A   1      35.001  23.732  24.558  1.00  0.00     0.004 A 
ATOM     15  C   UNL A   1      34.625  22.941  26.799  1.00  0.00     0.004 A 
ENDBRANCH   8   9
ENDBRANCH   7   8
BRANCH   7  16
ATOM     16  C   UNL A   1      31.342  23.887  25.589  1.00  0.00     0.049 C 
BRANCH  16  17
ATOM     17  C   UNL A   1      31.669  22.608  24.842  1.00  0.00    -0.043 A 
ATOM     18  C   UNL A   1      31.822  22.723  23.448  1.00  0.00     0.043 A 
ATOM     19  C   UNL A   1      31.847  21.339  25.405  1.00  0.00     0.019 A 
ATOM     20  C   UNL A   1      32.216  21.637  22.676  1.00  0.00     0.124 A 
ATOM     21  C   UNL A   1      32.316  20.271  24.625  1.00  0.00     0.021 A 
ATOM     22  F   UNL A   1      32.322  21.793  21.353  1.00  0.00    -0.207 F 
ATOM     23  C   UNL A   1      32.508  20.415  23.257  1.00  0.00     0.055 A 
ATOM     24  Br  UNL A   1      32.742  18.624  25.454  1.00  0.00    -0.051 Br
ENDBRANCH  16  17
ENDBRANCH   7  16
ENDBRANCH   4   7
ENDBRANCH   2   3
ENDBRANCH   1   2
BRANCH   1  25
ATOM     25  C   UNL A   1      33.862  29.407  27.376  1.00  0.00     0.023 C 
BRANCH  25  26
ATOM     26  C   UNL A   1      34.438  30.815  27.304  1.00  0.00     0.116 C 
BRANCH  26  27
ATOM     27  N   UNL A   1      34.785  31.389  28.592  1.00  0.00    -0.352 N 
ATOM     28  C   UNL A   1      35.744  31.001  29.516  1.00  0.00     0.251 C 
ATOM     29  H   UNL A   1      34.255  32.178  28.850  1.00  0.00     0.163 HD
ATOM     30  O   UNL A   1      35.805  31.576  30.584  1.00  0.00    -0.269 OA
BRANCH  28  31
ATOM     31  C   UNL A   1      36.782  29.994  29.153  1.00  0.00     0.039 A 
ATOM     32  C   UNL A   1      37.005  28.944  30.056  1.00  0.00     0.014 A 
ATOM     33  C   UNL A   1      37.635  30.151  28.064  1.00  0.00     0.014 A 
ATOM     34  C   UNL A   1      38.203  28.234  30.009  1.00  0.00     0.010 A 
ATOM     35  C   UNL A   1      38.864  29.522  28.069  1.00  0.00     0.010 A 
ATOM     36  C   UNL A   1      39.169  28.610  29.078  1.00  0.00    -0.014 A 
BRANCH  36  37
ATOM     37  C   UNL A   1      40.554  28.175  29.155  1.00  0.00     0.031 A 
ATOM     38  C   UNL A   1      40.984  26.917  28.520  1.00  0.00     0.074 A 
ATOM     39  C   UNL A   1      41.463  28.951  29.783  1.00  0.00     0.049 A 
ATOM     40  N   UNL A   1      41.935  26.177  28.978  1.00  0.00    -0.248 NA
ATOM     41  C   UNL A   1      40.356  26.385  27.315  1.00  0.00     0.031 C 
ATOM     42  C   UNL A   1      42.910  28.772  29.800  1.00  0.00     0.029 A 
ATOM     43  N   UNL A   1      41.222  29.969  30.716  1.00  0.00    -0.354 N 
ATOM     44  C   UNL A   1      42.231  25.252  28.010  1.00  0.00     0.074 A 
ATOM     45  C   UNL A   1      41.173  25.365  27.030  1.00  0.00     0.031 C 
ATOM     46  C   UNL A   1      43.408  29.406  30.872  1.00  0.00     0.029 A 
ATOM     47  C   UNL A   1      42.285  29.909  31.641  1.00  0.00     0.049 A 
ATOM     48  H   UNL A   1      40.465  30.599  30.722  1.00  0.00     0.167 HD
ATOM     49  C   UNL A   1      43.418  24.588  28.039  1.00  0.00     0.037 A 
ATOM     50  C   UNL A   1      42.070  29.656  32.964  1.00  0.00     0.037 A 
ATOM     51  C   UNL A   1      44.256  25.017  29.151  1.00  0.00     0.049 A 
ATOM     52  C   UNL A   1      42.786  28.419  33.448  1.00  0.00     0.074 A 
ATOM     53  C   UNL A   1      45.280  25.946  29.233  1.00  0.00     0.029 A 
ATOM     54  N   UNL A   1      43.869  24.743  30.459  1.00  0.00    -0.354 N 
ATOM     55  N   UNL A   1      43.191  27.467  32.653  1.00  0.00    -0.248 NA
ATOM     56  C   UNL A   1      43.113  28.151  34.846  1.00  0.00     0.031 C 
ATOM     57  C   UNL A   1      45.473  26.274  30.595  1.00  0.00     0.029 A 
ATOM     58  C   UNL A   1      44.587  25.522  31.346  1.00  0.00     0.049 A 
ATOM     59  H   UNL A   1      43.182  24.086  30.717  1.00  0.00     0.167 HD
ATOM     60  C   UNL A   1      43.835  26.502  33.380  1.00  0.00     0.074 A 
ATOM     61  C   UNL A   1      43.753  26.970  34.751  1.00  0.00     0.031 C 
ATOM     62  C   UNL A   1      44.395  25.409  32.783  1.00  0.00     0.037 A 
BRANCH  49  63
ATOM     63  C   UNL A   1      43.895  23.804  26.850  1.00  0.00     0.057 A 
ATOM     64  C   UNL A   1      44.683  24.387  25.842  1.00  0.00     0.134 A 
ATOM     65  C   UNL A   1      43.545  22.460  26.634  1.00  0.00     0.134 A 
ATOM     66  F   UNL A   1      45.139  25.640  25.940  1.00  0.00    -0.206 F 
ATOM     67  C   UNL A   1      45.018  23.713  24.663  1.00  0.00     0.040 A 
ATOM     68  C   UNL A   1      43.838  21.786  25.440  1.00  0.00     0.040 A 
ATOM     69  F   UNL A   1      42.896  21.757  27.576  1.00  0.00    -0.206 F 
ATOM     70  C   UNL A   1      44.569  22.419  24.443  1.00  0.00     0.006 A 
ENDBRANCH  49  63
BRANCH  50  71
ATOM     71  C   UNL A   1      40.760  30.159  33.449  1.00  0.00     0.057 A 
ATOM     72  C   UNL A   1      40.633  31.536  33.711  1.00  0.00     0.134 A 
ATOM     73  C   UNL A   1      39.580  29.435  33.268  1.00  0.00     0.134 A 
ATOM     74  F   UNL A   1      41.728  32.292  33.891  1.00  0.00    -0.206 F 
ATOM     75  C   UNL A   1      39.396  32.185  33.674  1.00  0.00     0.040 A 
ATOM     76  C   UNL A   1      38.334  30.074  33.241  1.00  0.00     0.040 A 
ATOM     77  F   UNL A   1      39.619  28.122  32.995  1.00  0.00    -0.206 F 
ATOM     78  C   UNL A   1      38.243  31.457  33.401  1.00  0.00     0.006 A 
ENDBRANCH  50  71
BRANCH  62  79
ATOM     79  C   UNL A   1      44.920  24.180  33.480  1.00  0.00     0.057 A 
ATOM     80  C   UNL A   1      46.272  23.968  33.781  1.00  0.00     0.134 A 
ATOM     81  C   UNL A   1      44.024  23.234  34.033  1.00  0.00     0.134 A 
ATOM     82  F   UNL A   1      47.219  24.834  33.399  1.00  0.00    -0.206 F 
ATOM     83  C   UNL A   1      46.706  22.876  34.545  1.00  0.00     0.040 A 
ATOM     84  C   UNL A   1      44.441  22.174  34.839  1.00  0.00     0.040 A 
ATOM     85  F   UNL A   1      42.700  23.315  33.837  1.00  0.00    -0.206 F 
ATOM     86  C   UNL A   1      45.789  21.985  35.091  1.00  0.00     0.006 A 
ENDBRANCH  62  79
ENDBRANCH  36  37
ENDBRANCH  28  31
ENDBRANCH  26  27
ENDBRANCH  25  26
ENDBRANCH   1  25
TORSDOF 15
ENDMDL
