MODEL 1
REMARK VINA RESULT:     -13.3      0.000      0.000
REMARK SMILES CC(=O)Nc1ccc(/C=C2/CCc3oc(C(=O)NCCCCNC(=O)c4ccc(-c5c6nc(c(-c7c(F)cccc7F)c7ccc([nH]7)c(-c7c(F)cccc7F)c7nc(c(-c8c(F)cccc8F)c8ccc5[nH]8)C=C7)C=C6)cc4)c(C)c3C2=O)cc1
REMARK SMILES IDX 20 1 19 2 18 3 16 4 17 5 15 7 9 8 10 9 11 10 83 11 12 12
REMARK SMILES IDX 82 13 84 14 13 15 80 16 14 17 81 18 8 19 5 20 6 21 86 22
REMARK SMILES IDX 7 23 85 24 4 25 1 26 2 27 3 28 21 30 22 31 23 32 24 33 25 35
REMARK SMILES IDX 26 36 27 37 79 38 28 39 78 40 29 41 30 42 31 43 72 44 32 45
REMARK SMILES IDX 77 46 71 47 73 48 33 49 76 50 70 51 69 52 34 54 60 55 43 56
REMARK SMILES IDX 59 57 44 58 47 59 58 60 74 61 45 62 46 63 57 65 75 66 48 67
REMARK SMILES IDX 35 68 36 69 41 70 37 71 38 72 40 73 42 74 39 75 61 76 62 77
REMARK SMILES IDX 67 78 63 79 64 80 66 81 68 82 65 83 49 84 50 85 55 86 51 87
REMARK SMILES IDX 52 88 54 89 56 90 53 91
REMARK H PARENT 18 6 4 29 23 34 73 53 47 64
REMARK Flexibility Score: inf
ROOT
ATOM      1  C   UNL A   1      38.808  22.183  26.348  1.00  0.00     0.023 C 
ENDROOT
BRANCH   1   2
ATOM      2  C   UNL A   1      37.395  22.050  25.776  1.00  0.00     0.116 C 
BRANCH   2   3
ATOM      3  N   UNL A   1      37.347  22.271  24.338  1.00  0.00    -0.349 N 
ATOM      4  C   UNL A   1      36.347  22.717  23.497  1.00  0.00     0.287 C 
ATOM      5  O   UNL A   1      36.667  22.823  22.310  1.00  0.00    -0.266 OA
ATOM      6  H   UNL A   1      38.191  22.065  23.876  1.00  0.00     0.163 HD
BRANCH   4   7
ATOM      7  C   UNL A   1      35.009  23.030  23.983  1.00  0.00     0.195 A 
ATOM      8  C   UNL A   1      30.252  25.524  25.776  1.00  0.00     0.016 C 
ATOM      9  C   UNL A   1      30.935  24.375  25.599  1.00  0.00     0.001 C 
ATOM     10  C   UNL A   1      31.390  23.523  26.780  1.00  0.00     0.048 C 
ATOM     11  C   UNL A   1      31.418  23.851  24.273  1.00  0.00     0.192 C 
ATOM     12  C   UNL A   1      32.928  23.482  26.879  1.00  0.00     0.081 C 
ATOM     13  C   UNL A   1      32.831  23.541  24.314  1.00  0.00     0.067 A 
ATOM     14  O   UNL A   1      30.694  23.656  23.304  1.00  0.00    -0.289 OA
ATOM     15  C   UNL A   1      33.476  23.358  25.511  1.00  0.00     0.116 A 
ATOM     16  C   UNL A   1      33.830  23.370  23.306  1.00  0.00     0.012 A 
ATOM     17  O   UNL A   1      34.765  23.038  25.331  1.00  0.00    -0.455 OA
ATOM     18  C   UNL A   1      33.613  23.558  21.845  1.00  0.00     0.049 C 
BRANCH   8  19
ATOM     19  C   UNL A   1      29.836  26.592  24.839  1.00  0.00    -0.025 A 
ATOM     20  C   UNL A   1      29.264  28.661  22.983  1.00  0.00     0.041 A 
ATOM     21  C   UNL A   1      28.361  27.624  23.191  1.00  0.00     0.027 A 
ATOM     22  C   UNL A   1      30.435  28.695  23.734  1.00  0.00     0.027 A 
ATOM     23  C   UNL A   1      28.667  26.585  24.074  1.00  0.00     0.010 A 
ATOM     24  C   UNL A   1      30.710  27.678  24.659  1.00  0.00     0.010 A 
BRANCH  20  25
ATOM     25  N   UNL A   1      28.910  29.635  22.041  1.00  0.00    -0.326 N 
ATOM     26  C   UNL A   1      27.713  31.205  23.544  1.00  0.00     0.114 C 
ATOM     27  C   UNL A   1      28.118  30.739  22.171  1.00  0.00     0.221 C 
ATOM     28  O   UNL A   1      27.818  31.388  21.167  1.00  0.00    -0.275 OA
ATOM     29  H   UNL A   1      29.292  29.502  21.144  1.00  0.00     0.169 HD
ENDBRANCH  20  25
ENDBRANCH   8  19
ENDBRANCH   4   7
ENDBRANCH   2   3
ENDBRANCH   1   2
BRANCH   1  30
ATOM     30  C   UNL A   1      39.795  21.086  25.920  1.00  0.00     0.023 C 
BRANCH  30  31
ATOM     31  C   UNL A   1      41.146  21.117  26.633  1.00  0.00     0.116 C 
BRANCH  31  32
ATOM     32  N   UNL A   1      42.243  21.528  25.761  1.00  0.00    -0.352 N 
ATOM     33  C   UNL A   1      42.658  22.809  25.462  1.00  0.00     0.251 C 
ATOM     34  H   UNL A   1      42.749  20.801  25.333  1.00  0.00     0.163 HD
ATOM     35  O   UNL A   1      43.301  23.034  24.443  1.00  0.00    -0.269 OA
BRANCH  33  36
ATOM     36  C   UNL A   1      42.319  23.917  26.377  1.00  0.00     0.039 A 
ATOM     37  C   UNL A   1      42.997  24.064  27.590  1.00  0.00     0.014 A 
ATOM     38  C   UNL A   1      41.314  24.813  26.014  1.00  0.00     0.014 A 
ATOM     39  C   UNL A   1      42.726  25.174  28.386  1.00  0.00     0.010 A 
ATOM     40  C   UNL A   1      41.114  25.962  26.753  1.00  0.00     0.010 A 
ATOM     41  C   UNL A   1      41.806  26.143  27.946  1.00  0.00    -0.014 A 
BRANCH  41  42
ATOM     42  C   UNL A   1      41.733  27.435  28.635  1.00  0.00     0.031 A 
ATOM     43  C   UNL A   1      42.869  28.341  28.304  1.00  0.00     0.074 A 
ATOM     44  C   UNL A   1      40.655  27.884  29.317  1.00  0.00     0.049 A 
ATOM     45  N   UNL A   1      43.805  28.751  29.093  1.00  0.00    -0.248 NA
ATOM     46  C   UNL A   1      43.077  28.720  26.895  1.00  0.00     0.031 C 
ATOM     47  C   UNL A   1      39.348  27.225  29.433  1.00  0.00     0.029 A 
ATOM     48  N   UNL A   1      40.452  29.071  29.968  1.00  0.00    -0.354 N 
ATOM     49  C   UNL A   1      44.577  29.636  28.340  1.00  0.00     0.074 A 
ATOM     50  C   UNL A   1      44.215  29.414  26.968  1.00  0.00     0.031 C 
ATOM     51  C   UNL A   1      38.437  28.103  29.906  1.00  0.00     0.029 A 
ATOM     52  C   UNL A   1      39.120  29.326  30.288  1.00  0.00     0.049 A 
ATOM     53  H   UNL A   1      41.185  29.690  30.191  1.00  0.00     0.167 HD
ATOM     54  C   UNL A   1      45.205  30.679  28.950  1.00  0.00     0.037 A 
ATOM     55  C   UNL A   1      38.598  30.450  30.839  1.00  0.00     0.037 A 
ATOM     56  C   UNL A   1      45.218  30.486  30.379  1.00  0.00     0.049 A 
ATOM     57  C   UNL A   1      39.695  31.180  31.506  1.00  0.00     0.074 A 
ATOM     58  C   UNL A   1      45.906  29.719  31.291  1.00  0.00     0.029 A 
ATOM     59  N   UNL A   1      44.086  30.942  30.996  1.00  0.00    -0.354 N 
ATOM     60  N   UNL A   1      40.284  30.757  32.588  1.00  0.00    -0.248 NA
ATOM     61  C   UNL A   1      40.377  32.260  30.800  1.00  0.00     0.031 C 
ATOM     62  C   UNL A   1      45.065  29.619  32.441  1.00  0.00     0.029 A 
ATOM     63  C   UNL A   1      43.908  30.358  32.217  1.00  0.00     0.049 A 
ATOM     64  H   UNL A   1      43.475  31.609  30.607  1.00  0.00     0.167 HD
ATOM     65  C   UNL A   1      41.587  31.180  32.443  1.00  0.00     0.074 A 
ATOM     66  C   UNL A   1      41.540  32.250  31.455  1.00  0.00     0.031 C 
ATOM     67  C   UNL A   1      42.617  30.395  32.863  1.00  0.00     0.037 A 
BRANCH  54  68
ATOM     68  C   UNL A   1      45.331  32.086  28.379  1.00  0.00     0.057 A 
ATOM     69  C   UNL A   1      44.149  32.795  28.075  1.00  0.00     0.134 A 
ATOM     70  C   UNL A   1      46.502  32.632  27.818  1.00  0.00     0.134 A 
ATOM     71  F   UNL A   1      42.960  32.393  28.549  1.00  0.00    -0.206 F 
ATOM     72  C   UNL A   1      44.126  33.893  27.205  1.00  0.00     0.040 A 
ATOM     73  C   UNL A   1      46.495  33.757  26.983  1.00  0.00     0.040 A 
ATOM     74  F   UNL A   1      47.705  32.069  27.961  1.00  0.00    -0.206 F 
ATOM     75  C   UNL A   1      45.300  34.370  26.644  1.00  0.00     0.006 A 
ENDBRANCH  54  68
BRANCH  55  76
ATOM     76  C   UNL A   1      37.237  31.025  30.765  1.00  0.00     0.057 A 
ATOM     77  C   UNL A   1      36.473  31.247  31.922  1.00  0.00     0.134 A 
ATOM     78  C   UNL A   1      36.771  31.636  29.590  1.00  0.00     0.134 A 
ATOM     79  F   UNL A   1      36.849  30.725  33.099  1.00  0.00    -0.206 F 
ATOM     80  C   UNL A   1      35.340  32.069  31.921  1.00  0.00     0.040 A 
ATOM     81  C   UNL A   1      35.637  32.457  29.575  1.00  0.00     0.040 A 
ATOM     82  F   UNL A   1      37.455  31.531  28.442  1.00  0.00    -0.206 F 
ATOM     83  C   UNL A   1      34.928  32.692  30.748  1.00  0.00     0.006 A 
ENDBRANCH  55  76
BRANCH  67  84
ATOM     84  C   UNL A   1      42.328  29.398  33.939  1.00  0.00     0.057 A 
ATOM     85  C   UNL A   1      41.957  28.066  33.718  1.00  0.00     0.134 A 
ATOM     86  C   UNL A   1      42.502  29.802  35.268  1.00  0.00     0.134 A 
ATOM     87  F   UNL A   1      41.833  27.574  32.478  1.00  0.00    -0.206 F 
ATOM     88  C   UNL A   1      41.734  27.184  34.780  1.00  0.00     0.040 A 
ATOM     89  C   UNL A   1      42.318  28.923  36.334  1.00  0.00     0.040 A 
ATOM     90  F   UNL A   1      42.891  31.057  35.547  1.00  0.00    -0.206 F 
ATOM     91  C   UNL A   1      41.921  27.611  36.092  1.00  0.00     0.006 A 
ENDBRANCH  67  84
ENDBRANCH  41  42
ENDBRANCH  33  36
ENDBRANCH  31  32
ENDBRANCH  30  31
ENDBRANCH   1  30
TORSDOF 13
ENDMDL
MODEL 2
REMARK VINA RESULT:     -13.2      3.376      8.338
REMARK SMILES CC(=O)Nc1ccc(/C=C2/CCc3oc(C(=O)NCCCCNC(=O)c4ccc(-c5c6nc(c(-c7c(F)cccc7F)c7ccc([nH]7)c(-c7c(F)cccc7F)c7nc(c(-c8c(F)cccc8F)c8ccc5[nH]8)C=C7)C=C6)cc4)c(C)c3C2=O)cc1
REMARK SMILES IDX 20 1 19 2 18 3 16 4 17 5 15 7 9 8 10 9 11 10 83 11 12 12
REMARK SMILES IDX 82 13 84 14 13 15 80 16 14 17 81 18 8 19 5 20 6 21 86 22
REMARK SMILES IDX 7 23 85 24 4 25 1 26 2 27 3 28 21 30 22 31 23 32 24 33 25 35
REMARK SMILES IDX 26 36 27 37 79 38 28 39 78 40 29 41 30 42 31 43 72 44 32 45
REMARK SMILES IDX 77 46 71 47 73 48 33 49 76 50 70 51 69 52 34 54 60 55 43 56
REMARK SMILES IDX 59 57 44 58 47 59 58 60 74 61 45 62 46 63 57 65 75 66 48 67
REMARK SMILES IDX 35 68 36 69 41 70 37 71 38 72 40 73 42 74 39 75 61 76 62 77
REMARK SMILES IDX 67 78 63 79 64 80 66 81 68 82 65 83 49 84 50 85 55 86 51 87
REMARK SMILES IDX 52 88 54 89 56 90 53 91
REMARK H PARENT 18 6 4 29 23 34 73 53 47 64
REMARK Flexibility Score: inf
ROOT
ATOM      1  C   UNL A   1      34.881  29.273  27.638  1.00  0.00     0.023 C 
ENDROOT
BRANCH   1   2
ATOM      2  C   UNL A   1      33.578  28.556  27.278  1.00  0.00     0.116 C 
BRANCH   2   3
ATOM      3  N   UNL A   1      32.586  29.450  26.698  1.00  0.00    -0.349 N 
ATOM      4  C   UNL A   1      31.789  29.353  25.575  1.00  0.00     0.287 C 
ATOM      5  O   UNL A   1      31.018  30.300  25.395  1.00  0.00    -0.266 OA
ATOM      6  H   UNL A   1      32.458  30.284  27.205  1.00  0.00     0.163 HD
BRANCH   4   7
ATOM      7  C   UNL A   1      31.865  28.216  24.667  1.00  0.00     0.195 A 
ATOM      8  C   UNL A   1      33.142  23.398  21.980  1.00  0.00     0.016 C 
ATOM      9  C   UNL A   1      32.455  24.558  21.967  1.00  0.00     0.001 C 
ATOM     10  C   UNL A   1      32.752  25.655  20.950  1.00  0.00     0.048 C 
ATOM     11  C   UNL A   1      31.416  24.959  22.980  1.00  0.00     0.192 C 
ATOM     12  C   UNL A   1      33.302  26.920  21.638  1.00  0.00     0.081 C 
ATOM     13  C   UNL A   1      31.699  26.266  23.533  1.00  0.00     0.067 A 
ATOM     14  O   UNL A   1      30.426  24.290  23.255  1.00  0.00    -0.289 OA
ATOM     15  C   UNL A   1      32.540  27.136  22.886  1.00  0.00     0.116 A 
ATOM     16  C   UNL A   1      31.281  26.943  24.721  1.00  0.00     0.012 A 
ATOM     17  O   UNL A   1      32.635  28.303  23.538  1.00  0.00    -0.455 OA
ATOM     18  C   UNL A   1      30.422  26.353  25.784  1.00  0.00     0.049 C 
BRANCH   8  19
ATOM     19  C   UNL A   1      33.163  22.260  22.926  1.00  0.00    -0.025 A 
ATOM     20  C   UNL A   1      33.145  19.940  24.559  1.00  0.00     0.041 A 
ATOM     21  C   UNL A   1      34.045  20.971  24.802  1.00  0.00     0.027 A 
ATOM     22  C   UNL A   1      32.218  20.082  23.531  1.00  0.00     0.027 A 
ATOM     23  C   UNL A   1      34.079  22.093  23.967  1.00  0.00     0.010 A 
ATOM     24  C   UNL A   1      32.221  21.235  22.732  1.00  0.00     0.010 A 
BRANCH  20  25
ATOM     25  N   UNL A   1      33.210  18.826  25.405  1.00  0.00    -0.326 N 
ATOM     26  C   UNL A   1      33.737  17.089  23.713  1.00  0.00     0.114 C 
ATOM     27  C   UNL A   1      33.347  17.501  25.107  1.00  0.00     0.221 C 
ATOM     28  O   UNL A   1      33.234  16.665  26.007  1.00  0.00    -0.275 OA
ATOM     29  H   UNL A   1      33.147  19.030  26.366  1.00  0.00     0.169 HD
ENDBRANCH  20  25
ENDBRANCH   8  19
ENDBRANCH   4   7
ENDBRANCH   2   3
ENDBRANCH   1   2
BRANCH   1  30
ATOM     30  C   UNL A   1      34.807  30.807  27.642  1.00  0.00     0.023 C 
BRANCH  30  31
ATOM     31  C   UNL A   1      35.922  31.508  28.417  1.00  0.00     0.116 C 
BRANCH  31  32
ATOM     32  N   UNL A   1      35.856  31.268  29.855  1.00  0.00    -0.352 N 
ATOM     33  C   UNL A   1      36.488  30.281  30.584  1.00  0.00     0.251 C 
ATOM     34  H   UNL A   1      35.290  31.887  30.370  1.00  0.00     0.163 HD
ATOM     35  O   UNL A   1      36.054  29.941  31.679  1.00  0.00    -0.269 OA
BRANCH  33  36
ATOM     36  C   UNL A   1      37.691  29.627  30.033  1.00  0.00     0.039 A 
ATOM     37  C   UNL A   1      38.396  30.217  28.981  1.00  0.00     0.014 A 
ATOM     38  C   UNL A   1      38.114  28.415  30.578  1.00  0.00     0.014 A 
ATOM     39  C   UNL A   1      39.582  29.629  28.549  1.00  0.00     0.010 A 
ATOM     40  C   UNL A   1      39.336  27.885  30.218  1.00  0.00     0.010 A 
ATOM     41  C   UNL A   1      40.070  28.480  29.195  1.00  0.00    -0.014 A 
BRANCH  41  42
ATOM     42  C   UNL A   1      41.442  28.031  28.937  1.00  0.00     0.031 A 
ATOM     43  C   UNL A   1      41.508  26.753  28.175  1.00  0.00     0.074 A 
ATOM     44  C   UNL A   1      42.549  28.780  29.146  1.00  0.00     0.049 A 
ATOM     45  N   UNL A   1      41.944  25.610  28.589  1.00  0.00    -0.248 NA
ATOM     46  C   UNL A   1      40.879  26.697  26.843  1.00  0.00     0.031 C 
ATOM     47  C   UNL A   1      42.596  30.182  29.579  1.00  0.00     0.029 A 
ATOM     48  N   UNL A   1      43.867  28.491  28.917  1.00  0.00    -0.354 N 
ATOM     49  C   UNL A   1      41.872  24.755  27.490  1.00  0.00     0.074 A 
ATOM     50  C   UNL A   1      41.028  25.408  26.529  1.00  0.00     0.031 C 
ATOM     51  C   UNL A   1      43.833  30.682  29.366  1.00  0.00     0.029 A 
ATOM     52  C   UNL A   1      44.709  29.602  28.948  1.00  0.00     0.049 A 
ATOM     53  H   UNL A   1      44.193  27.577  28.748  1.00  0.00     0.167 HD
ATOM     54  C   UNL A   1      42.771  23.740  27.358  1.00  0.00     0.037 A 
ATOM     55  C   UNL A   1      46.034  29.649  28.664  1.00  0.00     0.037 A 
ATOM     56  C   UNL A   1      43.470  23.529  28.601  1.00  0.00     0.049 A 
ATOM     57  C   UNL A   1      46.574  28.281  28.793  1.00  0.00     0.074 A 
ATOM     58  C   UNL A   1      43.210  22.954  29.824  1.00  0.00     0.029 A 
ATOM     59  N   UNL A   1      44.562  24.338  28.750  1.00  0.00    -0.354 N 
ATOM     60  N   UNL A   1      46.700  27.663  29.932  1.00  0.00    -0.248 NA
ATOM     61  C   UNL A   1      46.703  27.442  27.606  1.00  0.00     0.031 C 
ATOM     62  C   UNL A   1      44.110  23.563  30.749  1.00  0.00     0.029 A 
ATOM     63  C   UNL A   1      44.921  24.462  30.062  1.00  0.00     0.049 A 
ATOM     64  H   UNL A   1      45.031  24.776  28.005  1.00  0.00     0.167 HD
ATOM     65  C   UNL A   1      46.465  26.342  29.621  1.00  0.00     0.074 A 
ATOM     66  C   UNL A   1      46.676  26.238  28.183  1.00  0.00     0.031 C 
ATOM     67  C   UNL A   1      45.781  25.542  30.485  1.00  0.00     0.037 A 
BRANCH  54  68
ATOM     68  C   UNL A   1      43.413  23.296  26.049  1.00  0.00     0.057 A 
ATOM     69  C   UNL A   1      43.417  21.920  25.736  1.00  0.00     0.134 A 
ATOM     70  C   UNL A   1      44.289  24.076  25.269  1.00  0.00     0.134 A 
ATOM     71  F   UNL A   1      42.625  21.059  26.394  1.00  0.00    -0.206 F 
ATOM     72  C   UNL A   1      44.294  21.357  24.798  1.00  0.00     0.040 A 
ATOM     73  C   UNL A   1      45.137  23.529  24.298  1.00  0.00     0.040 A 
ATOM     74  F   UNL A   1      44.452  25.389  25.456  1.00  0.00    -0.206 F 
ATOM     75  C   UNL A   1      45.169  22.161  24.084  1.00  0.00     0.006 A 
ENDBRANCH  54  68
BRANCH  55  76
ATOM     76  C   UNL A   1      46.885  30.760  28.186  1.00  0.00     0.057 A 
ATOM     77  C   UNL A   1      46.667  31.363  26.937  1.00  0.00     0.134 A 
ATOM     78  C   UNL A   1      47.743  31.445  29.061  1.00  0.00     0.134 A 
ATOM     79  F   UNL A   1      45.845  30.798  26.040  1.00  0.00    -0.206 F 
ATOM     80  C   UNL A   1      47.230  32.599  26.596  1.00  0.00     0.040 A 
ATOM     81  C   UNL A   1      48.316  32.679  28.731  1.00  0.00     0.040 A 
ATOM     82  F   UNL A   1      47.977  30.982  30.298  1.00  0.00    -0.206 F 
ATOM     83  C   UNL A   1      48.044  33.271  27.502  1.00  0.00     0.006 A 
ENDBRANCH  55  76
BRANCH  67  84
ATOM     84  C   UNL A   1      45.793  25.921  31.931  1.00  0.00     0.057 A 
ATOM     85  C   UNL A   1      46.872  25.723  32.802  1.00  0.00     0.134 A 
ATOM     86  C   UNL A   1      44.671  26.583  32.443  1.00  0.00     0.134 A 
ATOM     87  F   UNL A   1      48.013  25.160  32.381  1.00  0.00    -0.206 F 
ATOM     88  C   UNL A   1      46.818  26.135  34.137  1.00  0.00     0.040 A 
ATOM     89  C   UNL A   1      44.618  27.030  33.762  1.00  0.00     0.040 A 
ATOM     90  F   UNL A   1      43.616  26.834  31.651  1.00  0.00    -0.206 F 
ATOM     91  C   UNL A   1      45.691  26.797  34.618  1.00  0.00     0.006 A 
ENDBRANCH  67  84
ENDBRANCH  41  42
ENDBRANCH  33  36
ENDBRANCH  31  32
ENDBRANCH  30  31
ENDBRANCH   1  30
TORSDOF 13
ENDMDL
MODEL 3
REMARK VINA RESULT:     -13.1      2.076      5.887
REMARK SMILES CC(=O)Nc1ccc(/C=C2/CCc3oc(C(=O)NCCCCNC(=O)c4ccc(-c5c6nc(c(-c7c(F)cccc7F)c7ccc([nH]7)c(-c7c(F)cccc7F)c7nc(c(-c8c(F)cccc8F)c8ccc5[nH]8)C=C7)C=C6)cc4)c(C)c3C2=O)cc1
REMARK SMILES IDX 20 1 19 2 18 3 16 4 17 5 15 7 9 8 10 9 11 10 83 11 12 12
REMARK SMILES IDX 82 13 84 14 13 15 80 16 14 17 81 18 8 19 5 20 6 21 86 22
REMARK SMILES IDX 7 23 85 24 4 25 1 26 2 27 3 28 21 30 22 31 23 32 24 33 25 35
REMARK SMILES IDX 26 36 27 37 79 38 28 39 78 40 29 41 30 42 31 43 72 44 32 45
REMARK SMILES IDX 77 46 71 47 73 48 33 49 76 50 70 51 69 52 34 54 60 55 43 56
REMARK SMILES IDX 59 57 44 58 47 59 58 60 74 61 45 62 46 63 57 65 75 66 48 67
REMARK SMILES IDX 35 68 36 69 41 70 37 71 38 72 40 73 42 74 39 75 61 76 62 77
REMARK SMILES IDX 67 78 63 79 64 80 66 81 68 82 65 83 49 84 50 85 55 86 51 87
REMARK SMILES IDX 52 88 54 89 56 90 53 91
REMARK H PARENT 18 6 4 29 23 34 73 53 47 64
REMARK Flexibility Score: inf
ROOT
ATOM      1  C   UNL A   1      38.741  22.165  26.365  1.00  0.00     0.023 C 
ENDROOT
BRANCH   1   2
ATOM      2  C   UNL A   1      37.539  22.902  25.771  1.00  0.00     0.116 C 
BRANCH   2   3
ATOM      3  N   UNL A   1      37.424  22.720  24.332  1.00  0.00    -0.349 N 
ATOM      4  C   UNL A   1      36.364  22.858  23.457  1.00  0.00     0.287 C 
ATOM      5  O   UNL A   1      36.633  22.656  22.269  1.00  0.00    -0.266 OA
ATOM      6  H   UNL A   1      38.264  22.448  23.897  1.00  0.00     0.163 HD
BRANCH   4   7
ATOM      7  C   UNL A   1      35.025  23.208  23.913  1.00  0.00     0.195 A 
ATOM      8  C   UNL A   1      30.284  25.833  25.551  1.00  0.00     0.016 C 
ATOM      9  C   UNL A   1      30.951  24.669  25.423  1.00  0.00     0.001 C 
ATOM     10  C   UNL A   1      31.375  23.849  26.638  1.00  0.00     0.048 C 
ATOM     11  C   UNL A   1      31.443  24.093  24.122  1.00  0.00     0.192 C 
ATOM     12  C   UNL A   1      32.910  23.788  26.761  1.00  0.00     0.081 C 
ATOM     13  C   UNL A   1      32.851  23.762  24.195  1.00  0.00     0.067 A 
ATOM     14  O   UNL A   1      30.731  23.876  23.150  1.00  0.00    -0.289 OA
ATOM     15  C   UNL A   1      33.476  23.609  25.406  1.00  0.00     0.116 A 
ATOM     16  C   UNL A   1      33.861  23.542  23.208  1.00  0.00     0.012 A 
ATOM     17  O   UNL A   1      34.762  23.264  25.256  1.00  0.00    -0.455 OA
ATOM     18  C   UNL A   1      33.667  23.685  21.738  1.00  0.00     0.049 C 
BRANCH   8  19
ATOM     19  C   UNL A   1      29.898  26.876  24.574  1.00  0.00    -0.025 A 
ATOM     20  C   UNL A   1      28.939  28.861  22.787  1.00  0.00     0.041 A 
ATOM     21  C   UNL A   1      30.232  28.926  23.294  1.00  0.00     0.027 A 
ATOM     22  C   UNL A   1      28.134  27.780  23.133  1.00  0.00     0.027 A 
ATOM     23  C   UNL A   1      30.685  27.970  24.207  1.00  0.00     0.010 A 
ATOM     24  C   UNL A   1      28.614  26.793  24.007  1.00  0.00     0.010 A 
BRANCH  20  25
ATOM     25  N   UNL A   1      28.542  29.886  21.921  1.00  0.00    -0.326 N 
ATOM     26  C   UNL A   1      27.572  31.446  23.590  1.00  0.00     0.114 C 
ATOM     27  C   UNL A   1      27.819  31.018  22.167  1.00  0.00     0.221 C 
ATOM     28  O   UNL A   1      27.454  31.719  21.222  1.00  0.00    -0.275 OA
ATOM     29  H   UNL A   1      28.828  29.774  20.986  1.00  0.00     0.169 HD
ENDBRANCH  20  25
ENDBRANCH   8  19
ENDBRANCH   4   7
ENDBRANCH   2   3
ENDBRANCH   1   2
BRANCH   1  30
ATOM     30  C   UNL A   1      39.341  21.063  25.478  1.00  0.00     0.023 C 
BRANCH  30  31
ATOM     31  C   UNL A   1      39.572  19.723  26.174  1.00  0.00     0.116 C 
BRANCH  31  32
ATOM     32  N   UNL A   1      40.817  19.077  25.771  1.00  0.00    -0.352 N 
ATOM     33  C   UNL A   1      42.072  19.639  25.662  1.00  0.00     0.251 C 
ATOM     34  H   UNL A   1      40.753  18.120  25.547  1.00  0.00     0.163 HD
ATOM     35  O   UNL A   1      42.927  19.121  24.952  1.00  0.00    -0.269 OA
BRANCH  33  36
ATOM     36  C   UNL A   1      42.382  20.876  26.403  1.00  0.00     0.039 A 
ATOM     37  C   UNL A   1      42.757  22.035  25.718  1.00  0.00     0.014 A 
ATOM     38  C   UNL A   1      42.296  20.873  27.795  1.00  0.00     0.014 A 
ATOM     39  C   UNL A   1      42.946  23.213  26.436  1.00  0.00     0.010 A 
ATOM     40  C   UNL A   1      42.388  22.059  28.495  1.00  0.00     0.010 A 
ATOM     41  C   UNL A   1      42.726  23.231  27.824  1.00  0.00    -0.014 A 
BRANCH  41  42
ATOM     42  C   UNL A   1      42.645  24.514  28.529  1.00  0.00     0.031 A 
ATOM     43  C   UNL A   1      41.402  25.276  28.219  1.00  0.00     0.074 A 
ATOM     44  C   UNL A   1      43.469  24.895  29.531  1.00  0.00     0.049 A 
ATOM     45  N   UNL A   1      41.303  26.397  27.588  1.00  0.00    -0.248 NA
ATOM     46  C   UNL A   1      40.102  24.647  28.514  1.00  0.00     0.031 C 
ATOM     47  C   UNL A   1      44.526  24.093  30.157  1.00  0.00     0.029 A 
ATOM     48  N   UNL A   1      43.477  26.040  30.281  1.00  0.00    -0.354 N 
ATOM     49  C   UNL A   1      39.950  26.736  27.624  1.00  0.00     0.074 A 
ATOM     50  C   UNL A   1      39.250  25.543  28.009  1.00  0.00     0.031 C 
ATOM     51  C   UNL A   1      44.911  24.671  31.315  1.00  0.00     0.029 A 
ATOM     52  C   UNL A   1      44.260  25.964  31.431  1.00  0.00     0.049 A 
ATOM     53  H   UNL A   1      42.973  26.849  30.029  1.00  0.00     0.167 HD
ATOM     54  C   UNL A   1      39.576  28.046  27.640  1.00  0.00     0.037 A 
ATOM     55  C   UNL A   1      44.388  26.890  32.413  1.00  0.00     0.037 A 
ATOM     56  C   UNL A   1      40.690  28.885  27.277  1.00  0.00     0.049 A 
ATOM     57  C   UNL A   1      43.967  28.195  31.864  1.00  0.00     0.074 A 
ATOM     58  C   UNL A   1      41.363  29.235  26.129  1.00  0.00     0.029 A 
ATOM     59  N   UNL A   1      41.491  29.209  28.338  1.00  0.00    -0.354 N 
ATOM     60  N   UNL A   1      44.649  28.850  30.969  1.00  0.00    -0.248 NA
ATOM     61  C   UNL A   1      42.601  28.661  32.079  1.00  0.00     0.031 C 
ATOM     62  C   UNL A   1      42.664  29.653  26.541  1.00  0.00     0.029 A 
ATOM     63  C   UNL A   1      42.737  29.588  27.929  1.00  0.00     0.049 A 
ATOM     64  H   UNL A   1      41.203  29.173  29.278  1.00  0.00     0.167 HD
ATOM     65  C   UNL A   1      43.685  29.478  30.211  1.00  0.00     0.074 A 
ATOM     66  C   UNL A   1      42.488  29.497  31.043  1.00  0.00     0.031 C 
ATOM     67  C   UNL A   1      43.839  29.602  28.864  1.00  0.00     0.037 A 
BRANCH  54  68
ATOM     68  C   UNL A   1      38.433  28.625  28.464  1.00  0.00     0.057 A 
ATOM     69  C   UNL A   1      37.642  29.645  27.891  1.00  0.00     0.134 A 
ATOM     70  C   UNL A   1      38.282  28.481  29.857  1.00  0.00     0.134 A 
ATOM     71  F   UNL A   1      37.679  29.889  26.572  1.00  0.00    -0.206 F 
ATOM     72  C   UNL A   1      36.849  30.510  28.656  1.00  0.00     0.040 A 
ATOM     73  C   UNL A   1      37.456  29.312  30.624  1.00  0.00     0.040 A 
ATOM     74  F   UNL A   1      38.984  27.600  30.575  1.00  0.00    -0.206 F 
ATOM     75  C   UNL A   1      36.764  30.355  30.031  1.00  0.00     0.006 A 
ENDBRANCH  54  68
BRANCH  55  76
ATOM     76  C   UNL A   1      44.750  26.748  33.840  1.00  0.00     0.057 A 
ATOM     77  C   UNL A   1      43.816  26.308  34.791  1.00  0.00     0.134 A 
ATOM     78  C   UNL A   1      46.092  26.762  34.253  1.00  0.00     0.134 A 
ATOM     79  F   UNL A   1      42.512  26.237  34.485  1.00  0.00    -0.206 F 
ATOM     80  C   UNL A   1      44.198  25.861  36.062  1.00  0.00     0.040 A 
ATOM     81  C   UNL A   1      46.487  26.322  35.522  1.00  0.00     0.040 A 
ATOM     82  F   UNL A   1      47.069  27.115  33.405  1.00  0.00    -0.206 F 
ATOM     83  C   UNL A   1      45.541  25.850  36.425  1.00  0.00     0.006 A 
ENDBRANCH  55  76
BRANCH  67  84
ATOM     84  C   UNL A   1      45.233  29.575  28.325  1.00  0.00     0.057 A 
ATOM     85  C   UNL A   1      45.903  28.422  27.894  1.00  0.00     0.134 A 
ATOM     86  C   UNL A   1      45.900  30.796  28.177  1.00  0.00     0.134 A 
ATOM     87  F   UNL A   1      45.315  27.219  27.935  1.00  0.00    -0.206 F 
ATOM     88  C   UNL A   1      47.198  28.483  27.372  1.00  0.00     0.040 A 
ATOM     89  C   UNL A   1      47.178  30.874  27.625  1.00  0.00     0.040 A 
ATOM     90  F   UNL A   1      45.301  31.941  28.540  1.00  0.00    -0.206 F 
ATOM     91  C   UNL A   1      47.836  29.713  27.230  1.00  0.00     0.006 A 
ENDBRANCH  67  84
ENDBRANCH  41  42
ENDBRANCH  33  36
ENDBRANCH  31  32
ENDBRANCH  30  31
ENDBRANCH   1  30
TORSDOF 13
ENDMDL
