MODEL 1
REMARK VINA RESULT:     -11.3      0.000      0.000
REMARK SMILES [NH3+][C@H](C(=O)NCCCCNC(=O)c1ccc(-c2c3nc(c(-c4c(F)cccc4F)c4ccc([nH]4)c(-c4c(F)cccc4F)c4nc(c(-c5c(F)cccc5F)c5ccc2[nH]5)C=C4)C=C3)cc1)c1ccc(OCC(=O)N2CCCC2)cc1
REMARK SMILES IDX 6 1 5 2 3 3 4 4 2 6 1 7 67 11 68 12 81 13 69 14 80 15 70 16
REMARK SMILES IDX 71 17 72 18 73 19 74 20 75 21 76 22 79 23 77 24 78 25 7 26
REMARK SMILES IDX 8 27 9 28 10 29 11 30 12 32 13 33 14 34 66 35 15 36 65 37
REMARK SMILES IDX 16 38 17 39 18 40 59 41 19 42 64 43 58 44 60 45 20 46 63 47
REMARK SMILES IDX 57 48 56 49 21 51 47 52 30 53 46 54 31 55 34 56 45 57 61 58
REMARK SMILES IDX 32 59 33 60 44 62 62 63 35 64 22 65 23 66 28 67 24 68 25 69
REMARK SMILES IDX 27 70 29 71 26 72 48 73 49 74 54 75 50 76 51 77 53 78 55 79
REMARK SMILES IDX 52 80 36 81 37 82 42 83 38 84 39 85 41 86 43 87 40 88
REMARK H PARENT 5 5 1 8 1 9 1 10 10 31 60 50 34 61
REMARK Flexibility Score: inf
ROOT
ATOM      1  C   UNL A   1      36.691  22.218  25.444  1.00  0.00     0.116 C 
ENDROOT
BRANCH   1   2
ATOM      2  N   UNL A   1      35.770  21.911  26.522  1.00  0.00    -0.351 N 
ATOM      3  C   UNL A   1      34.471  21.515  26.542  1.00  0.00     0.283 C 
ATOM      4  O   UNL A   1      33.957  21.482  27.673  1.00  0.00    -0.268 OA
ATOM      5  H   UNL A   1      36.166  22.012  27.418  1.00  0.00     0.163 HD
BRANCH   3   6
ATOM      6  C   UNL A   1      33.617  21.055  25.316  1.00  0.00     0.302 C 
BRANCH   6   7
ATOM      7  N   UNL A   1      32.659  20.021  25.781  1.00  0.00    -0.343 N 
ATOM      8  H   UNL A   1      31.714  20.283  25.501  1.00  0.00     0.345 HD
ATOM      9  H   UNL A   1      32.706  19.947  26.797  1.00  0.00     0.345 HD
ATOM     10  H   UNL A   1      32.900  19.123  25.362  1.00  0.00     0.345 HD
ENDBRANCH   6   7
BRANCH   6  11
ATOM     11  C   UNL A   1      32.912  22.099  24.480  1.00  0.00     0.019 A 
ATOM     12  C   UNL A   1      31.657  22.614  24.825  1.00  0.00     0.014 A 
ATOM     13  C   UNL A   1      33.555  22.630  23.348  1.00  0.00     0.014 A 
ATOM     14  C   UNL A   1      31.158  23.746  24.174  1.00  0.00     0.047 A 
ATOM     15  C   UNL A   1      33.038  23.743  22.677  1.00  0.00     0.047 A 
ATOM     16  C   UNL A   1      31.872  24.346  23.134  1.00  0.00     0.120 A 
BRANCH  16  17
ATOM     17  O   UNL A   1      31.358  25.535  22.708  1.00  0.00    -0.484 OA
BRANCH  17  18
ATOM     18  C   UNL A   1      30.681  26.349  23.642  1.00  0.00     0.329 C 
BRANCH  18  19
ATOM     19  C   UNL A   1      31.115  27.801  23.924  1.00  0.00     0.260 C 
ATOM     20  O   UNL A   1      31.003  28.655  23.039  1.00  0.00    -0.271 OA
ATOM     21  N   UNL A   1      31.522  28.142  25.193  1.00  0.00    -0.340 N 
ATOM     22  C   UNL A   1      31.839  27.264  26.303  1.00  0.00     0.119 C 
ATOM     23  C   UNL A   1      31.642  29.540  25.578  1.00  0.00     0.119 C 
ATOM     24  C   UNL A   1      31.588  28.132  27.522  1.00  0.00     0.023 C 
ATOM     25  C   UNL A   1      31.994  29.526  27.059  1.00  0.00     0.023 C 
ENDBRANCH  18  19
ENDBRANCH  17  18
ENDBRANCH  16  17
ENDBRANCH   6  11
ENDBRANCH   3   6
ENDBRANCH   1   2
BRANCH   1  26
ATOM     26  C   UNL A   1      36.819  21.037  24.478  1.00  0.00     0.023 C 
BRANCH  26  27
ATOM     27  C   UNL A   1      37.721  19.904  24.965  1.00  0.00     0.023 C 
BRANCH  27  28
ATOM     28  C   UNL A   1      38.946  20.358  25.746  1.00  0.00     0.116 C 
BRANCH  28  29
ATOM     29  N   UNL A   1      40.028  19.386  25.733  1.00  0.00    -0.352 N 
ATOM     30  C   UNL A   1      41.349  19.573  26.055  1.00  0.00     0.251 C 
ATOM     31  H   UNL A   1      39.780  18.475  25.456  1.00  0.00     0.163 HD
ATOM     32  O   UNL A   1      42.168  18.684  25.841  1.00  0.00    -0.269 OA
BRANCH  30  33
ATOM     33  C   UNL A   1      41.795  20.865  26.615  1.00  0.00     0.039 A 
ATOM     34  C   UNL A   1      42.227  21.858  25.733  1.00  0.00     0.014 A 
ATOM     35  C   UNL A   1      41.760  21.110  27.990  1.00  0.00     0.014 A 
ATOM     36  C   UNL A   1      42.558  23.119  26.224  1.00  0.00     0.010 A 
ATOM     37  C   UNL A   1      42.000  22.392  28.468  1.00  0.00     0.010 A 
ATOM     38  C   UNL A   1      42.409  23.407  27.590  1.00  0.00    -0.014 A 
BRANCH  38  39
ATOM     39  C   UNL A   1      42.692  24.762  28.118  1.00  0.00     0.031 A 
ATOM     40  C   UNL A   1      44.094  25.144  28.498  1.00  0.00     0.074 A 
ATOM     41  C   UNL A   1      41.676  25.627  28.302  1.00  0.00     0.049 A 
ATOM     42  N   UNL A   1      44.538  26.269  28.997  1.00  0.00    -0.248 NA
ATOM     43  C   UNL A   1      45.133  24.115  28.324  1.00  0.00     0.031 C 
ATOM     44  C   UNL A   1      40.265  25.348  28.026  1.00  0.00     0.029 A 
ATOM     45  N   UNL A   1      41.675  26.917  28.765  1.00  0.00    -0.354 N 
ATOM     46  C   UNL A   1      45.896  26.075  29.212  1.00  0.00     0.074 A 
ATOM     47  C   UNL A   1      46.193  24.708  28.849  1.00  0.00     0.031 C 
ATOM     48  C   UNL A   1      39.540  26.449  28.284  1.00  0.00     0.029 A 
ATOM     49  C   UNL A   1      40.429  27.497  28.776  1.00  0.00     0.049 A 
ATOM     50  H   UNL A   1      42.489  27.384  29.061  1.00  0.00     0.167 HD
ATOM     51  C   UNL A   1      46.819  26.966  29.647  1.00  0.00     0.037 A 
ATOM     52  C   UNL A   1      40.052  28.738  29.135  1.00  0.00     0.037 A 
ATOM     53  C   UNL A   1      46.523  28.334  29.974  1.00  0.00     0.049 A 
ATOM     54  C   UNL A   1      41.097  29.711  29.601  1.00  0.00     0.074 A 
ATOM     55  C   UNL A   1      47.394  29.339  30.356  1.00  0.00     0.029 A 
ATOM     56  N   UNL A   1      45.251  28.890  29.959  1.00  0.00    -0.354 N 
ATOM     57  N   UNL A   1      42.392  29.540  29.723  1.00  0.00    -0.248 NA
ATOM     58  C   UNL A   1      40.629  31.054  29.972  1.00  0.00     0.031 C 
ATOM     59  C   UNL A   1      46.644  30.492  30.613  1.00  0.00     0.029 A 
ATOM     60  C   UNL A   1      45.312  30.219  30.344  1.00  0.00     0.049 A 
ATOM     61  H   UNL A   1      44.428  28.411  29.710  1.00  0.00     0.167 HD
ATOM     62  C   UNL A   1      42.897  30.761  30.152  1.00  0.00     0.074 A 
ATOM     63  C   UNL A   1      41.770  31.666  30.256  1.00  0.00     0.031 C 
ATOM     64  C   UNL A   1      44.178  31.104  30.432  1.00  0.00     0.037 A 
BRANCH  51  65
ATOM     65  C   UNL A   1      48.233  26.479  29.785  1.00  0.00     0.057 A 
ATOM     66  C   UNL A   1      49.172  26.628  28.756  1.00  0.00     0.134 A 
ATOM     67  C   UNL A   1      48.663  25.862  30.967  1.00  0.00     0.134 A 
ATOM     68  F   UNL A   1      48.822  27.197  27.593  1.00  0.00    -0.206 F 
ATOM     69  C   UNL A   1      50.478  26.149  28.884  1.00  0.00     0.040 A 
ATOM     70  C   UNL A   1      49.974  25.406  31.116  1.00  0.00     0.040 A 
ATOM     71  F   UNL A   1      47.817  25.690  31.994  1.00  0.00    -0.206 F 
ATOM     72  C   UNL A   1      50.883  25.541  30.069  1.00  0.00     0.006 A 
ENDBRANCH  51  65
BRANCH  52  73
ATOM     73  C   UNL A   1      38.630  29.147  29.021  1.00  0.00     0.057 A 
ATOM     74  C   UNL A   1      37.775  29.089  30.128  1.00  0.00     0.134 A 
ATOM     75  C   UNL A   1      38.088  29.598  27.812  1.00  0.00     0.134 A 
ATOM     76  F   UNL A   1      38.233  28.651  31.311  1.00  0.00    -0.206 F 
ATOM     77  C   UNL A   1      36.429  29.443  30.034  1.00  0.00     0.040 A 
ATOM     78  C   UNL A   1      36.749  29.979  27.709  1.00  0.00     0.040 A 
ATOM     79  F   UNL A   1      38.857  29.686  26.716  1.00  0.00    -0.206 F 
ATOM     80  C   UNL A   1      35.914  29.894  28.821  1.00  0.00     0.006 A 
ENDBRANCH  52  73
BRANCH  64  81
ATOM     81  C   UNL A   1      44.432  32.528  30.836  1.00  0.00     0.057 A 
ATOM     82  C   UNL A   1      44.680  33.531  29.892  1.00  0.00     0.134 A 
ATOM     83  C   UNL A   1      44.398  32.899  32.185  1.00  0.00     0.134 A 
ATOM     84  F   UNL A   1      44.738  33.237  28.584  1.00  0.00    -0.206 F 
ATOM     85  C   UNL A   1      44.913  34.852  30.279  1.00  0.00     0.040 A 
ATOM     86  C   UNL A   1      44.601  34.222  32.583  1.00  0.00     0.040 A 
ATOM     87  F   UNL A   1      44.156  31.987  33.139  1.00  0.00    -0.206 F 
ATOM     88  C   UNL A   1      44.868  35.201  31.628  1.00  0.00     0.006 A 
ENDBRANCH  64  81
ENDBRANCH  38  39
ENDBRANCH  30  33
ENDBRANCH  28  29
ENDBRANCH  27  28
ENDBRANCH  26  27
ENDBRANCH   1  26
TORSDOF 16
ENDMDL
MODEL 2
REMARK VINA RESULT:     -11.3      1.033      6.305
REMARK SMILES [NH3+][C@H](C(=O)NCCCCNC(=O)c1ccc(-c2c3nc(c(-c4c(F)cccc4F)c4ccc([nH]4)c(-c4c(F)cccc4F)c4nc(c(-c5c(F)cccc5F)c5ccc2[nH]5)C=C4)C=C3)cc1)c1ccc(OCC(=O)N2CCCC2)cc1
REMARK SMILES IDX 6 1 5 2 3 3 4 4 2 6 1 7 67 11 68 12 81 13 69 14 80 15 70 16
REMARK SMILES IDX 71 17 72 18 73 19 74 20 75 21 76 22 79 23 77 24 78 25 7 26
REMARK SMILES IDX 8 27 9 28 10 29 11 30 12 32 13 33 14 34 66 35 15 36 65 37
REMARK SMILES IDX 16 38 17 39 18 40 59 41 19 42 64 43 58 44 60 45 20 46 63 47
REMARK SMILES IDX 57 48 56 49 21 51 47 52 30 53 46 54 31 55 34 56 45 57 61 58
REMARK SMILES IDX 32 59 33 60 44 62 62 63 35 64 22 65 23 66 28 67 24 68 25 69
REMARK SMILES IDX 27 70 29 71 26 72 48 73 49 74 54 75 50 76 51 77 53 78 55 79
REMARK SMILES IDX 52 80 36 81 37 82 42 83 38 84 39 85 41 86 43 87 40 88
REMARK H PARENT 5 5 1 8 1 9 1 10 10 31 60 50 34 61
REMARK Flexibility Score: inf
ROOT
ATOM      1  C   UNL A   1      34.914  21.249  26.151  1.00  0.00     0.116 C 
ENDROOT
BRANCH   1   2
ATOM      2  N   UNL A   1      34.059  20.151  25.740  1.00  0.00    -0.351 N 
ATOM      3  C   UNL A   1      32.779  20.096  25.293  1.00  0.00     0.283 C 
ATOM      4  O   UNL A   1      32.322  18.947  25.168  1.00  0.00    -0.268 OA
ATOM      5  H   UNL A   1      34.495  19.271  25.799  1.00  0.00     0.163 HD
BRANCH   3   6
ATOM      6  C   UNL A   1      31.881  21.308  24.879  1.00  0.00     0.302 C 
BRANCH   6   7
ATOM      7  N   UNL A   1      31.241  21.850  26.102  1.00  0.00    -0.343 N 
ATOM      8  H   UNL A   1      31.944  21.960  26.834  1.00  0.00     0.345 HD
ATOM      9  H   UNL A   1      30.516  21.207  26.421  1.00  0.00     0.345 HD
ATOM     10  H   UNL A   1      30.824  22.757  25.893  1.00  0.00     0.345 HD
ENDBRANCH   6   7
BRANCH   6  11
ATOM     11  C   UNL A   1      32.489  22.422  24.055  1.00  0.00     0.019 A 
ATOM     12  C   UNL A   1      32.918  22.233  22.737  1.00  0.00     0.014 A 
ATOM     13  C   UNL A   1      32.573  23.717  24.598  1.00  0.00     0.014 A 
ATOM     14  C   UNL A   1      33.235  23.333  21.935  1.00  0.00     0.047 A 
ATOM     15  C   UNL A   1      32.923  24.814  23.803  1.00  0.00     0.047 A 
ATOM     16  C   UNL A   1      33.187  24.631  22.450  1.00  0.00     0.120 A 
BRANCH  16  17
ATOM     17  O   UNL A   1      33.351  25.614  21.520  1.00  0.00    -0.484 OA
BRANCH  17  18
ATOM     18  C   UNL A   1      33.384  26.956  21.958  1.00  0.00     0.329 C 
BRANCH  18  19
ATOM     19  C   UNL A   1      32.112  27.694  22.420  1.00  0.00     0.260 C 
ATOM     20  O   UNL A   1      31.025  27.423  21.899  1.00  0.00    -0.271 OA
ATOM     21  N   UNL A   1      32.193  28.565  23.481  1.00  0.00    -0.340 N 
ATOM     22  C   UNL A   1      33.381  29.099  24.118  1.00  0.00     0.119 C 
ATOM     23  C   UNL A   1      30.986  29.040  24.139  1.00  0.00     0.119 C 
ATOM     24  C   UNL A   1      32.910  29.433  25.522  1.00  0.00     0.023 C 
ATOM     25  C   UNL A   1      31.466  29.877  25.318  1.00  0.00     0.023 C 
ENDBRANCH  18  19
ENDBRANCH  17  18
ENDBRANCH  16  17
ENDBRANCH   6  11
ENDBRANCH   3   6
ENDBRANCH   1   2
BRANCH   1  26
ATOM     26  C   UNL A   1      35.991  21.530  25.100  1.00  0.00     0.023 C 
BRANCH  26  27
ATOM     27  C   UNL A   1      37.055  20.442  24.965  1.00  0.00     0.023 C 
BRANCH  27  28
ATOM     28  C   UNL A   1      38.454  20.866  25.386  1.00  0.00     0.116 C 
BRANCH  28  29
ATOM     29  N   UNL A   1      39.380  19.750  25.510  1.00  0.00    -0.352 N 
ATOM     30  C   UNL A   1      40.670  19.758  25.980  1.00  0.00     0.251 C 
ATOM     31  H   UNL A   1      39.036  18.876  25.218  1.00  0.00     0.163 HD
ATOM     32  O   UNL A   1      41.370  18.755  25.872  1.00  0.00    -0.269 OA
BRANCH  30  33
ATOM     33  C   UNL A   1      41.231  20.989  26.571  1.00  0.00     0.039 A 
ATOM     34  C   UNL A   1      41.835  21.919  25.722  1.00  0.00     0.014 A 
ATOM     35  C   UNL A   1      41.139  21.242  27.943  1.00  0.00     0.014 A 
ATOM     36  C   UNL A   1      42.282  23.133  26.237  1.00  0.00     0.010 A 
ATOM     37  C   UNL A   1      41.501  22.488  28.439  1.00  0.00     0.010 A 
ATOM     38  C   UNL A   1      42.083  23.442  27.592  1.00  0.00    -0.014 A 
BRANCH  38  39
ATOM     39  C   UNL A   1      42.493  24.756  28.142  1.00  0.00     0.031 A 
ATOM     40  C   UNL A   1      41.468  25.833  28.360  1.00  0.00     0.074 A 
ATOM     41  C   UNL A   1      43.794  24.992  28.394  1.00  0.00     0.049 A 
ATOM     42  N   UNL A   1      41.631  27.051  28.809  1.00  0.00    -0.248 NA
ATOM     43  C   UNL A   1      40.078  25.509  27.997  1.00  0.00     0.031 C 
ATOM     44  C   UNL A   1      44.888  24.046  28.166  1.00  0.00     0.029 A 
ATOM     45  N   UNL A   1      44.418  26.104  28.899  1.00  0.00    -0.354 N 
ATOM     46  C   UNL A   1      40.374  27.640  28.764  1.00  0.00     0.074 A 
ATOM     47  C   UNL A   1      39.471  26.670  28.187  1.00  0.00     0.031 C 
ATOM     48  C   UNL A   1      46.042  24.601  28.569  1.00  0.00     0.029 A 
ATOM     49  C   UNL A   1      45.775  25.952  29.051  1.00  0.00     0.049 A 
ATOM     50  H   UNL A   1      43.939  26.932  29.131  1.00  0.00     0.167 HD
ATOM     51  C   UNL A   1      40.001  28.869  29.191  1.00  0.00     0.037 A 
ATOM     52  C   UNL A   1      46.696  26.806  29.534  1.00  0.00     0.037 A 
ATOM     53  C   UNL A   1      40.899  29.817  29.795  1.00  0.00     0.049 A 
ATOM     54  C   UNL A   1      46.254  28.160  30.014  1.00  0.00     0.074 A 
ATOM     55  C   UNL A   1      40.611  31.062  30.326  1.00  0.00     0.029 A 
ATOM     56  N   UNL A   1      42.264  29.622  29.946  1.00  0.00    -0.354 N 
ATOM     57  N   UNL A   1      45.048  28.676  30.040  1.00  0.00    -0.248 NA
ATOM     58  C   UNL A   1      47.301  29.049  30.538  1.00  0.00     0.031 C 
ATOM     59  C   UNL A   1      41.810  31.637  30.761  1.00  0.00     0.029 A 
ATOM     60  C   UNL A   1      42.837  30.732  30.544  1.00  0.00     0.049 A 
ATOM     61  H   UNL A   1      42.753  28.814  29.669  1.00  0.00     0.167 HD
ATOM     62  C   UNL A   1      45.186  29.933  30.614  1.00  0.00     0.074 A 
ATOM     63  C   UNL A   1      46.591  30.096  30.932  1.00  0.00     0.031 C 
ATOM     64  C   UNL A   1      44.236  30.869  30.859  1.00  0.00     0.037 A 
BRANCH  51  65
ATOM     65  C   UNL A   1      38.558  29.248  29.020  1.00  0.00     0.057 A 
ATOM     66  C   UNL A   1      38.043  29.669  27.786  1.00  0.00     0.134 A 
ATOM     67  C   UNL A   1      37.669  29.181  30.100  1.00  0.00     0.134 A 
ATOM     68  F   UNL A   1      38.843  29.771  26.714  1.00  0.00    -0.206 F 
ATOM     69  C   UNL A   1      36.706  30.044  27.642  1.00  0.00     0.040 A 
ATOM     70  C   UNL A   1      36.323  29.525  29.960  1.00  0.00     0.040 A 
ATOM     71  F   UNL A   1      38.093  28.782  31.309  1.00  0.00    -0.206 F 
ATOM     72  C   UNL A   1      35.840  29.967  28.730  1.00  0.00     0.006 A 
ENDBRANCH  51  65
BRANCH  52  73
ATOM     73  C   UNL A   1      48.118  26.392  29.635  1.00  0.00     0.057 A 
ATOM     74  C   UNL A   1      49.010  26.625  28.581  1.00  0.00     0.134 A 
ATOM     75  C   UNL A   1      48.619  25.752  30.774  1.00  0.00     0.134 A 
ATOM     76  F   UNL A   1      48.584  27.221  27.457  1.00  0.00    -0.206 F 
ATOM     77  C   UNL A   1      50.343  26.217  28.647  1.00  0.00     0.040 A 
ATOM     78  C   UNL A   1      49.956  25.361  30.864  1.00  0.00     0.040 A 
ATOM     79  F   UNL A   1      47.818  25.509  31.822  1.00  0.00    -0.206 F 
ATOM     80  C   UNL A   1      50.820  25.587  29.794  1.00  0.00     0.006 A 
ENDBRANCH  52  73
BRANCH  64  81
ATOM     81  C   UNL A   1      44.680  32.131  31.540  1.00  0.00     0.057 A 
ATOM     82  C   UNL A   1      45.087  33.258  30.816  1.00  0.00     0.134 A 
ATOM     83  C   UNL A   1      44.671  32.225  32.937  1.00  0.00     0.134 A 
ATOM     84  F   UNL A   1      45.131  33.227  29.475  1.00  0.00    -0.206 F 
ATOM     85  C   UNL A   1      45.497  34.427  31.459  1.00  0.00     0.040 A 
ATOM     86  C   UNL A   1      45.051  33.397  33.591  1.00  0.00     0.040 A 
ATOM     87  F   UNL A   1      44.283  31.184  33.688  1.00  0.00    -0.206 F 
ATOM     88  C   UNL A   1      45.474  34.500  32.851  1.00  0.00     0.006 A 
ENDBRANCH  64  81
ENDBRANCH  38  39
ENDBRANCH  30  33
ENDBRANCH  28  29
ENDBRANCH  27  28
ENDBRANCH  26  27
ENDBRANCH   1  26
TORSDOF 16
ENDMDL
MODEL 3
REMARK VINA RESULT:     -11.3      1.452      2.100
REMARK SMILES [NH3+][C@H](C(=O)NCCCCNC(=O)c1ccc(-c2c3nc(c(-c4c(F)cccc4F)c4ccc([nH]4)c(-c4c(F)cccc4F)c4nc(c(-c5c(F)cccc5F)c5ccc2[nH]5)C=C4)C=C3)cc1)c1ccc(OCC(=O)N2CCCC2)cc1
REMARK SMILES IDX 6 1 5 2 3 3 4 4 2 6 1 7 67 11 68 12 81 13 69 14 80 15 70 16
REMARK SMILES IDX 71 17 72 18 73 19 74 20 75 21 76 22 79 23 77 24 78 25 7 26
REMARK SMILES IDX 8 27 9 28 10 29 11 30 12 32 13 33 14 34 66 35 15 36 65 37
REMARK SMILES IDX 16 38 17 39 18 40 59 41 19 42 64 43 58 44 60 45 20 46 63 47
REMARK SMILES IDX 57 48 56 49 21 51 47 52 30 53 46 54 31 55 34 56 45 57 61 58
REMARK SMILES IDX 32 59 33 60 44 62 62 63 35 64 22 65 23 66 28 67 24 68 25 69
REMARK SMILES IDX 27 70 29 71 26 72 48 73 49 74 54 75 50 76 51 77 53 78 55 79
REMARK SMILES IDX 52 80 36 81 37 82 42 83 38 84 39 85 41 86 43 87 40 88
REMARK H PARENT 5 5 1 8 1 9 1 10 10 31 60 50 34 61
REMARK Flexibility Score: inf
ROOT
ATOM      1  C   UNL A   1      35.796  20.641  25.294  1.00  0.00     0.116 C 
ENDROOT
BRANCH   1   2
ATOM      2  N   UNL A   1      35.559  19.330  24.720  1.00  0.00    -0.351 N 
ATOM      3  C   UNL A   1      34.467  18.525  24.675  1.00  0.00     0.283 C 
ATOM      4  O   UNL A   1      34.678  17.391  24.212  1.00  0.00    -0.268 OA
ATOM      5  H   UNL A   1      36.350  18.948  24.275  1.00  0.00     0.163 HD
BRANCH   3   6
ATOM      6  C   UNL A   1      33.007  18.908  25.085  1.00  0.00     0.302 C 
BRANCH   6   7
ATOM      7  N   UNL A   1      32.909  18.842  26.563  1.00  0.00    -0.343 N 
ATOM      8  H   UNL A   1      32.953  19.785  26.950  1.00  0.00     0.345 HD
ATOM      9  H   UNL A   1      33.681  18.285  26.931  1.00  0.00     0.345 HD
ATOM     10  H   UNL A   1      32.023  18.409  26.825  1.00  0.00     0.345 HD
ENDBRANCH   6   7
BRANCH   6  11
ATOM     11  C   UNL A   1      32.416  20.201  24.567  1.00  0.00     0.019 A 
ATOM     12  C   UNL A   1      31.902  21.185  25.420  1.00  0.00     0.014 A 
ATOM     13  C   UNL A   1      32.436  20.468  23.187  1.00  0.00     0.014 A 
ATOM     14  C   UNL A   1      31.600  22.456  24.925  1.00  0.00     0.047 A 
ATOM     15  C   UNL A   1      32.102  21.731  22.689  1.00  0.00     0.047 A 
ATOM     16  C   UNL A   1      31.750  22.750  23.567  1.00  0.00     0.120 A 
BRANCH  16  17
ATOM     17  O   UNL A   1      31.588  24.067  23.252  1.00  0.00    -0.484 OA
BRANCH  17  18
ATOM     18  C   UNL A   1      31.643  25.019  24.293  1.00  0.00     0.329 C 
BRANCH  18  19
ATOM     19  C   UNL A   1      32.838  25.980  24.456  1.00  0.00     0.260 C 
ATOM     20  O   UNL A   1      33.976  25.594  24.169  1.00  0.00    -0.271 OA
ATOM     21  N   UNL A   1      32.601  27.285  24.817  1.00  0.00    -0.340 N 
ATOM     22  C   UNL A   1      31.371  27.872  25.315  1.00  0.00     0.119 C 
ATOM     23  C   UNL A   1      33.645  28.289  24.684  1.00  0.00     0.119 C 
ATOM     24  C   UNL A   1      31.498  29.335  24.931  1.00  0.00     0.023 C 
ATOM     25  C   UNL A   1      32.991  29.611  25.062  1.00  0.00     0.023 C 
ENDBRANCH  18  19
ENDBRANCH  17  18
ENDBRANCH  16  17
ENDBRANCH   6  11
ENDBRANCH   3   6
ENDBRANCH   1   2
BRANCH   1  26
ATOM     26  C   UNL A   1      37.180  21.169  24.907  1.00  0.00     0.023 C 
BRANCH  26  27
ATOM     27  C   UNL A   1      38.276  20.106  24.840  1.00  0.00     0.023 C 
BRANCH  27  28
ATOM     28  C   UNL A   1      39.194  20.064  26.052  1.00  0.00     0.116 C 
BRANCH  28  29
ATOM     29  N   UNL A   1      40.285  19.112  25.913  1.00  0.00    -0.352 N 
ATOM     30  C   UNL A   1      41.635  19.334  26.034  1.00  0.00     0.251 C 
ATOM     31  H   UNL A   1      40.021  18.187  25.704  1.00  0.00     0.163 HD
ATOM     32  O   UNL A   1      42.433  18.453  25.730  1.00  0.00    -0.269 OA
BRANCH  30  33
ATOM     33  C   UNL A   1      42.127  20.652  26.481  1.00  0.00     0.039 A 
ATOM     34  C   UNL A   1      42.533  21.574  25.514  1.00  0.00     0.014 A 
ATOM     35  C   UNL A   1      42.160  20.992  27.837  1.00  0.00     0.014 A 
ATOM     36  C   UNL A   1      42.907  22.859  25.901  1.00  0.00     0.010 A 
ATOM     37  C   UNL A   1      42.444  22.299  28.213  1.00  0.00     0.010 A 
ATOM     38  C   UNL A   1      42.827  23.242  27.249  1.00  0.00    -0.014 A 
BRANCH  38  39
ATOM     39  C   UNL A   1      43.156  24.625  27.669  1.00  0.00     0.031 A 
ATOM     40  C   UNL A   1      44.590  25.068  27.742  1.00  0.00     0.074 A 
ATOM     41  C   UNL A   1      42.164  25.461  28.032  1.00  0.00     0.049 A 
ATOM     42  N   UNL A   1      45.080  26.225  28.106  1.00  0.00    -0.248 NA
ATOM     43  C   UNL A   1      45.612  24.069  27.388  1.00  0.00     0.031 C 
ATOM     44  C   UNL A   1      40.739  25.124  28.059  1.00  0.00     0.029 A 
ATOM     45  N   UNL A   1      42.205  26.766  28.448  1.00  0.00    -0.354 N 
ATOM     46  C   UNL A   1      46.460  26.085  28.043  1.00  0.00     0.074 A 
ATOM     47  C   UNL A   1      46.732  24.717  27.667  1.00  0.00     0.031 C 
ATOM     48  C   UNL A   1      40.038  26.209  28.429  1.00  0.00     0.029 A 
ATOM     49  C   UNL A   1      40.966  27.304  28.698  1.00  0.00     0.049 A 
ATOM     50  H   UNL A   1      43.043  27.272  28.557  1.00  0.00     0.167 HD
ATOM     51  C   UNL A   1      47.415  27.022  28.254  1.00  0.00     0.037 A 
ATOM     52  C   UNL A   1      40.619  28.543  29.090  1.00  0.00     0.037 A 
ATOM     53  C   UNL A   1      47.136  28.391  28.595  1.00  0.00     0.049 A 
ATOM     54  C   UNL A   1      41.697  29.568  29.304  1.00  0.00     0.074 A 
ATOM     55  C   UNL A   1      48.025  29.438  28.761  1.00  0.00     0.029 A 
ATOM     56  N   UNL A   1      45.866  28.903  28.825  1.00  0.00    -0.354 N 
ATOM     57  N   UNL A   1      42.995  29.446  29.163  1.00  0.00    -0.248 NA
ATOM     58  C   UNL A   1      41.260  30.907  29.724  1.00  0.00     0.031 C 
ATOM     59  C   UNL A   1      47.297  30.573  29.133  1.00  0.00     0.029 A 
ATOM     60  C   UNL A   1      45.950  30.245  29.151  1.00  0.00     0.049 A 
ATOM     61  H   UNL A   1      45.031  28.387  28.764  1.00  0.00     0.167 HD
ATOM     62  C   UNL A   1      43.527  30.698  29.443  1.00  0.00     0.074 A 
ATOM     63  C   UNL A   1      42.409  31.567  29.751  1.00  0.00     0.031 C 
ATOM     64  C   UNL A   1      44.823  31.095  29.445  1.00  0.00     0.037 A 
BRANCH  51  65
ATOM     65  C   UNL A   1      48.846  26.589  28.113  1.00  0.00     0.057 A 
ATOM     66  C   UNL A   1      49.595  26.137  29.207  1.00  0.00     0.134 A 
ATOM     67  C   UNL A   1      49.480  26.615  26.864  1.00  0.00     0.134 A 
ATOM     68  F   UNL A   1      49.053  26.101  30.434  1.00  0.00    -0.206 F 
ATOM     69  C   UNL A   1      50.933  25.760  29.072  1.00  0.00     0.040 A 
ATOM     70  C   UNL A   1      50.808  26.213  26.712  1.00  0.00     0.040 A 
ATOM     71  F   UNL A   1      48.821  27.033  25.773  1.00  0.00    -0.206 F 
ATOM     72  C   UNL A   1      51.541  25.792  27.820  1.00  0.00     0.006 A 
ENDBRANCH  51  65
BRANCH  52  73
ATOM     73  C   UNL A   1      39.188  28.899  29.259  1.00  0.00     0.057 A 
ATOM     74  C   UNL A   1      38.547  28.732  30.492  1.00  0.00     0.134 A 
ATOM     75  C   UNL A   1      38.426  29.407  28.201  1.00  0.00     0.134 A 
ATOM     76  F   UNL A   1      39.222  28.235  31.541  1.00  0.00    -0.206 F 
ATOM     77  C   UNL A   1      37.196  29.035  30.663  1.00  0.00     0.040 A 
ATOM     78  C   UNL A   1      37.080  29.738  28.363  1.00  0.00     0.040 A 
ATOM     79  F   UNL A   1      38.984  29.600  26.996  1.00  0.00    -0.206 F 
ATOM     80  C   UNL A   1      36.459  29.544  29.596  1.00  0.00     0.006 A 
ENDBRANCH  52  73
BRANCH  64  81
ATOM     81  C   UNL A   1      45.095  32.539  29.746  1.00  0.00     0.057 A 
ATOM     82  C   UNL A   1      45.363  32.986  31.046  1.00  0.00     0.134 A 
ATOM     83  C   UNL A   1      45.116  33.488  28.717  1.00  0.00     0.134 A 
ATOM     84  F   UNL A   1      45.345  32.128  32.078  1.00  0.00    -0.206 F 
ATOM     85  C   UNL A   1      45.616  34.332  31.315  1.00  0.00     0.040 A 
ATOM     86  C   UNL A   1      45.395  34.832  28.969  1.00  0.00     0.040 A 
ATOM     87  F   UNL A   1      44.877  33.124  27.448  1.00  0.00    -0.206 F 
ATOM     88  C   UNL A   1      45.638  35.258  30.274  1.00  0.00     0.006 A 
ENDBRANCH  64  81
ENDBRANCH  38  39
ENDBRANCH  30  33
ENDBRANCH  28  29
ENDBRANCH  27  28
ENDBRANCH  26  27
ENDBRANCH   1  26
TORSDOF 16
ENDMDL
