MODEL 1
REMARK VINA RESULT:     -12.1      0.000      0.000
REMARK SMILES Cc1cccc2c(C(=O)NCCCCNC(=O)c3ccc(-c4c5nc(c(-c6c(F)cccc6F)c6ccc([nH]6)c(-c6c(F)cccc6F)c6nc(c(-c7c(F)cccc7F)c7ccc4[nH]7)C=C6)C=C5)cc3)cc(=O)[nH]c12
REMARK SMILES IDX 13 1 12 2 11 3 10 4 8 5 9 6 7 8 1 9 2 10 3 11 76 12 4 13
REMARK SMILES IDX 6 14 75 15 5 16 73 17 72 19 74 20 14 21 15 22 16 23 17 25
REMARK SMILES IDX 18 26 19 27 71 28 20 29 70 30 21 31 22 32 23 33 64 34 24 35
REMARK SMILES IDX 69 36 63 37 65 38 25 39 68 40 62 41 61 42 26 44 52 45 35 46
REMARK SMILES IDX 51 47 36 48 39 49 50 50 66 51 37 52 38 53 49 55 67 56 40 57
REMARK SMILES IDX 27 58 28 59 33 60 29 61 30 62 32 63 34 64 31 65 53 66 54 67
REMARK SMILES IDX 59 68 55 69 56 70 58 71 60 72 57 73 41 74 42 75 47 76 43 77
REMARK SMILES IDX 44 78 46 79 48 80 45 81
REMARK H PARENT 10 7 75 18 15 24 65 43 39 54
REMARK Flexibility Score: inf
ROOT
ATOM      1  C   UNL A   1      37.494  20.950  24.874  1.00  0.00     0.023 C 
ENDROOT
BRANCH   1   2
ATOM      2  C   UNL A   1      36.356  21.885  25.295  1.00  0.00     0.023 C 
BRANCH   2   3
ATOM      3  C   UNL A   1      35.076  21.164  25.732  1.00  0.00     0.116 C 
BRANCH   3   4
ATOM      4  N   UNL A   1      34.152  21.070  24.618  1.00  0.00    -0.352 N 
ATOM      5  C   UNL A   1      32.922  21.589  24.349  1.00  0.00     0.252 C 
ATOM      6  O   UNL A   1      32.390  21.130  23.337  1.00  0.00    -0.269 OA
ATOM      7  H   UNL A   1      34.490  20.499  23.890  1.00  0.00     0.163 HD
BRANCH   5   8
ATOM      8  C   UNL A   1      32.261  22.684  25.157  1.00  0.00     0.054 A 
ATOM      9  C   UNL A   1      31.979  27.397  27.011  1.00  0.00     0.046 C 
ATOM     10  C   UNL A   1      32.543  26.402  26.034  1.00  0.00    -0.027 A 
ATOM     11  C   UNL A   1      33.512  26.832  25.123  1.00  0.00     0.005 A 
ATOM     12  C   UNL A   1      32.149  25.047  26.016  1.00  0.00     0.052 A 
ATOM     13  C   UNL A   1      34.073  25.937  24.221  1.00  0.00     0.001 A 
ATOM     14  C   UNL A   1      32.727  24.110  25.129  1.00  0.00     0.011 A 
ATOM     15  N   UNL A   1      31.121  24.626  26.869  1.00  0.00    -0.322 N 
ATOM     16  C   UNL A   1      33.693  24.592  24.233  1.00  0.00     0.011 A 
ATOM     17  C   UNL A   1      30.568  23.389  26.828  1.00  0.00     0.249 A 
ATOM     18  H   UNL A   1      30.780  25.264  27.536  1.00  0.00     0.170 HD
ATOM     19  C   UNL A   1      31.166  22.425  25.890  1.00  0.00     0.086 A 
ATOM     20  O   UNL A   1      29.631  23.059  27.545  1.00  0.00    -0.270 OA
ENDBRANCH   5   8
ENDBRANCH   3   4
ENDBRANCH   2   3
ENDBRANCH   1   2
BRANCH   1  21
ATOM     21  C   UNL A   1      38.742  21.032  25.741  1.00  0.00     0.116 C 
BRANCH  21  22
ATOM     22  N   UNL A   1      39.612  19.869  25.635  1.00  0.00    -0.352 N 
ATOM     23  C   UNL A   1      40.943  19.769  25.978  1.00  0.00     0.251 C 
ATOM     24  H   UNL A   1      39.197  19.052  25.273  1.00  0.00     0.163 HD
ATOM     25  O   UNL A   1      41.578  18.751  25.754  1.00  0.00    -0.269 OA
BRANCH  23  26
ATOM     26  C   UNL A   1      41.599  20.951  26.574  1.00  0.00     0.039 A 
ATOM     27  C   UNL A   1      41.611  21.116  27.958  1.00  0.00     0.014 A 
ATOM     28  C   UNL A   1      42.110  21.944  25.735  1.00  0.00     0.014 A 
ATOM     29  C   UNL A   1      41.948  22.351  28.492  1.00  0.00     0.010 A 
ATOM     30  C   UNL A   1      42.543  23.153  26.285  1.00  0.00     0.010 A 
ATOM     31  C   UNL A   1      42.405  23.390  27.662  1.00  0.00    -0.014 A 
BRANCH  31  32
ATOM     32  C   UNL A   1      42.703  24.711  28.272  1.00  0.00     0.031 A 
ATOM     33  C   UNL A   1      44.119  25.125  28.576  1.00  0.00     0.074 A 
ATOM     34  C   UNL A   1      41.692  25.580  28.464  1.00  0.00     0.049 A 
ATOM     35  N   UNL A   1      44.565  26.275  29.020  1.00  0.00    -0.248 NA
ATOM     36  C   UNL A   1      45.173  24.121  28.361  1.00  0.00     0.031 C 
ATOM     37  C   UNL A   1      40.278  25.296  28.208  1.00  0.00     0.029 A 
ATOM     38  N   UNL A   1      41.700  26.888  28.875  1.00  0.00    -0.354 N 
ATOM     39  C   UNL A   1      45.941  26.128  29.151  1.00  0.00     0.074 A 
ATOM     40  C   UNL A   1      46.255  24.766  28.775  1.00  0.00     0.031 C 
ATOM     41  C   UNL A   1      39.565  26.416  28.397  1.00  0.00     0.029 A 
ATOM     42  C   UNL A   1      40.460  27.476  28.847  1.00  0.00     0.049 A 
ATOM     43  H   UNL A   1      42.514  27.358  29.163  1.00  0.00     0.167 HD
ATOM     44  C   UNL A   1      46.861  27.046  29.537  1.00  0.00     0.037 A 
ATOM     45  C   UNL A   1      40.082  28.730  29.150  1.00  0.00     0.037 A 
ATOM     46  C   UNL A   1      46.552  28.405  29.899  1.00  0.00     0.049 A 
ATOM     47  C   UNL A   1      41.119  29.717  29.599  1.00  0.00     0.074 A 
ATOM     48  C   UNL A   1      47.414  29.415  30.292  1.00  0.00     0.029 A 
ATOM     49  N   UNL A   1      45.275  28.948  29.911  1.00  0.00    -0.354 N 
ATOM     50  N   UNL A   1      42.417  29.564  29.703  1.00  0.00    -0.248 NA
ATOM     51  C   UNL A   1      40.634  31.051  29.975  1.00  0.00     0.031 C 
ATOM     52  C   UNL A   1      46.656  30.556  30.579  1.00  0.00     0.029 A 
ATOM     53  C   UNL A   1      45.325  30.272  30.319  1.00  0.00     0.049 A 
ATOM     54  H   UNL A   1      44.453  28.463  29.665  1.00  0.00     0.167 HD
ATOM     55  C   UNL A   1      42.906  30.788  30.142  1.00  0.00     0.074 A 
ATOM     56  C   UNL A   1      41.768  31.677  30.254  1.00  0.00     0.031 C 
ATOM     57  C   UNL A   1      44.183  31.142  30.431  1.00  0.00     0.037 A 
BRANCH  44  58
ATOM     58  C   UNL A   1      48.296  26.599  29.604  1.00  0.00     0.057 A 
ATOM     59  C   UNL A   1      48.812  26.025  30.774  1.00  0.00     0.134 A 
ATOM     60  C   UNL A   1      49.173  26.759  28.524  1.00  0.00     0.134 A 
ATOM     61  F   UNL A   1      48.029  25.850  31.849  1.00  0.00    -0.206 F 
ATOM     62  C   UNL A   1      50.146  25.627  30.866  1.00  0.00     0.040 A 
ATOM     63  C   UNL A   1      50.504  26.339  28.595  1.00  0.00     0.040 A 
ATOM     64  F   UNL A   1      48.741  27.289  27.369  1.00  0.00    -0.206 F 
ATOM     65  C   UNL A   1      50.995  25.776  29.771  1.00  0.00     0.006 A 
ENDBRANCH  44  58
BRANCH  45  66
ATOM     66  C   UNL A   1      38.655  29.125  29.040  1.00  0.00     0.057 A 
ATOM     67  C   UNL A   1      37.791  29.050  30.139  1.00  0.00     0.134 A 
ATOM     68  C   UNL A   1      38.127  29.600  27.834  1.00  0.00     0.134 A 
ATOM     69  F   UNL A   1      38.236  28.597  31.320  1.00  0.00    -0.206 F 
ATOM     70  C   UNL A   1      36.452  29.426  30.042  1.00  0.00     0.040 A 
ATOM     71  C   UNL A   1      36.797  30.006  27.730  1.00  0.00     0.040 A 
ATOM     72  F   UNL A   1      38.910  29.710  26.750  1.00  0.00    -0.206 F 
ATOM     73  C   UNL A   1      35.954  29.915  28.836  1.00  0.00     0.006 A 
ENDBRANCH  45  66
BRANCH  57  74
ATOM     74  C   UNL A   1      44.403  32.561  30.865  1.00  0.00     0.057 A 
ATOM     75  C   UNL A   1      44.383  32.903  32.223  1.00  0.00     0.134 A 
ATOM     76  C   UNL A   1      44.654  33.586  29.943  1.00  0.00     0.134 A 
ATOM     77  F   UNL A   1      44.142  31.971  33.157  1.00  0.00    -0.206 F 
ATOM     78  C   UNL A   1      44.616  34.211  32.648  1.00  0.00     0.040 A 
ATOM     79  C   UNL A   1      44.917  34.892  30.358  1.00  0.00     0.040 A 
ATOM     80  F   UNL A   1      44.704  33.321  28.628  1.00  0.00    -0.206 F 
ATOM     81  C   UNL A   1      44.896  35.208  31.716  1.00  0.00     0.006 A 
ENDBRANCH  57  74
ENDBRANCH  31  32
ENDBRANCH  23  26
ENDBRANCH  21  22
ENDBRANCH   1  21
TORSDOF 11
ENDMDL
MODEL 2
REMARK VINA RESULT:     -11.9      4.171      8.181
REMARK SMILES Cc1cccc2c(C(=O)NCCCCNC(=O)c3ccc(-c4c5nc(c(-c6c(F)cccc6F)c6ccc([nH]6)c(-c6c(F)cccc6F)c6nc(c(-c7c(F)cccc7F)c7ccc4[nH]7)C=C6)C=C5)cc3)cc(=O)[nH]c12
REMARK SMILES IDX 13 1 12 2 11 3 10 4 8 5 9 6 7 8 1 9 2 10 3 11 76 12 4 13
REMARK SMILES IDX 6 14 75 15 5 16 73 17 72 19 74 20 14 21 15 22 16 23 17 25
REMARK SMILES IDX 18 26 19 27 71 28 20 29 70 30 21 31 22 32 23 33 64 34 24 35
REMARK SMILES IDX 69 36 63 37 65 38 25 39 68 40 62 41 61 42 26 44 52 45 35 46
REMARK SMILES IDX 51 47 36 48 39 49 50 50 66 51 37 52 38 53 49 55 67 56 40 57
REMARK SMILES IDX 27 58 28 59 33 60 29 61 30 62 32 63 34 64 31 65 53 66 54 67
REMARK SMILES IDX 59 68 55 69 56 70 58 71 60 72 57 73 41 74 42 75 47 76 43 77
REMARK SMILES IDX 44 78 46 79 48 80 45 81
REMARK H PARENT 10 7 75 18 15 24 65 43 39 54
REMARK Flexibility Score: inf
ROOT
ATOM      1  C   UNL A   1      37.077  23.272  25.014  1.00  0.00     0.023 C 
ENDROOT
BRANCH   1   2
ATOM      2  C   UNL A   1      36.749  21.785  25.178  1.00  0.00     0.023 C 
BRANCH   2   3
ATOM      3  C   UNL A   1      35.374  21.506  25.795  1.00  0.00     0.116 C 
BRANCH   3   4
ATOM      4  N   UNL A   1      34.410  21.210  24.753  1.00  0.00    -0.352 N 
ATOM      5  C   UNL A   1      33.117  21.566  24.516  1.00  0.00     0.252 C 
ATOM      6  O   UNL A   1      32.588  20.960  23.582  1.00  0.00    -0.269 OA
ATOM      7  H   UNL A   1      34.772  20.615  24.057  1.00  0.00     0.163 HD
BRANCH   5   8
ATOM      8  C   UNL A   1      32.379  22.653  25.267  1.00  0.00     0.054 A 
ATOM      9  C   UNL A   1      31.794  27.414  26.918  1.00  0.00     0.046 C 
ATOM     10  C   UNL A   1      32.433  26.414  25.994  1.00  0.00    -0.027 A 
ATOM     11  C   UNL A   1      33.394  26.861  25.083  1.00  0.00     0.005 A 
ATOM     12  C   UNL A   1      32.116  25.039  26.025  1.00  0.00     0.052 A 
ATOM     13  C   UNL A   1      34.022  25.964  24.228  1.00  0.00     0.001 A 
ATOM     14  C   UNL A   1      32.765  24.101  25.187  1.00  0.00     0.011 A 
ATOM     15  N   UNL A   1      31.097  24.595  26.876  1.00  0.00    -0.322 N 
ATOM     16  C   UNL A   1      33.719  24.602  24.290  1.00  0.00     0.011 A 
ATOM     17  C   UNL A   1      30.616  23.327  26.876  1.00  0.00     0.249 A 
ATOM     18  H   UNL A   1      30.707  25.238  27.510  1.00  0.00     0.170 HD
ATOM     19  C   UNL A   1      31.285  22.362  25.990  1.00  0.00     0.086 A 
ATOM     20  O   UNL A   1      29.685  22.974  27.590  1.00  0.00    -0.270 OA
ENDBRANCH   5   8
ENDBRANCH   3   4
ENDBRANCH   2   3
ENDBRANCH   1   2
BRANCH   1  21
ATOM     21  C   UNL A   1      37.898  23.874  26.145  1.00  0.00     0.116 C 
BRANCH  21  22
ATOM     22  N   UNL A   1      39.313  23.531  26.093  1.00  0.00    -0.352 N 
ATOM     23  C   UNL A   1      40.371  24.204  26.665  1.00  0.00     0.251 C 
ATOM     24  H   UNL A   1      39.541  22.717  25.588  1.00  0.00     0.163 HD
ATOM     25  O   UNL A   1      41.523  23.852  26.470  1.00  0.00    -0.269 OA
BRANCH  23  26
ATOM     26  C   UNL A   1      40.078  25.402  27.478  1.00  0.00     0.039 A 
ATOM     27  C   UNL A   1      40.682  26.619  27.168  1.00  0.00     0.014 A 
ATOM     28  C   UNL A   1      39.277  25.275  28.616  1.00  0.00     0.014 A 
ATOM     29  C   UNL A   1      40.649  27.650  28.096  1.00  0.00     0.010 A 
ATOM     30  C   UNL A   1      39.165  26.350  29.501  1.00  0.00     0.010 A 
ATOM     31  C   UNL A   1      39.902  27.525  29.280  1.00  0.00    -0.014 A 
BRANCH  31  32
ATOM     32  C   UNL A   1      39.940  28.634  30.268  1.00  0.00     0.031 A 
ATOM     33  C   UNL A   1      38.941  29.759  30.211  1.00  0.00     0.074 A 
ATOM     34  C   UNL A   1      40.826  28.570  31.281  1.00  0.00     0.049 A 
ATOM     35  N   UNL A   1      38.772  30.756  31.047  1.00  0.00    -0.248 NA
ATOM     36  C   UNL A   1      38.015  29.778  29.069  1.00  0.00     0.031 C 
ATOM     37  C   UNL A   1      41.843  27.530  31.445  1.00  0.00     0.029 A 
ATOM     38  N   UNL A   1      40.985  29.370  32.383  1.00  0.00    -0.354 N 
ATOM     39  C   UNL A   1      37.737  31.522  30.525  1.00  0.00     0.074 A 
ATOM     40  C   UNL A   1      37.339  30.898  29.281  1.00  0.00     0.031 C 
ATOM     41  C   UNL A   1      42.472  27.712  32.615  1.00  0.00     0.029 A 
ATOM     42  C   UNL A   1      41.946  28.914  33.252  1.00  0.00     0.049 A 
ATOM     43  H   UNL A   1      40.464  30.189  32.536  1.00  0.00     0.167 HD
ATOM     44  C   UNL A   1      37.161  32.636  31.040  1.00  0.00     0.037 A 
ATOM     45  C   UNL A   1      42.360  29.409  34.432  1.00  0.00     0.037 A 
ATOM     46  C   UNL A   1      37.548  33.250  32.285  1.00  0.00     0.049 A 
ATOM     47  C   UNL A   1      41.722  30.658  34.965  1.00  0.00     0.074 A 
ATOM     48  C   UNL A   1      37.018  34.373  32.898  1.00  0.00     0.029 A 
ATOM     49  N   UNL A   1      38.563  32.791  33.111  1.00  0.00    -0.354 N 
ATOM     50  N   UNL A   1      40.735  31.361  34.465  1.00  0.00    -0.248 NA
ATOM     51  C   UNL A   1      42.260  31.182  36.226  1.00  0.00     0.031 C 
ATOM     52  C   UNL A   1      37.738  34.615  34.074  1.00  0.00     0.029 A 
ATOM     53  C   UNL A   1      38.686  33.615  34.218  1.00  0.00     0.049 A 
ATOM     54  H   UNL A   1      39.116  31.994  32.935  1.00  0.00     0.167 HD
ATOM     55  C   UNL A   1      40.523  32.402  35.359  1.00  0.00     0.074 A 
ATOM     56  C   UNL A   1      41.465  32.218  36.444  1.00  0.00     0.031 C 
ATOM     57  C   UNL A   1      39.632  33.422  35.286  1.00  0.00     0.037 A 
BRANCH  44  58
ATOM     58  C   UNL A   1      36.058  33.275  30.243  1.00  0.00     0.057 A 
ATOM     59  C   UNL A   1      36.350  34.069  29.126  1.00  0.00     0.134 A 
ATOM     60  C   UNL A   1      34.709  33.127  30.593  1.00  0.00     0.134 A 
ATOM     61  F   UNL A   1      37.620  34.259  28.739  1.00  0.00    -0.206 F 
ATOM     62  C   UNL A   1      35.343  34.691  28.387  1.00  0.00     0.040 A 
ATOM     63  C   UNL A   1      33.690  33.722  29.845  1.00  0.00     0.040 A 
ATOM     64  F   UNL A   1      34.358  32.369  31.643  1.00  0.00    -0.206 F 
ATOM     65  C   UNL A   1      34.006  34.511  28.742  1.00  0.00     0.006 A 
ENDBRANCH  44  58
BRANCH  45  66
ATOM     66  C   UNL A   1      43.435  28.722  35.191  1.00  0.00     0.057 A 
ATOM     67  C   UNL A   1      43.138  27.783  36.185  1.00  0.00     0.134 A 
ATOM     68  C   UNL A   1      44.785  28.980  34.928  1.00  0.00     0.134 A 
ATOM     69  F   UNL A   1      41.863  27.497  36.488  1.00  0.00    -0.206 F 
ATOM     70  C   UNL A   1      44.144  27.129  36.896  1.00  0.00     0.040 A 
ATOM     71  C   UNL A   1      45.802  28.314  35.612  1.00  0.00     0.040 A 
ATOM     72  F   UNL A   1      45.132  29.858  33.975  1.00  0.00    -0.206 F 
ATOM     73  C   UNL A   1      45.482  27.388  36.603  1.00  0.00     0.006 A 
ENDBRANCH  45  66
BRANCH  57  74
ATOM     74  C   UNL A   1      39.627  34.391  36.432  1.00  0.00     0.057 A 
ATOM     75  C   UNL A   1      38.895  34.118  37.594  1.00  0.00     0.134 A 
ATOM     76  C   UNL A   1      40.359  35.585  36.393  1.00  0.00     0.134 A 
ATOM     77  F   UNL A   1      38.167  32.995  37.693  1.00  0.00    -0.206 F 
ATOM     78  C   UNL A   1      38.902  34.992  38.681  1.00  0.00     0.040 A 
ATOM     79  C   UNL A   1      40.397  36.453  37.486  1.00  0.00     0.040 A 
ATOM     80  F   UNL A   1      41.096  35.897  35.315  1.00  0.00    -0.206 F 
ATOM     81  C   UNL A   1      39.664  36.158  38.634  1.00  0.00     0.006 A 
ENDBRANCH  57  74
ENDBRANCH  31  32
ENDBRANCH  23  26
ENDBRANCH  21  22
ENDBRANCH   1  21
TORSDOF 11
ENDMDL
MODEL 3
REMARK VINA RESULT:     -11.8      4.085      8.690
REMARK SMILES Cc1cccc2c(C(=O)NCCCCNC(=O)c3ccc(-c4c5nc(c(-c6c(F)cccc6F)c6ccc([nH]6)c(-c6c(F)cccc6F)c6nc(c(-c7c(F)cccc7F)c7ccc4[nH]7)C=C6)C=C5)cc3)cc(=O)[nH]c12
REMARK SMILES IDX 13 1 12 2 11 3 10 4 8 5 9 6 7 8 1 9 2 10 3 11 76 12 4 13
REMARK SMILES IDX 6 14 75 15 5 16 73 17 72 19 74 20 14 21 15 22 16 23 17 25
REMARK SMILES IDX 18 26 19 27 71 28 20 29 70 30 21 31 22 32 23 33 64 34 24 35
REMARK SMILES IDX 69 36 63 37 65 38 25 39 68 40 62 41 61 42 26 44 52 45 35 46
REMARK SMILES IDX 51 47 36 48 39 49 50 50 66 51 37 52 38 53 49 55 67 56 40 57
REMARK SMILES IDX 27 58 28 59 33 60 29 61 30 62 32 63 34 64 31 65 53 66 54 67
REMARK SMILES IDX 59 68 55 69 56 70 58 71 60 72 57 73 41 74 42 75 47 76 43 77
REMARK SMILES IDX 44 78 46 79 48 80 45 81
REMARK H PARENT 10 7 75 18 15 24 65 43 39 54
REMARK Flexibility Score: inf
ROOT
ATOM      1  C   UNL A   1      31.609  29.573  27.083  1.00  0.00     0.023 C 
ENDROOT
BRANCH   1   2
ATOM      2  C   UNL A   1      32.231  28.174  27.103  1.00  0.00     0.023 C 
BRANCH   2   3
ATOM      3  C   UNL A   1      32.397  27.538  25.719  1.00  0.00     0.116 C 
BRANCH   3   4
ATOM      4  N   UNL A   1      31.103  27.379  25.084  1.00  0.00    -0.352 N 
ATOM      5  C   UNL A   1      30.320  26.312  24.761  1.00  0.00     0.252 C 
ATOM      6  O   UNL A   1      29.340  26.596  24.070  1.00  0.00    -0.269 OA
ATOM      7  H   UNL A   1      30.696  28.238  24.828  1.00  0.00     0.163 HD
BRANCH   5   8
ATOM      8  C   UNL A   1      30.560  24.898  25.243  1.00  0.00     0.054 A 
ATOM      9  C   UNL A   1      32.308  20.168  24.696  1.00  0.00     0.046 C 
ATOM     10  C   UNL A   1      32.275  21.612  24.278  1.00  0.00    -0.027 A 
ATOM     11  C   UNL A   1      33.044  22.009  23.180  1.00  0.00     0.005 A 
ATOM     12  C   UNL A   1      31.483  22.577  24.936  1.00  0.00     0.052 A 
ATOM     13  C   UNL A   1      33.022  23.329  22.749  1.00  0.00     0.001 A 
ATOM     14  C   UNL A   1      31.419  23.920  24.496  1.00  0.00     0.011 A 
ATOM     15  N   UNL A   1      30.774  22.207  26.085  1.00  0.00    -0.322 N 
ATOM     16  C   UNL A   1      32.211  24.268  23.392  1.00  0.00     0.011 A 
ATOM     17  C   UNL A   1      30.106  23.084  26.872  1.00  0.00     0.249 A 
ATOM     18  H   UNL A   1      30.761  21.255  26.337  1.00  0.00     0.170 HD
ATOM     19  C   UNL A   1      30.058  24.483  26.417  1.00  0.00     0.086 A 
ATOM     20  O   UNL A   1      29.539  22.747  27.905  1.00  0.00    -0.270 OA
ENDBRANCH   5   8
ENDBRANCH   3   4
ENDBRANCH   2   3
ENDBRANCH   1   2
BRANCH   1  21
ATOM     21  C   UNL A   1      32.429  30.628  26.354  1.00  0.00     0.116 C 
BRANCH  21  22
ATOM     22  N   UNL A   1      32.198  31.986  26.827  1.00  0.00    -0.352 N 
ATOM     23  C   UNL A   1      33.040  32.779  27.576  1.00  0.00     0.251 C 
ATOM     24  H   UNL A   1      31.332  32.387  26.581  1.00  0.00     0.163 HD
ATOM     25  O   UNL A   1      32.683  33.874  27.980  1.00  0.00    -0.269 OA
BRANCH  23  26
ATOM     26  C   UNL A   1      34.372  32.245  27.927  1.00  0.00     0.039 A 
ATOM     27  C   UNL A   1      34.511  30.908  28.297  1.00  0.00     0.014 A 
ATOM     28  C   UNL A   1      35.462  33.116  27.986  1.00  0.00     0.014 A 
ATOM     29  C   UNL A   1      35.682  30.492  28.912  1.00  0.00     0.010 A 
ATOM     30  C   UNL A   1      36.674  32.666  28.516  1.00  0.00     0.010 A 
ATOM     31  C   UNL A   1      36.774  31.368  29.042  1.00  0.00    -0.014 A 
BRANCH  31  32
ATOM     32  C   UNL A   1      37.988  30.893  29.755  1.00  0.00     0.031 A 
ATOM     33  C   UNL A   1      38.220  31.229  31.204  1.00  0.00     0.074 A 
ATOM     34  C   UNL A   1      38.839  30.072  29.109  1.00  0.00     0.049 A 
ATOM     35  N   UNL A   1      39.175  30.820  32.003  1.00  0.00    -0.248 NA
ATOM     36  C   UNL A   1      37.263  32.146  31.842  1.00  0.00     0.031 C 
ATOM     37  C   UNL A   1      38.722  29.673  27.705  1.00  0.00     0.029 A 
ATOM     38  N   UNL A   1      39.941  29.392  29.558  1.00  0.00    -0.354 N 
ATOM     39  C   UNL A   1      38.944  31.438  33.226  1.00  0.00     0.074 A 
ATOM     40  C   UNL A   1      37.778  32.280  33.056  1.00  0.00     0.031 C 
ATOM     41  C   UNL A   1      39.667  28.764  27.427  1.00  0.00     0.029 A 
ATOM     42  C   UNL A   1      40.494  28.563  28.612  1.00  0.00     0.049 A 
ATOM     43  H   UNL A   1      40.303  29.489  30.468  1.00  0.00     0.167 HD
ATOM     44  C   UNL A   1      39.630  31.308  34.388  1.00  0.00     0.037 A 
ATOM     45  C   UNL A   1      41.549  27.734  28.688  1.00  0.00     0.037 A 
ATOM     46  C   UNL A   1      40.781  30.461  34.562  1.00  0.00     0.049 A 
ATOM     47  C   UNL A   1      42.304  27.630  29.980  1.00  0.00     0.074 A 
ATOM     48  C   UNL A   1      41.539  30.251  35.703  1.00  0.00     0.029 A 
ATOM     49  N   UNL A   1      41.344  29.678  33.564  1.00  0.00    -0.354 N 
ATOM     50  N   UNL A   1      42.062  28.211  31.130  1.00  0.00    -0.248 NA
ATOM     51  C   UNL A   1      43.483  26.755  29.981  1.00  0.00     0.031 C 
ATOM     52  C   UNL A   1      42.581  29.373  35.384  1.00  0.00     0.029 A 
ATOM     53  C   UNL A   1      42.447  28.998  34.057  1.00  0.00     0.049 A 
ATOM     54  H   UNL A   1      41.009  29.616  32.639  1.00  0.00     0.167 HD
ATOM     55  C   UNL A   1      43.049  27.760  31.996  1.00  0.00     0.074 A 
ATOM     56  C   UNL A   1      43.873  26.835  31.244  1.00  0.00     0.031 C 
ATOM     57  C   UNL A   1      43.259  28.085  33.296  1.00  0.00     0.037 A 
BRANCH  44  58
ATOM     58  C   UNL A   1      39.159  32.120  35.563  1.00  0.00     0.057 A 
ATOM     59  C   UNL A   1      39.586  33.444  35.735  1.00  0.00     0.134 A 
ATOM     60  C   UNL A   1      38.304  31.588  36.536  1.00  0.00     0.134 A 
ATOM     61  F   UNL A   1      40.411  34.014  34.844  1.00  0.00    -0.206 F 
ATOM     62  C   UNL A   1      39.180  34.206  36.831  1.00  0.00     0.040 A 
ATOM     63  C   UNL A   1      37.870  32.350  37.624  1.00  0.00     0.040 A 
ATOM     64  F   UNL A   1      37.846  30.331  36.427  1.00  0.00    -0.206 F 
ATOM     65  C   UNL A   1      38.312  33.662  37.776  1.00  0.00     0.006 A 
ENDBRANCH  44  58
BRANCH  45  66
ATOM     66  C   UNL A   1      41.954  26.935  27.505  1.00  0.00     0.057 A 
ATOM     67  C   UNL A   1      41.516  25.616  27.332  1.00  0.00     0.134 A 
ATOM     68  C   UNL A   1      42.777  27.477  26.512  1.00  0.00     0.134 A 
ATOM     69  F   UNL A   1      40.730  25.037  28.252  1.00  0.00    -0.206 F 
ATOM     70  C   UNL A   1      41.888  24.863  26.219  1.00  0.00     0.040 A 
ATOM     71  C   UNL A   1      43.134  26.745  25.380  1.00  0.00     0.040 A 
ATOM     72  F   UNL A   1      43.215  28.741  26.614  1.00  0.00    -0.206 F 
ATOM     73  C   UNL A   1      42.692  25.432  25.233  1.00  0.00     0.006 A 
ENDBRANCH  45  66
BRANCH  57  74
ATOM     74  C   UNL A   1      44.409  27.407  33.980  1.00  0.00     0.057 A 
ATOM     75  C   UNL A   1      44.236  26.163  34.600  1.00  0.00     0.134 A 
ATOM     76  C   UNL A   1      45.690  27.974  34.011  1.00  0.00     0.134 A 
ATOM     77  F   UNL A   1      43.034  25.568  34.613  1.00  0.00    -0.206 F 
ATOM     78  C   UNL A   1      45.300  25.502  35.215  1.00  0.00     0.040 A 
ATOM     79  C   UNL A   1      46.768  27.309  34.598  1.00  0.00     0.040 A 
ATOM     80  F   UNL A   1      45.925  29.156  33.420  1.00  0.00    -0.206 F 
ATOM     81  C   UNL A   1      46.573  26.070  35.205  1.00  0.00     0.006 A 
ENDBRANCH  57  74
ENDBRANCH  31  32
ENDBRANCH  23  26
ENDBRANCH  21  22
ENDBRANCH   1  21
TORSDOF 11
ENDMDL
