MODEL 1
REMARK VINA RESULT:     -13.2      0.000      0.000
REMARK SMILES Cc1cc(C(=O)NCCCCNC(=O)c2ccc(-c3c4nc(c(-c5c(F)cccc5F)c5ccc([nH]5)c(-c5c(F)cccc5F)c5nc(c(-c6c(F)cccc6F)c6ccc3[nH]6)C=C5)C=C4)cc2)cc(S(=O)(=O)NNC(=O)c2c[nH]c3ccccc23)c1C
REMARK SMILES IDX 8 1 7 2 5 3 6 4 4 6 1 7 2 8 3 9 87 10 70 11 88 12 69 13
REMARK SMILES IDX 71 14 72 15 73 16 74 17 75 19 76 20 77 22 78 23 79 24 86 25
REMARK SMILES IDX 80 26 81 27 85 28 82 30 84 31 83 32 9 33 10 34 11 35 12 36
REMARK SMILES IDX 13 37 14 39 15 40 16 41 68 42 17 43 67 44 18 45 19 46 20 47
REMARK SMILES IDX 61 48 21 49 66 50 60 51 62 52 22 53 65 54 59 55 58 56 23 58
REMARK SMILES IDX 49 59 32 60 48 61 33 62 36 63 47 64 63 65 34 66 35 67 46 69
REMARK SMILES IDX 64 70 37 71 24 72 25 73 30 74 26 75 27 76 29 77 31 78 28 79
REMARK SMILES IDX 50 80 51 81 56 82 52 83 53 84 55 85 57 86 54 87 38 88 39 89
REMARK SMILES IDX 44 90 40 91 41 92 43 93 45 94 42 95
REMARK H PARENT 7 5 74 18 75 21 80 29 12 38 62 57 36 68
REMARK Flexibility Score: inf
ROOT
ATOM      1  C   UNL A   1      37.387  21.693  24.115  1.00  0.00     0.116 C 
ENDROOT
BRANCH   1   2
ATOM      2  N   UNL A   1      37.759  22.823  24.950  1.00  0.00    -0.352 N 
ATOM      3  C   UNL A   1      37.044  23.710  25.715  1.00  0.00     0.251 C 
ATOM      4  O   UNL A   1      37.691  24.564  26.329  1.00  0.00    -0.269 OA
ATOM      5  H   UNL A   1      38.728  22.986  24.970  1.00  0.00     0.163 HD
BRANCH   3   6
ATOM      6  C   UNL A   1      35.559  23.703  25.878  1.00  0.00     0.041 A 
ATOM      7  C   UNL A   1      32.853  22.527  28.277  1.00  0.00     0.044 C 
ATOM      8  C   UNL A   1      33.482  23.152  27.059  1.00  0.00    -0.046 A 
ATOM      9  C   UNL A   1      34.879  23.073  26.920  1.00  0.00     0.017 A 
ATOM     10  C   UNL A   1      32.721  23.799  26.064  1.00  0.00    -0.028 A 
ATOM     11  C   UNL A   1      33.399  24.330  24.936  1.00  0.00     0.088 A 
ATOM     12  C   UNL A   1      31.221  23.909  26.190  1.00  0.00     0.046 C 
ATOM     13  C   UNL A   1      34.797  24.324  24.872  1.00  0.00     0.036 A 
BRANCH  11  14
ATOM     14  S   UNL A   1      32.439  24.835  23.524  1.00  0.00     0.257 S 
ATOM     15  O   UNL A   1      31.386  25.702  24.043  1.00  0.00    -0.205 OA
ATOM     16  O   UNL A   1      33.361  25.304  22.514  1.00  0.00    -0.205 OA
BRANCH  14  17
ATOM     17  N   UNL A   1      31.698  23.468  22.836  1.00  0.00    -0.123 NA
ATOM     18  H   UNL A   1      31.073  23.809  22.105  1.00  0.00     0.167 HD
BRANCH  17  19
ATOM     19  N   UNL A   1      32.515  22.405  22.230  1.00  0.00    -0.273 N 
ATOM     20  C   UNL A   1      32.021  21.110  22.140  1.00  0.00     0.268 C 
ATOM     21  H   UNL A   1      33.415  22.612  21.887  1.00  0.00     0.186 HD
ATOM     22  O   UNL A   1      31.684  20.627  21.062  1.00  0.00    -0.268 OA
BRANCH  20  23
ATOM     23  C   UNL A   1      32.266  20.302  23.335  1.00  0.00     0.066 A 
ATOM     24  C   UNL A   1      32.223  20.753  24.643  1.00  0.00     0.097 A 
ATOM     25  C   UNL A   1      32.795  18.972  23.416  1.00  0.00     0.012 A 
ATOM     26  N   UNL A   1      33.151  20.030  25.339  1.00  0.00    -0.360 N 
ATOM     27  C   UNL A   1      33.524  18.933  24.606  1.00  0.00     0.046 A 
ATOM     28  C   UNL A   1      32.862  17.852  22.561  1.00  0.00     0.011 A 
ATOM     29  H   UNL A   1      33.499  20.261  26.230  1.00  0.00     0.166 HD
ATOM     30  C   UNL A   1      34.458  17.935  24.896  1.00  0.00     0.027 A 
ATOM     31  C   UNL A   1      33.689  16.775  22.907  1.00  0.00     0.001 A 
ATOM     32  C   UNL A   1      34.519  16.846  24.025  1.00  0.00     0.002 A 
ENDBRANCH  20  23
ENDBRANCH  17  19
ENDBRANCH  14  17
ENDBRANCH  11  14
ENDBRANCH   3   6
ENDBRANCH   1   2
BRANCH   1  33
ATOM     33  C   UNL A   1      37.050  20.463  24.965  1.00  0.00     0.023 C 
BRANCH  33  34
ATOM     34  C   UNL A   1      38.168  19.415  25.024  1.00  0.00     0.023 C 
BRANCH  34  35
ATOM     35  C   UNL A   1      39.418  19.845  25.787  1.00  0.00     0.116 C 
BRANCH  35  36
ATOM     36  N   UNL A   1      40.442  18.815  25.852  1.00  0.00    -0.352 N 
ATOM     37  C   UNL A   1      41.784  18.956  26.119  1.00  0.00     0.251 C 
ATOM     38  H   UNL A   1      40.134  17.895  25.684  1.00  0.00     0.163 HD
ATOM     39  O   UNL A   1      42.535  17.989  26.043  1.00  0.00    -0.269 OA
BRANCH  37  40
ATOM     40  C   UNL A   1      42.326  20.290  26.451  1.00  0.00     0.039 A 
ATOM     41  C   UNL A   1      42.925  21.043  25.438  1.00  0.00     0.014 A 
ATOM     42  C   UNL A   1      42.218  20.808  27.744  1.00  0.00     0.014 A 
ATOM     43  C   UNL A   1      43.351  22.346  25.704  1.00  0.00     0.010 A 
ATOM     44  C   UNL A   1      42.582  22.128  27.992  1.00  0.00     0.010 A 
ATOM     45  C   UNL A   1      43.147  22.913  26.973  1.00  0.00    -0.014 A 
BRANCH  45  46
ATOM     46  C   UNL A   1      43.500  24.326  27.251  1.00  0.00     0.031 A 
ATOM     47  C   UNL A   1      44.929  24.782  27.165  1.00  0.00     0.074 A 
ATOM     48  C   UNL A   1      42.544  25.183  27.660  1.00  0.00     0.049 A 
ATOM     49  N   UNL A   1      45.442  25.953  27.442  1.00  0.00    -0.248 NA
ATOM     50  C   UNL A   1      45.916  23.778  26.738  1.00  0.00     0.031 C 
ATOM     51  C   UNL A   1      41.129  24.849  27.837  1.00  0.00     0.029 A 
ATOM     52  N   UNL A   1      42.619  26.507  28.013  1.00  0.00    -0.354 N 
ATOM     53  C   UNL A   1      46.809  25.824  27.240  1.00  0.00     0.074 A 
ATOM     54  C   UNL A   1      47.052  24.447  26.866  1.00  0.00     0.031 C 
ATOM     55  C   UNL A   1      40.468  25.944  28.248  1.00  0.00     0.029 A 
ATOM     56  C   UNL A   1      41.415  27.044  28.393  1.00  0.00     0.049 A 
ATOM     57  H   UNL A   1      43.459  27.021  27.995  1.00  0.00     0.167 HD
ATOM     58  C   UNL A   1      47.773  26.771  27.335  1.00  0.00     0.037 A 
ATOM     59  C   UNL A   1      41.108  28.285  28.817  1.00  0.00     0.037 A 
ATOM     60  C   UNL A   1      47.527  28.145  27.683  1.00  0.00     0.049 A 
ATOM     61  C   UNL A   1      42.192  29.322  28.907  1.00  0.00     0.074 A 
ATOM     62  C   UNL A   1      48.425  29.196  27.743  1.00  0.00     0.029 A 
ATOM     63  N   UNL A   1      46.288  28.659  28.036  1.00  0.00    -0.354 N 
ATOM     64  N   UNL A   1      43.471  29.204  28.643  1.00  0.00    -0.248 NA
ATOM     65  C   UNL A   1      41.790  30.665  29.349  1.00  0.00     0.031 C 
ATOM     66  C   UNL A   1      47.738  30.337  28.168  1.00  0.00     0.029 A 
ATOM     67  C   UNL A   1      46.402  30.008  28.333  1.00  0.00     0.049 A 
ATOM     68  H   UNL A   1      45.451  28.142  28.072  1.00  0.00     0.167 HD
ATOM     69  C   UNL A   1      44.022  30.461  28.860  1.00  0.00     0.074 A 
ATOM     70  C   UNL A   1      42.935  31.328  29.267  1.00  0.00     0.031 C 
ATOM     71  C   UNL A   1      45.311  30.858  28.733  1.00  0.00     0.037 A 
BRANCH  58  72
ATOM     72  C   UNL A   1      49.185  26.345  27.053  1.00  0.00     0.057 A 
ATOM     73  C   UNL A   1      49.721  26.377  25.759  1.00  0.00     0.134 A 
ATOM     74  C   UNL A   1      50.023  25.913  28.089  1.00  0.00     0.134 A 
ATOM     75  F   UNL A   1      48.967  26.768  24.721  1.00  0.00    -0.206 F 
ATOM     76  C   UNL A   1      51.029  25.962  25.499  1.00  0.00     0.040 A 
ATOM     77  C   UNL A   1      51.341  25.523  27.846  1.00  0.00     0.040 A 
ATOM     78  F   UNL A   1      49.576  25.864  29.352  1.00  0.00    -0.206 F 
ATOM     79  C   UNL A   1      51.844  25.539  26.546  1.00  0.00     0.006 A 
ENDBRANCH  58  72
BRANCH  59  80
ATOM     80  C   UNL A   1      39.705  28.622  29.159  1.00  0.00     0.057 A 
ATOM     81  C   UNL A   1      39.209  28.415  30.451  1.00  0.00     0.134 A 
ATOM     82  C   UNL A   1      38.830  29.166  28.211  1.00  0.00     0.134 A 
ATOM     83  F   UNL A   1      39.996  27.881  31.398  1.00  0.00    -0.206 F 
ATOM     84  C   UNL A   1      37.890  28.723  30.786  1.00  0.00     0.040 A 
ATOM     85  C   UNL A   1      37.515  29.500  28.538  1.00  0.00     0.040 A 
ATOM     86  F   UNL A   1      39.248  29.397  26.957  1.00  0.00    -0.206 F 
ATOM     87  C   UNL A   1      37.040  29.273  29.829  1.00  0.00     0.006 A 
ENDBRANCH  59  80
BRANCH  71  88
ATOM     88  C   UNL A   1      45.612  32.302  29.009  1.00  0.00     0.057 A 
ATOM     89  C   UNL A   1      46.005  32.746  30.278  1.00  0.00     0.134 A 
ATOM     90  C   UNL A   1      45.547  33.252  27.982  1.00  0.00     0.134 A 
ATOM     91  F   UNL A   1      46.074  31.886  31.307  1.00  0.00    -0.206 F 
ATOM     92  C   UNL A   1      46.304  34.086  30.521  1.00  0.00     0.040 A 
ATOM     93  C   UNL A   1      45.866  34.592  28.207  1.00  0.00     0.040 A 
ATOM     94  F   UNL A   1      45.183  32.891  26.743  1.00  0.00    -0.206 F 
ATOM     95  C   UNL A   1      46.242  35.013  29.481  1.00  0.00     0.006 A 
ENDBRANCH  71  88
ENDBRANCH  45  46
ENDBRANCH  37  40
ENDBRANCH  35  36
ENDBRANCH  34  35
ENDBRANCH  33  34
ENDBRANCH   1  33
TORSDOF 15
ENDMDL
MODEL 2
REMARK VINA RESULT:     -13.0      5.478      9.468
REMARK SMILES Cc1cc(C(=O)NCCCCNC(=O)c2ccc(-c3c4nc(c(-c5c(F)cccc5F)c5ccc([nH]5)c(-c5c(F)cccc5F)c5nc(c(-c6c(F)cccc6F)c6ccc3[nH]6)C=C5)C=C4)cc2)cc(S(=O)(=O)NNC(=O)c2c[nH]c3ccccc23)c1C
REMARK SMILES IDX 8 1 7 2 5 3 6 4 4 6 1 7 2 8 3 9 87 10 70 11 88 12 69 13
REMARK SMILES IDX 71 14 72 15 73 16 74 17 75 19 76 20 77 22 78 23 79 24 86 25
REMARK SMILES IDX 80 26 81 27 85 28 82 30 84 31 83 32 9 33 10 34 11 35 12 36
REMARK SMILES IDX 13 37 14 39 15 40 16 41 68 42 17 43 67 44 18 45 19 46 20 47
REMARK SMILES IDX 61 48 21 49 66 50 60 51 62 52 22 53 65 54 59 55 58 56 23 58
REMARK SMILES IDX 49 59 32 60 48 61 33 62 36 63 47 64 63 65 34 66 35 67 46 69
REMARK SMILES IDX 64 70 37 71 24 72 25 73 30 74 26 75 27 76 29 77 31 78 28 79
REMARK SMILES IDX 50 80 51 81 56 82 52 83 53 84 55 85 57 86 54 87 38 88 39 89
REMARK SMILES IDX 44 90 40 91 41 92 43 93 45 94 42 95
REMARK H PARENT 7 5 74 18 75 21 80 29 12 38 62 57 36 68
REMARK Flexibility Score: inf
ROOT
ATOM      1  C   UNL A   1      33.224  29.967  26.837  1.00  0.00     0.116 C 
ENDROOT
BRANCH   1   2
ATOM      2  N   UNL A   1      33.737  29.777  25.491  1.00  0.00    -0.352 N 
ATOM      3  C   UNL A   1      33.255  29.139  24.375  1.00  0.00     0.251 C 
ATOM      4  O   UNL A   1      33.956  29.184  23.361  1.00  0.00    -0.269 OA
ATOM      5  H   UNL A   1      34.616  30.194  25.350  1.00  0.00     0.163 HD
BRANCH   3   6
ATOM      6  C   UNL A   1      31.946  28.423  24.293  1.00  0.00     0.041 A 
ATOM      7  C   UNL A   1      28.483  28.760  22.759  1.00  0.00     0.044 C 
ATOM      8  C   UNL A   1      29.621  28.177  23.556  1.00  0.00    -0.046 A 
ATOM      9  C   UNL A   1      30.809  28.922  23.658  1.00  0.00     0.017 A 
ATOM     10  C   UNL A   1      29.528  26.927  24.200  1.00  0.00    -0.028 A 
ATOM     11  C   UNL A   1      30.640  26.473  24.955  1.00  0.00     0.088 A 
ATOM     12  C   UNL A   1      28.269  26.099  24.100  1.00  0.00     0.046 C 
ATOM     13  C   UNL A   1      31.843  27.188  24.959  1.00  0.00     0.036 A 
BRANCH  11  14
ATOM     14  S   UNL A   1      30.422  25.082  26.045  1.00  0.00     0.257 S 
ATOM     15  O   UNL A   1      31.598  25.059  26.908  1.00  0.00    -0.205 OA
ATOM     16  O   UNL A   1      29.090  25.168  26.601  1.00  0.00    -0.205 OA
BRANCH  14  17
ATOM     17  N   UNL A   1      30.419  23.650  25.128  1.00  0.00    -0.123 NA
ATOM     18  H   UNL A   1      30.877  23.868  24.242  1.00  0.00     0.167 HD
BRANCH  17  19
ATOM     19  N   UNL A   1      31.061  22.433  25.647  1.00  0.00    -0.273 N 
ATOM     20  C   UNL A   1      32.386  22.154  25.336  1.00  0.00     0.268 C 
ATOM     21  H   UNL A   1      30.550  21.813  26.217  1.00  0.00     0.186 HD
ATOM     22  O   UNL A   1      33.275  22.250  26.178  1.00  0.00    -0.268 OA
BRANCH  20  23
ATOM     23  C   UNL A   1      32.555  21.431  24.076  1.00  0.00     0.066 A 
ATOM     24  C   UNL A   1      32.077  21.830  22.839  1.00  0.00     0.097 A 
ATOM     25  C   UNL A   1      33.044  20.099  23.874  1.00  0.00     0.012 A 
ATOM     26  N   UNL A   1      31.772  20.690  22.149  1.00  0.00    -0.360 N 
ATOM     27  C   UNL A   1      32.349  19.610  22.765  1.00  0.00     0.046 A 
ATOM     28  C   UNL A   1      33.878  19.206  24.578  1.00  0.00     0.011 A 
ATOM     29  H   UNL A   1      31.222  20.651  21.334  1.00  0.00     0.166 HD
ATOM     30  C   UNL A   1      32.288  18.253  22.441  1.00  0.00     0.027 A 
ATOM     31  C   UNL A   1      33.939  17.864  24.177  1.00  0.00     0.001 A 
ATOM     32  C   UNL A   1      33.109  17.387  23.164  1.00  0.00     0.002 A 
ENDBRANCH  20  23
ENDBRANCH  17  19
ENDBRANCH  14  17
ENDBRANCH  11  14
ENDBRANCH   3   6
ENDBRANCH   1   2
BRANCH   1  33
ATOM     33  C   UNL A   1      31.776  30.471  26.814  1.00  0.00     0.023 C 
BRANCH  33  34
ATOM     34  C   UNL A   1      31.643  31.992  26.670  1.00  0.00     0.023 C 
BRANCH  34  35
ATOM     35  C   UNL A   1      32.780  32.802  27.286  1.00  0.00     0.116 C 
BRANCH  35  36
ATOM     36  N   UNL A   1      32.400  34.161  27.640  1.00  0.00    -0.352 N 
ATOM     37  C   UNL A   1      32.966  34.992  28.578  1.00  0.00     0.251 C 
ATOM     38  H   UNL A   1      31.636  34.534  27.143  1.00  0.00     0.163 HD
ATOM     39  O   UNL A   1      32.462  36.084  28.822  1.00  0.00    -0.269 OA
BRANCH  37  40
ATOM     40  C   UNL A   1      34.159  34.543  29.326  1.00  0.00     0.039 A 
ATOM     41  C   UNL A   1      33.990  34.026  30.613  1.00  0.00     0.014 A 
ATOM     42  C   UNL A   1      35.432  34.604  28.753  1.00  0.00     0.014 A 
ATOM     43  C   UNL A   1      35.087  33.501  31.298  1.00  0.00     0.010 A 
ATOM     44  C   UNL A   1      36.512  34.022  29.409  1.00  0.00     0.010 A 
ATOM     45  C   UNL A   1      36.351  33.459  30.685  1.00  0.00    -0.014 A 
BRANCH  45  46
ATOM     46  C   UNL A   1      37.510  32.819  31.352  1.00  0.00     0.031 A 
ATOM     47  C   UNL A   1      38.167  31.615  30.741  1.00  0.00     0.074 A 
ATOM     48  C   UNL A   1      37.921  33.274  32.552  1.00  0.00     0.049 A 
ATOM     49  N   UNL A   1      39.139  30.875  31.210  1.00  0.00    -0.248 NA
ATOM     50  C   UNL A   1      37.640  31.164  29.444  1.00  0.00     0.031 C 
ATOM     51  C   UNL A   1      37.331  34.402  33.276  1.00  0.00     0.029 A 
ATOM     52  N   UNL A   1      38.925  32.837  33.379  1.00  0.00    -0.354 N 
ATOM     53  C   UNL A   1      39.330  29.865  30.277  1.00  0.00     0.074 A 
ATOM     54  C   UNL A   1      38.339  30.057  29.239  1.00  0.00     0.031 C 
ATOM     55  C   UNL A   1      37.995  34.577  34.431  1.00  0.00     0.029 A 
ATOM     56  C   UNL A   1      39.033  33.558  34.542  1.00  0.00     0.049 A 
ATOM     57  H   UNL A   1      39.511  32.077  33.158  1.00  0.00     0.167 HD
ATOM     58  C   UNL A   1      40.260  28.881  30.271  1.00  0.00     0.037 A 
ATOM     59  C   UNL A   1      39.873  33.412  35.585  1.00  0.00     0.037 A 
ATOM     60  C   UNL A   1      41.261  28.707  31.291  1.00  0.00     0.049 A 
ATOM     61  C   UNL A   1      40.903  32.318  35.553  1.00  0.00     0.074 A 
ATOM     62  C   UNL A   1      42.288  27.781  31.344  1.00  0.00     0.029 A 
ATOM     63  N   UNL A   1      41.356  29.475  32.442  1.00  0.00    -0.354 N 
ATOM     64  N   UNL A   1      41.118  31.414  34.629  1.00  0.00    -0.248 NA
ATOM     65  C   UNL A   1      41.808  32.227  36.707  1.00  0.00     0.031 C 
ATOM     66  C   UNL A   1      42.982  27.964  32.545  1.00  0.00     0.029 A 
ATOM     67  C   UNL A   1      42.413  29.032  33.221  1.00  0.00     0.049 A 
ATOM     68  H   UNL A   1      40.760  30.223  32.673  1.00  0.00     0.167 HD
ATOM     69  C   UNL A   1      42.199  30.663  35.075  1.00  0.00     0.074 A 
ATOM     70  C   UNL A   1      42.600  31.227  36.348  1.00  0.00     0.031 C 
ATOM     71  C   UNL A   1      42.803  29.605  34.484  1.00  0.00     0.037 A 
BRANCH  58  72
ATOM     72  C   UNL A   1      40.236  27.918  29.119  1.00  0.00     0.057 A 
ATOM     73  C   UNL A   1      40.958  28.157  27.943  1.00  0.00     0.134 A 
ATOM     74  C   UNL A   1      39.494  26.733  29.193  1.00  0.00     0.134 A 
ATOM     75  F   UNL A   1      41.679  29.280  27.804  1.00  0.00    -0.206 F 
ATOM     76  C   UNL A   1      40.918  27.268  26.867  1.00  0.00     0.040 A 
ATOM     77  C   UNL A   1      39.468  25.822  28.134  1.00  0.00     0.040 A 
ATOM     78  F   UNL A   1      38.785  26.439  30.292  1.00  0.00    -0.206 F 
ATOM     79  C   UNL A   1      40.176  26.094  26.964  1.00  0.00     0.006 A 
ENDBRANCH  58  72
BRANCH  59  80
ATOM     80  C   UNL A   1      39.793  34.348  36.733  1.00  0.00     0.057 A 
ATOM     81  C   UNL A   1      38.979  34.066  37.836  1.00  0.00     0.134 A 
ATOM     82  C   UNL A   1      40.532  35.536  36.762  1.00  0.00     0.134 A 
ATOM     83  F   UNL A   1      38.236  32.949  37.858  1.00  0.00    -0.206 F 
ATOM     84  C   UNL A   1      38.892  34.938  38.921  1.00  0.00     0.040 A 
ATOM     85  C   UNL A   1      40.471  36.408  37.851  1.00  0.00     0.040 A 
ATOM     86  F   UNL A   1      41.337  35.858  35.739  1.00  0.00    -0.206 F 
ATOM     87  C   UNL A   1      39.644  36.111  38.933  1.00  0.00     0.006 A 
ENDBRANCH  59  80
BRANCH  71  88
ATOM     88  C   UNL A   1      43.981  29.004  35.192  1.00  0.00     0.057 A 
ATOM     89  C   UNL A   1      45.286  29.467  34.978  1.00  0.00     0.134 A 
ATOM     90  C   UNL A   1      43.802  27.978  36.128  1.00  0.00     0.134 A 
ATOM     91  F   UNL A   1      45.524  30.439  34.083  1.00  0.00    -0.206 F 
ATOM     92  C   UNL A   1      46.374  28.917  35.656  1.00  0.00     0.040 A 
ATOM     93  C   UNL A   1      44.880  27.436  36.831  1.00  0.00     0.040 A 
ATOM     94  F   UNL A   1      42.577  27.495  36.384  1.00  0.00    -0.206 F 
ATOM     95  C   UNL A   1      46.171  27.903  36.592  1.00  0.00     0.006 A 
ENDBRANCH  71  88
ENDBRANCH  45  46
ENDBRANCH  37  40
ENDBRANCH  35  36
ENDBRANCH  34  35
ENDBRANCH  33  34
ENDBRANCH   1  33
TORSDOF 15
ENDMDL
MODEL 3
REMARK VINA RESULT:     -13.0      1.637      3.421
REMARK SMILES Cc1cc(C(=O)NCCCCNC(=O)c2ccc(-c3c4nc(c(-c5c(F)cccc5F)c5ccc([nH]5)c(-c5c(F)cccc5F)c5nc(c(-c6c(F)cccc6F)c6ccc3[nH]6)C=C5)C=C4)cc2)cc(S(=O)(=O)NNC(=O)c2c[nH]c3ccccc23)c1C
REMARK SMILES IDX 8 1 7 2 5 3 6 4 4 6 1 7 2 8 3 9 87 10 70 11 88 12 69 13
REMARK SMILES IDX 71 14 72 15 73 16 74 17 75 19 76 20 77 22 78 23 79 24 86 25
REMARK SMILES IDX 80 26 81 27 85 28 82 30 84 31 83 32 9 33 10 34 11 35 12 36
REMARK SMILES IDX 13 37 14 39 15 40 16 41 68 42 17 43 67 44 18 45 19 46 20 47
REMARK SMILES IDX 61 48 21 49 66 50 60 51 62 52 22 53 65 54 59 55 58 56 23 58
REMARK SMILES IDX 49 59 32 60 48 61 33 62 36 63 47 64 63 65 34 66 35 67 46 69
REMARK SMILES IDX 64 70 37 71 24 72 25 73 30 74 26 75 27 76 29 77 31 78 28 79
REMARK SMILES IDX 50 80 51 81 56 82 52 83 53 84 55 85 57 86 54 87 38 88 39 89
REMARK SMILES IDX 44 90 40 91 41 92 43 93 45 94 42 95
REMARK H PARENT 7 5 74 18 75 21 80 29 12 38 62 57 36 68
REMARK Flexibility Score: inf
ROOT
ATOM      1  C   UNL A   1      37.647  21.586  24.196  1.00  0.00     0.116 C 
ENDROOT
BRANCH   1   2
ATOM      2  N   UNL A   1      37.772  22.759  25.044  1.00  0.00    -0.352 N 
ATOM      3  C   UNL A   1      36.865  23.568  25.681  1.00  0.00     0.251 C 
ATOM      4  O   UNL A   1      37.322  24.495  26.355  1.00  0.00    -0.269 OA
ATOM      5  H   UNL A   1      38.706  23.030  25.194  1.00  0.00     0.163 HD
BRANCH   3   6
ATOM      6  C   UNL A   1      35.381  23.396  25.637  1.00  0.00     0.041 A 
ATOM      7  C   UNL A   1      32.418  22.698  27.916  1.00  0.00     0.044 C 
ATOM      8  C   UNL A   1      33.190  22.969  26.650  1.00  0.00    -0.046 A 
ATOM      9  C   UNL A   1      34.591  23.055  26.735  1.00  0.00     0.017 A 
ATOM     10  C   UNL A   1      32.559  23.129  25.400  1.00  0.00    -0.028 A 
ATOM     11  C   UNL A   1      33.371  23.349  24.258  1.00  0.00     0.088 A 
ATOM     12  C   UNL A   1      31.056  23.052  25.280  1.00  0.00     0.046 C 
ATOM     13  C   UNL A   1      34.754  23.528  24.386  1.00  0.00     0.036 A 
BRANCH  11  14
ATOM     14  S   UNL A   1      32.631  23.208  22.644  1.00  0.00     0.257 S 
ATOM     15  O   UNL A   1      33.696  23.493  21.689  1.00  0.00    -0.205 OA
ATOM     16  O   UNL A   1      31.906  21.959  22.604  1.00  0.00    -0.205 OA
BRANCH  14  17
ATOM     17  N   UNL A   1      31.439  24.409  22.471  1.00  0.00    -0.123 NA
ATOM     18  H   UNL A   1      31.201  24.724  23.412  1.00  0.00     0.167 HD
BRANCH  17  19
ATOM     19  N   UNL A   1      31.711  25.617  21.677  1.00  0.00    -0.273 N 
ATOM     20  C   UNL A   1      32.519  26.623  22.190  1.00  0.00     0.268 C 
ATOM     21  H   UNL A   1      31.318  25.713  20.779  1.00  0.00     0.186 HD
ATOM     22  O   UNL A   1      33.651  26.821  21.755  1.00  0.00    -0.268 OA
BRANCH  20  23
ATOM     23  C   UNL A   1      31.797  27.599  23.007  1.00  0.00     0.066 A 
ATOM     24  C   UNL A   1      31.338  28.834  22.581  1.00  0.00     0.097 A 
ATOM     25  C   UNL A   1      31.598  27.597  24.427  1.00  0.00     0.012 A 
ATOM     26  N   UNL A   1      31.415  29.675  23.656  1.00  0.00    -0.360 N 
ATOM     27  C   UNL A   1      31.581  28.942  24.803  1.00  0.00     0.046 A 
ATOM     28  C   UNL A   1      31.577  26.624  25.448  1.00  0.00     0.011 A 
ATOM     29  H   UNL A   1      31.361  30.657  23.614  1.00  0.00     0.166 HD
ATOM     30  C   UNL A   1      31.738  29.366  26.125  1.00  0.00     0.027 A 
ATOM     31  C   UNL A   1      31.590  27.036  26.787  1.00  0.00     0.001 A 
ATOM     32  C   UNL A   1      31.732  28.384  27.115  1.00  0.00     0.002 A 
ENDBRANCH  20  23
ENDBRANCH  17  19
ENDBRANCH  14  17
ENDBRANCH  11  14
ENDBRANCH   3   6
ENDBRANCH   1   2
BRANCH   1  33
ATOM     33  C   UNL A   1      37.127  20.381  24.988  1.00  0.00     0.023 C 
BRANCH  33  34
ATOM     34  C   UNL A   1      38.184  19.303  25.258  1.00  0.00     0.023 C 
BRANCH  34  35
ATOM     35  C   UNL A   1      39.529  19.826  25.755  1.00  0.00     0.116 C 
BRANCH  35  36
ATOM     36  N   UNL A   1      40.561  18.804  25.824  1.00  0.00    -0.352 N 
ATOM     37  C   UNL A   1      41.899  18.954  26.102  1.00  0.00     0.251 C 
ATOM     38  H   UNL A   1      40.262  17.882  25.647  1.00  0.00     0.163 HD
ATOM     39  O   UNL A   1      42.659  17.993  26.027  1.00  0.00    -0.269 OA
BRANCH  37  40
ATOM     40  C   UNL A   1      42.428  20.291  26.446  1.00  0.00     0.039 A 
ATOM     41  C   UNL A   1      43.051  21.044  25.448  1.00  0.00     0.014 A 
ATOM     42  C   UNL A   1      42.284  20.811  27.735  1.00  0.00     0.014 A 
ATOM     43  C   UNL A   1      43.466  22.349  25.723  1.00  0.00     0.010 A 
ATOM     44  C   UNL A   1      42.636  22.132  27.989  1.00  0.00     0.010 A 
ATOM     45  C   UNL A   1      43.226  22.917  26.985  1.00  0.00    -0.014 A 
BRANCH  45  46
ATOM     46  C   UNL A   1      43.567  24.332  27.270  1.00  0.00     0.031 A 
ATOM     47  C   UNL A   1      44.993  24.797  27.197  1.00  0.00     0.074 A 
ATOM     48  C   UNL A   1      42.601  25.181  27.671  1.00  0.00     0.049 A 
ATOM     49  N   UNL A   1      45.495  25.971  27.482  1.00  0.00    -0.248 NA
ATOM     50  C   UNL A   1      45.991  23.801  26.777  1.00  0.00     0.031 C 
ATOM     51  C   UNL A   1      41.187  24.837  27.834  1.00  0.00     0.029 A 
ATOM     52  N   UNL A   1      42.664  26.504  28.028  1.00  0.00    -0.354 N 
ATOM     53  C   UNL A   1      46.866  25.852  27.293  1.00  0.00     0.074 A 
ATOM     54  C   UNL A   1      47.121  24.478  26.918  1.00  0.00     0.031 C 
ATOM     55  C   UNL A   1      40.515  25.927  28.241  1.00  0.00     0.029 A 
ATOM     56  C   UNL A   1      41.453  27.033  28.398  1.00  0.00     0.049 A 
ATOM     57  H   UNL A   1      43.500  27.025  28.019  1.00  0.00     0.167 HD
ATOM     58  C   UNL A   1      47.822  26.805  27.399  1.00  0.00     0.037 A 
ATOM     59  C   UNL A   1      41.133  28.271  28.822  1.00  0.00     0.037 A 
ATOM     60  C   UNL A   1      47.563  28.177  27.749  1.00  0.00     0.049 A 
ATOM     61  C   UNL A   1      42.210  29.315  28.924  1.00  0.00     0.074 A 
ATOM     62  C   UNL A   1      48.454  29.233  27.819  1.00  0.00     0.029 A 
ATOM     63  N   UNL A   1      46.317  28.682  28.091  1.00  0.00    -0.354 N 
ATOM     64  N   UNL A   1      43.491  29.206  28.672  1.00  0.00    -0.248 NA
ATOM     65  C   UNL A   1      41.794  30.654  29.366  1.00  0.00     0.031 C 
ATOM     66  C   UNL A   1      47.755  30.369  28.240  1.00  0.00     0.029 A 
ATOM     67  C   UNL A   1      46.420  30.030  28.392  1.00  0.00     0.049 A 
ATOM     68  H   UNL A   1      45.484  28.159  28.118  1.00  0.00     0.167 HD
ATOM     69  C   UNL A   1      44.032  30.466  28.898  1.00  0.00     0.074 A 
ATOM     70  C   UNL A   1      42.935  31.325  29.296  1.00  0.00     0.031 C 
ATOM     71  C   UNL A   1      45.319  30.873  28.784  1.00  0.00     0.037 A 
BRANCH  58  72
ATOM     72  C   UNL A   1      49.240  26.390  27.130  1.00  0.00     0.057 A 
ATOM     73  C   UNL A   1      49.782  26.410  25.838  1.00  0.00     0.134 A 
ATOM     74  C   UNL A   1      50.076  25.979  28.175  1.00  0.00     0.134 A 
ATOM     75  F   UNL A   1      49.030  26.782  24.791  1.00  0.00    -0.206 F 
ATOM     76  C   UNL A   1      51.095  26.005  25.590  1.00  0.00     0.040 A 
ATOM     77  C   UNL A   1      51.399  25.598  27.944  1.00  0.00     0.040 A 
ATOM     78  F   UNL A   1      49.623  25.941  29.437  1.00  0.00    -0.206 F 
ATOM     79  C   UNL A   1      51.909  25.603  26.646  1.00  0.00     0.006 A 
ENDBRANCH  58  72
BRANCH  59  80
ATOM     80  C   UNL A   1      39.724  28.598  29.151  1.00  0.00     0.057 A 
ATOM     81  C   UNL A   1      39.221  28.395  30.442  1.00  0.00     0.134 A 
ATOM     82  C   UNL A   1      38.852  29.127  28.193  1.00  0.00     0.134 A 
ATOM     83  F   UNL A   1      40.006  27.876  31.398  1.00  0.00    -0.206 F 
ATOM     84  C   UNL A   1      37.898  28.694  30.765  1.00  0.00     0.040 A 
ATOM     85  C   UNL A   1      37.531  29.451  28.508  1.00  0.00     0.040 A 
ATOM     86  F   UNL A   1      39.277  29.352  26.941  1.00  0.00    -0.206 F 
ATOM     87  C   UNL A   1      37.050  29.230  29.798  1.00  0.00     0.006 A 
ENDBRANCH  59  80
BRANCH  71  88
ATOM     88  C   UNL A   1      45.608  32.318  29.066  1.00  0.00     0.057 A 
ATOM     89  C   UNL A   1      46.011  32.757  30.333  1.00  0.00     0.134 A 
ATOM     90  C   UNL A   1      45.521  33.274  28.046  1.00  0.00     0.134 A 
ATOM     91  F   UNL A   1      46.101  31.892  31.356  1.00  0.00    -0.206 F 
ATOM     92  C   UNL A   1      46.298  34.099  30.582  1.00  0.00     0.040 A 
ATOM     93  C   UNL A   1      45.828  34.616  28.276  1.00  0.00     0.040 A 
ATOM     94  F   UNL A   1      45.147  32.917  26.808  1.00  0.00    -0.206 F 
ATOM     95  C   UNL A   1      46.214  35.032  29.549  1.00  0.00     0.006 A 
ENDBRANCH  71  88
ENDBRANCH  45  46
ENDBRANCH  37  40
ENDBRANCH  35  36
ENDBRANCH  34  35
ENDBRANCH  33  34
ENDBRANCH   1  33
TORSDOF 15
ENDMDL
