MODEL 1
REMARK VINA RESULT:     -13.0      0.000      0.000
REMARK SMILES C[C@H](C(=O)NCCCCNC(=O)c1ccc(-c2c3nc(c(-c4c(F)cccc4F)c4ccc([nH]4)c(-c4c(F)cccc4F)c4nc(c(-c5c(F)cccc5F)c5ccc2[nH]5)C=C4)C=C3)cc1)c1ccc2c3cc(Cl)ccc3n(C(=O)c3cocn3)c2c1
REMARK SMILES IDX 7 1 6 2 5 3 3 4 4 5 2 7 1 8 67 9 68 10 87 11 69 12 86 13
REMARK SMILES IDX 70 14 78 15 71 16 77 17 72 18 76 19 73 20 75 21 74 22 79 23
REMARK SMILES IDX 80 24 81 25 82 26 85 27 83 28 84 29 8 30 9 31 10 32 11 33
REMARK SMILES IDX 12 35 13 36 14 37 66 38 15 39 65 40 16 41 17 42 18 43 59 44
REMARK SMILES IDX 19 45 64 46 58 47 60 48 20 49 63 50 57 51 56 52 21 54 47 55
REMARK SMILES IDX 30 56 46 57 31 58 34 59 45 60 61 61 32 62 33 63 44 65 62 66
REMARK SMILES IDX 35 67 22 68 23 69 28 70 24 71 25 72 27 73 29 74 26 75 48 76
REMARK SMILES IDX 49 77 54 78 50 79 51 80 53 81 55 82 52 83 36 84 37 85 42 86
REMARK SMILES IDX 38 87 39 88 41 89 43 90 40 91
REMARK H PARENT 5 6 10 34 60 53 34 64
REMARK Flexibility Score: inf
ROOT
ATOM      1  C   UNL A   1      36.073  20.468  24.988  1.00  0.00     0.023 C 
ENDROOT
BRANCH   1   2
ATOM      2  C   UNL A   1      35.268  21.247  26.031  1.00  0.00     0.116 C 
BRANCH   2   3
ATOM      3  N   UNL A   1      33.857  20.953  25.920  1.00  0.00    -0.356 N 
ATOM      4  C   UNL A   1      32.894  21.511  25.130  1.00  0.00     0.227 C 
ATOM      5  O   UNL A   1      31.742  21.116  25.336  1.00  0.00    -0.274 OA
ATOM      6  H   UNL A   1      33.539  20.233  26.511  1.00  0.00     0.163 HD
BRANCH   4   7
ATOM      7  C   UNL A   1      33.230  22.475  23.972  1.00  0.00     0.105 C 
ATOM      8  C   UNL A   1      32.245  22.223  22.815  1.00  0.00     0.023 C 
BRANCH   7   9
ATOM      9  C   UNL A   1      33.264  23.963  24.327  1.00  0.00    -0.034 A 
ATOM     10  C   UNL A   1      34.348  24.478  25.051  1.00  0.00     0.005 A 
ATOM     11  C   UNL A   1      32.256  24.849  23.908  1.00  0.00     0.032 A 
ATOM     12  C   UNL A   1      34.368  25.802  25.502  1.00  0.00     0.011 A 
ATOM     13  C   UNL A   1      32.337  26.211  24.273  1.00  0.00     0.058 A 
ATOM     14  C   UNL A   1      33.335  26.678  25.125  1.00  0.00     0.008 A 
ATOM     15  N   UNL A   1      31.616  27.331  23.841  1.00  0.00    -0.274 N 
ATOM     16  C   UNL A   1      32.999  28.014  25.483  1.00  0.00     0.009 A 
ATOM     17  C   UNL A   1      31.907  28.396  24.699  1.00  0.00     0.057 A 
ATOM     18  C   UNL A   1      33.514  28.914  26.440  1.00  0.00     0.031 A 
ATOM     19  C   UNL A   1      31.284  29.649  24.875  1.00  0.00     0.029 A 
ATOM     20  C   UNL A   1      32.889  30.148  26.622  1.00  0.00     0.041 A 
ATOM     21  C   UNL A   1      31.792  30.513  25.852  1.00  0.00     0.023 A 
ATOM     22  Cl  UNL A   1      33.466  31.217  27.843  1.00  0.00    -0.084 Cl
BRANCH  15  23
ATOM     23  C   UNL A   1      30.779  27.358  22.696  1.00  0.00     0.284 C 
ATOM     24  O   UNL A   1      31.252  26.885  21.667  1.00  0.00    -0.266 OA
BRANCH  23  25
ATOM     25  C   UNL A   1      29.457  27.991  22.689  1.00  0.00     0.167 A 
ATOM     26  C   UNL A   1      28.329  27.648  23.408  1.00  0.00     0.231 A 
ATOM     27  N   UNL A   1      29.193  29.171  22.007  1.00  0.00    -0.211 NA
ATOM     28  O   UNL A   1      27.365  28.584  23.180  1.00  0.00    -0.451 OA
ATOM     29  C   UNL A   1      27.961  29.473  22.342  1.00  0.00     0.308 A 
ENDBRANCH  23  25
ENDBRANCH  15  23
ENDBRANCH   7   9
ENDBRANCH   4   7
ENDBRANCH   2   3
ENDBRANCH   1   2
BRANCH   1  30
ATOM     30  C   UNL A   1      37.406  21.114  24.611  1.00  0.00     0.023 C 
BRANCH  30  31
ATOM     31  C   UNL A   1      38.463  21.048  25.706  1.00  0.00     0.116 C 
BRANCH  31  32
ATOM     32  N   UNL A   1      39.335  19.885  25.614  1.00  0.00    -0.352 N 
ATOM     33  C   UNL A   1      40.658  19.776  25.971  1.00  0.00     0.251 C 
ATOM     34  H   UNL A   1      38.922  19.068  25.247  1.00  0.00     0.163 HD
ATOM     35  O   UNL A   1      41.276  18.737  25.769  1.00  0.00    -0.269 OA
BRANCH  33  36
ATOM     36  C   UNL A   1      41.347  20.952  26.544  1.00  0.00     0.039 A 
ATOM     37  C   UNL A   1      42.040  21.806  25.684  1.00  0.00     0.014 A 
ATOM     38  C   UNL A   1      41.248  21.248  27.906  1.00  0.00     0.014 A 
ATOM     39  C   UNL A   1      42.556  23.006  26.176  1.00  0.00     0.010 A 
ATOM     40  C   UNL A   1      41.692  22.479  28.377  1.00  0.00     0.010 A 
ATOM     41  C   UNL A   1      42.341  23.375  27.515  1.00  0.00    -0.014 A 
BRANCH  41  42
ATOM     42  C   UNL A   1      42.765  24.706  28.017  1.00  0.00     0.031 A 
ATOM     43  C   UNL A   1      41.746  25.780  28.282  1.00  0.00     0.074 A 
ATOM     44  C   UNL A   1      44.078  24.966  28.175  1.00  0.00     0.049 A 
ATOM     45  N   UNL A   1      41.932  27.010  28.688  1.00  0.00    -0.248 NA
ATOM     46  C   UNL A   1      40.338  25.436  28.030  1.00  0.00     0.031 C 
ATOM     47  C   UNL A   1      45.169  24.033  27.879  1.00  0.00     0.029 A 
ATOM     48  N   UNL A   1      44.721  26.093  28.619  1.00  0.00    -0.354 N 
ATOM     49  C   UNL A   1      40.669  27.586  28.732  1.00  0.00     0.074 A 
ATOM     50  C   UNL A   1      39.733  26.593  28.255  1.00  0.00     0.031 C 
ATOM     51  C   UNL A   1      46.341  24.616  28.180  1.00  0.00     0.029 A 
ATOM     52  C   UNL A   1      46.089  25.969  28.662  1.00  0.00     0.049 A 
ATOM     53  H   UNL A   1      44.246  26.915  28.884  1.00  0.00     0.167 HD
ATOM     54  C   UNL A   1      40.317  28.822  29.161  1.00  0.00     0.037 A 
ATOM     55  C   UNL A   1      47.032  26.847  29.051  1.00  0.00     0.037 A 
ATOM     56  C   UNL A   1      41.245  29.799  29.664  1.00  0.00     0.049 A 
ATOM     57  C   UNL A   1      46.610  28.200  29.551  1.00  0.00     0.074 A 
ATOM     58  C   UNL A   1      40.981  31.060  30.170  1.00  0.00     0.029 A 
ATOM     59  N   UNL A   1      42.619  29.622  29.728  1.00  0.00    -0.354 N 
ATOM     60  N   UNL A   1      45.405  28.705  29.655  1.00  0.00    -0.248 NA
ATOM     61  C   UNL A   1      47.680  29.102  30.000  1.00  0.00     0.031 C 
ATOM     62  C   UNL A   1      42.200  31.657  30.515  1.00  0.00     0.029 A 
ATOM     63  C   UNL A   1      43.217  30.753  30.258  1.00  0.00     0.049 A 
ATOM     64  H   UNL A   1      43.099  28.812  29.439  1.00  0.00     0.167 HD
ATOM     65  C   UNL A   1      45.569  29.971  30.199  1.00  0.00     0.074 A 
ATOM     66  C   UNL A   1      46.989  30.149  30.426  1.00  0.00     0.031 C 
ATOM     67  C   UNL A   1      44.631  30.907  30.480  1.00  0.00     0.037 A 
BRANCH  54  68
ATOM     68  C   UNL A   1      38.859  29.173  29.131  1.00  0.00     0.057 A 
ATOM     69  C   UNL A   1      38.229  29.586  27.951  1.00  0.00     0.134 A 
ATOM     70  C   UNL A   1      38.067  29.059  30.280  1.00  0.00     0.134 A 
ATOM     71  F   UNL A   1      38.935  29.731  26.818  1.00  0.00    -0.206 F 
ATOM     72  C   UNL A   1      36.868  29.894  27.917  1.00  0.00     0.040 A 
ATOM     73  C   UNL A   1      36.700  29.338  30.254  1.00  0.00     0.040 A 
ATOM     74  F   UNL A   1      38.606  28.664  31.444  1.00  0.00    -0.206 F 
ATOM     75  C   UNL A   1      36.098  29.763  29.071  1.00  0.00     0.006 A 
ENDBRANCH  54  68
BRANCH  55  76
ATOM     76  C   UNL A   1      48.468  26.470  29.014  1.00  0.00     0.057 A 
ATOM     77  C   UNL A   1      49.065  25.800  30.089  1.00  0.00     0.134 A 
ATOM     78  C   UNL A   1      49.281  26.792  27.922  1.00  0.00     0.134 A 
ATOM     79  F   UNL A   1      48.341  25.480  31.171  1.00  0.00    -0.206 F 
ATOM     80  C   UNL A   1      50.425  25.488  30.091  1.00  0.00     0.040 A 
ATOM     81  C   UNL A   1      50.638  26.465  27.901  1.00  0.00     0.040 A 
ATOM     82  F   UNL A   1      48.768  27.426  26.858  1.00  0.00    -0.206 F 
ATOM     83  C   UNL A   1      51.217  25.820  28.992  1.00  0.00     0.006 A 
ENDBRANCH  55  76
BRANCH  67  84
ATOM     84  C   UNL A   1      45.113  32.192  31.086  1.00  0.00     0.057 A 
ATOM     85  C   UNL A   1      45.223  32.357  32.472  1.00  0.00     0.134 A 
ATOM     86  C   UNL A   1      45.487  33.268  30.272  1.00  0.00     0.134 A 
ATOM     87  F   UNL A   1      44.867  31.368  33.305  1.00  0.00    -0.206 F 
ATOM     88  C   UNL A   1      45.661  33.559  33.030  1.00  0.00     0.040 A 
ATOM     89  C   UNL A   1      45.952  34.466  30.818  1.00  0.00     0.040 A 
ATOM     90  F   UNL A   1      45.414  33.171  28.937  1.00  0.00    -0.206 F 
ATOM     91  C   UNL A   1      46.031  34.616  32.201  1.00  0.00     0.006 A 
ENDBRANCH  67  84
ENDBRANCH  41  42
ENDBRANCH  33  36
ENDBRANCH  31  32
ENDBRANCH  30  31
ENDBRANCH   1  30
TORSDOF 14
ENDMDL
MODEL 2
REMARK VINA RESULT:     -12.9      1.393      6.107
REMARK SMILES C[C@H](C(=O)NCCCCNC(=O)c1ccc(-c2c3nc(c(-c4c(F)cccc4F)c4ccc([nH]4)c(-c4c(F)cccc4F)c4nc(c(-c5c(F)cccc5F)c5ccc2[nH]5)C=C4)C=C3)cc1)c1ccc2c3cc(Cl)ccc3n(C(=O)c3cocn3)c2c1
REMARK SMILES IDX 7 1 6 2 5 3 3 4 4 5 2 7 1 8 67 9 68 10 87 11 69 12 86 13
REMARK SMILES IDX 70 14 78 15 71 16 77 17 72 18 76 19 73 20 75 21 74 22 79 23
REMARK SMILES IDX 80 24 81 25 82 26 85 27 83 28 84 29 8 30 9 31 10 32 11 33
REMARK SMILES IDX 12 35 13 36 14 37 66 38 15 39 65 40 16 41 17 42 18 43 59 44
REMARK SMILES IDX 19 45 64 46 58 47 60 48 20 49 63 50 57 51 56 52 21 54 47 55
REMARK SMILES IDX 30 56 46 57 31 58 34 59 45 60 61 61 32 62 33 63 44 65 62 66
REMARK SMILES IDX 35 67 22 68 23 69 28 70 24 71 25 72 27 73 29 74 26 75 48 76
REMARK SMILES IDX 49 77 54 78 50 79 51 80 53 81 55 82 52 83 36 84 37 85 42 86
REMARK SMILES IDX 38 87 39 88 41 89 43 90 40 91
REMARK H PARENT 5 6 10 34 60 53 34 64
REMARK Flexibility Score: inf
ROOT
ATOM      1  C   UNL A   1      37.290  21.355  24.957  1.00  0.00     0.023 C 
ENDROOT
BRANCH   1   2
ATOM      2  C   UNL A   1      35.817  21.076  24.651  1.00  0.00     0.116 C 
BRANCH   2   3
ATOM      3  N   UNL A   1      35.060  20.905  25.870  1.00  0.00    -0.356 N 
ATOM      4  C   UNL A   1      33.902  21.497  26.286  1.00  0.00     0.227 C 
ATOM      5  O   UNL A   1      33.548  21.222  27.437  1.00  0.00    -0.274 OA
ATOM      6  H   UNL A   1      35.442  20.256  26.504  1.00  0.00     0.163 HD
BRANCH   4   7
ATOM      7  C   UNL A   1      33.024  22.349  25.345  1.00  0.00     0.105 C 
ATOM      8  C   UNL A   1      31.550  21.951  25.545  1.00  0.00     0.023 C 
BRANCH   7   9
ATOM      9  C   UNL A   1      33.189  23.866  25.467  1.00  0.00    -0.034 A 
ATOM     10  C   UNL A   1      34.465  24.412  25.655  1.00  0.00     0.005 A 
ATOM     11  C   UNL A   1      32.095  24.742  25.349  1.00  0.00     0.032 A 
ATOM     12  C   UNL A   1      34.653  25.778  25.891  1.00  0.00     0.011 A 
ATOM     13  C   UNL A   1      32.305  26.132  25.478  1.00  0.00     0.058 A 
ATOM     14  C   UNL A   1      33.552  26.650  25.823  1.00  0.00     0.008 A 
ATOM     15  N   UNL A   1      31.473  27.225  25.210  1.00  0.00    -0.274 N 
ATOM     16  C   UNL A   1      33.374  28.033  26.106  1.00  0.00     0.009 A 
ATOM     17  C   UNL A   1      32.066  28.371  25.750  1.00  0.00     0.057 A 
ATOM     18  C   UNL A   1      34.213  29.017  26.674  1.00  0.00     0.031 A 
ATOM     19  C   UNL A   1      31.554  29.663  25.986  1.00  0.00     0.029 A 
ATOM     20  C   UNL A   1      33.703  30.292  26.918  1.00  0.00     0.041 A 
ATOM     21  C   UNL A   1      32.394  30.613  26.579  1.00  0.00     0.023 A 
ATOM     22  Cl  UNL A   1      34.699  31.470  27.683  1.00  0.00    -0.084 Cl
BRANCH  15  23
ATOM     23  C   UNL A   1      30.263  27.154  24.473  1.00  0.00     0.284 C 
ATOM     24  O   UNL A   1      29.550  26.179  24.693  1.00  0.00    -0.266 OA
BRANCH  23  25
ATOM     25  C   UNL A   1      29.903  28.124  23.434  1.00  0.00     0.167 A 
ATOM     26  C   UNL A   1      30.672  28.599  22.390  1.00  0.00     0.231 A 
ATOM     27  N   UNL A   1      28.616  28.624  23.287  1.00  0.00    -0.211 NA
ATOM     28  O   UNL A   1      29.894  29.393  21.602  1.00  0.00    -0.451 OA
ATOM     29  C   UNL A   1      28.672  29.349  22.194  1.00  0.00     0.308 A 
ENDBRANCH  23  25
ENDBRANCH  15  23
ENDBRANCH   7   9
ENDBRANCH   4   7
ENDBRANCH   2   3
ENDBRANCH   1   2
BRANCH   1  30
ATOM     30  C   UNL A   1      38.164  20.103  25.037  1.00  0.00     0.023 C 
BRANCH  30  31
ATOM     31  C   UNL A   1      39.341  20.225  25.997  1.00  0.00     0.116 C 
BRANCH  31  32
ATOM     32  N   UNL A   1      40.301  19.134  25.893  1.00  0.00    -0.352 N 
ATOM     33  C   UNL A   1      41.660  19.167  26.099  1.00  0.00     0.251 C 
ATOM     34  H   UNL A   1      39.927  18.257  25.643  1.00  0.00     0.163 HD
ATOM     35  O   UNL A   1      42.344  18.168  25.908  1.00  0.00    -0.269 OA
BRANCH  33  36
ATOM     36  C   UNL A   1      42.297  20.441  26.494  1.00  0.00     0.039 A 
ATOM     37  C   UNL A   1      42.838  21.255  25.498  1.00  0.00     0.014 A 
ATOM     38  C   UNL A   1      42.294  20.862  27.826  1.00  0.00     0.014 A 
ATOM     39  C   UNL A   1      43.294  22.532  25.826  1.00  0.00     0.010 A 
ATOM     40  C   UNL A   1      42.674  22.163  28.138  1.00  0.00     0.010 A 
ATOM     41  C   UNL A   1      43.168  23.015  27.140  1.00  0.00    -0.014 A 
BRANCH  41  42
ATOM     42  C   UNL A   1      43.523  24.417  27.475  1.00  0.00     0.031 A 
ATOM     43  C   UNL A   1      44.954  24.874  27.421  1.00  0.00     0.074 A 
ATOM     44  C   UNL A   1      42.558  25.263  27.889  1.00  0.00     0.049 A 
ATOM     45  N   UNL A   1      45.457  26.046  27.712  1.00  0.00    -0.248 NA
ATOM     46  C   UNL A   1      45.956  23.874  27.015  1.00  0.00     0.031 C 
ATOM     47  C   UNL A   1      41.143  24.919  28.057  1.00  0.00     0.029 A 
ATOM     48  N   UNL A   1      42.620  26.585  28.248  1.00  0.00    -0.354 N 
ATOM     49  C   UNL A   1      46.828  25.923  27.532  1.00  0.00     0.074 A 
ATOM     50  C   UNL A   1      47.086  24.548  27.166  1.00  0.00     0.031 C 
ATOM     51  C   UNL A   1      40.469  26.010  28.456  1.00  0.00     0.029 A 
ATOM     52  C   UNL A   1      41.404  27.120  28.598  1.00  0.00     0.049 A 
ATOM     53  H   UNL A   1      43.459  27.102  28.254  1.00  0.00     0.167 HD
ATOM     54  C   UNL A   1      47.785  26.878  27.632  1.00  0.00     0.037 A 
ATOM     55  C   UNL A   1      41.080  28.367  28.987  1.00  0.00     0.037 A 
ATOM     56  C   UNL A   1      47.524  28.252  27.967  1.00  0.00     0.049 A 
ATOM     57  C   UNL A   1      42.157  29.414  29.060  1.00  0.00     0.074 A 
ATOM     58  C   UNL A   1      48.418  29.306  28.044  1.00  0.00     0.029 A 
ATOM     59  N   UNL A   1      46.274  28.764  28.277  1.00  0.00    -0.354 N 
ATOM     60  N   UNL A   1      43.440  29.299  28.817  1.00  0.00    -0.248 NA
ATOM     61  C   UNL A   1      41.738  30.767  29.451  1.00  0.00     0.031 C 
ATOM     62  C   UNL A   1      47.711  30.452  28.428  1.00  0.00     0.029 A 
ATOM     63  C   UNL A   1      46.374  30.118  28.553  1.00  0.00     0.049 A 
ATOM     64  H   UNL A   1      45.439  28.244  28.298  1.00  0.00     0.167 HD
ATOM     65  C   UNL A   1      43.976  30.565  29.003  1.00  0.00     0.074 A 
ATOM     66  C   UNL A   1      42.876  31.439  29.356  1.00  0.00     0.031 C 
ATOM     67  C   UNL A   1      45.265  30.970  28.898  1.00  0.00     0.037 A 
BRANCH  54  68
ATOM     68  C   UNL A   1      49.199  26.469  27.347  1.00  0.00     0.057 A 
ATOM     69  C   UNL A   1      50.061  26.049  28.369  1.00  0.00     0.134 A 
ATOM     70  C   UNL A   1      49.695  26.455  26.038  1.00  0.00     0.134 A 
ATOM     71  F   UNL A   1      49.653  26.055  29.647  1.00  0.00    -0.206 F 
ATOM     72  C   UNL A   1      51.371  25.651  28.102  1.00  0.00     0.040 A 
ATOM     73  C   UNL A   1      50.995  26.033  25.755  1.00  0.00     0.040 A 
ATOM     74  F   UNL A   1      48.921  26.840  25.011  1.00  0.00    -0.206 F 
ATOM     75  C   UNL A   1      51.839  25.634  26.789  1.00  0.00     0.006 A 
ENDBRANCH  54  68
BRANCH  55  76
ATOM     76  C   UNL A   1      39.672  28.711  29.308  1.00  0.00     0.057 A 
ATOM     77  C   UNL A   1      39.167  28.542  30.604  1.00  0.00     0.134 A 
ATOM     78  C   UNL A   1      38.792  29.187  28.330  1.00  0.00     0.134 A 
ATOM     79  F   UNL A   1      39.957  28.073  31.580  1.00  0.00    -0.206 F 
ATOM     80  C   UNL A   1      37.831  28.809  30.908  1.00  0.00     0.040 A 
ATOM     81  C   UNL A   1      37.460  29.479  28.626  1.00  0.00     0.040 A 
ATOM     82  F   UNL A   1      39.216  29.377  27.073  1.00  0.00    -0.206 F 
ATOM     83  C   UNL A   1      36.973  29.281  29.916  1.00  0.00     0.006 A 
ENDBRANCH  55  76
BRANCH  67  84
ATOM     84  C   UNL A   1      45.543  32.423  29.145  1.00  0.00     0.057 A 
ATOM     85  C   UNL A   1      45.899  32.901  30.412  1.00  0.00     0.134 A 
ATOM     86  C   UNL A   1      45.471  33.351  28.099  1.00  0.00     0.134 A 
ATOM     87  F   UNL A   1      45.972  32.063  31.458  1.00  0.00    -0.206 F 
ATOM     88  C   UNL A   1      46.144  34.255  30.638  1.00  0.00     0.040 A 
ATOM     89  C   UNL A   1      45.740  34.705  28.307  1.00  0.00     0.040 A 
ATOM     90  F   UNL A   1      45.144  32.957  26.859  1.00  0.00    -0.206 F 
ATOM     91  C   UNL A   1      46.069  35.161  29.581  1.00  0.00     0.006 A 
ENDBRANCH  67  84
ENDBRANCH  41  42
ENDBRANCH  33  36
ENDBRANCH  31  32
ENDBRANCH  30  31
ENDBRANCH   1  30
TORSDOF 14
ENDMDL
MODEL 3
REMARK VINA RESULT:     -12.8      4.027      9.062
REMARK SMILES C[C@H](C(=O)NCCCCNC(=O)c1ccc(-c2c3nc(c(-c4c(F)cccc4F)c4ccc([nH]4)c(-c4c(F)cccc4F)c4nc(c(-c5c(F)cccc5F)c5ccc2[nH]5)C=C4)C=C3)cc1)c1ccc2c3cc(Cl)ccc3n(C(=O)c3cocn3)c2c1
REMARK SMILES IDX 7 1 6 2 5 3 3 4 4 5 2 7 1 8 67 9 68 10 87 11 69 12 86 13
REMARK SMILES IDX 70 14 78 15 71 16 77 17 72 18 76 19 73 20 75 21 74 22 79 23
REMARK SMILES IDX 80 24 81 25 82 26 85 27 83 28 84 29 8 30 9 31 10 32 11 33
REMARK SMILES IDX 12 35 13 36 14 37 66 38 15 39 65 40 16 41 17 42 18 43 59 44
REMARK SMILES IDX 19 45 64 46 58 47 60 48 20 49 63 50 57 51 56 52 21 54 47 55
REMARK SMILES IDX 30 56 46 57 31 58 34 59 45 60 61 61 32 62 33 63 44 65 62 66
REMARK SMILES IDX 35 67 22 68 23 69 28 70 24 71 25 72 27 73 29 74 26 75 48 76
REMARK SMILES IDX 49 77 54 78 50 79 51 80 53 81 55 82 52 83 36 84 37 85 42 86
REMARK SMILES IDX 38 87 39 88 41 89 43 90 40 91
REMARK H PARENT 5 6 10 34 60 53 34 64
REMARK Flexibility Score: inf
ROOT
ATOM      1  C   UNL A   1      31.785  30.307  26.504  1.00  0.00     0.023 C 
ENDROOT
BRANCH   1   2
ATOM      2  C   UNL A   1      32.742  29.788  25.428  1.00  0.00     0.116 C 
BRANCH   2   3
ATOM      3  N   UNL A   1      32.026  29.459  24.215  1.00  0.00    -0.356 N 
ATOM      4  C   UNL A   1      31.350  28.326  23.864  1.00  0.00     0.227 C 
ATOM      5  O   UNL A   1      30.924  28.299  22.705  1.00  0.00    -0.274 OA
ATOM      6  H   UNL A   1      32.026  30.168  23.532  1.00  0.00     0.163 HD
BRANCH   4   7
ATOM      7  C   UNL A   1      31.027  27.207  24.877  1.00  0.00     0.105 C 
ATOM      8  C   UNL A   1      29.780  26.444  24.393  1.00  0.00     0.023 C 
BRANCH   7   9
ATOM      9  C   UNL A   1      32.165  26.230  25.182  1.00  0.00    -0.034 A 
ATOM     10  C   UNL A   1      33.322  26.693  25.822  1.00  0.00     0.005 A 
ATOM     11  C   UNL A   1      32.067  24.861  24.879  1.00  0.00     0.032 A 
ATOM     12  C   UNL A   1      34.435  25.867  26.015  1.00  0.00     0.011 A 
ATOM     13  C   UNL A   1      33.152  24.008  25.176  1.00  0.00     0.058 A 
ATOM     14  C   UNL A   1      34.357  24.507  25.666  1.00  0.00     0.008 A 
ATOM     15  N   UNL A   1      33.261  22.612  25.180  1.00  0.00    -0.274 N 
ATOM     16  C   UNL A   1      35.304  23.446  25.629  1.00  0.00     0.009 A 
ATOM     17  C   UNL A   1      34.614  22.278  25.293  1.00  0.00     0.057 A 
ATOM     18  C   UNL A   1      36.703  23.395  25.816  1.00  0.00     0.031 A 
ATOM     19  C   UNL A   1      35.293  21.058  25.097  1.00  0.00     0.029 A 
ATOM     20  C   UNL A   1      37.376  22.190  25.610  1.00  0.00     0.041 A 
ATOM     21  C   UNL A   1      36.684  21.038  25.257  1.00  0.00     0.023 A 
ATOM     22  Cl  UNL A   1      39.090  22.142  25.761  1.00  0.00    -0.084 Cl
BRANCH  15  23
ATOM     23  C   UNL A   1      32.161  21.719  25.125  1.00  0.00     0.284 C 
ATOM     24  O   UNL A   1      31.211  21.981  25.857  1.00  0.00    -0.266 OA
BRANCH  23  25
ATOM     25  C   UNL A   1      32.167  20.493  24.319  1.00  0.00     0.167 A 
ATOM     26  C   UNL A   1      32.224  20.361  22.946  1.00  0.00     0.231 A 
ATOM     27  N   UNL A   1      32.250  19.227  24.881  1.00  0.00    -0.211 NA
ATOM     28  O   UNL A   1      32.329  19.037  22.640  1.00  0.00    -0.451 OA
ATOM     29  C   UNL A   1      32.354  18.420  23.851  1.00  0.00     0.308 A 
ENDBRANCH  23  25
ENDBRANCH  15  23
ENDBRANCH   7   9
ENDBRANCH   4   7
ENDBRANCH   2   3
ENDBRANCH   1   2
BRANCH   1  30
ATOM     30  C   UNL A   1      31.595  31.824  26.498  1.00  0.00     0.023 C 
BRANCH  30  31
ATOM     31  C   UNL A   1      32.661  32.589  27.274  1.00  0.00     0.116 C 
BRANCH  31  32
ATOM     32  N   UNL A   1      32.281  33.956  27.604  1.00  0.00    -0.352 N 
ATOM     33  C   UNL A   1      32.913  34.840  28.446  1.00  0.00     0.251 C 
ATOM     34  H   UNL A   1      31.464  34.290  27.166  1.00  0.00     0.163 HD
ATOM     35  O   UNL A   1      32.428  35.943  28.670  1.00  0.00    -0.269 OA
BRANCH  33  36
ATOM     36  C   UNL A   1      34.154  34.420  29.130  1.00  0.00     0.039 A 
ATOM     37  C   UNL A   1      34.054  33.784  30.369  1.00  0.00     0.014 A 
ATOM     38  C   UNL A   1      35.401  34.586  28.520  1.00  0.00     0.014 A 
ATOM     39  C   UNL A   1      35.194  33.234  30.953  1.00  0.00     0.010 A 
ATOM     40  C   UNL A   1      36.521  33.967  29.064  1.00  0.00     0.010 A 
ATOM     41  C   UNL A   1      36.428  33.276  30.280  1.00  0.00    -0.014 A 
BRANCH  41  42
ATOM     42  C   UNL A   1      37.619  32.577  30.826  1.00  0.00     0.031 A 
ATOM     43  C   UNL A   1      38.291  33.080  32.073  1.00  0.00     0.074 A 
ATOM     44  C   UNL A   1      38.130  31.524  30.159  1.00  0.00     0.049 A 
ATOM     45  N   UNL A   1      39.359  32.622  32.675  1.00  0.00    -0.248 NA
ATOM     46  C   UNL A   1      37.706  34.271  32.710  1.00  0.00     0.031 C 
ATOM     47  C   UNL A   1      37.615  30.987  28.896  1.00  0.00     0.029 A 
ATOM     48  N   UNL A   1      39.202  30.717  30.446  1.00  0.00    -0.354 N 
ATOM     49  C   UNL A   1      39.576  33.470  33.753  1.00  0.00     0.074 A 
ATOM     50  C   UNL A   1      38.567  34.505  33.689  1.00  0.00     0.031 C 
ATOM     51  C   UNL A   1      38.351  29.923  28.537  1.00  0.00     0.029 A 
ATOM     52  C   UNL A   1      39.404  29.718  29.524  1.00  0.00     0.049 A 
ATOM     53  H   UNL A   1      39.773  30.842  31.239  1.00  0.00     0.167 HD
ATOM     54  C   UNL A   1      40.512  33.378  34.728  1.00  0.00     0.037 A 
ATOM     55  C   UNL A   1      40.333  28.745  29.483  1.00  0.00     0.037 A 
ATOM     56  C   UNL A   1      41.497  32.332  34.808  1.00  0.00     0.049 A 
ATOM     57  C   UNL A   1      41.342  28.649  30.594  1.00  0.00     0.074 A 
ATOM     58  C   UNL A   1      42.456  32.123  35.784  1.00  0.00     0.029 A 
ATOM     59  N   UNL A   1      41.645  31.316  33.877  1.00  0.00    -0.354 N 
ATOM     60  N   UNL A   1      41.489  29.417  31.646  1.00  0.00    -0.248 NA
ATOM     61  C   UNL A   1      42.306  27.543  30.517  1.00  0.00     0.031 C 
ATOM     62  C   UNL A   1      43.203  30.994  35.428  1.00  0.00     0.029 A 
ATOM     63  C   UNL A   1      42.685  30.481  34.250  1.00  0.00     0.049 A 
ATOM     64  H   UNL A   1      41.094  31.205  33.068  1.00  0.00     0.167 HD
ATOM     65  C   UNL A   1      42.545  28.875  32.366  1.00  0.00     0.074 A 
ATOM     66  C   UNL A   1      42.986  27.700  31.643  1.00  0.00     0.031 C 
ATOM     67  C   UNL A   1      43.105  29.314  33.519  1.00  0.00     0.037 A 
BRANCH  54  68
ATOM     68  C   UNL A   1      40.495  34.424  35.803  1.00  0.00     0.057 A 
ATOM     69  C   UNL A   1      41.196  35.629  35.664  1.00  0.00     0.134 A 
ATOM     70  C   UNL A   1      39.739  34.247  36.968  1.00  0.00     0.134 A 
ATOM     71  F   UNL A   1      41.951  35.855  34.578  1.00  0.00    -0.206 F 
ATOM     72  C   UNL A   1      41.164  36.611  36.655  1.00  0.00     0.040 A 
ATOM     73  C   UNL A   1      39.678  35.233  37.954  1.00  0.00     0.040 A 
ATOM     74  F   UNL A   1      39.040  33.118  37.163  1.00  0.00    -0.206 F 
ATOM     75  C   UNL A   1      40.397  36.418  37.801  1.00  0.00     0.006 A 
ENDBRANCH  54  68
BRANCH  55  76
ATOM     76  C   UNL A   1      40.341  27.763  28.370  1.00  0.00     0.057 A 
ATOM     77  C   UNL A   1      39.678  26.535  28.488  1.00  0.00     0.134 A 
ATOM     78  C   UNL A   1      41.030  28.012  27.177  1.00  0.00     0.134 A 
ATOM     79  F   UNL A   1      39.016  26.231  29.613  1.00  0.00    -0.206 F 
ATOM     80  C   UNL A   1      39.723  25.580  27.471  1.00  0.00     0.040 A 
ATOM     81  C   UNL A   1      41.063  27.075  26.144  1.00  0.00     0.040 A 
ATOM     82  F   UNL A   1      41.678  29.172  27.000  1.00  0.00    -0.206 F 
ATOM     83  C   UNL A   1      40.416  25.850  26.293  1.00  0.00     0.006 A 
ENDBRANCH  55  76
BRANCH  67  84
ATOM     84  C   UNL A   1      44.237  28.503  34.076  1.00  0.00     0.057 A 
ATOM     85  C   UNL A   1      45.572  28.789  33.765  1.00  0.00     0.134 A 
ATOM     86  C   UNL A   1      43.988  27.434  34.946  1.00  0.00     0.134 A 
ATOM     87  F   UNL A   1      45.874  29.793  32.927  1.00  0.00    -0.206 F 
ATOM     88  C   UNL A   1      46.620  28.024  34.277  1.00  0.00     0.040 A 
ATOM     89  C   UNL A   1      45.030  26.677  35.485  1.00  0.00     0.040 A 
ATOM     90  F   UNL A   1      42.733  27.112  35.290  1.00  0.00    -0.206 F 
ATOM     91  C   UNL A   1      46.349  26.966  35.143  1.00  0.00     0.006 A 
ENDBRANCH  67  84
ENDBRANCH  41  42
ENDBRANCH  33  36
ENDBRANCH  31  32
ENDBRANCH  30  31
ENDBRANCH   1  30
TORSDOF 14
ENDMDL
