MODEL 1
REMARK VINA RESULT:     -12.0      0.000      0.000
REMARK SMILES C=Cc1cc(Cl)cc2c1O[C@H](C(F)(F)F)C(C(=O)NCCCCNC(=O)c1ccc(-c3c4nc(c(-c5c(F)cccc5F)c5ccc([nH]5)c(-c5c(F)cccc5F)c5nc(c(-c6c(F)cccc6F)c6ccc3[nH]6)C=C5)C=C4)cc1)=C2
REMARK SMILES IDX 22 1 21 2 20 3 19 4 17 5 18 6 16 8 3 9 4 10 9 11 5 12 8 13
REMARK SMILES IDX 10 14 6 15 7 16 81 17 11 18 2 19 1 20 12 21 13 22 14 23
REMARK SMILES IDX 15 24 23 25 24 26 25 27 26 29 27 30 28 31 80 32 29 33 79 34
REMARK SMILES IDX 30 35 31 36 32 37 73 38 33 39 78 40 72 41 74 42 34 43 77 44
REMARK SMILES IDX 71 45 70 46 35 48 61 49 44 50 60 51 45 52 48 53 59 54 75 55
REMARK SMILES IDX 46 56 47 57 58 59 76 60 49 61 36 62 37 63 42 64 38 65 39 66
REMARK SMILES IDX 41 67 43 68 40 69 62 70 63 71 68 72 64 73 65 74 67 75 69 76
REMARK SMILES IDX 66 77 50 78 51 79 56 80 52 81 53 82 55 83 57 84 54 85
REMARK H PARENT 19 7 24 28 74 47 48 58
REMARK Flexibility Score: inf
ROOT
ATOM      1  C   UNL A   1      37.518  21.233  24.873  1.00  0.00     0.023 C 
ENDROOT
BRANCH   1   2
ATOM      2  C   UNL A   1      36.686  19.948  24.874  1.00  0.00     0.023 C 
BRANCH   2   3
ATOM      3  C   UNL A   1      35.178  20.178  24.914  1.00  0.00     0.116 C 
BRANCH   3   4
ATOM      4  N   UNL A   1      34.749  20.784  26.163  1.00  0.00    -0.352 N 
ATOM      5  C   UNL A   1      34.225  21.968  26.557  1.00  0.00     0.251 C 
ATOM      6  O   UNL A   1      34.003  22.065  27.768  1.00  0.00    -0.270 OA
ATOM      7  H   UNL A   1      34.874  20.172  26.924  1.00  0.00     0.163 HD
BRANCH   5   8
ATOM      8  C   UNL A   1      33.915  23.118  25.656  1.00  0.00     0.067 C 
ATOM      9  C   UNL A   1      33.350  26.478  23.171  1.00  0.00     0.018 A 
ATOM     10  C   UNL A   1      33.329  27.753  23.750  1.00  0.00     0.032 A 
ATOM     11  C   UNL A   1      33.575  25.363  23.996  1.00  0.00     0.135 A 
ATOM     12  C   UNL A   1      33.558  27.904  25.118  1.00  0.00     0.042 A 
ATOM     13  C   UNL A   1      33.814  25.517  25.368  1.00  0.00     0.019 A 
ATOM     14  O   UNL A   1      33.617  24.129  23.402  1.00  0.00    -0.475 OA
ATOM     15  Cl  UNL A   1      33.538  29.479  25.813  1.00  0.00    -0.084 Cl
ATOM     16  C   UNL A   1      33.806  26.796  25.928  1.00  0.00     0.032 A 
ATOM     17  C   UNL A   1      34.113  24.343  26.181  1.00  0.00     0.025 C 
ATOM     18  C   UNL A   1      33.379  22.983  24.261  1.00  0.00     0.314 C 
BRANCH   9  19
ATOM     19  C   UNL A   1      33.081  26.300  21.736  1.00  0.00     0.004 C 
ATOM     20  C   UNL A   1      31.864  26.058  21.232  1.00  0.00     0.009 C 
ENDBRANCH   9  19
BRANCH  18  21
ATOM     21  C   UNL A   1      31.881  22.626  24.232  1.00  0.00     0.429 C 
ATOM     22  F   UNL A   1      31.689  21.350  24.648  1.00  0.00    -0.167 F 
ATOM     23  F   UNL A   1      31.144  23.412  25.054  1.00  0.00    -0.167 F 
ATOM     24  F   UNL A   1      31.342  22.736  22.997  1.00  0.00    -0.167 F 
ENDBRANCH  18  21
ENDBRANCH   5   8
ENDBRANCH   3   4
ENDBRANCH   2   3
ENDBRANCH   1   2
BRANCH   1  25
ATOM     25  C   UNL A   1      38.759  21.212  25.762  1.00  0.00     0.116 C 
BRANCH  25  26
ATOM     26  N   UNL A   1      39.573  20.010  25.635  1.00  0.00    -0.352 N 
ATOM     27  C   UNL A   1      40.894  19.847  25.993  1.00  0.00     0.251 C 
ATOM     28  H   UNL A   1      39.126  19.221  25.250  1.00  0.00     0.163 HD
ATOM     29  O   UNL A   1      41.485  18.796  25.775  1.00  0.00    -0.269 OA
BRANCH  27  30
ATOM     30  C   UNL A   1      41.602  20.997  26.589  1.00  0.00     0.039 A 
ATOM     31  C   UNL A   1      41.616  21.163  27.974  1.00  0.00     0.014 A 
ATOM     32  C   UNL A   1      42.134  21.975  25.746  1.00  0.00     0.014 A 
ATOM     33  C   UNL A   1      41.992  22.389  28.507  1.00  0.00     0.010 A 
ATOM     34  C   UNL A   1      42.584  23.178  26.292  1.00  0.00     0.010 A 
ATOM     35  C   UNL A   1      42.454  23.418  27.669  1.00  0.00    -0.014 A 
BRANCH  35  36
ATOM     36  C   UNL A   1      42.738  24.754  28.253  1.00  0.00     0.031 A 
ATOM     37  C   UNL A   1      44.149  25.165  28.576  1.00  0.00     0.074 A 
ATOM     38  C   UNL A   1      41.727  25.627  28.419  1.00  0.00     0.049 A 
ATOM     39  N   UNL A   1      44.589  26.299  29.062  1.00  0.00    -0.248 NA
ATOM     40  C   UNL A   1      45.209  24.175  28.321  1.00  0.00     0.031 C 
ATOM     41  C   UNL A   1      40.319  25.353  28.125  1.00  0.00     0.029 A 
ATOM     42  N   UNL A   1      41.733  26.929  28.845  1.00  0.00    -0.354 N 
ATOM     43  C   UNL A   1      45.964  26.151  29.195  1.00  0.00     0.074 A 
ATOM     44  C   UNL A   1      46.288  24.810  28.757  1.00  0.00     0.031 C 
ATOM     45  C   UNL A   1      39.605  26.470  28.328  1.00  0.00     0.029 A 
ATOM     46  C   UNL A   1      40.493  27.518  28.818  1.00  0.00     0.049 A 
ATOM     47  H   UNL A   1      42.546  27.397  29.142  1.00  0.00     0.167 HD
ATOM     48  C   UNL A   1      46.876  27.052  29.631  1.00  0.00     0.037 A 
ATOM     49  C   UNL A   1      40.113  28.763  29.157  1.00  0.00     0.037 A 
ATOM     50  C   UNL A   1      46.562  28.396  30.039  1.00  0.00     0.049 A 
ATOM     51  C   UNL A   1      41.140  29.732  29.663  1.00  0.00     0.074 A 
ATOM     52  C   UNL A   1      47.419  29.390  30.481  1.00  0.00     0.029 A 
ATOM     53  N   UNL A   1      45.285  28.937  30.050  1.00  0.00    -0.354 N 
ATOM     54  N   UNL A   1      42.435  29.572  29.791  1.00  0.00    -0.248 NA
ATOM     55  C   UNL A   1      40.649  31.051  30.083  1.00  0.00     0.031 C 
ATOM     56  C   UNL A   1      46.656  30.523  30.786  1.00  0.00     0.029 A 
ATOM     57  C   UNL A   1      45.329  30.245  30.504  1.00  0.00     0.049 A 
ATOM     58  H   UNL A   1      44.467  28.461  29.776  1.00  0.00     0.167 HD
ATOM     59  C   UNL A   1      42.913  30.770  30.303  1.00  0.00     0.074 A 
ATOM     60  C   UNL A   1      41.774  31.655  30.437  1.00  0.00     0.031 C 
ATOM     61  C   UNL A   1      44.183  31.105  30.640  1.00  0.00     0.037 A 
BRANCH  48  62
ATOM     62  C   UNL A   1      48.308  26.607  29.703  1.00  0.00     0.057 A 
ATOM     63  C   UNL A   1      48.792  25.947  30.840  1.00  0.00     0.134 A 
ATOM     64  C   UNL A   1      49.213  26.857  28.665  1.00  0.00     0.134 A 
ATOM     65  F   UNL A   1      47.978  25.679  31.871  1.00  0.00    -0.206 F 
ATOM     66  C   UNL A   1      50.128  25.553  30.940  1.00  0.00     0.040 A 
ATOM     67  C   UNL A   1      50.547  26.451  28.745  1.00  0.00     0.040 A 
ATOM     68  F   UNL A   1      48.807  27.471  27.543  1.00  0.00    -0.206 F 
ATOM     69  C   UNL A   1      51.008  25.802  29.889  1.00  0.00     0.006 A 
ENDBRANCH  48  62
BRANCH  49  70
ATOM     70  C   UNL A   1      38.690  29.157  29.036  1.00  0.00     0.057 A 
ATOM     71  C   UNL A   1      37.826  29.112  30.139  1.00  0.00     0.134 A 
ATOM     72  C   UNL A   1      38.160  29.584  27.815  1.00  0.00     0.134 A 
ATOM     73  F   UNL A   1      38.277  28.707  31.335  1.00  0.00    -0.206 F 
ATOM     74  C   UNL A   1      36.482  29.467  30.026  1.00  0.00     0.040 A 
ATOM     75  C   UNL A   1      36.823  29.963  27.693  1.00  0.00     0.040 A 
ATOM     76  F   UNL A   1      38.945  29.664  26.730  1.00  0.00    -0.206 F 
ATOM     77  C   UNL A   1      35.979  29.898  28.801  1.00  0.00     0.006 A 
ENDBRANCH  49  70
BRANCH  61  78
ATOM     78  C   UNL A   1      44.392  32.487  31.177  1.00  0.00     0.057 A 
ATOM     79  C   UNL A   1      44.649  33.560  30.316  1.00  0.00     0.134 A 
ATOM     80  C   UNL A   1      44.341  32.753  32.552  1.00  0.00     0.134 A 
ATOM     81  F   UNL A   1      44.714  33.368  28.990  1.00  0.00    -0.206 F 
ATOM     82  C   UNL A   1      44.842  34.853  30.804  1.00  0.00     0.040 A 
ATOM     83  C   UNL A   1      44.513  34.045  33.049  1.00  0.00     0.040 A 
ATOM     84  F   UNL A   1      44.082  31.768  33.426  1.00  0.00    -0.206 F 
ATOM     85  C   UNL A   1      44.768  35.099  32.174  1.00  0.00     0.006 A 
ENDBRANCH  61  78
ENDBRANCH  35  36
ENDBRANCH  27  30
ENDBRANCH  25  26
ENDBRANCH   1  25
TORSDOF 13
ENDMDL
MODEL 2
REMARK VINA RESULT:     -11.9      2.449      7.332
REMARK SMILES C=Cc1cc(Cl)cc2c1O[C@H](C(F)(F)F)C(C(=O)NCCCCNC(=O)c1ccc(-c3c4nc(c(-c5c(F)cccc5F)c5ccc([nH]5)c(-c5c(F)cccc5F)c5nc(c(-c6c(F)cccc6F)c6ccc3[nH]6)C=C5)C=C4)cc1)=C2
REMARK SMILES IDX 22 1 21 2 20 3 19 4 17 5 18 6 16 8 3 9 4 10 9 11 5 12 8 13
REMARK SMILES IDX 10 14 6 15 7 16 81 17 11 18 2 19 1 20 12 21 13 22 14 23
REMARK SMILES IDX 15 24 23 25 24 26 25 27 26 29 27 30 28 31 80 32 29 33 79 34
REMARK SMILES IDX 30 35 31 36 32 37 73 38 33 39 78 40 72 41 74 42 34 43 77 44
REMARK SMILES IDX 71 45 70 46 35 48 61 49 44 50 60 51 45 52 48 53 59 54 75 55
REMARK SMILES IDX 46 56 47 57 58 59 76 60 49 61 36 62 37 63 42 64 38 65 39 66
REMARK SMILES IDX 41 67 43 68 40 69 62 70 63 71 68 72 64 73 65 74 67 75 69 76
REMARK SMILES IDX 66 77 50 78 51 79 56 80 52 81 53 82 55 83 57 84 54 85
REMARK H PARENT 19 7 24 28 74 47 48 58
REMARK Flexibility Score: inf
ROOT
ATOM      1  C   UNL A   1      33.144  29.170  25.937  1.00  0.00     0.023 C 
ENDROOT
BRANCH   1   2
ATOM      2  C   UNL A   1      33.670  28.346  24.758  1.00  0.00     0.023 C 
BRANCH   2   3
ATOM      3  C   UNL A   1      32.713  27.260  24.277  1.00  0.00     0.116 C 
BRANCH   3   4
ATOM      4  N   UNL A   1      31.880  26.747  25.351  1.00  0.00    -0.352 N 
ATOM      5  C   UNL A   1      31.691  25.560  25.973  1.00  0.00     0.251 C 
ATOM      6  O   UNL A   1      30.847  25.570  26.876  1.00  0.00    -0.270 OA
ATOM      7  H   UNL A   1      31.301  27.449  25.727  1.00  0.00     0.163 HD
BRANCH   5   8
ATOM      8  C   UNL A   1      32.405  24.290  25.647  1.00  0.00     0.067 C 
ATOM      9  C   UNL A   1      34.517  20.690  25.047  1.00  0.00     0.018 A 
ATOM     10  C   UNL A   1      35.912  20.694  25.166  1.00  0.00     0.032 A 
ATOM     11  C   UNL A   1      33.813  21.882  25.284  1.00  0.00     0.135 A 
ATOM     12  C   UNL A   1      36.579  21.862  25.541  1.00  0.00     0.042 A 
ATOM     13  C   UNL A   1      34.482  23.051  25.670  1.00  0.00     0.019 A 
ATOM     14  O   UNL A   1      32.446  21.845  25.187  1.00  0.00    -0.475 OA
ATOM     15  Cl  UNL A   1      38.293  21.850  25.691  1.00  0.00    -0.084 Cl
ATOM     16  C   UNL A   1      35.872  23.036  25.799  1.00  0.00     0.032 A 
ATOM     17  C   UNL A   1      33.711  24.252  25.974  1.00  0.00     0.025 C 
ATOM     18  C   UNL A   1      31.773  23.112  24.965  1.00  0.00     0.314 C 
BRANCH   9  19
ATOM     19  C   UNL A   1      33.803  19.475  24.624  1.00  0.00     0.004 C 
ATOM     20  C   UNL A   1      34.403  18.297  24.410  1.00  0.00     0.009 C 
ENDBRANCH   9  19
BRANCH  18  21
ATOM     21  C   UNL A   1      31.585  23.331  23.452  1.00  0.00     0.429 C 
ATOM     22  F   UNL A   1      30.337  23.792  23.192  1.00  0.00    -0.167 F 
ATOM     23  F   UNL A   1      32.445  24.250  22.950  1.00  0.00    -0.167 F 
ATOM     24  F   UNL A   1      31.757  22.198  22.735  1.00  0.00    -0.167 F 
ENDBRANCH  18  21
ENDBRANCH   5   8
ENDBRANCH   3   4
ENDBRANCH   2   3
ENDBRANCH   1   2
BRANCH   1  25
ATOM     25  C   UNL A   1      33.951  29.059  27.228  1.00  0.00     0.116 C 
BRANCH  25  26
ATOM     26  N   UNL A   1      34.027  30.292  28.001  1.00  0.00    -0.352 N 
ATOM     27  C   UNL A   1      35.112  30.784  28.693  1.00  0.00     0.251 C 
ATOM     28  H   UNL A   1      33.208  30.837  28.031  1.00  0.00     0.163 HD
ATOM     29  O   UNL A   1      35.027  31.809  29.359  1.00  0.00    -0.269 OA
BRANCH  27  30
ATOM     30  C   UNL A   1      36.367  30.009  28.666  1.00  0.00     0.039 A 
ATOM     31  C   UNL A   1      36.789  29.328  29.809  1.00  0.00     0.014 A 
ATOM     32  C   UNL A   1      37.182  30.081  27.535  1.00  0.00     0.014 A 
ATOM     33  C   UNL A   1      38.102  28.879  29.885  1.00  0.00     0.010 A 
ATOM     34  C   UNL A   1      38.476  29.560  27.588  1.00  0.00     0.010 A 
ATOM     35  C   UNL A   1      38.966  29.015  28.786  1.00  0.00    -0.014 A 
BRANCH  35  36
ATOM     36  C   UNL A   1      40.393  28.632  28.936  1.00  0.00     0.031 A 
ATOM     37  C   UNL A   1      40.877  27.283  28.478  1.00  0.00     0.074 A 
ATOM     38  C   UNL A   1      41.269  29.534  29.416  1.00  0.00     0.049 A 
ATOM     39  N   UNL A   1      42.090  26.788  28.503  1.00  0.00    -0.248 NA
ATOM     40  C   UNL A   1      39.871  26.366  27.917  1.00  0.00     0.031 C 
ATOM     41  C   UNL A   1      40.924  30.882  29.876  1.00  0.00     0.029 A 
ATOM     42  N   UNL A   1      42.629  29.466  29.568  1.00  0.00    -0.354 N 
ATOM     43  C   UNL A   1      41.989  25.501  27.989  1.00  0.00     0.074 A 
ATOM     44  C   UNL A   1      40.592  25.280  27.677  1.00  0.00     0.031 C 
ATOM     45  C   UNL A   1      42.050  31.531  30.207  1.00  0.00     0.029 A 
ATOM     46  C   UNL A   1      43.185  30.631  30.037  1.00  0.00     0.049 A 
ATOM     47  H   UNL A   1      43.156  28.661  29.362  1.00  0.00     0.167 HD
ATOM     48  C   UNL A   1      42.969  24.589  27.784  1.00  0.00     0.037 A 
ATOM     49  C   UNL A   1      44.466  30.937  30.306  1.00  0.00     0.037 A 
ATOM     50  C   UNL A   1      44.363  24.815  28.066  1.00  0.00     0.049 A 
ATOM     51  C   UNL A   1      45.529  29.899  30.096  1.00  0.00     0.074 A 
ATOM     52  C   UNL A   1      45.434  23.959  27.878  1.00  0.00     0.029 A 
ATOM     53  N   UNL A   1      44.878  25.990  28.593  1.00  0.00    -0.354 N 
ATOM     54  N   UNL A   1      45.414  28.684  29.618  1.00  0.00    -0.248 NA
ATOM     55  C   UNL A   1      46.898  30.272  30.476  1.00  0.00     0.031 C 
ATOM     56  C   UNL A   1      46.595  24.606  28.317  1.00  0.00     0.029 A 
ATOM     57  C   UNL A   1      46.250  25.876  28.750  1.00  0.00     0.049 A 
ATOM     58  H   UNL A   1      44.348  26.787  28.823  1.00  0.00     0.167 HD
ATOM     59  C   UNL A   1      46.694  28.149  29.637  1.00  0.00     0.074 A 
ATOM     60  C   UNL A   1      47.573  29.180  30.148  1.00  0.00     0.031 C 
ATOM     61  C   UNL A   1      47.105  26.910  29.270  1.00  0.00     0.037 A 
BRANCH  48  62
ATOM     62  C   UNL A   1      42.565  23.249  27.240  1.00  0.00     0.057 A 
ATOM     63  C   UNL A   1      42.119  22.237  28.099  1.00  0.00     0.134 A 
ATOM     64  C   UNL A   1      42.646  22.952  25.875  1.00  0.00     0.134 A 
ATOM     65  F   UNL A   1      42.022  22.455  29.418  1.00  0.00    -0.206 F 
ATOM     66  C   UNL A   1      41.770  20.974  27.617  1.00  0.00     0.040 A 
ATOM     67  C   UNL A   1      42.280  21.699  25.378  1.00  0.00     0.040 A 
ATOM     68  F   UNL A   1      43.050  23.884  24.999  1.00  0.00    -0.206 F 
ATOM     69  C   UNL A   1      41.846  20.704  26.252  1.00  0.00     0.006 A 
ENDBRANCH  48  62
BRANCH  49  70
ATOM     70  C   UNL A   1      44.811  32.286  30.812  1.00  0.00     0.057 A 
ATOM     71  C   UNL A   1      44.859  32.557  32.186  1.00  0.00     0.134 A 
ATOM     72  C   UNL A   1      45.097  33.336  29.934  1.00  0.00     0.134 A 
ATOM     73  F   UNL A   1      44.589  31.591  33.076  1.00  0.00    -0.206 F 
ATOM     74  C   UNL A   1      45.166  33.829  32.667  1.00  0.00     0.040 A 
ATOM     75  C   UNL A   1      45.428  34.607  30.402  1.00  0.00     0.040 A 
ATOM     76  F   UNL A   1      45.084  33.129  28.609  1.00  0.00    -0.206 F 
ATOM     77  C   UNL A   1      45.458  34.857  31.774  1.00  0.00     0.006 A 
ENDBRANCH  49  70
BRANCH  61  78
ATOM     78  C   UNL A   1      48.567  26.620  29.408  1.00  0.00     0.057 A 
ATOM     79  C   UNL A   1      49.069  25.999  30.558  1.00  0.00     0.134 A 
ATOM     80  C   UNL A   1      49.480  26.959  28.400  1.00  0.00     0.134 A 
ATOM     81  F   UNL A   1      48.247  25.654  31.560  1.00  0.00    -0.206 F 
ATOM     82  C   UNL A   1      50.429  25.721  30.699  1.00  0.00     0.040 A 
ATOM     83  C   UNL A   1      50.838  26.667  28.522  1.00  0.00     0.040 A 
ATOM     84  F   UNL A   1      49.056  27.540  27.267  1.00  0.00    -0.206 F 
ATOM     85  C   UNL A   1      51.317  26.049  29.675  1.00  0.00     0.006 A 
ENDBRANCH  61  78
ENDBRANCH  35  36
ENDBRANCH  27  30
ENDBRANCH  25  26
ENDBRANCH   1  25
TORSDOF 13
ENDMDL
MODEL 3
REMARK VINA RESULT:     -11.9      2.428      7.430
REMARK SMILES C=Cc1cc(Cl)cc2c1O[C@H](C(F)(F)F)C(C(=O)NCCCCNC(=O)c1ccc(-c3c4nc(c(-c5c(F)cccc5F)c5ccc([nH]5)c(-c5c(F)cccc5F)c5nc(c(-c6c(F)cccc6F)c6ccc3[nH]6)C=C5)C=C4)cc1)=C2
REMARK SMILES IDX 22 1 21 2 20 3 19 4 17 5 18 6 16 8 3 9 4 10 9 11 5 12 8 13
REMARK SMILES IDX 10 14 6 15 7 16 81 17 11 18 2 19 1 20 12 21 13 22 14 23
REMARK SMILES IDX 15 24 23 25 24 26 25 27 26 29 27 30 28 31 80 32 29 33 79 34
REMARK SMILES IDX 30 35 31 36 32 37 73 38 33 39 78 40 72 41 74 42 34 43 77 44
REMARK SMILES IDX 71 45 70 46 35 48 61 49 44 50 60 51 45 52 48 53 59 54 75 55
REMARK SMILES IDX 46 56 47 57 58 59 76 60 49 61 36 62 37 63 42 64 38 65 39 66
REMARK SMILES IDX 41 67 43 68 40 69 62 70 63 71 68 72 64 73 65 74 67 75 69 76
REMARK SMILES IDX 66 77 50 78 51 79 56 80 52 81 53 82 55 83 57 84 54 85
REMARK H PARENT 19 7 24 28 74 47 48 58
REMARK Flexibility Score: inf
ROOT
ATOM      1  C   UNL A   1      33.119  29.293  25.831  1.00  0.00     0.023 C 
ENDROOT
BRANCH   1   2
ATOM      2  C   UNL A   1      33.715  28.394  24.743  1.00  0.00     0.023 C 
BRANCH   2   3
ATOM      3  C   UNL A   1      32.785  27.279  24.273  1.00  0.00     0.116 C 
BRANCH   3   4
ATOM      4  N   UNL A   1      31.951  26.772  25.349  1.00  0.00    -0.352 N 
ATOM      5  C   UNL A   1      31.764  25.590  25.980  1.00  0.00     0.251 C 
ATOM      6  O   UNL A   1      30.916  25.603  26.878  1.00  0.00    -0.270 OA
ATOM      7  H   UNL A   1      31.365  27.474  25.715  1.00  0.00     0.163 HD
BRANCH   5   8
ATOM      8  C   UNL A   1      32.487  24.320  25.669  1.00  0.00     0.067 C 
ATOM      9  C   UNL A   1      34.627  20.730  25.109  1.00  0.00     0.018 A 
ATOM     10  C   UNL A   1      36.024  20.753  25.202  1.00  0.00     0.032 A 
ATOM     11  C   UNL A   1      33.914  21.920  25.332  1.00  0.00     0.135 A 
ATOM     12  C   UNL A   1      36.684  21.935  25.539  1.00  0.00     0.042 A 
ATOM     13  C   UNL A   1      34.576  23.104  25.680  1.00  0.00     0.019 A 
ATOM     14  O   UNL A   1      32.546  21.866  25.262  1.00  0.00    -0.475 OA
ATOM     15  Cl  UNL A   1      38.401  21.945  25.658  1.00  0.00    -0.084 Cl
ATOM     16  C   UNL A   1      35.969  23.107  25.784  1.00  0.00     0.032 A 
ATOM     17  C   UNL A   1      33.798  24.303  25.972  1.00  0.00     0.025 C 
ATOM     18  C   UNL A   1      31.855  23.121  25.024  1.00  0.00     0.314 C 
BRANCH   9  19
ATOM     19  C   UNL A   1      33.919  19.499  24.726  1.00  0.00     0.004 C 
ATOM     20  C   UNL A   1      34.537  18.352  24.417  1.00  0.00     0.009 C 
ENDBRANCH   9  19
BRANCH  18  21
ATOM     21  C   UNL A   1      31.637  23.304  23.511  1.00  0.00     0.429 C 
ATOM     22  F   UNL A   1      30.379  23.745  23.264  1.00  0.00    -0.167 F 
ATOM     23  F   UNL A   1      32.477  24.221  22.973  1.00  0.00    -0.167 F 
ATOM     24  F   UNL A   1      31.810  22.158  22.815  1.00  0.00    -0.167 F 
ENDBRANCH  18  21
ENDBRANCH   5   8
ENDBRANCH   3   4
ENDBRANCH   2   3
ENDBRANCH   1   2
BRANCH   1  25
ATOM     25  C   UNL A   1      33.753  29.159  27.213  1.00  0.00     0.116 C 
BRANCH  25  26
ATOM     26  N   UNL A   1      33.821  30.403  27.969  1.00  0.00    -0.352 N 
ATOM     27  C   UNL A   1      34.908  30.920  28.641  1.00  0.00     0.251 C 
ATOM     28  H   UNL A   1      32.995  30.938  28.002  1.00  0.00     0.163 HD
ATOM     29  O   UNL A   1      34.817  31.953  29.294  1.00  0.00    -0.269 OA
BRANCH  27  30
ATOM     30  C   UNL A   1      36.174  30.162  28.608  1.00  0.00     0.039 A 
ATOM     31  C   UNL A   1      36.603  29.475  29.745  1.00  0.00     0.014 A 
ATOM     32  C   UNL A   1      36.989  30.254  27.479  1.00  0.00     0.014 A 
ATOM     33  C   UNL A   1      37.921  29.042  29.819  1.00  0.00     0.010 A 
ATOM     34  C   UNL A   1      38.289  29.749  27.529  1.00  0.00     0.010 A 
ATOM     35  C   UNL A   1      38.785  29.199  28.722  1.00  0.00    -0.014 A 
BRANCH  35  36
ATOM     36  C   UNL A   1      40.216  28.834  28.870  1.00  0.00     0.031 A 
ATOM     37  C   UNL A   1      41.175  29.760  29.570  1.00  0.00     0.074 A 
ATOM     38  C   UNL A   1      40.636  27.629  28.442  1.00  0.00     0.049 A 
ATOM     39  N   UNL A   1      42.451  29.595  29.817  1.00  0.00    -0.248 NA
ATOM     40  C   UNL A   1      40.634  31.039  30.057  1.00  0.00     0.031 C 
ATOM     41  C   UNL A   1      39.797  26.637  27.766  1.00  0.00     0.029 A 
ATOM     42  N   UNL A   1      41.861  27.024  28.538  1.00  0.00    -0.354 N 
ATOM     43  C   UNL A   1      42.868  30.753  30.462  1.00  0.00     0.074 A 
ATOM     44  C   UNL A   1      41.716  31.624  30.552  1.00  0.00     0.031 C 
ATOM     45  C   UNL A   1      40.519  25.525  27.557  1.00  0.00     0.029 A 
ATOM     46  C   UNL A   1      41.880  25.747  28.032  1.00  0.00     0.049 A 
ATOM     47  H   UNL A   1      42.650  27.460  28.931  1.00  0.00     0.167 HD
ATOM     48  C   UNL A   1      44.096  31.060  30.945  1.00  0.00     0.037 A 
ATOM     49  C   UNL A   1      42.884  24.857  27.953  1.00  0.00     0.037 A 
ATOM     50  C   UNL A   1      45.237  30.184  30.883  1.00  0.00     0.049 A 
ATOM     51  C   UNL A   1      44.241  25.233  28.472  1.00  0.00     0.074 A 
ATOM     52  C   UNL A   1      46.519  30.398  31.360  1.00  0.00     0.029 A 
ATOM     53  N   UNL A   1      45.229  28.921  30.312  1.00  0.00    -0.354 N 
ATOM     54  N   UNL A   1      44.621  26.336  29.069  1.00  0.00    -0.248 NA
ATOM     55  C   UNL A   1      45.312  24.244  28.292  1.00  0.00     0.031 C 
ATOM     56  C   UNL A   1      47.295  29.275  31.052  1.00  0.00     0.029 A 
ATOM     57  C   UNL A   1      46.488  28.349  30.412  1.00  0.00     0.049 A 
ATOM     58  H   UNL A   1      44.445  28.493  29.897  1.00  0.00     0.167 HD
ATOM     59  C   UNL A   1      45.972  26.172  29.340  1.00  0.00     0.074 A 
ATOM     60  C   UNL A   1      46.339  24.854  28.864  1.00  0.00     0.031 C 
ATOM     61  C   UNL A   1      46.834  27.040  29.924  1.00  0.00     0.037 A 
BRANCH  48  62
ATOM     62  C   UNL A   1      44.274  32.412  31.573  1.00  0.00     0.057 A 
ATOM     63  C   UNL A   1      44.045  32.597  32.942  1.00  0.00     0.134 A 
ATOM     64  C   UNL A   1      44.644  33.533  30.820  1.00  0.00     0.134 A 
ATOM     65  F   UNL A   1      43.686  31.565  33.719  1.00  0.00    -0.206 F 
ATOM     66  C   UNL A   1      44.175  33.853  33.539  1.00  0.00     0.040 A 
ATOM     67  C   UNL A   1      44.796  34.789  31.409  1.00  0.00     0.040 A 
ATOM     68  F   UNL A   1      44.894  33.418  29.507  1.00  0.00    -0.206 F 
ATOM     69  C   UNL A   1      44.555  34.952  32.773  1.00  0.00     0.006 A 
ENDBRANCH  48  62
BRANCH  49  70
ATOM     70  C   UNL A   1      42.644  23.525  27.351  1.00  0.00     0.057 A 
ATOM     71  C   UNL A   1      42.820  23.304  25.978  1.00  0.00     0.134 A 
ATOM     72  C   UNL A   1      42.227  22.443  28.133  1.00  0.00     0.134 A 
ATOM     73  F   UNL A   1      43.214  24.305  25.178  1.00  0.00    -0.206 F 
ATOM     74  C   UNL A   1      42.579  22.057  25.404  1.00  0.00     0.040 A 
ATOM     75  C   UNL A   1      42.004  21.184  27.575  1.00  0.00     0.040 A 
ATOM     76  F   UNL A   1      42.060  22.592  29.455  1.00  0.00    -0.206 F 
ATOM     77  C   UNL A   1      42.174  20.991  26.205  1.00  0.00     0.006 A 
ENDBRANCH  49  70
BRANCH  61  78
ATOM     78  C   UNL A   1      48.250  26.577  30.078  1.00  0.00     0.057 A 
ATOM     79  C   UNL A   1      48.647  25.849  31.206  1.00  0.00     0.134 A 
ATOM     80  C   UNL A   1      49.222  26.856  29.108  1.00  0.00     0.134 A 
ATOM     81  F   UNL A   1      47.764  25.554  32.171  1.00  0.00    -0.206 F 
ATOM     82  C   UNL A   1      49.962  25.409  31.360  1.00  0.00     0.040 A 
ATOM     83  C   UNL A   1      50.534  26.404  29.243  1.00  0.00     0.040 A 
ATOM     84  F   UNL A   1      48.897  27.535  27.997  1.00  0.00    -0.206 F 
ATOM     85  C   UNL A   1      50.909  25.681  30.374  1.00  0.00     0.006 A 
ENDBRANCH  61  78
ENDBRANCH  35  36
ENDBRANCH  27  30
ENDBRANCH  25  26
ENDBRANCH   1  25
TORSDOF 13
ENDMDL
