MODEL 1
REMARK VINA RESULT:     -11.3      0.000      0.000
REMARK SMILES CCC(CC)(NC(=O)CS[C@H]1CCS(=O)(=O)C1)C(=O)NCCCCNC(=O)c1ccc(-c2c3nc(c(-c4c(F)cccc4F)c4ccc([nH]4)c(-c4c(F)cccc4F)c4nc(c(-c5c(F)cccc5F)c5ccc2[nH]5)C=C4)C=C3)cc1
REMARK SMILES IDX 21 1 20 2 18 3 19 4 3 6 2 7 1 8 4 9 5 10 6 11 7 12 8 14 9 15
REMARK SMILES IDX 10 16 11 17 12 18 17 19 13 20 14 21 15 22 16 23 22 24 23 25
REMARK SMILES IDX 24 26 25 27 26 28 27 30 28 31 29 32 81 33 30 34 80 35 31 36
REMARK SMILES IDX 32 37 33 38 74 39 34 40 79 41 73 42 75 43 35 44 78 45 72 46
REMARK SMILES IDX 71 47 36 49 62 50 45 51 61 52 46 53 49 54 60 55 76 56 47 57
REMARK SMILES IDX 48 58 59 60 77 61 50 62 37 63 38 64 43 65 39 66 40 67 42 68
REMARK SMILES IDX 44 69 41 70 63 71 64 72 69 73 65 74 66 75 68 76 70 77 67 78
REMARK SMILES IDX 51 79 52 80 57 81 53 82 54 83 56 84 58 85 55 86
REMARK H PARENT 20 5 6 13 25 29 75 48 49 59
REMARK Flexibility Score: inf
ROOT
ATOM      1  C   UNL A   1      31.404  29.963  25.335  1.00  0.00     0.116 C 
ENDROOT
BRANCH   1   2
ATOM      2  N   UNL A   1      32.551  29.703  24.479  1.00  0.00    -0.354 N 
ATOM      3  C   UNL A   1      32.729  28.807  23.463  1.00  0.00     0.245 C 
ATOM      4  O   UNL A   1      33.830  28.828  22.912  1.00  0.00    -0.272 OA
ATOM      5  H   UNL A   1      33.334  30.270  24.663  1.00  0.00     0.163 HD
BRANCH   3   6
ATOM      6  C   UNL A   1      31.602  27.810  23.071  1.00  0.00     0.118 C 
BRANCH   6   7
ATOM      7  C   UNL A   1      30.212  28.446  22.797  1.00  0.00     0.035 C 
ATOM      8  C   UNL A   1      30.144  29.700  21.935  1.00  0.00     0.007 C 
ENDBRANCH   6   7
BRANCH   6   9
ATOM      9  C   UNL A   1      31.413  26.847  24.299  1.00  0.00     0.035 C 
ATOM     10  C   UNL A   1      29.982  26.443  24.640  1.00  0.00     0.007 C 
ENDBRANCH   6   9
BRANCH   6  11
ATOM     11  N   UNL A   1      32.048  27.070  21.840  1.00  0.00    -0.341 N 
ATOM     12  C   UNL A   1      32.681  25.873  21.621  1.00  0.00     0.230 C 
ATOM     13  H   UNL A   1      31.838  27.551  21.006  1.00  0.00     0.164 HD
ATOM     14  O   UNL A   1      33.277  25.774  20.542  1.00  0.00    -0.274 OA
BRANCH  12  15
ATOM     15  C   UNL A   1      32.589  24.665  22.557  1.00  0.00     0.169 C 
BRANCH  15  16
ATOM     16  S   UNL A   1      34.121  24.301  23.486  1.00  0.00    -0.148 SA
BRANCH  16  17
ATOM     17  C   UNL A   1      33.989  22.501  23.561  1.00  0.00     0.063 C 
ATOM     18  C   UNL A   1      34.694  21.834  24.740  1.00  0.00     0.031 C 
ATOM     19  C   UNL A   1      32.524  22.073  23.627  1.00  0.00     0.151 C 
ATOM     20  C   UNL A   1      34.302  20.361  24.625  1.00  0.00     0.138 C 
ATOM     21  S   UNL A   1      32.573  20.376  24.174  1.00  0.00     0.151 S 
ATOM     22  O   UNL A   1      32.381  19.507  23.028  1.00  0.00    -0.229 OA
ATOM     23  O   UNL A   1      31.777  20.250  25.373  1.00  0.00    -0.229 OA
ENDBRANCH  16  17
ENDBRANCH  15  16
ENDBRANCH  12  15
ENDBRANCH   6  11
ENDBRANCH   3   6
ENDBRANCH   1   2
BRANCH   1  24
ATOM     24  C   UNL A   1      31.777  30.524  26.703  1.00  0.00     0.023 C 
BRANCH  24  25
ATOM     25  C   UNL A   1      31.552  32.020  26.882  1.00  0.00     0.023 C 
BRANCH  25  26
ATOM     26  C   UNL A   1      32.807  32.829  27.170  1.00  0.00     0.116 C 
BRANCH  26  27
ATOM     27  N   UNL A   1      32.526  34.177  27.637  1.00  0.00    -0.352 N 
ATOM     28  C   UNL A   1      33.137  34.882  28.641  1.00  0.00     0.251 C 
ATOM     29  H   UNL A   1      31.798  34.645  27.169  1.00  0.00     0.163 HD
ATOM     30  O   UNL A   1      32.715  35.982  28.978  1.00  0.00    -0.269 OA
BRANCH  28  31
ATOM     31  C   UNL A   1      34.281  34.272  29.339  1.00  0.00     0.039 A 
ATOM     32  C   UNL A   1      34.029  33.335  30.340  1.00  0.00     0.014 A 
ATOM     33  C   UNL A   1      35.590  34.576  28.952  1.00  0.00     0.014 A 
ATOM     34  C   UNL A   1      35.097  32.653  30.918  1.00  0.00     0.010 A 
ATOM     35  C   UNL A   1      36.642  33.828  29.461  1.00  0.00     0.010 A 
ATOM     36  C   UNL A   1      36.407  32.868  30.456  1.00  0.00    -0.014 A 
BRANCH  36  37
ATOM     37  C   UNL A   1      37.547  32.108  31.020  1.00  0.00     0.031 A 
ATOM     38  C   UNL A   1      38.051  32.431  32.398  1.00  0.00     0.074 A 
ATOM     39  C   UNL A   1      38.155  31.167  30.272  1.00  0.00     0.049 A 
ATOM     40  N   UNL A   1      39.059  31.915  33.051  1.00  0.00    -0.248 NA
ATOM     41  C   UNL A   1      37.347  33.499  33.129  1.00  0.00     0.031 C 
ATOM     42  C   UNL A   1      37.784  30.800  28.904  1.00  0.00     0.029 A 
ATOM     43  N   UNL A   1      39.217  30.347  30.558  1.00  0.00    -0.354 N 
ATOM     44  C   UNL A   1      39.118  32.602  34.257  1.00  0.00     0.074 A 
ATOM     45  C   UNL A   1      38.086  33.613  34.220  1.00  0.00     0.031 C 
ATOM     46  C   UNL A   1      38.583  29.807  28.483  1.00  0.00     0.029 A 
ATOM     47  C   UNL A   1      39.548  29.495  29.532  1.00  0.00     0.049 A 
ATOM     48  H   UNL A   1      39.697  30.368  31.417  1.00  0.00     0.167 HD
ATOM     49  C   UNL A   1      39.941  32.390  35.310  1.00  0.00     0.037 A 
ATOM     50  C   UNL A   1      40.523  28.571  29.449  1.00  0.00     0.037 A 
ATOM     51  C   UNL A   1      40.949  31.364  35.346  1.00  0.00     0.049 A 
ATOM     52  C   UNL A   1      41.433  28.366  30.629  1.00  0.00     0.074 A 
ATOM     53  C   UNL A   1      41.793  31.023  36.387  1.00  0.00     0.029 A 
ATOM     54  N   UNL A   1      41.250  30.517  34.289  1.00  0.00    -0.354 N 
ATOM     55  N   UNL A   1      41.429  28.970  31.793  1.00  0.00    -0.248 NA
ATOM     56  C   UNL A   1      42.481  27.346  30.486  1.00  0.00     0.031 C 
ATOM     57  C   UNL A   1      42.644  30.008  35.942  1.00  0.00     0.029 A 
ATOM     58  C   UNL A   1      42.290  29.673  34.645  1.00  0.00     0.049 A 
ATOM     59  H   UNL A   1      40.794  30.516  33.417  1.00  0.00     0.167 HD
ATOM     60  C   UNL A   1      42.448  28.382  32.531  1.00  0.00     0.074 A 
ATOM     61  C   UNL A   1      43.039  27.364  31.688  1.00  0.00     0.031 C 
ATOM     62  C   UNL A   1      42.858  28.659  33.794  1.00  0.00     0.037 A 
BRANCH  49  63
ATOM     63  C   UNL A   1      39.784  33.285  36.504  1.00  0.00     0.057 A 
ATOM     64  C   UNL A   1      40.530  34.463  36.653  1.00  0.00     0.134 A 
ATOM     65  C   UNL A   1      38.853  32.983  37.506  1.00  0.00     0.134 A 
ATOM     66  F   UNL A   1      41.451  34.805  35.739  1.00  0.00    -0.206 F 
ATOM     67  C   UNL A   1      40.374  35.291  37.766  1.00  0.00     0.040 A 
ATOM     68  C   UNL A   1      38.665  33.820  38.608  1.00  0.00     0.040 A 
ATOM     69  F   UNL A   1      38.102  31.874  37.427  1.00  0.00    -0.206 F 
ATOM     70  C   UNL A   1      39.434  34.974  38.743  1.00  0.00     0.006 A 
ENDBRANCH  49  63
BRANCH  50  71
ATOM     71  C   UNL A   1      40.677  27.754  28.219  1.00  0.00     0.057 A 
ATOM     72  C   UNL A   1      40.064  26.501  28.101  1.00  0.00     0.134 A 
ATOM     73  C   UNL A   1      41.453  28.194  27.138  1.00  0.00     0.134 A 
ATOM     74  F   UNL A   1      39.322  26.016  29.109  1.00  0.00    -0.206 F 
ATOM     75  C   UNL A   1      40.236  25.703  26.968  1.00  0.00     0.040 A 
ATOM     76  C   UNL A   1      41.610  27.420  25.988  1.00  0.00     0.040 A 
ATOM     77  F   UNL A   1      42.059  29.389  27.181  1.00  0.00    -0.206 F 
ATOM     78  C   UNL A   1      41.008  26.166  25.905  1.00  0.00     0.006 A 
ENDBRANCH  50  71
BRANCH  62  79
ATOM     79  C   UNL A   1      43.970  27.821  34.354  1.00  0.00     0.057 A 
ATOM     80  C   UNL A   1      43.733  26.587  34.971  1.00  0.00     0.134 A 
ATOM     81  C   UNL A   1      45.303  28.240  34.236  1.00  0.00     0.134 A 
ATOM     82  F   UNL A   1      42.480  26.135  35.127  1.00  0.00    -0.206 F 
ATOM     83  C   UNL A   1      44.778  25.811  35.475  1.00  0.00     0.040 A 
ATOM     84  C   UNL A   1      46.358  27.458  34.707  1.00  0.00     0.040 A 
ATOM     85  F   UNL A   1      45.602  29.407  33.646  1.00  0.00    -0.206 F 
ATOM     86  C   UNL A   1      46.096  26.243  35.335  1.00  0.00     0.006 A 
ENDBRANCH  62  79
ENDBRANCH  36  37
ENDBRANCH  28  31
ENDBRANCH  26  27
ENDBRANCH  25  26
ENDBRANCH  24  25
ENDBRANCH   1  24
TORSDOF 17
ENDMDL
MODEL 2
REMARK VINA RESULT:     -11.3      5.347      9.644
REMARK SMILES CCC(CC)(NC(=O)CS[C@H]1CCS(=O)(=O)C1)C(=O)NCCCCNC(=O)c1ccc(-c2c3nc(c(-c4c(F)cccc4F)c4ccc([nH]4)c(-c4c(F)cccc4F)c4nc(c(-c5c(F)cccc5F)c5ccc2[nH]5)C=C4)C=C3)cc1
REMARK SMILES IDX 21 1 20 2 18 3 19 4 3 6 2 7 1 8 4 9 5 10 6 11 7 12 8 14 9 15
REMARK SMILES IDX 10 16 11 17 12 18 17 19 13 20 14 21 15 22 16 23 22 24 23 25
REMARK SMILES IDX 24 26 25 27 26 28 27 30 28 31 29 32 81 33 30 34 80 35 31 36
REMARK SMILES IDX 32 37 33 38 74 39 34 40 79 41 73 42 75 43 35 44 78 45 72 46
REMARK SMILES IDX 71 47 36 49 62 50 45 51 61 52 46 53 49 54 60 55 76 56 47 57
REMARK SMILES IDX 48 58 59 60 77 61 50 62 37 63 38 64 43 65 39 66 40 67 42 68
REMARK SMILES IDX 44 69 41 70 63 71 64 72 69 73 65 74 66 75 68 76 70 77 67 78
REMARK SMILES IDX 51 79 52 80 57 81 53 82 54 83 56 84 58 85 55 86
REMARK H PARENT 20 5 6 13 25 29 75 48 49 59
REMARK Flexibility Score: inf
ROOT
ATOM      1  C   UNL A   1      35.728  20.906  24.864  1.00  0.00     0.116 C 
ENDROOT
BRANCH   1   2
ATOM      2  N   UNL A   1      35.253  20.957  26.238  1.00  0.00    -0.354 N 
ATOM      3  C   UNL A   1      34.199  21.619  26.801  1.00  0.00     0.245 C 
ATOM      4  O   UNL A   1      34.045  21.458  28.012  1.00  0.00    -0.272 OA
ATOM      5  H   UNL A   1      35.784  20.423  26.873  1.00  0.00     0.163 HD
BRANCH   3   6
ATOM      6  C   UNL A   1      33.284  22.537  25.943  1.00  0.00     0.118 C 
BRANCH   6   7
ATOM      7  C   UNL A   1      33.161  22.149  24.444  1.00  0.00     0.035 C 
ATOM      8  C   UNL A   1      32.298  20.950  24.073  1.00  0.00     0.007 C 
ENDBRANCH   6   7
BRANCH   6   9
ATOM      9  C   UNL A   1      33.934  23.968  25.976  1.00  0.00     0.035 C 
ATOM     10  C   UNL A   1      34.866  24.325  24.821  1.00  0.00     0.007 C 
ENDBRANCH   6   9
BRANCH   6  11
ATOM     11  N   UNL A   1      31.912  22.529  26.560  1.00  0.00    -0.341 N 
ATOM     12  C   UNL A   1      30.827  23.366  26.489  1.00  0.00     0.230 C 
ATOM     13  H   UNL A   1      31.759  21.750  27.143  1.00  0.00     0.164 HD
ATOM     14  O   UNL A   1      30.040  23.300  27.441  1.00  0.00    -0.274 OA
BRANCH  12  15
ATOM     15  C   UNL A   1      30.498  24.252  25.286  1.00  0.00     0.169 C 
BRANCH  15  16
ATOM     16  S   UNL A   1      30.792  26.037  25.550  1.00  0.00    -0.148 SA
BRANCH  16  17
ATOM     17  C   UNL A   1      31.424  26.468  23.913  1.00  0.00     0.063 C 
ATOM     18  C   UNL A   1      32.833  27.057  23.881  1.00  0.00     0.031 C 
ATOM     19  C   UNL A   1      31.441  25.240  23.004  1.00  0.00     0.151 C 
ATOM     20  C   UNL A   1      33.148  27.188  22.390  1.00  0.00     0.138 C 
ATOM     21  S   UNL A   1      32.505  25.696  21.647  1.00  0.00     0.151 S 
ATOM     22  O   UNL A   1      31.684  26.057  20.507  1.00  0.00    -0.229 OA
ATOM     23  O   UNL A   1      33.573  24.727  21.547  1.00  0.00    -0.229 OA
ENDBRANCH  16  17
ENDBRANCH  15  16
ENDBRANCH  12  15
ENDBRANCH   6  11
ENDBRANCH   3   6
ENDBRANCH   1   2
BRANCH   1  24
ATOM     24  C   UNL A   1      37.223  21.172  24.724  1.00  0.00     0.023 C 
BRANCH  24  25
ATOM     25  C   UNL A   1      38.129  19.973  24.976  1.00  0.00     0.023 C 
BRANCH  25  26
ATOM     26  C   UNL A   1      39.353  20.261  25.832  1.00  0.00     0.116 C 
BRANCH  26  27
ATOM     27  N   UNL A   1      40.287  19.149  25.888  1.00  0.00    -0.352 N 
ATOM     28  C   UNL A   1      41.632  19.171  26.150  1.00  0.00     0.251 C 
ATOM     29  H   UNL A   1      39.902  18.260  25.715  1.00  0.00     0.163 HD
ATOM     30  O   UNL A   1      42.302  18.149  26.065  1.00  0.00    -0.269 OA
BRANCH  28  31
ATOM     31  C   UNL A   1      42.267  20.457  26.488  1.00  0.00     0.039 A 
ATOM     32  C   UNL A   1      42.808  21.224  25.458  1.00  0.00     0.014 A 
ATOM     33  C   UNL A   1      42.256  20.926  27.806  1.00  0.00     0.014 A 
ATOM     34  C   UNL A   1      43.294  22.499  25.742  1.00  0.00     0.010 A 
ATOM     35  C   UNL A   1      42.652  22.230  28.068  1.00  0.00     0.010 A 
ATOM     36  C   UNL A   1      43.184  23.024  27.041  1.00  0.00    -0.014 A 
BRANCH  36  37
ATOM     37  C   UNL A   1      43.641  24.400  27.346  1.00  0.00     0.031 A 
ATOM     38  C   UNL A   1      42.643  25.439  27.775  1.00  0.00     0.074 A 
ATOM     39  C   UNL A   1      44.939  24.722  27.187  1.00  0.00     0.049 A 
ATOM     40  N   UNL A   1      42.832  26.705  28.043  1.00  0.00    -0.248 NA
ATOM     41  C   UNL A   1      41.240  25.006  27.888  1.00  0.00     0.031 C 
ATOM     42  C   UNL A   1      45.989  23.810  26.731  1.00  0.00     0.029 A 
ATOM     43  N   UNL A   1      45.596  25.909  27.392  1.00  0.00    -0.354 N 
ATOM     44  C   UNL A   1      41.576  27.218  28.341  1.00  0.00     0.074 A 
ATOM     45  C   UNL A   1      40.625  26.145  28.159  1.00  0.00     0.031 C 
ATOM     46  C   UNL A   1      47.164  24.460  26.722  1.00  0.00     0.029 A 
ATOM     47  C   UNL A   1      46.943  25.844  27.131  1.00  0.00     0.049 A 
ATOM     48  H   UNL A   1      45.145  26.729  27.696  1.00  0.00     0.167 HD
ATOM     49  C   UNL A   1      41.251  28.464  28.754  1.00  0.00     0.037 A 
ATOM     50  C   UNL A   1      47.891  26.796  27.209  1.00  0.00     0.037 A 
ATOM     51  C   UNL A   1      42.208  29.518  28.956  1.00  0.00     0.049 A 
ATOM     52  C   UNL A   1      47.498  28.178  27.658  1.00  0.00     0.074 A 
ATOM     53  C   UNL A   1      41.992  30.798  29.433  1.00  0.00     0.029 A 
ATOM     54  N   UNL A   1      43.565  29.413  28.686  1.00  0.00    -0.354 N 
ATOM     55  N   UNL A   1      46.320  28.630  28.010  1.00  0.00    -0.248 NA
ATOM     56  C   UNL A   1      48.571  29.181  27.725  1.00  0.00     0.031 C 
ATOM     57  C   UNL A   1      43.208  31.487  29.399  1.00  0.00     0.029 A 
ATOM     58  C   UNL A   1      44.193  30.617  28.960  1.00  0.00     0.049 A 
ATOM     59  H   UNL A   1      44.014  28.604  28.351  1.00  0.00     0.167 HD
ATOM     60  C   UNL A   1      46.513  29.957  28.372  1.00  0.00     0.074 A 
ATOM     61  C   UNL A   1      47.926  30.232  28.210  1.00  0.00     0.031 C 
ATOM     62  C   UNL A   1      45.604  30.868  28.800  1.00  0.00     0.037 A 
BRANCH  49  63
ATOM     63  C   UNL A   1      39.800  28.753  29.013  1.00  0.00     0.057 A 
ATOM     64  C   UNL A   1      38.945  29.226  28.008  1.00  0.00     0.134 A 
ATOM     65  C   UNL A   1      39.242  28.525  30.278  1.00  0.00     0.134 A 
ATOM     66  F   UNL A   1      39.417  29.480  26.778  1.00  0.00    -0.206 F 
ATOM     67  C   UNL A   1      37.597  29.487  28.258  1.00  0.00     0.040 A 
ATOM     68  C   UNL A   1      37.888  28.752  30.531  1.00  0.00     0.040 A 
ATOM     69  F   UNL A   1      40.000  28.069  31.286  1.00  0.00    -0.206 F 
ATOM     70  C   UNL A   1      37.063  29.243  29.521  1.00  0.00     0.006 A 
ENDBRANCH  49  63
BRANCH  50  71
ATOM     71  C   UNL A   1      49.304  26.477  26.880  1.00  0.00     0.057 A 
ATOM     72  C   UNL A   1      49.802  26.654  25.583  1.00  0.00     0.134 A 
ATOM     73  C   UNL A   1      50.186  25.971  27.843  1.00  0.00     0.134 A 
ATOM     74  F   UNL A   1      49.001  27.118  24.611  1.00  0.00    -0.206 F 
ATOM     75  C   UNL A   1      51.114  26.317  25.249  1.00  0.00     0.040 A 
ATOM     76  C   UNL A   1      51.509  25.658  27.531  1.00  0.00     0.040 A 
ATOM     77  F   UNL A   1      49.776  25.787  29.107  1.00  0.00    -0.206 F 
ATOM     78  C   UNL A   1      51.973  25.821  26.226  1.00  0.00     0.006 A 
ENDBRANCH  50  71
BRANCH  62  79
ATOM     79  C   UNL A   1      46.115  32.231  29.164  1.00  0.00     0.057 A 
ATOM     80  C   UNL A   1      46.572  32.533  30.453  1.00  0.00     0.134 A 
ATOM     81  C   UNL A   1      46.189  33.243  28.197  1.00  0.00     0.134 A 
ATOM     82  F   UNL A   1      46.517  31.614  31.428  1.00  0.00    -0.206 F 
ATOM     83  C   UNL A   1      47.059  33.802  30.774  1.00  0.00     0.040 A 
ATOM     84  C   UNL A   1      46.704  34.504  28.498  1.00  0.00     0.040 A 
ATOM     85  F   UNL A   1      45.779  33.017  26.941  1.00  0.00    -0.206 F 
ATOM     86  C   UNL A   1      47.134  34.788  29.793  1.00  0.00     0.006 A 
ENDBRANCH  62  79
ENDBRANCH  36  37
ENDBRANCH  28  31
ENDBRANCH  26  27
ENDBRANCH  25  26
ENDBRANCH  24  25
ENDBRANCH   1  24
TORSDOF 17
ENDMDL
MODEL 3
REMARK VINA RESULT:     -11.3      4.957     10.256
REMARK SMILES CCC(CC)(NC(=O)CS[C@H]1CCS(=O)(=O)C1)C(=O)NCCCCNC(=O)c1ccc(-c2c3nc(c(-c4c(F)cccc4F)c4ccc([nH]4)c(-c4c(F)cccc4F)c4nc(c(-c5c(F)cccc5F)c5ccc2[nH]5)C=C4)C=C3)cc1
REMARK SMILES IDX 21 1 20 2 18 3 19 4 3 6 2 7 1 8 4 9 5 10 6 11 7 12 8 14 9 15
REMARK SMILES IDX 10 16 11 17 12 18 17 19 13 20 14 21 15 22 16 23 22 24 23 25
REMARK SMILES IDX 24 26 25 27 26 28 27 30 28 31 29 32 81 33 30 34 80 35 31 36
REMARK SMILES IDX 32 37 33 38 74 39 34 40 79 41 73 42 75 43 35 44 78 45 72 46
REMARK SMILES IDX 71 47 36 49 62 50 45 51 61 52 46 53 49 54 60 55 76 56 47 57
REMARK SMILES IDX 48 58 59 60 77 61 50 62 37 63 38 64 43 65 39 66 40 67 42 68
REMARK SMILES IDX 44 69 41 70 63 71 64 72 69 73 65 74 66 75 68 76 70 77 67 78
REMARK SMILES IDX 51 79 52 80 57 81 53 82 54 83 56 84 58 85 55 86
REMARK H PARENT 20 5 6 13 25 29 75 48 49 59
REMARK Flexibility Score: inf
ROOT
ATOM      1  C   UNL A   1      36.456  22.018  25.506  1.00  0.00     0.116 C 
ENDROOT
BRANCH   1   2
ATOM      2  N   UNL A   1      35.534  21.467  26.488  1.00  0.00    -0.354 N 
ATOM      3  C   UNL A   1      34.209  21.710  26.711  1.00  0.00     0.245 C 
ATOM      4  O   UNL A   1      33.691  21.074  27.630  1.00  0.00    -0.272 OA
ATOM      5  H   UNL A   1      35.935  20.806  27.097  1.00  0.00     0.163 HD
BRANCH   3   6
ATOM      6  C   UNL A   1      33.435  22.757  25.861  1.00  0.00     0.118 C 
BRANCH   6   7
ATOM      7  C   UNL A   1      33.489  22.543  24.324  1.00  0.00     0.035 C 
ATOM      8  C   UNL A   1      32.895  21.264  23.748  1.00  0.00     0.007 C 
ENDBRANCH   6   7
BRANCH   6   9
ATOM      9  C   UNL A   1      34.118  24.146  26.137  1.00  0.00     0.035 C 
ATOM     10  C   UNL A   1      34.606  24.925  24.919  1.00  0.00     0.007 C 
ENDBRANCH   6   9
BRANCH   6  11
ATOM     11  N   UNL A   1      31.997  22.739  26.303  1.00  0.00    -0.341 N 
ATOM     12  C   UNL A   1      31.038  23.705  26.475  1.00  0.00     0.230 C 
ATOM     13  H   UNL A   1      31.673  21.834  26.515  1.00  0.00     0.164 HD
ATOM     14  O   UNL A   1      30.121  23.413  27.251  1.00  0.00    -0.274 OA
BRANCH  12  15
ATOM     15  C   UNL A   1      30.991  25.022  25.696  1.00  0.00     0.169 C 
BRANCH  15  16
ATOM     16  S   UNL A   1      30.649  24.841  23.910  1.00  0.00    -0.148 SA
BRANCH  16  17
ATOM     17  C   UNL A   1      31.018  26.526  23.376  1.00  0.00     0.063 C 
ATOM     18  C   UNL A   1      29.814  27.458  23.245  1.00  0.00     0.031 C 
ATOM     19  C   UNL A   1      31.988  27.196  24.347  1.00  0.00     0.151 C 
ATOM     20  C   UNL A   1      30.430  28.820  22.924  1.00  0.00     0.138 C 
ATOM     21  S   UNL A   1      31.871  28.937  23.975  1.00  0.00     0.151 S 
ATOM     22  O   UNL A   1      33.010  29.323  23.165  1.00  0.00    -0.229 OA
ATOM     23  O   UNL A   1      31.511  29.648  25.181  1.00  0.00    -0.229 OA
ENDBRANCH  16  17
ENDBRANCH  15  16
ENDBRANCH  12  15
ENDBRANCH   6  11
ENDBRANCH   3   6
ENDBRANCH   1   2
BRANCH   1  24
ATOM     24  C   UNL A   1      36.917  21.004  24.464  1.00  0.00     0.023 C 
BRANCH  24  25
ATOM     25  C   UNL A   1      37.727  19.831  25.003  1.00  0.00     0.023 C 
BRANCH  25  26
ATOM     26  C   UNL A   1      38.997  20.215  25.746  1.00  0.00     0.116 C 
BRANCH  26  27
ATOM     27  N   UNL A   1      39.994  19.157  25.762  1.00  0.00    -0.352 N 
ATOM     28  C   UNL A   1      41.338  19.247  26.012  1.00  0.00     0.251 C 
ATOM     29  H   UNL A   1      39.657  18.253  25.566  1.00  0.00     0.163 HD
ATOM     30  O   UNL A   1      42.063  18.268  25.892  1.00  0.00    -0.269 OA
BRANCH  28  31
ATOM     31  C   UNL A   1      41.902  20.557  26.382  1.00  0.00     0.039 A 
ATOM     32  C   UNL A   1      42.273  21.434  25.365  1.00  0.00     0.014 A 
ATOM     33  C   UNL A   1      41.992  20.935  27.726  1.00  0.00     0.014 A 
ATOM     34  C   UNL A   1      42.684  22.724  25.695  1.00  0.00     0.010 A 
ATOM     35  C   UNL A   1      42.310  22.247  28.045  1.00  0.00     0.010 A 
ATOM     36  C   UNL A   1      42.670  23.150  27.034  1.00  0.00    -0.014 A 
BRANCH  36  37
ATOM     37  C   UNL A   1      43.047  24.537  27.395  1.00  0.00     0.031 A 
ATOM     38  C   UNL A   1      44.489  24.956  27.337  1.00  0.00     0.074 A 
ATOM     39  C   UNL A   1      42.101  25.395  27.822  1.00  0.00     0.049 A 
ATOM     40  N   UNL A   1      45.029  26.105  27.654  1.00  0.00    -0.248 NA
ATOM     41  C   UNL A   1      45.459  23.941  26.892  1.00  0.00     0.031 C 
ATOM     42  C   UNL A   1      40.677  25.085  27.965  1.00  0.00     0.029 A 
ATOM     43  N   UNL A   1      42.197  26.705  28.217  1.00  0.00    -0.354 N 
ATOM     44  C   UNL A   1      46.395  25.944  27.461  1.00  0.00     0.074 A 
ATOM     45  C   UNL A   1      46.609  24.572  27.061  1.00  0.00     0.031 C 
ATOM     46  C   UNL A   1      40.028  26.184  28.383  1.00  0.00     0.029 A 
ATOM     47  C   UNL A   1      40.993  27.261  28.577  1.00  0.00     0.049 A 
ATOM     48  H   UNL A   1      43.047  27.200  28.239  1.00  0.00     0.167 HD
ATOM     49  C   UNL A   1      47.377  26.866  27.580  1.00  0.00     0.037 A 
ATOM     50  C   UNL A   1      40.704  28.499  29.018  1.00  0.00     0.037 A 
ATOM     51  C   UNL A   1      47.150  28.236  27.955  1.00  0.00     0.049 A 
ATOM     52  C   UNL A   1      41.819  29.500  29.156  1.00  0.00     0.074 A 
ATOM     53  C   UNL A   1      48.068  29.268  28.044  1.00  0.00     0.029 A 
ATOM     54  N   UNL A   1      45.917  28.764  28.307  1.00  0.00    -0.354 N 
ATOM     55  N   UNL A   1      43.096  29.359  28.897  1.00  0.00    -0.248 NA
ATOM     56  C   UNL A   1      41.450  30.837  29.642  1.00  0.00     0.031 C 
ATOM     57  C   UNL A   1      47.400  30.405  28.505  1.00  0.00     0.029 A 
ATOM     58  C   UNL A   1      46.055  30.100  28.644  1.00  0.00     0.049 A 
ATOM     59  H   UNL A   1      45.070  28.262  28.317  1.00  0.00     0.167 HD
ATOM     60  C   UNL A   1      43.677  30.593  29.156  1.00  0.00     0.074 A 
ATOM     61  C   UNL A   1      42.609  31.476  29.579  1.00  0.00     0.031 C 
ATOM     62  C   UNL A   1      44.977  30.965  29.054  1.00  0.00     0.037 A 
BRANCH  49  63
ATOM     63  C   UNL A   1      48.784  26.420  27.305  1.00  0.00     0.057 A 
ATOM     64  C   UNL A   1      49.341  26.467  26.019  1.00  0.00     0.134 A 
ATOM     65  C   UNL A   1      49.606  25.967  28.345  1.00  0.00     0.134 A 
ATOM     66  F   UNL A   1      48.605  26.877  24.974  1.00  0.00    -0.206 F 
ATOM     67  C   UNL A   1      50.652  26.054  25.774  1.00  0.00     0.040 A 
ATOM     68  C   UNL A   1      50.928  25.581  28.118  1.00  0.00     0.040 A 
ATOM     69  F   UNL A   1      49.140  25.899  29.601  1.00  0.00    -0.206 F 
ATOM     70  C   UNL A   1      51.452  25.617  26.827  1.00  0.00     0.006 A 
ENDBRANCH  49  63
BRANCH  50  71
ATOM     71  C   UNL A   1      39.303  28.872  29.340  1.00  0.00     0.057 A 
ATOM     72  C   UNL A   1      38.472  29.459  28.378  1.00  0.00     0.134 A 
ATOM     73  C   UNL A   1      38.764  28.669  30.616  1.00  0.00     0.134 A 
ATOM     74  F   UNL A   1      38.935  29.696  27.141  1.00  0.00    -0.206 F 
ATOM     75  C   UNL A   1      37.167  29.854  28.678  1.00  0.00     0.040 A 
ATOM     76  C   UNL A   1      37.452  29.032  30.923  1.00  0.00     0.040 A 
ATOM     77  F   UNL A   1      39.503  28.102  31.582  1.00  0.00    -0.206 F 
ATOM     78  C   UNL A   1      36.653  29.636  29.954  1.00  0.00     0.006 A 
ENDBRANCH  50  71
BRANCH  62  79
ATOM     79  C   UNL A   1      45.310  32.395  29.362  1.00  0.00     0.057 A 
ATOM     80  C   UNL A   1      45.739  32.801  30.632  1.00  0.00     0.134 A 
ATOM     81  C   UNL A   1      45.238  33.373  28.361  1.00  0.00     0.134 A 
ATOM     82  F   UNL A   1      45.817  31.917  31.638  1.00  0.00    -0.206 F 
ATOM     83  C   UNL A   1      46.059  34.132  30.902  1.00  0.00     0.040 A 
ATOM     84  C   UNL A   1      45.586  34.700  28.610  1.00  0.00     0.040 A 
ATOM     85  F   UNL A   1      44.845  33.050  27.120  1.00  0.00    -0.206 F 
ATOM     86  C   UNL A   1      45.991  35.084  29.887  1.00  0.00     0.006 A 
ENDBRANCH  62  79
ENDBRANCH  36  37
ENDBRANCH  28  31
ENDBRANCH  26  27
ENDBRANCH  25  26
ENDBRANCH  24  25
ENDBRANCH   1  24
TORSDOF 17
ENDMDL
