MODEL 1
REMARK VINA RESULT:     -13.7      0.000      0.000
REMARK SMILES C[C@H](C(=O)NCCCCNC(=O)c1ccc(-c2c3nc(c(-c4c(F)cccc4F)c4ccc([nH]4)c(-c4c(F)cccc4F)c4nc(c(-c5c(F)cccc5F)c5ccc2[nH]5)C=C4)C=C3)cc1)c1ccc2c3cc(Cl)ccc3n(C(=O)c3ccc(Cl)cc3)c2c1
REMARK SMILES IDX 7 1 6 2 5 3 3 4 4 5 2 7 1 8 67 9 68 10 89 11 69 12 88 13
REMARK SMILES IDX 70 14 78 15 71 16 77 17 72 18 76 19 73 20 75 21 74 22 79 23
REMARK SMILES IDX 80 24 81 25 82 26 87 27 83 28 86 29 84 30 85 31 8 32 9 33
REMARK SMILES IDX 10 34 11 35 12 37 13 38 14 39 66 40 15 41 65 42 16 43 17 44
REMARK SMILES IDX 18 45 59 46 19 47 64 48 58 49 60 50 20 51 63 52 57 53 56 54
REMARK SMILES IDX 21 56 47 57 30 58 46 59 31 60 34 61 45 62 61 63 32 64 33 65
REMARK SMILES IDX 44 67 62 68 35 69 22 70 23 71 28 72 24 73 25 74 27 75 29 76
REMARK SMILES IDX 26 77 48 78 49 79 54 80 50 81 51 82 53 83 55 84 52 85 36 86
REMARK SMILES IDX 37 87 42 88 38 89 39 90 41 91 43 92 40 93
REMARK H PARENT 5 6 10 36 60 55 34 66
REMARK Flexibility Score: inf
ROOT
ATOM      1  C   UNL A   1      31.810  30.289  26.868  1.00  0.00     0.023 C 
ENDROOT
BRANCH   1   2
ATOM      2  C   UNL A   1      32.396  29.619  25.623  1.00  0.00     0.116 C 
BRANCH   2   3
ATOM      3  N   UNL A   1      31.373  28.972  24.829  1.00  0.00    -0.356 N 
ATOM      4  C   UNL A   1      30.829  27.731  24.822  1.00  0.00     0.227 C 
ATOM      5  O   UNL A   1      29.930  27.582  23.978  1.00  0.00    -0.274 OA
ATOM      6  H   UNL A   1      30.988  29.564  24.143  1.00  0.00     0.163 HD
BRANCH   4   7
ATOM      7  C   UNL A   1      31.218  26.521  25.692  1.00  0.00     0.105 C 
ATOM      8  C   UNL A   1      30.023  25.566  25.783  1.00  0.00     0.023 C 
BRANCH   7   9
ATOM      9  C   UNL A   1      32.512  25.764  25.447  1.00  0.00    -0.034 A 
ATOM     10  C   UNL A   1      33.720  26.408  25.186  1.00  0.00     0.005 A 
ATOM     11  C   UNL A   1      32.491  24.361  25.395  1.00  0.00     0.032 A 
ATOM     12  C   UNL A   1      34.934  25.716  25.228  1.00  0.00     0.011 A 
ATOM     13  C   UNL A   1      33.700  23.660  25.186  1.00  0.00     0.057 A 
ATOM     14  C   UNL A   1      34.916  24.313  25.273  1.00  0.00     0.008 A 
ATOM     15  N   UNL A   1      33.958  22.329  24.816  1.00  0.00    -0.276 N 
ATOM     16  C   UNL A   1      35.902  23.312  25.426  1.00  0.00     0.009 A 
ATOM     17  C   UNL A   1      35.335  22.101  24.996  1.00  0.00     0.057 A 
ATOM     18  C   UNL A   1      37.253  23.364  25.832  1.00  0.00     0.031 A 
ATOM     19  C   UNL A   1      36.178  20.995  24.766  1.00  0.00     0.029 A 
ATOM     20  C   UNL A   1      38.037  22.221  25.740  1.00  0.00     0.041 A 
ATOM     21  C   UNL A   1      37.521  21.066  25.170  1.00  0.00     0.023 A 
ATOM     22  Cl  UNL A   1      39.664  22.257  26.298  1.00  0.00    -0.084 Cl
BRANCH  15  23
ATOM     23  C   UNL A   1      32.941  21.492  24.276  1.00  0.00     0.262 C 
ATOM     24  O   UNL A   1      32.085  22.057  23.586  1.00  0.00    -0.268 OA
BRANCH  23  25
ATOM     25  C   UNL A   1      32.733  20.028  24.391  1.00  0.00     0.040 A 
ATOM     26  C   UNL A   1      32.898  19.464  25.673  1.00  0.00     0.015 A 
ATOM     27  C   UNL A   1      32.563  19.180  23.297  1.00  0.00     0.015 A 
ATOM     28  C   UNL A   1      32.873  18.082  25.862  1.00  0.00     0.021 A 
ATOM     29  C   UNL A   1      32.495  17.793  23.493  1.00  0.00     0.021 A 
ATOM     30  C   UNL A   1      32.661  17.251  24.768  1.00  0.00     0.041 A 
ATOM     31  Cl  UNL A   1      32.646  15.546  24.987  1.00  0.00    -0.084 Cl
ENDBRANCH  23  25
ENDBRANCH  15  23
ENDBRANCH   7   9
ENDBRANCH   4   7
ENDBRANCH   2   3
ENDBRANCH   1   2
BRANCH   1  32
ATOM     32  C   UNL A   1      31.575  31.790  26.778  1.00  0.00     0.023 C 
BRANCH  32  33
ATOM     33  C   UNL A   1      32.720  32.643  27.295  1.00  0.00     0.116 C 
BRANCH  33  34
ATOM     34  N   UNL A   1      32.349  34.013  27.626  1.00  0.00    -0.352 N 
ATOM     35  C   UNL A   1      32.955  34.853  28.533  1.00  0.00     0.251 C 
ATOM     36  H   UNL A   1      31.575  34.381  27.143  1.00  0.00     0.163 HD
ATOM     37  O   UNL A   1      32.495  35.966  28.764  1.00  0.00    -0.269 OA
BRANCH  35  38
ATOM     38  C   UNL A   1      34.141  34.367  29.267  1.00  0.00     0.039 A 
ATOM     39  C   UNL A   1      33.958  33.650  30.451  1.00  0.00     0.014 A 
ATOM     40  C   UNL A   1      35.421  34.543  28.735  1.00  0.00     0.014 A 
ATOM     41  C   UNL A   1      35.056  33.040  31.059  1.00  0.00     0.010 A 
ATOM     42  C   UNL A   1      36.495  33.859  29.289  1.00  0.00     0.010 A 
ATOM     43  C   UNL A   1      36.324  33.103  30.458  1.00  0.00    -0.014 A 
BRANCH  43  44
ATOM     44  C   UNL A   1      37.491  32.395  31.039  1.00  0.00     0.031 A 
ATOM     45  C   UNL A   1      38.109  32.896  32.315  1.00  0.00     0.074 A 
ATOM     46  C   UNL A   1      38.035  31.351  30.385  1.00  0.00     0.049 A 
ATOM     47  N   UNL A   1      39.168  32.459  32.947  1.00  0.00    -0.248 NA
ATOM     48  C   UNL A   1      37.475  34.065  32.943  1.00  0.00     0.031 C 
ATOM     49  C   UNL A   1      37.566  30.811  29.107  1.00  0.00     0.029 A 
ATOM     50  N   UNL A   1      39.112  30.562  30.704  1.00  0.00    -0.354 N 
ATOM     51  C   UNL A   1      39.334  33.309  34.033  1.00  0.00     0.074 A 
ATOM     52  C   UNL A   1      38.306  34.322  33.941  1.00  0.00     0.031 C 
ATOM     53  C   UNL A   1      38.331  29.761  28.767  1.00  0.00     0.029 A 
ATOM     54  C   UNL A   1      39.362  29.574  29.783  1.00  0.00     0.049 A 
ATOM     55  H   UNL A   1      39.653  30.692  31.516  1.00  0.00     0.167 HD
ATOM     56  C   UNL A   1      40.241  33.235  35.035  1.00  0.00     0.037 A 
ATOM     57  C   UNL A   1      40.315  28.623  29.764  1.00  0.00     0.037 A 
ATOM     58  C   UNL A   1      41.240  32.205  35.143  1.00  0.00     0.049 A 
ATOM     59  C   UNL A   1      41.300  28.549  30.898  1.00  0.00     0.074 A 
ATOM     60  C   UNL A   1      42.163  32.003  36.153  1.00  0.00     0.029 A 
ATOM     61  N   UNL A   1      41.440  31.202  34.208  1.00  0.00    -0.354 N 
ATOM     62  N   UNL A   1      41.398  29.315  31.958  1.00  0.00    -0.248 NA
ATOM     63  C   UNL A   1      42.300  27.474  30.837  1.00  0.00     0.031 C 
ATOM     64  C   UNL A   1      42.947  30.896  35.812  1.00  0.00     0.029 A 
ATOM     65  C   UNL A   1      42.484  30.385  34.610  1.00  0.00     0.049 A 
ATOM     66  H   UNL A   1      40.919  31.088  33.381  1.00  0.00     0.167 HD
ATOM     67  C   UNL A   1      42.449  28.798  32.704  1.00  0.00     0.074 A 
ATOM     68  C   UNL A   1      42.948  27.645  31.981  1.00  0.00     0.031 C 
ATOM     69  C   UNL A   1      42.958  29.237  33.881  1.00  0.00     0.037 A 
BRANCH  56  70
ATOM     70  C   UNL A   1      40.182  34.294  36.096  1.00  0.00     0.057 A 
ATOM     71  C   UNL A   1      40.934  35.473  36.004  1.00  0.00     0.134 A 
ATOM     72  C   UNL A   1      39.353  34.143  37.215  1.00  0.00     0.134 A 
ATOM     73  F   UNL A   1      41.760  35.673  34.965  1.00  0.00    -0.206 F 
ATOM     74  C   UNL A   1      40.885  36.450  36.999  1.00  0.00     0.040 A 
ATOM     75  C   UNL A   1      39.276  35.125  38.203  1.00  0.00     0.040 A 
ATOM     76  F   UNL A   1      38.604  33.040  37.365  1.00  0.00    -0.206 F 
ATOM     77  C   UNL A   1      40.049  36.280  38.100  1.00  0.00     0.006 A 
ENDBRANCH  56  70
BRANCH  57  78
ATOM     78  C   UNL A   1      40.363  27.637  28.656  1.00  0.00     0.057 A 
ATOM     79  C   UNL A   1      41.122  27.883  27.506  1.00  0.00     0.134 A 
ATOM     80  C   UNL A   1      39.649  26.435  28.713  1.00  0.00     0.134 A 
ATOM     81  F   UNL A   1      41.814  29.027  27.386  1.00  0.00    -0.206 F 
ATOM     82  C   UNL A   1      41.153  26.981  26.442  1.00  0.00     0.040 A 
ATOM     83  C   UNL A   1      39.690  25.511  27.666  1.00  0.00     0.040 A 
ATOM     84  F   UNL A   1      38.910  26.136  29.790  1.00  0.00    -0.206 F 
ATOM     85  C   UNL A   1      40.438  25.787  26.523  1.00  0.00     0.006 A 
ENDBRANCH  57  78
BRANCH  69  86
ATOM     86  C   UNL A   1      44.084  28.447  34.478  1.00  0.00     0.057 A 
ATOM     87  C   UNL A   1      45.424  28.771  34.236  1.00  0.00     0.134 A 
ATOM     88  C   UNL A   1      43.821  27.369  35.335  1.00  0.00     0.134 A 
ATOM     89  F   UNL A   1      45.741  29.783  33.414  1.00  0.00    -0.206 F 
ATOM     90  C   UNL A   1      46.465  28.039  34.807  1.00  0.00     0.040 A 
ATOM     91  C   UNL A   1      44.853  26.645  35.931  1.00  0.00     0.040 A 
ATOM     92  F   UNL A   1      42.559  27.013  35.613  1.00  0.00    -0.206 F 
ATOM     93  C   UNL A   1      46.181  26.976  35.663  1.00  0.00     0.006 A 
ENDBRANCH  69  86
ENDBRANCH  43  44
ENDBRANCH  35  38
ENDBRANCH  33  34
ENDBRANCH  32  33
ENDBRANCH   1  32
TORSDOF 14
ENDMDL
MODEL 2
REMARK VINA RESULT:     -13.5      5.185     10.014
REMARK SMILES C[C@H](C(=O)NCCCCNC(=O)c1ccc(-c2c3nc(c(-c4c(F)cccc4F)c4ccc([nH]4)c(-c4c(F)cccc4F)c4nc(c(-c5c(F)cccc5F)c5ccc2[nH]5)C=C4)C=C3)cc1)c1ccc2c3cc(Cl)ccc3n(C(=O)c3ccc(Cl)cc3)c2c1
REMARK SMILES IDX 7 1 6 2 5 3 3 4 4 5 2 7 1 8 67 9 68 10 89 11 69 12 88 13
REMARK SMILES IDX 70 14 78 15 71 16 77 17 72 18 76 19 73 20 75 21 74 22 79 23
REMARK SMILES IDX 80 24 81 25 82 26 87 27 83 28 86 29 84 30 85 31 8 32 9 33
REMARK SMILES IDX 10 34 11 35 12 37 13 38 14 39 66 40 15 41 65 42 16 43 17 44
REMARK SMILES IDX 18 45 59 46 19 47 64 48 58 49 60 50 20 51 63 52 57 53 56 54
REMARK SMILES IDX 21 56 47 57 30 58 46 59 31 60 34 61 45 62 61 63 32 64 33 65
REMARK SMILES IDX 44 67 62 68 35 69 22 70 23 71 28 72 24 73 25 74 27 75 29 76
REMARK SMILES IDX 26 77 48 78 49 79 54 80 50 81 51 82 53 83 55 84 52 85 36 86
REMARK SMILES IDX 37 87 42 88 38 89 39 90 41 91 43 92 40 93
REMARK H PARENT 5 6 10 36 60 55 34 66
REMARK Flexibility Score: inf
ROOT
ATOM      1  C   UNL A   1      36.854  20.255  25.005  1.00  0.00     0.023 C 
ENDROOT
BRANCH   1   2
ATOM      2  C   UNL A   1      35.995  21.522  24.994  1.00  0.00     0.116 C 
BRANCH   2   3
ATOM      3  N   UNL A   1      34.643  21.251  24.549  1.00  0.00    -0.356 N 
ATOM      4  C   UNL A   1      33.732  21.945  23.825  1.00  0.00     0.227 C 
ATOM      5  O   UNL A   1      32.670  21.329  23.634  1.00  0.00    -0.274 OA
ATOM      6  H   UNL A   1      34.315  20.369  24.837  1.00  0.00     0.163 HD
BRANCH   4   7
ATOM      7  C   UNL A   1      33.855  23.374  23.267  1.00  0.00     0.105 C 
ATOM      8  C   UNL A   1      33.007  23.490  21.995  1.00  0.00     0.023 C 
BRANCH   7   9
ATOM      9  C   UNL A   1      33.670  24.585  24.166  1.00  0.00    -0.034 A 
ATOM     10  C   UNL A   1      34.299  24.703  25.404  1.00  0.00     0.005 A 
ATOM     11  C   UNL A   1      32.770  25.593  23.788  1.00  0.00     0.032 A 
ATOM     12  C   UNL A   1      34.328  25.922  26.088  1.00  0.00     0.011 A 
ATOM     13  C   UNL A   1      32.614  26.726  24.617  1.00  0.00     0.057 A 
ATOM     14  C   UNL A   1      33.499  26.967  25.653  1.00  0.00     0.008 A 
ATOM     15  N   UNL A   1      31.628  27.727  24.659  1.00  0.00    -0.276 N 
ATOM     16  C   UNL A   1      33.339  28.324  26.013  1.00  0.00     0.009 A 
ATOM     17  C   UNL A   1      32.097  28.745  25.511  1.00  0.00     0.057 A 
ATOM     18  C   UNL A   1      34.131  29.200  26.788  1.00  0.00     0.031 A 
ATOM     19  C   UNL A   1      31.551  29.962  25.967  1.00  0.00     0.029 A 
ATOM     20  C   UNL A   1      33.640  30.461  27.106  1.00  0.00     0.041 A 
ATOM     21  C   UNL A   1      32.350  30.819  26.742  1.00  0.00     0.023 A 
ATOM     22  Cl  UNL A   1      34.626  31.559  27.989  1.00  0.00    -0.084 Cl
BRANCH  15  23
ATOM     23  C   UNL A   1      30.379  27.575  23.994  1.00  0.00     0.262 C 
ATOM     24  O   UNL A   1      29.773  26.521  24.214  1.00  0.00    -0.268 OA
BRANCH  23  25
ATOM     25  C   UNL A   1      29.659  28.486  23.072  1.00  0.00     0.040 A 
ATOM     26  C   UNL A   1      30.450  29.361  22.299  1.00  0.00     0.015 A 
ATOM     27  C   UNL A   1      28.273  28.642  23.060  1.00  0.00     0.015 A 
ATOM     28  C   UNL A   1      29.870  30.358  21.514  1.00  0.00     0.021 A 
ATOM     29  C   UNL A   1      27.687  29.617  22.239  1.00  0.00     0.021 A 
ATOM     30  C   UNL A   1      28.486  30.474  21.480  1.00  0.00     0.041 A 
ATOM     31  Cl  UNL A   1      27.760  31.710  20.530  1.00  0.00    -0.084 Cl
ENDBRANCH  23  25
ENDBRANCH  15  23
ENDBRANCH   7   9
ENDBRANCH   4   7
ENDBRANCH   2   3
ENDBRANCH   1   2
BRANCH   1  32
ATOM     32  C   UNL A   1      38.327  20.437  24.666  1.00  0.00     0.023 C 
BRANCH  32  33
ATOM     33  C   UNL A   1      39.265  20.372  25.858  1.00  0.00     0.116 C 
BRANCH  33  34
ATOM     34  N   UNL A   1      40.121  19.194  25.888  1.00  0.00    -0.352 N 
ATOM     35  C   UNL A   1      41.472  19.141  26.149  1.00  0.00     0.251 C 
ATOM     36  H   UNL A   1      39.681  18.334  25.699  1.00  0.00     0.163 HD
ATOM     37  O   UNL A   1      42.086  18.082  26.074  1.00  0.00    -0.269 OA
BRANCH  35  38
ATOM     38  C   UNL A   1      42.182  20.397  26.468  1.00  0.00     0.039 A 
ATOM     39  C   UNL A   1      42.744  21.140  25.428  1.00  0.00     0.014 A 
ATOM     40  C   UNL A   1      42.209  20.878  27.780  1.00  0.00     0.014 A 
ATOM     41  C   UNL A   1      43.263  22.407  25.696  1.00  0.00     0.010 A 
ATOM     42  C   UNL A   1      42.640  22.174  28.027  1.00  0.00     0.010 A 
ATOM     43  C   UNL A   1      43.175  22.951  26.988  1.00  0.00    -0.014 A 
BRANCH  43  44
ATOM     44  C   UNL A   1      43.644  24.327  27.281  1.00  0.00     0.031 A 
ATOM     45  C   UNL A   1      42.657  25.377  27.710  1.00  0.00     0.074 A 
ATOM     46  C   UNL A   1      44.939  24.649  27.094  1.00  0.00     0.049 A 
ATOM     47  N   UNL A   1      42.855  26.648  27.950  1.00  0.00    -0.248 NA
ATOM     48  C   UNL A   1      41.257  24.950  27.853  1.00  0.00     0.031 C 
ATOM     49  C   UNL A   1      45.981  23.735  26.620  1.00  0.00     0.029 A 
ATOM     50  N   UNL A   1      45.597  25.839  27.272  1.00  0.00    -0.354 N 
ATOM     51  C   UNL A   1      41.605  27.172  28.253  1.00  0.00     0.074 A 
ATOM     52  C   UNL A   1      40.647  26.097  28.109  1.00  0.00     0.031 C 
ATOM     53  C   UNL A   1      47.152  24.391  26.574  1.00  0.00     0.029 A 
ATOM     54  C   UNL A   1      46.938  25.775  26.983  1.00  0.00     0.049 A 
ATOM     55  H   UNL A   1      45.150  26.661  27.577  1.00  0.00     0.167 HD
ATOM     56  C   UNL A   1      41.285  28.427  28.647  1.00  0.00     0.037 A 
ATOM     57  C   UNL A   1      47.888  26.728  27.045  1.00  0.00     0.037 A 
ATOM     58  C   UNL A   1      42.244  29.484  28.825  1.00  0.00     0.049 A 
ATOM     59  C   UNL A   1      47.513  28.109  27.504  1.00  0.00     0.074 A 
ATOM     60  C   UNL A   1      42.032  30.771  29.284  1.00  0.00     0.029 A 
ATOM     61  N   UNL A   1      43.599  29.371  28.555  1.00  0.00    -0.354 N 
ATOM     62  N   UNL A   1      46.338  28.571  27.860  1.00  0.00    -0.248 NA
ATOM     63  C   UNL A   1      48.596  29.099  27.579  1.00  0.00     0.031 C 
ATOM     64  C   UNL A   1      43.255  31.450  29.258  1.00  0.00     0.029 A 
ATOM     65  C   UNL A   1      44.235  30.572  28.823  1.00  0.00     0.049 A 
ATOM     66  H   UNL A   1      44.043  28.559  28.221  1.00  0.00     0.167 HD
ATOM     67  C   UNL A   1      46.546  29.893  28.229  1.00  0.00     0.074 A 
ATOM     68  C   UNL A   1      47.961  30.156  28.064  1.00  0.00     0.031 C 
ATOM     69  C   UNL A   1      45.646  30.810  28.663  1.00  0.00     0.037 A 
BRANCH  56  70
ATOM     70  C   UNL A   1      39.839  28.714  28.922  1.00  0.00     0.057 A 
ATOM     71  C   UNL A   1      38.973  29.167  27.918  1.00  0.00     0.134 A 
ATOM     72  C   UNL A   1      39.299  28.521  30.201  1.00  0.00     0.134 A 
ATOM     73  F   UNL A   1      39.430  29.388  26.675  1.00  0.00    -0.206 F 
ATOM     74  C   UNL A   1      37.631  29.446  28.180  1.00  0.00     0.040 A 
ATOM     75  C   UNL A   1      37.953  28.770  30.469  1.00  0.00     0.040 A 
ATOM     76  F   UNL A   1      40.071  28.087  31.208  1.00  0.00    -0.206 F 
ATOM     77  C   UNL A   1      37.115  29.241  29.458  1.00  0.00     0.006 A 
ENDBRANCH  56  70
BRANCH  57  78
ATOM     78  C   UNL A   1      49.295  26.400  26.703  1.00  0.00     0.057 A 
ATOM     79  C   UNL A   1      50.157  25.848  27.657  1.00  0.00     0.134 A 
ATOM     80  C   UNL A   1      49.814  26.637  25.425  1.00  0.00     0.134 A 
ATOM     81  F   UNL A   1      49.723  25.615  28.905  1.00  0.00    -0.206 F 
ATOM     82  C   UNL A   1      51.491  25.563  27.361  1.00  0.00     0.040 A 
ATOM     83  C   UNL A   1      51.139  26.334  25.107  1.00  0.00     0.040 A 
ATOM     84  F   UNL A   1      49.037  27.155  24.464  1.00  0.00    -0.206 F 
ATOM     85  C   UNL A   1      51.984  25.802  26.080  1.00  0.00     0.006 A 
ENDBRANCH  57  78
BRANCH  69  86
ATOM     86  C   UNL A   1      46.172  32.166  29.027  1.00  0.00     0.057 A 
ATOM     87  C   UNL A   1      46.219  33.213  28.100  1.00  0.00     0.134 A 
ATOM     88  C   UNL A   1      46.602  32.435  30.333  1.00  0.00     0.134 A 
ATOM     89  F   UNL A   1      45.834  33.016  26.830  1.00  0.00    -0.206 F 
ATOM     90  C   UNL A   1      46.697  34.477  28.452  1.00  0.00     0.040 A 
ATOM     91  C   UNL A   1      47.058  33.700  30.704  1.00  0.00     0.040 A 
ATOM     92  F   UNL A   1      46.574  31.476  31.271  1.00  0.00    -0.206 F 
ATOM     93  C   UNL A   1      47.112  34.724  29.759  1.00  0.00     0.006 A 
ENDBRANCH  69  86
ENDBRANCH  43  44
ENDBRANCH  35  38
ENDBRANCH  33  34
ENDBRANCH  32  33
ENDBRANCH   1  32
TORSDOF 14
ENDMDL
MODEL 3
REMARK VINA RESULT:     -13.4      4.176      8.994
REMARK SMILES C[C@H](C(=O)NCCCCNC(=O)c1ccc(-c2c3nc(c(-c4c(F)cccc4F)c4ccc([nH]4)c(-c4c(F)cccc4F)c4nc(c(-c5c(F)cccc5F)c5ccc2[nH]5)C=C4)C=C3)cc1)c1ccc2c3cc(Cl)ccc3n(C(=O)c3ccc(Cl)cc3)c2c1
REMARK SMILES IDX 7 1 6 2 5 3 3 4 4 5 2 7 1 8 67 9 68 10 89 11 69 12 88 13
REMARK SMILES IDX 70 14 78 15 71 16 77 17 72 18 76 19 73 20 75 21 74 22 79 23
REMARK SMILES IDX 80 24 81 25 82 26 87 27 83 28 86 29 84 30 85 31 8 32 9 33
REMARK SMILES IDX 10 34 11 35 12 37 13 38 14 39 66 40 15 41 65 42 16 43 17 44
REMARK SMILES IDX 18 45 59 46 19 47 64 48 58 49 60 50 20 51 63 52 57 53 56 54
REMARK SMILES IDX 21 56 47 57 30 58 46 59 31 60 34 61 45 62 61 63 32 64 33 65
REMARK SMILES IDX 44 67 62 68 35 69 22 70 23 71 28 72 24 73 25 74 27 75 29 76
REMARK SMILES IDX 26 77 48 78 49 79 54 80 50 81 51 82 53 83 55 84 52 85 36 86
REMARK SMILES IDX 37 87 42 88 38 89 39 90 41 91 43 92 40 93
REMARK H PARENT 5 6 10 36 60 55 34 66
REMARK Flexibility Score: inf
ROOT
ATOM      1  C   UNL A   1      35.500  22.643  23.879  1.00  0.00     0.023 C 
ENDROOT
BRANCH   1   2
ATOM      2  C   UNL A   1      34.583  23.319  22.856  1.00  0.00     0.116 C 
BRANCH   2   3
ATOM      3  N   UNL A   1      33.561  22.413  22.371  1.00  0.00    -0.356 N 
ATOM      4  C   UNL A   1      32.391  21.955  22.877  1.00  0.00     0.227 C 
ATOM      5  O   UNL A   1      31.778  21.193  22.110  1.00  0.00    -0.274 OA
ATOM      6  H   UNL A   1      33.762  22.052  21.478  1.00  0.00     0.163 HD
BRANCH   4   7
ATOM      7  C   UNL A   1      31.781  22.239  24.262  1.00  0.00     0.105 C 
ATOM      8  C   UNL A   1      32.162  21.104  25.218  1.00  0.00     0.023 C 
BRANCH   7   9
ATOM      9  C   UNL A   1      31.940  23.597  24.925  1.00  0.00    -0.034 A 
ATOM     10  C   UNL A   1      32.542  23.756  26.172  1.00  0.00     0.005 A 
ATOM     11  C   UNL A   1      31.392  24.733  24.310  1.00  0.00     0.032 A 
ATOM     12  C   UNL A   1      32.915  25.020  26.639  1.00  0.00     0.011 A 
ATOM     13  C   UNL A   1      31.558  25.996  24.919  1.00  0.00     0.057 A 
ATOM     14  C   UNL A   1      32.446  26.159  25.968  1.00  0.00     0.008 A 
ATOM     15  N   UNL A   1      30.914  27.228  24.711  1.00  0.00    -0.276 N 
ATOM     16  C   UNL A   1      32.689  27.548  26.079  1.00  0.00     0.009 A 
ATOM     17  C   UNL A   1      31.642  28.208  25.413  1.00  0.00     0.057 A 
ATOM     18  C   UNL A   1      33.684  28.287  26.756  1.00  0.00     0.031 A 
ATOM     19  C   UNL A   1      31.471  29.592  25.612  1.00  0.00     0.029 A 
ATOM     20  C   UNL A   1      33.582  29.671  26.814  1.00  0.00     0.041 A 
ATOM     21  C   UNL A   1      32.468  30.312  26.292  1.00  0.00     0.023 A 
ATOM     22  Cl  UNL A   1      34.826  30.583  27.576  1.00  0.00    -0.084 Cl
BRANCH  15  23
ATOM     23  C   UNL A   1      29.695  27.322  23.983  1.00  0.00     0.262 C 
ATOM     24  O   UNL A   1      28.911  26.376  24.116  1.00  0.00    -0.268 OA
BRANCH  23  25
ATOM     25  C   UNL A   1      29.188  28.384  23.082  1.00  0.00     0.040 A 
ATOM     26  C   UNL A   1      30.144  29.054  22.291  1.00  0.00     0.015 A 
ATOM     27  C   UNL A   1      27.878  28.863  23.106  1.00  0.00     0.015 A 
ATOM     28  C   UNL A   1      29.796  30.167  21.524  1.00  0.00     0.021 A 
ATOM     29  C   UNL A   1      27.518  29.954  22.303  1.00  0.00     0.021 A 
ATOM     30  C   UNL A   1      28.478  30.606  21.526  1.00  0.00     0.041 A 
ATOM     31  Cl  UNL A   1      28.041  31.986  20.598  1.00  0.00    -0.084 Cl
ENDBRANCH  23  25
ENDBRANCH  15  23
ENDBRANCH   7   9
ENDBRANCH   4   7
ENDBRANCH   2   3
ENDBRANCH   1   2
BRANCH   1  32
ATOM     32  C   UNL A   1      36.499  23.548  24.588  1.00  0.00     0.023 C 
BRANCH  32  33
ATOM     33  C   UNL A   1      36.864  23.108  25.995  1.00  0.00     0.116 C 
BRANCH  33  34
ATOM     34  N   UNL A   1      38.070  22.295  26.078  1.00  0.00    -0.352 N 
ATOM     35  C   UNL A   1      39.328  22.693  26.471  1.00  0.00     0.251 C 
ATOM     36  H   UNL A   1      37.974  21.349  25.824  1.00  0.00     0.163 HD
ATOM     37  O   UNL A   1      40.276  21.915  26.428  1.00  0.00    -0.269 OA
BRANCH  35  38
ATOM     38  C   UNL A   1      39.529  24.094  26.892  1.00  0.00     0.039 A 
ATOM     39  C   UNL A   1      39.305  24.438  28.227  1.00  0.00     0.014 A 
ATOM     40  C   UNL A   1      40.024  25.039  25.989  1.00  0.00     0.014 A 
ATOM     41  C   UNL A   1      39.657  25.713  28.673  1.00  0.00     0.010 A 
ATOM     42  C   UNL A   1      40.458  26.272  26.454  1.00  0.00     0.010 A 
ATOM     43  C   UNL A   1      40.276  26.624  27.800  1.00  0.00    -0.014 A 
BRANCH  43  44
ATOM     44  C   UNL A   1      40.734  27.954  28.269  1.00  0.00     0.031 A 
ATOM     45  C   UNL A   1      42.203  28.272  28.295  1.00  0.00     0.074 A 
ATOM     46  C   UNL A   1      39.838  28.845  28.736  1.00  0.00     0.049 A 
ATOM     47  N   UNL A   1      42.808  29.348  28.728  1.00  0.00    -0.248 NA
ATOM     48  C   UNL A   1      43.115  27.228  27.803  1.00  0.00     0.031 C 
ATOM     49  C   UNL A   1      38.392  28.631  28.822  1.00  0.00     0.029 A 
ATOM     50  N   UNL A   1      40.016  30.111  29.236  1.00  0.00    -0.354 N 
ATOM     51  C   UNL A   1      44.166  29.102  28.577  1.00  0.00     0.074 A 
ATOM     52  C   UNL A   1      44.300  27.754  28.070  1.00  0.00     0.031 C 
ATOM     53  C   UNL A   1      37.812  29.738  29.315  1.00  0.00     0.029 A 
ATOM     54  C   UNL A   1      38.846  30.725  29.609  1.00  0.00     0.049 A 
ATOM     55  H   UNL A   1      40.899  30.537  29.320  1.00  0.00     0.167 HD
ATOM     56  C   UNL A   1      45.209  29.934  28.809  1.00  0.00     0.037 A 
ATOM     57  C   UNL A   1      38.632  31.949  30.127  1.00  0.00     0.037 A 
ATOM     58  C   UNL A   1      45.071  31.286  29.279  1.00  0.00     0.049 A 
ATOM     59  C   UNL A   1      39.804  32.863  30.358  1.00  0.00     0.074 A 
ATOM     60  C   UNL A   1      46.059  32.232  29.483  1.00  0.00     0.029 A 
ATOM     61  N   UNL A   1      43.866  31.884  29.613  1.00  0.00    -0.354 N 
ATOM     62  N   UNL A   1      41.078  32.643  30.139  1.00  0.00    -0.248 NA
ATOM     63  C   UNL A   1      39.507  34.197  30.899  1.00  0.00     0.031 C 
ATOM     64  C   UNL A   1      45.455  33.394  29.976  1.00  0.00     0.029 A 
ATOM     65  C   UNL A   1      44.087  33.184  30.038  1.00  0.00     0.049 A 
ATOM     66  H   UNL A   1      42.985  31.450  29.558  1.00  0.00     0.167 HD
ATOM     67  C   UNL A   1      41.731  33.818  30.487  1.00  0.00     0.074 A 
ATOM     68  C   UNL A   1      40.711  34.752  30.920  1.00  0.00     0.031 C 
ATOM     69  C   UNL A   1      43.057  34.100  30.454  1.00  0.00     0.037 A 
BRANCH  56  70
ATOM     70  C   UNL A   1      46.586  29.401  28.544  1.00  0.00     0.057 A 
ATOM     71  C   UNL A   1      47.191  29.513  27.285  1.00  0.00     0.134 A 
ATOM     72  C   UNL A   1      47.324  28.784  29.562  1.00  0.00     0.134 A 
ATOM     73  F   UNL A   1      46.532  30.080  26.263  1.00  0.00    -0.206 F 
ATOM     74  C   UNL A   1      48.468  29.006  27.040  1.00  0.00     0.040 A 
ATOM     75  C   UNL A   1      48.612  28.296  29.336  1.00  0.00     0.040 A 
ATOM     76  F   UNL A   1      46.806  28.646  30.792  1.00  0.00    -0.206 F 
ATOM     77  C   UNL A   1      49.185  28.400  28.069  1.00  0.00     0.006 A 
ENDBRANCH  56  70
BRANCH  57  78
ATOM     78  C   UNL A   1      37.250  32.402  30.426  1.00  0.00     0.057 A 
ATOM     79  C   UNL A   1      36.652  32.121  31.659  1.00  0.00     0.134 A 
ATOM     80  C   UNL A   1      36.493  33.115  29.489  1.00  0.00     0.134 A 
ATOM     81  F   UNL A   1      37.321  31.425  32.591  1.00  0.00    -0.206 F 
ATOM     82  C   UNL A   1      35.343  32.512  31.945  1.00  0.00     0.040 A 
ATOM     83  C   UNL A   1      35.191  33.535  29.770  1.00  0.00     0.040 A 
ATOM     84  F   UNL A   1      37.012  33.424  28.292  1.00  0.00    -0.206 F 
ATOM     85  C   UNL A   1      34.610  33.226  30.999  1.00  0.00     0.006 A 
ENDBRANCH  57  78
BRANCH  69  86
ATOM     86  C   UNL A   1      43.473  35.483  30.858  1.00  0.00     0.057 A 
ATOM     87  C   UNL A   1      43.584  36.522  29.927  1.00  0.00     0.134 A 
ATOM     88  C   UNL A   1      43.730  35.785  32.202  1.00  0.00     0.134 A 
ATOM     89  F   UNL A   1      43.364  36.295  28.623  1.00  0.00    -0.206 F 
ATOM     90  C   UNL A   1      43.958  37.810  30.314  1.00  0.00     0.040 A 
ATOM     91  C   UNL A   1      44.080  37.073  32.605  1.00  0.00     0.040 A 
ATOM     92  F   UNL A   1      43.632  34.835  33.144  1.00  0.00    -0.206 F 
ATOM     93  C   UNL A   1      44.201  38.089  31.658  1.00  0.00     0.006 A 
ENDBRANCH  69  86
ENDBRANCH  43  44
ENDBRANCH  35  38
ENDBRANCH  33  34
ENDBRANCH  32  33
ENDBRANCH   1  32
TORSDOF 14
ENDMDL
