MODEL 1
REMARK VINA RESULT:     -11.7      0.000      0.000
REMARK SMILES CC(C)(O)C#Cc1ccc(C(=O)N[C@@H](CCC(N)=O)C(=O)NCCCCNC(=O)c2ccc(-c3c4nc(c(-c5c(F)cccc5F)c5ccc([nH]5)c(-c5c(F)cccc5F)c5nc(c(-c6c(F)cccc6F)c6ccc3[nH]6)C=C5)C=C4)cc2)s1
REMARK SMILES IDX 23 1 22 2 20 3 21 4 14 6 13 7 11 8 12 9 10 11 7 12 8 13
REMARK SMILES IDX 84 14 9 15 6 16 5 17 2 18 1 19 3 20 4 21 15 23 16 24 17 25
REMARK SMILES IDX 18 26 19 27 24 30 25 31 26 32 27 33 28 34 29 36 30 37 31 38
REMARK SMILES IDX 83 39 32 40 82 41 33 42 34 43 35 44 76 45 36 46 81 47 75 48
REMARK SMILES IDX 77 49 37 50 80 51 74 52 73 53 38 55 64 56 47 57 63 58 48 59
REMARK SMILES IDX 51 60 62 61 78 62 49 63 50 64 61 66 79 67 52 68 39 69 40 70
REMARK SMILES IDX 45 71 41 72 42 73 44 74 46 75 43 76 65 77 66 78 71 79 67 80
REMARK SMILES IDX 68 81 70 82 72 83 69 84 53 85 54 86 59 87 55 88 56 89 58 90
REMARK SMILES IDX 60 91 57 92
REMARK H PARENT 22 5 13 10 4 22 18 28 18 29 27 35 77 54 51 65
REMARK Flexibility Score: inf
ROOT
ATOM      1  C   UNL A   1      34.216  28.712  26.520  1.00  0.00     0.116 C 
ENDROOT
BRANCH   1   2
ATOM      2  N   UNL A   1      34.200  28.744  25.076  1.00  0.00    -0.354 N 
ATOM      3  C   UNL A   1      33.775  27.843  24.152  1.00  0.00     0.242 C 
ATOM      4  O   UNL A   1      33.801  28.205  22.970  1.00  0.00    -0.273 OA
ATOM      5  H   UNL A   1      34.565  29.572  24.690  1.00  0.00     0.163 HD
BRANCH   3   6
ATOM      6  C   UNL A   1      33.247  26.444  24.527  1.00  0.00     0.172 C 
BRANCH   6   7
ATOM      7  N   UNL A   1      31.867  26.464  25.052  1.00  0.00    -0.340 N 
ATOM      8  C   UNL A   1      31.203  25.579  25.874  1.00  0.00     0.262 C 
ATOM      9  O   UNL A   1      30.167  26.001  26.392  1.00  0.00    -0.268 OA
ATOM     10  H   UNL A   1      31.331  27.239  24.766  1.00  0.00     0.164 HD
BRANCH   8  11
ATOM     11  C   UNL A   1      31.745  24.274  26.174  1.00  0.00     0.093 A 
ATOM     12  C   UNL A   1      32.264  21.948  25.857  1.00  0.00     0.078 A 
ATOM     13  C   UNL A   1      33.313  22.590  26.475  1.00  0.00     0.030 A 
ATOM     14  S   UNL A   1      30.828  22.833  26.063  1.00  0.00    -0.121 S 
ATOM     15  C   UNL A   1      32.996  23.967  26.688  1.00  0.00     0.027 A 
BRANCH  12  16
ATOM     16  C   UNL A   1      32.296  20.691  25.215  1.00  0.00    -0.053 C 
ATOM     17  C   UNL A   1      32.493  19.515  24.687  1.00  0.00    -0.063 C 
BRANCH  17  18
ATOM     18  C   UNL A   1      32.722  18.144  24.073  1.00  0.00     0.120 C 
ATOM     19  C   UNL A   1      34.169  17.712  24.296  1.00  0.00     0.056 C 
ATOM     20  C   UNL A   1      32.377  18.181  22.586  1.00  0.00     0.056 C 
BRANCH  18  21
ATOM     21  O   UNL A   1      31.854  17.218  24.721  1.00  0.00    -0.378 OA
ATOM     22  H   UNL A   1      31.513  16.585  24.071  1.00  0.00     0.212 HD
ENDBRANCH  18  21
ENDBRANCH  17  18
ENDBRANCH  12  16
ENDBRANCH   8  11
ENDBRANCH   6   7
BRANCH   6  23
ATOM     23  C   UNL A   1      33.489  25.278  23.541  1.00  0.00     0.045 C 
BRANCH  23  24
ATOM     24  C   UNL A   1      32.402  24.877  22.550  1.00  0.00     0.102 C 
BRANCH  24  25
ATOM     25  C   UNL A   1      32.424  25.676  21.268  1.00  0.00     0.217 C 
ATOM     26  N   UNL A   1      31.649  26.794  21.286  1.00  0.00    -0.370 N 
ATOM     27  O   UNL A   1      33.063  25.382  20.269  1.00  0.00    -0.275 OA
ATOM     28  H   UNL A   1      31.137  27.025  22.094  1.00  0.00     0.159 HD
ATOM     29  H   UNL A   1      31.602  27.372  20.491  1.00  0.00     0.159 HD
ENDBRANCH  24  25
ENDBRANCH  23  24
ENDBRANCH   6  23
ENDBRANCH   3   6
ENDBRANCH   1   2
BRANCH   1  30
ATOM     30  C   UNL A   1      32.951  29.311  27.128  1.00  0.00     0.023 C 
BRANCH  30  31
ATOM     31  C   UNL A   1      32.960  30.837  27.286  1.00  0.00     0.023 C 
BRANCH  31  32
ATOM     32  C   UNL A   1      34.308  31.418  27.684  1.00  0.00     0.116 C 
BRANCH  32  33
ATOM     33  N   UNL A   1      34.284  32.110  28.973  1.00  0.00    -0.352 N 
ATOM     34  C   UNL A   1      35.109  31.884  30.063  1.00  0.00     0.251 C 
ATOM     35  H   UNL A   1      33.605  32.816  29.077  1.00  0.00     0.163 HD
ATOM     36  O   UNL A   1      34.796  32.238  31.186  1.00  0.00    -0.269 OA
BRANCH  34  37
ATOM     37  C   UNL A   1      36.404  31.224  29.821  1.00  0.00     0.039 A 
ATOM     38  C   UNL A   1      37.588  31.944  29.658  1.00  0.00     0.014 A 
ATOM     39  C   UNL A   1      36.410  29.833  29.804  1.00  0.00     0.014 A 
ATOM     40  C   UNL A   1      38.784  31.238  29.543  1.00  0.00     0.010 A 
ATOM     41  C   UNL A   1      37.596  29.154  29.877  1.00  0.00     0.010 A 
ATOM     42  C   UNL A   1      38.780  29.838  29.669  1.00  0.00    -0.014 A 
BRANCH  42  43
ATOM     43  C   UNL A   1      40.021  29.075  29.711  1.00  0.00     0.031 A 
ATOM     44  C   UNL A   1      40.554  28.867  31.081  1.00  0.00     0.074 A 
ATOM     45  C   UNL A   1      40.552  28.442  28.642  1.00  0.00     0.049 A 
ATOM     46  N   UNL A   1      41.614  29.402  31.585  1.00  0.00    -0.248 NA
ATOM     47  C   UNL A   1      39.746  28.111  32.052  1.00  0.00     0.031 C 
ATOM     48  C   UNL A   1      40.011  28.287  27.286  1.00  0.00     0.029 A 
ATOM     49  N   UNL A   1      41.698  27.712  28.579  1.00  0.00    -0.354 N 
ATOM     50  C   UNL A   1      41.730  28.889  32.873  1.00  0.00     0.074 A 
ATOM     51  C   UNL A   1      40.472  28.249  33.164  1.00  0.00     0.031 C 
ATOM     52  C   UNL A   1      40.697  27.325  26.626  1.00  0.00     0.029 A 
ATOM     53  C   UNL A   1      41.835  26.930  27.437  1.00  0.00     0.049 A 
ATOM     54  H   UNL A   1      42.380  27.736  29.289  1.00  0.00     0.167 HD
ATOM     55  C   UNL A   1      42.941  28.836  33.490  1.00  0.00     0.037 A 
ATOM     56  C   UNL A   1      42.813  26.022  27.193  1.00  0.00     0.037 A 
ATOM     57  C   UNL A   1      43.896  29.695  32.830  1.00  0.00     0.049 A 
ATOM     58  C   UNL A   1      43.952  26.360  28.086  1.00  0.00     0.074 A 
ATOM     59  C   UNL A   1      43.939  31.046  32.537  1.00  0.00     0.029 A 
ATOM     60  N   UNL A   1      44.815  29.109  31.991  1.00  0.00    -0.354 N 
ATOM     61  N   UNL A   1      44.670  27.441  27.954  1.00  0.00    -0.248 NA
ATOM     62  C   UNL A   1      43.964  25.755  29.410  1.00  0.00     0.031 C 
ATOM     63  C   UNL A   1      44.468  31.116  31.214  1.00  0.00     0.029 A 
ATOM     64  C   UNL A   1      44.801  29.820  30.818  1.00  0.00     0.049 A 
ATOM     65  H   UNL A   1      45.378  28.327  32.194  1.00  0.00     0.167 HD
ATOM     66  C   UNL A   1      44.856  27.898  29.250  1.00  0.00     0.074 A 
ATOM     67  C   UNL A   1      44.456  26.782  30.109  1.00  0.00     0.031 C 
ATOM     68  C   UNL A   1      45.024  29.226  29.521  1.00  0.00     0.037 A 
BRANCH  55  69
ATOM     69  C   UNL A   1      43.371  27.737  34.430  1.00  0.00     0.057 A 
ATOM     70  C   UNL A   1      43.499  26.427  33.935  1.00  0.00     0.134 A 
ATOM     71  C   UNL A   1      43.366  27.849  35.835  1.00  0.00     0.134 A 
ATOM     72  F   UNL A   1      43.511  26.187  32.614  1.00  0.00    -0.206 F 
ATOM     73  C   UNL A   1      43.525  25.307  34.774  1.00  0.00     0.040 A 
ATOM     74  C   UNL A   1      43.441  26.740  36.682  1.00  0.00     0.040 A 
ATOM     75  F   UNL A   1      43.181  29.014  36.464  1.00  0.00    -0.206 F 
ATOM     76  C   UNL A   1      43.484  25.461  36.153  1.00  0.00     0.006 A 
ENDBRANCH  55  69
BRANCH  56  77
ATOM     77  C   UNL A   1      42.722  24.719  26.490  1.00  0.00     0.057 A 
ATOM     78  C   UNL A   1      43.517  24.442  25.367  1.00  0.00     0.134 A 
ATOM     79  C   UNL A   1      42.081  23.613  27.074  1.00  0.00     0.134 A 
ATOM     80  F   UNL A   1      44.201  25.421  24.758  1.00  0.00    -0.206 F 
ATOM     81  C   UNL A   1      43.692  23.139  24.876  1.00  0.00     0.040 A 
ATOM     82  C   UNL A   1      42.243  22.309  26.592  1.00  0.00     0.040 A 
ATOM     83  F   UNL A   1      41.347  23.749  28.187  1.00  0.00    -0.206 F 
ATOM     84  C   UNL A   1      43.065  22.066  25.499  1.00  0.00     0.006 A 
ENDBRANCH  56  77
BRANCH  68  85
ATOM     85  C   UNL A   1      45.226  30.174  28.368  1.00  0.00     0.057 A 
ATOM     86  C   UNL A   1      44.187  30.825  27.683  1.00  0.00     0.134 A 
ATOM     87  C   UNL A   1      46.529  30.571  28.051  1.00  0.00     0.134 A 
ATOM     88  F   UNL A   1      42.904  30.591  27.980  1.00  0.00    -0.206 F 
ATOM     89  C   UNL A   1      44.437  31.795  26.705  1.00  0.00     0.040 A 
ATOM     90  C   UNL A   1      46.793  31.562  27.102  1.00  0.00     0.040 A 
ATOM     91  F   UNL A   1      47.575  30.035  28.701  1.00  0.00    -0.206 F 
ATOM     92  C   UNL A   1      45.745  32.171  26.418  1.00  0.00     0.006 A 
ENDBRANCH  68  85
ENDBRANCH  42  43
ENDBRANCH  34  37
ENDBRANCH  32  33
ENDBRANCH  31  32
ENDBRANCH  30  31
ENDBRANCH   1  30
TORSDOF 19
ENDMDL
MODEL 2
REMARK VINA RESULT:     -11.5      2.351      6.303
REMARK SMILES CC(C)(O)C#Cc1ccc(C(=O)N[C@@H](CCC(N)=O)C(=O)NCCCCNC(=O)c2ccc(-c3c4nc(c(-c5c(F)cccc5F)c5ccc([nH]5)c(-c5c(F)cccc5F)c5nc(c(-c6c(F)cccc6F)c6ccc3[nH]6)C=C5)C=C4)cc2)s1
REMARK SMILES IDX 23 1 22 2 20 3 21 4 14 6 13 7 11 8 12 9 10 11 7 12 8 13
REMARK SMILES IDX 84 14 9 15 6 16 5 17 2 18 1 19 3 20 4 21 15 23 16 24 17 25
REMARK SMILES IDX 18 26 19 27 24 30 25 31 26 32 27 33 28 34 29 36 30 37 31 38
REMARK SMILES IDX 83 39 32 40 82 41 33 42 34 43 35 44 76 45 36 46 81 47 75 48
REMARK SMILES IDX 77 49 37 50 80 51 74 52 73 53 38 55 64 56 47 57 63 58 48 59
REMARK SMILES IDX 51 60 62 61 78 62 49 63 50 64 61 66 79 67 52 68 39 69 40 70
REMARK SMILES IDX 45 71 41 72 42 73 44 74 46 75 43 76 65 77 66 78 71 79 67 80
REMARK SMILES IDX 68 81 70 82 72 83 69 84 53 85 54 86 59 87 55 88 56 89 58 90
REMARK SMILES IDX 60 91 57 92
REMARK H PARENT 22 5 13 10 4 22 18 28 18 29 27 35 77 54 51 65
REMARK Flexibility Score: inf
ROOT
ATOM      1  C   UNL A   1      32.166  30.101  25.966  1.00  0.00     0.116 C 
ENDROOT
BRANCH   1   2
ATOM      2  N   UNL A   1      32.790  29.710  24.724  1.00  0.00    -0.354 N 
ATOM      3  C   UNL A   1      32.384  28.884  23.724  1.00  0.00     0.242 C 
ATOM      4  O   UNL A   1      33.109  28.827  22.723  1.00  0.00    -0.273 OA
ATOM      5  H   UNL A   1      33.674  30.117  24.574  1.00  0.00     0.163 HD
BRANCH   3   6
ATOM      6  C   UNL A   1      31.075  28.074  23.785  1.00  0.00     0.172 C 
BRANCH   6   7
ATOM      7  N   UNL A   1      30.766  27.570  25.139  1.00  0.00    -0.340 N 
ATOM      8  C   UNL A   1      30.970  26.332  25.708  1.00  0.00     0.262 C 
ATOM      9  O   UNL A   1      30.895  26.286  26.938  1.00  0.00    -0.268 OA
ATOM     10  H   UNL A   1      30.342  28.230  25.734  1.00  0.00     0.164 HD
BRANCH   8  11
ATOM     11  C   UNL A   1      31.338  25.185  24.911  1.00  0.00     0.093 A 
ATOM     12  C   UNL A   1      32.089  22.953  24.426  1.00  0.00     0.078 A 
ATOM     13  C   UNL A   1      31.102  23.325  23.542  1.00  0.00     0.030 A 
ATOM     14  S   UNL A   1      32.804  24.328  25.125  1.00  0.00    -0.121 S 
ATOM     15  C   UNL A   1      30.672  24.661  23.812  1.00  0.00     0.027 A 
BRANCH  12  16
ATOM     16  C   UNL A   1      32.550  21.644  24.684  1.00  0.00    -0.053 C 
ATOM     17  C   UNL A   1      32.831  20.379  24.830  1.00  0.00    -0.063 C 
BRANCH  17  18
ATOM     18  C   UNL A   1      33.160  18.904  24.999  1.00  0.00     0.120 C 
ATOM     19  C   UNL A   1      34.629  18.660  24.664  1.00  0.00     0.056 C 
ATOM     20  C   UNL A   1      32.242  18.066  24.111  1.00  0.00     0.056 C 
BRANCH  18  21
ATOM     21  O   UNL A   1      32.927  18.553  26.360  1.00  0.00    -0.378 OA
ATOM     22  H   UNL A   1      33.035  17.595  26.469  1.00  0.00     0.212 HD
ENDBRANCH  18  21
ENDBRANCH  17  18
ENDBRANCH  12  16
ENDBRANCH   8  11
ENDBRANCH   6   7
BRANCH   6  23
ATOM     23  C   UNL A   1      29.829  28.633  23.063  1.00  0.00     0.045 C 
BRANCH  23  24
ATOM     24  C   UNL A   1      29.385  30.071  23.305  1.00  0.00     0.102 C 
BRANCH  24  25
ATOM     25  C   UNL A   1      27.899  30.285  23.136  1.00  0.00     0.217 C 
ATOM     26  N   UNL A   1      27.273  29.332  22.394  1.00  0.00    -0.370 N 
ATOM     27  O   UNL A   1      27.267  31.221  23.601  1.00  0.00    -0.275 OA
ATOM     28  H   UNL A   1      27.788  28.581  22.021  1.00  0.00     0.159 HD
ATOM     29  H   UNL A   1      26.304  29.394  22.230  1.00  0.00     0.159 HD
ENDBRANCH  24  25
ENDBRANCH  23  24
ENDBRANCH   6  23
ENDBRANCH   3   6
ENDBRANCH   1   2
BRANCH   1  30
ATOM     30  C   UNL A   1      32.977  29.671  27.184  1.00  0.00     0.023 C 
BRANCH  30  31
ATOM     31  C   UNL A   1      34.172  28.757  26.885  1.00  0.00     0.023 C 
BRANCH  31  32
ATOM     32  C   UNL A   1      35.511  29.298  27.362  1.00  0.00     0.116 C 
BRANCH  32  33
ATOM     33  N   UNL A   1      35.492  29.748  28.754  1.00  0.00    -0.352 N 
ATOM     34  C   UNL A   1      36.421  29.462  29.742  1.00  0.00     0.251 C 
ATOM     35  H   UNL A   1      34.734  30.318  29.018  1.00  0.00     0.163 HD
ATOM     36  O   UNL A   1      36.149  29.569  30.925  1.00  0.00    -0.269 OA
BRANCH  34  37
ATOM     37  C   UNL A   1      37.771  29.050  29.318  1.00  0.00     0.039 A 
ATOM     38  C   UNL A   1      38.485  29.737  28.335  1.00  0.00     0.014 A 
ATOM     39  C   UNL A   1      38.334  27.963  29.977  1.00  0.00     0.014 A 
ATOM     40  C   UNL A   1      39.797  29.348  28.074  1.00  0.00     0.010 A 
ATOM     41  C   UNL A   1      39.672  27.705  29.850  1.00  0.00     0.010 A 
ATOM     42  C   UNL A   1      40.390  28.336  28.849  1.00  0.00    -0.014 A 
BRANCH  42  43
ATOM     43  C   UNL A   1      41.802  28.005  28.716  1.00  0.00     0.031 A 
ATOM     44  C   UNL A   1      42.064  26.805  27.880  1.00  0.00     0.074 A 
ATOM     45  C   UNL A   1      42.807  28.804  29.138  1.00  0.00     0.049 A 
ATOM     46  N   UNL A   1      42.490  25.658  28.289  1.00  0.00    -0.248 NA
ATOM     47  C   UNL A   1      41.661  26.822  26.464  1.00  0.00     0.031 C 
ATOM     48  C   UNL A   1      42.747  30.154  29.712  1.00  0.00     0.029 A 
ATOM     49  N   UNL A   1      44.147  28.583  29.062  1.00  0.00    -0.354 N 
ATOM     50  C   UNL A   1      42.613  24.865  27.153  1.00  0.00     0.074 A 
ATOM     51  C   UNL A   1      41.928  25.566  26.098  1.00  0.00     0.031 C 
ATOM     52  C   UNL A   1      43.979  30.712  29.699  1.00  0.00     0.029 A 
ATOM     53  C   UNL A   1      44.940  29.702  29.295  1.00  0.00     0.049 A 
ATOM     54  H   UNL A   1      44.527  27.698  28.859  1.00  0.00     0.167 HD
ATOM     55  C   UNL A   1      43.475  23.813  27.135  1.00  0.00     0.037 A 
ATOM     56  C   UNL A   1      46.288  29.780  29.154  1.00  0.00     0.037 A 
ATOM     57  C   UNL A   1      43.870  23.445  28.474  1.00  0.00     0.049 A 
ATOM     58  C   UNL A   1      46.810  28.389  29.206  1.00  0.00     0.074 A 
ATOM     59  C   UNL A   1      43.185  23.053  29.610  1.00  0.00     0.029 A 
ATOM     60  N   UNL A   1      45.107  23.854  28.915  1.00  0.00    -0.354 N 
ATOM     61  N   UNL A   1      46.782  27.652  30.282  1.00  0.00    -0.248 NA
ATOM     62  C   UNL A   1      46.896  27.661  27.948  1.00  0.00     0.031 C 
ATOM     63  C   UNL A   1      43.835  23.737  30.681  1.00  0.00     0.029 A 
ATOM     64  C   UNL A   1      44.926  24.424  30.149  1.00  0.00     0.049 A 
ATOM     65  H   UNL A   1      45.961  23.756  28.435  1.00  0.00     0.167 HD
ATOM     66  C   UNL A   1      46.399  26.396  29.836  1.00  0.00     0.074 A 
ATOM     67  C   UNL A   1      46.551  26.446  28.380  1.00  0.00     0.031 C 
ATOM     68  C   UNL A   1      45.711  25.533  30.640  1.00  0.00     0.037 A 
BRANCH  55  69
ATOM     69  C   UNL A   1      44.256  23.372  25.922  1.00  0.00     0.057 A 
ATOM     70  C   UNL A   1      44.275  22.007  25.581  1.00  0.00     0.134 A 
ATOM     71  C   UNL A   1      45.220  24.165  25.268  1.00  0.00     0.134 A 
ATOM     72  F   UNL A   1      43.410  21.146  26.140  1.00  0.00    -0.206 F 
ATOM     73  C   UNL A   1      45.238  21.460  24.727  1.00  0.00     0.040 A 
ATOM     74  C   UNL A   1      46.156  23.636  24.375  1.00  0.00     0.040 A 
ATOM     75  F   UNL A   1      45.382  25.466  25.532  1.00  0.00    -0.206 F 
ATOM     76  C   UNL A   1      46.191  22.274  24.129  1.00  0.00     0.006 A 
ENDBRANCH  55  69
BRANCH  56  77
ATOM     77  C   UNL A   1      47.112  30.914  28.669  1.00  0.00     0.057 A 
ATOM     78  C   UNL A   1      48.206  31.387  29.410  1.00  0.00     0.134 A 
ATOM     79  C   UNL A   1      47.032  31.362  27.339  1.00  0.00     0.134 A 
ATOM     80  F   UNL A   1      48.393  30.989  30.677  1.00  0.00    -0.206 F 
ATOM     81  C   UNL A   1      49.181  32.226  28.852  1.00  0.00     0.040 A 
ATOM     82  C   UNL A   1      47.996  32.203  26.771  1.00  0.00     0.040 A 
ATOM     83  F   UNL A   1      46.065  30.927  26.520  1.00  0.00    -0.206 F 
ATOM     84  C   UNL A   1      49.086  32.624  27.523  1.00  0.00     0.006 A 
ENDBRANCH  56  77
BRANCH  68  85
ATOM     85  C   UNL A   1      45.561  25.875  32.099  1.00  0.00     0.057 A 
ATOM     86  C   UNL A   1      46.554  25.669  33.070  1.00  0.00     0.134 A 
ATOM     87  C   UNL A   1      44.431  26.596  32.501  1.00  0.00     0.134 A 
ATOM     88  F   UNL A   1      47.715  25.080  32.764  1.00  0.00    -0.206 F 
ATOM     89  C   UNL A   1      46.410  26.126  34.386  1.00  0.00     0.040 A 
ATOM     90  C   UNL A   1      44.290  27.087  33.802  1.00  0.00     0.040 A 
ATOM     91  F   UNL A   1      43.462  26.882  31.618  1.00  0.00    -0.206 F 
ATOM     92  C   UNL A   1      45.277  26.844  34.753  1.00  0.00     0.006 A 
ENDBRANCH  68  85
ENDBRANCH  42  43
ENDBRANCH  34  37
ENDBRANCH  32  33
ENDBRANCH  31  32
ENDBRANCH  30  31
ENDBRANCH   1  30
TORSDOF 19
ENDMDL
MODEL 3
REMARK VINA RESULT:     -11.4      3.192      8.398
REMARK SMILES CC(C)(O)C#Cc1ccc(C(=O)N[C@@H](CCC(N)=O)C(=O)NCCCCNC(=O)c2ccc(-c3c4nc(c(-c5c(F)cccc5F)c5ccc([nH]5)c(-c5c(F)cccc5F)c5nc(c(-c6c(F)cccc6F)c6ccc3[nH]6)C=C5)C=C4)cc2)s1
REMARK SMILES IDX 23 1 22 2 20 3 21 4 14 6 13 7 11 8 12 9 10 11 7 12 8 13
REMARK SMILES IDX 84 14 9 15 6 16 5 17 2 18 1 19 3 20 4 21 15 23 16 24 17 25
REMARK SMILES IDX 18 26 19 27 24 30 25 31 26 32 27 33 28 34 29 36 30 37 31 38
REMARK SMILES IDX 83 39 32 40 82 41 33 42 34 43 35 44 76 45 36 46 81 47 75 48
REMARK SMILES IDX 77 49 37 50 80 51 74 52 73 53 38 55 64 56 47 57 63 58 48 59
REMARK SMILES IDX 51 60 62 61 78 62 49 63 50 64 61 66 79 67 52 68 39 69 40 70
REMARK SMILES IDX 45 71 41 72 42 73 44 74 46 75 43 76 65 77 66 78 71 79 67 80
REMARK SMILES IDX 68 81 70 82 72 83 69 84 53 85 54 86 59 87 55 88 56 89 58 90
REMARK SMILES IDX 60 91 57 92
REMARK H PARENT 22 5 13 10 4 22 18 28 18 29 27 35 77 54 51 65
REMARK Flexibility Score: inf
ROOT
ATOM      1  C   UNL A   1      36.719  23.220  24.870  1.00  0.00     0.116 C 
ENDROOT
BRANCH   1   2
ATOM      2  N   UNL A   1      35.683  24.008  25.498  1.00  0.00    -0.354 N 
ATOM      3  C   UNL A   1      34.327  23.934  25.443  1.00  0.00     0.242 C 
ATOM      4  O   UNL A   1      33.700  24.700  26.184  1.00  0.00    -0.273 OA
ATOM      5  H   UNL A   1      36.022  24.732  26.071  1.00  0.00     0.163 HD
BRANCH   3   6
ATOM      6  C   UNL A   1      33.578  22.934  24.542  1.00  0.00     0.172 C 
BRANCH   6   7
ATOM      7  N   UNL A   1      33.551  23.337  23.122  1.00  0.00    -0.340 N 
ATOM      8  C   UNL A   1      32.882  24.362  22.489  1.00  0.00     0.262 C 
ATOM      9  O   UNL A   1      33.281  24.648  21.358  1.00  0.00    -0.268 OA
ATOM     10  H   UNL A   1      34.104  22.780  22.527  1.00  0.00     0.164 HD
BRANCH   8  11
ATOM     11  C   UNL A   1      31.838  25.107  23.153  1.00  0.00     0.093 A 
ATOM     12  C   UNL A   1      30.323  26.924  23.586  1.00  0.00     0.078 A 
ATOM     13  C   UNL A   1      29.708  25.719  23.843  1.00  0.00     0.030 A 
ATOM     14  S   UNL A   1      32.013  26.743  23.627  1.00  0.00    -0.121 S 
ATOM     15  C   UNL A   1      30.615  24.639  23.611  1.00  0.00     0.027 A 
BRANCH  12  16
ATOM     16  C   UNL A   1      29.697  28.176  23.404  1.00  0.00    -0.053 C 
ATOM     17  C   UNL A   1      29.014  29.249  23.117  1.00  0.00    -0.063 C 
BRANCH  17  18
ATOM     18  C   UNL A   1      28.217  30.499  22.783  1.00  0.00     0.120 C 
ATOM     19  C   UNL A   1      28.116  30.659  21.268  1.00  0.00     0.056 C 
ATOM     20  C   UNL A   1      28.876  31.718  23.426  1.00  0.00     0.056 C 
BRANCH  18  21
ATOM     21  O   UNL A   1      26.908  30.347  23.324  1.00  0.00    -0.378 OA
ATOM     22  H   UNL A   1      26.964  30.268  24.289  1.00  0.00     0.212 HD
ENDBRANCH  18  21
ENDBRANCH  17  18
ENDBRANCH  12  16
ENDBRANCH   8  11
ENDBRANCH   6   7
BRANCH   6  23
ATOM     23  C   UNL A   1      33.860  21.425  24.724  1.00  0.00     0.045 C 
BRANCH  23  24
ATOM     24  C   UNL A   1      32.714  20.464  25.020  1.00  0.00     0.102 C 
BRANCH  24  25
ATOM     25  C   UNL A   1      33.159  19.034  25.223  1.00  0.00     0.217 C 
ATOM     26  N   UNL A   1      32.793  18.493  26.417  1.00  0.00    -0.370 N 
ATOM     27  O   UNL A   1      33.801  18.377  24.417  1.00  0.00    -0.275 OA
ATOM     28  H   UNL A   1      32.277  19.028  27.062  1.00  0.00     0.159 HD
ATOM     29  H   UNL A   1      33.045  17.567  26.635  1.00  0.00     0.159 HD
ENDBRANCH  24  25
ENDBRANCH  23  24
ENDBRANCH   6  23
ENDBRANCH   3   6
ENDBRANCH   1   2
BRANCH   1  30
ATOM     30  C   UNL A   1      37.248  22.122  25.786  1.00  0.00     0.023 C 
BRANCH  30  31
ATOM     31  C   UNL A   1      38.664  21.626  25.464  1.00  0.00     0.023 C 
BRANCH  31  32
ATOM     32  C   UNL A   1      39.719  22.037  26.478  1.00  0.00     0.116 C 
BRANCH  32  33
ATOM     33  N   UNL A   1      41.077  22.048  25.933  1.00  0.00    -0.352 N 
ATOM     34  C   UNL A   1      41.931  23.133  25.827  1.00  0.00     0.251 C 
ATOM     35  H   UNL A   1      41.421  21.185  25.603  1.00  0.00     0.163 HD
ATOM     36  O   UNL A   1      42.872  23.132  25.053  1.00  0.00    -0.269 OA
BRANCH  34  37
ATOM     37  C   UNL A   1      41.687  24.290  26.707  1.00  0.00     0.039 A 
ATOM     38  C   UNL A   1      42.314  24.427  27.947  1.00  0.00     0.014 A 
ATOM     39  C   UNL A   1      40.831  25.276  26.231  1.00  0.00     0.014 A 
ATOM     40  C   UNL A   1      42.113  25.603  28.666  1.00  0.00     0.010 A 
ATOM     41  C   UNL A   1      40.783  26.496  26.848  1.00  0.00     0.010 A 
ATOM     42  C   UNL A   1      41.354  26.642  28.100  1.00  0.00    -0.014 A 
BRANCH  42  43
ATOM     43  C   UNL A   1      41.246  27.944  28.746  1.00  0.00     0.031 A 
ATOM     44  C   UNL A   1      42.323  28.895  28.370  1.00  0.00     0.074 A 
ATOM     45  C   UNL A   1      40.175  28.339  29.470  1.00  0.00     0.049 A 
ATOM     46  N   UNL A   1      43.281  29.312  29.125  1.00  0.00    -0.248 NA
ATOM     47  C   UNL A   1      42.447  29.308  26.963  1.00  0.00     0.031 C 
ATOM     48  C   UNL A   1      38.898  27.652  29.698  1.00  0.00     0.029 A 
ATOM     49  N   UNL A   1      39.983  29.523  30.111  1.00  0.00    -0.354 N 
ATOM     50  C   UNL A   1      44.017  30.207  28.356  1.00  0.00     0.074 A 
ATOM     51  C   UNL A   1      43.570  30.031  26.998  1.00  0.00     0.031 C 
ATOM     52  C   UNL A   1      37.995  28.521  30.205  1.00  0.00     0.029 A 
ATOM     53  C   UNL A   1      38.673  29.767  30.513  1.00  0.00     0.049 A 
ATOM     54  H   UNL A   1      40.714  30.160  30.277  1.00  0.00     0.167 HD
ATOM     55  C   UNL A   1      44.761  31.180  28.949  1.00  0.00     0.037 A 
ATOM     56  C   UNL A   1      38.195  30.918  31.051  1.00  0.00     0.037 A 
ATOM     57  C   UNL A   1      44.973  30.888  30.347  1.00  0.00     0.049 A 
ATOM     58  C   UNL A   1      39.363  31.661  31.592  1.00  0.00     0.074 A 
ATOM     59  C   UNL A   1      45.536  29.831  31.038  1.00  0.00     0.029 A 
ATOM     60  N   UNL A   1      44.204  31.560  31.268  1.00  0.00    -0.354 N 
ATOM     61  N   UNL A   1      40.058  31.256  32.619  1.00  0.00    -0.248 NA
ATOM     62  C   UNL A   1      40.048  32.575  30.690  1.00  0.00     0.031 C 
ATOM     63  C   UNL A   1      44.673  29.626  32.156  1.00  0.00     0.029 A 
ATOM     64  C   UNL A   1      43.697  30.621  32.130  1.00  0.00     0.049 A 
ATOM     65  H   UNL A   1      44.047  32.532  31.302  1.00  0.00     0.167 HD
ATOM     66  C   UNL A   1      41.378  31.492  32.263  1.00  0.00     0.074 A 
ATOM     67  C   UNL A   1      41.305  32.369  31.092  1.00  0.00     0.031 C 
ATOM     68  C   UNL A   1      42.396  30.725  32.750  1.00  0.00     0.037 A 
BRANCH  55  69
ATOM     69  C   UNL A   1      44.963  32.563  28.382  1.00  0.00     0.057 A 
ATOM     70  C   UNL A   1      43.853  33.418  28.256  1.00  0.00     0.134 A 
ATOM     71  C   UNL A   1      46.115  32.972  27.681  1.00  0.00     0.134 A 
ATOM     72  F   UNL A   1      42.693  33.136  28.871  1.00  0.00    -0.206 F 
ATOM     73  C   UNL A   1      43.862  34.543  27.424  1.00  0.00     0.040 A 
ATOM     74  C   UNL A   1      46.150  34.121  26.887  1.00  0.00     0.040 A 
ATOM     75  F   UNL A   1      47.231  32.237  27.639  1.00  0.00    -0.206 F 
ATOM     76  C   UNL A   1      45.011  34.892  26.726  1.00  0.00     0.006 A 
ENDBRANCH  55  69
BRANCH  56  77
ATOM     77  C   UNL A   1      36.873  31.560  30.856  1.00  0.00     0.057 A 
ATOM     78  C   UNL A   1      36.013  31.798  31.939  1.00  0.00     0.134 A 
ATOM     79  C   UNL A   1      36.548  32.222  29.660  1.00  0.00     0.134 A 
ATOM     80  F   UNL A   1      36.256  31.243  33.136  1.00  0.00    -0.206 F 
ATOM     81  C   UNL A   1      34.918  32.670  31.849  1.00  0.00     0.040 A 
ATOM     82  C   UNL A   1      35.456  33.091  29.554  1.00  0.00     0.040 A 
ATOM     83  F   UNL A   1      37.332  32.118  28.578  1.00  0.00    -0.206 F 
ATOM     84  C   UNL A   1      34.646  33.332  30.657  1.00  0.00     0.006 A 
ENDBRANCH  56  77
BRANCH  68  85
ATOM     85  C   UNL A   1      42.094  29.750  33.857  1.00  0.00     0.057 A 
ATOM     86  C   UNL A   1      41.716  28.412  33.657  1.00  0.00     0.134 A 
ATOM     87  C   UNL A   1      42.361  30.134  35.176  1.00  0.00     0.134 A 
ATOM     88  F   UNL A   1      41.534  27.917  32.428  1.00  0.00    -0.206 F 
ATOM     89  C   UNL A   1      41.574  27.514  34.722  1.00  0.00     0.040 A 
ATOM     90  C   UNL A   1      42.257  29.240  36.244  1.00  0.00     0.040 A 
ATOM     91  F   UNL A   1      42.780  31.380  35.444  1.00  0.00    -0.206 F 
ATOM     92  C   UNL A   1      41.852  27.927  36.021  1.00  0.00     0.006 A 
ENDBRANCH  68  85
ENDBRANCH  42  43
ENDBRANCH  34  37
ENDBRANCH  32  33
ENDBRANCH  31  32
ENDBRANCH  30  31
ENDBRANCH   1  30
TORSDOF 19
ENDMDL
