MODEL 1
REMARK VINA RESULT:     -11.2      0.000      0.000
REMARK SMILES Cc1ccc(OCCNc2ccc(Cl)cc2C(=O)NCCCCNC(=O)c2ccc(-c3c4nc(c(-c5c(F)cccc5F)c5ccc([nH]5)c(-c5c(F)cccc5F)c5nc(c(-c6c(F)cccc6F)c6ccc3[nH]6)C=C5)C=C4)cc2)cc1C
REMARK SMILES IDX 20 1 19 2 17 3 18 4 16 6 10 7 11 8 12 9 15 10 13 11 14 12
REMARK SMILES IDX 9 13 8 15 7 16 6 17 5 18 1 19 2 20 3 21 82 22 4 23 81 24
REMARK SMILES IDX 83 25 21 26 22 27 23 28 24 29 25 30 26 32 27 33 28 34 80 35
REMARK SMILES IDX 29 36 79 37 30 38 31 39 32 40 73 41 33 42 78 43 72 44 74 45
REMARK SMILES IDX 34 46 77 47 71 48 70 49 35 51 61 52 44 53 60 54 45 55 48 56
REMARK SMILES IDX 59 57 75 58 46 59 47 60 58 62 76 63 49 64 36 65 37 66 42 67
REMARK SMILES IDX 38 68 39 69 41 70 43 71 40 72 62 73 63 74 68 75 64 76 65 77
REMARK SMILES IDX 67 78 69 79 66 80 50 81 51 82 56 83 52 84 53 85 55 86 57 87
REMARK SMILES IDX 54 88
REMARK H PARENT 19 5 9 14 24 31 74 50 48 61
REMARK Flexibility Score: inf
ROOT
ATOM      1  C   UNL A   1      36.851  23.279  24.675  1.00  0.00     0.116 C 
ENDROOT
BRANCH   1   2
ATOM      2  N   UNL A   1      35.984  23.335  25.830  1.00  0.00    -0.352 N 
ATOM      3  C   UNL A   1      34.621  23.568  25.883  1.00  0.00     0.253 C 
ATOM      4  O   UNL A   1      34.082  23.588  26.991  1.00  0.00    -0.269 OA
ATOM      5  H   UNL A   1      36.424  23.188  26.698  1.00  0.00     0.163 HD
BRANCH   3   6
ATOM      6  C   UNL A   1      33.787  23.876  24.679  1.00  0.00     0.064 A 
ATOM      7  C   UNL A   1      32.675  23.121  24.221  1.00  0.00     0.047 A 
ATOM      8  C   UNL A   1      31.985  23.577  23.085  1.00  0.00     0.028 A 
ATOM      9  C   UNL A   1      32.321  24.785  22.467  1.00  0.00     0.022 A 
ATOM     10  C   UNL A   1      34.094  25.107  24.068  1.00  0.00     0.036 A 
ATOM     11  C   UNL A   1      33.352  25.560  22.983  1.00  0.00     0.041 A 
ATOM     12  Cl  UNL A   1      33.679  27.107  22.305  1.00  0.00    -0.084 Cl
BRANCH   7  13
ATOM     13  N   UNL A   1      32.057  22.175  25.024  1.00  0.00    -0.381 N 
ATOM     14  H   UNL A   1      32.554  21.339  25.181  1.00  0.00     0.160 HD
BRANCH  13  15
ATOM     15  C   UNL A   1      30.751  22.284  25.660  1.00  0.00     0.154 C 
BRANCH  15  16
ATOM     16  C   UNL A   1      30.806  23.306  26.826  1.00  0.00     0.250 C 
BRANCH  16  17
ATOM     17  O   UNL A   1      29.953  24.450  26.673  1.00  0.00    -0.492 OA
BRANCH  17  18
ATOM     18  C   UNL A   1      30.452  25.540  26.009  1.00  0.00     0.119 A 
ATOM     19  C   UNL A   1      31.720  29.359  24.409  1.00  0.00     0.044 C 
ATOM     20  C   UNL A   1      31.362  28.005  24.949  1.00  0.00    -0.048 A 
ATOM     21  C   UNL A   1      30.299  27.328  24.365  1.00  0.00     0.007 A 
ATOM     22  C   UNL A   1      32.063  27.377  25.997  1.00  0.00    -0.045 A 
ATOM     23  C   UNL A   1      29.891  26.101  24.873  1.00  0.00     0.047 A 
ATOM     24  C   UNL A   1      31.567  26.173  26.550  1.00  0.00     0.050 A 
ATOM     25  C   UNL A   1      33.373  27.928  26.483  1.00  0.00     0.045 C 
ENDBRANCH  17  18
ENDBRANCH  16  17
ENDBRANCH  15  16
ENDBRANCH  13  15
ENDBRANCH   7  13
ENDBRANCH   3   6
ENDBRANCH   1   2
BRANCH   1  26
ATOM     26  C   UNL A   1      37.200  21.882  24.135  1.00  0.00     0.023 C 
BRANCH  26  27
ATOM     27  C   UNL A   1      37.674  20.743  25.053  1.00  0.00     0.023 C 
BRANCH  27  28
ATOM     28  C   UNL A   1      38.994  20.820  25.829  1.00  0.00     0.116 C 
BRANCH  28  29
ATOM     29  N   UNL A   1      39.938  19.734  25.624  1.00  0.00    -0.352 N 
ATOM     30  C   UNL A   1      41.242  19.585  26.053  1.00  0.00     0.251 C 
ATOM     31  H   UNL A   1      39.592  18.982  25.090  1.00  0.00     0.163 HD
ATOM     32  O   UNL A   1      41.797  18.498  25.887  1.00  0.00    -0.269 OA
BRANCH  30  33
ATOM     33  C   UNL A   1      42.033  20.719  26.608  1.00  0.00     0.039 A 
ATOM     34  C   UNL A   1      42.723  21.534  25.698  1.00  0.00     0.014 A 
ATOM     35  C   UNL A   1      42.093  21.022  27.969  1.00  0.00     0.014 A 
ATOM     36  C   UNL A   1      43.336  22.718  26.129  1.00  0.00     0.010 A 
ATOM     37  C   UNL A   1      42.672  22.226  28.397  1.00  0.00     0.010 A 
ATOM     38  C   UNL A   1      43.245  23.114  27.473  1.00  0.00    -0.014 A 
BRANCH  38  39
ATOM     39  C   UNL A   1      43.551  24.519  27.870  1.00  0.00     0.031 A 
ATOM     40  C   UNL A   1      42.482  25.536  28.139  1.00  0.00     0.074 A 
ATOM     41  C   UNL A   1      44.846  24.901  27.902  1.00  0.00     0.049 A 
ATOM     42  N   UNL A   1      42.612  26.804  28.449  1.00  0.00    -0.248 NA
ATOM     43  C   UNL A   1      41.090  25.084  28.032  1.00  0.00     0.031 C 
ATOM     44  C   UNL A   1      45.987  24.033  27.605  1.00  0.00     0.029 A 
ATOM     45  N   UNL A   1      45.420  26.117  28.182  1.00  0.00    -0.354 N 
ATOM     46  C   UNL A   1      41.323  27.305  28.570  1.00  0.00     0.074 A 
ATOM     47  C   UNL A   1      40.424  26.208  28.268  1.00  0.00     0.031 C 
ATOM     48  C   UNL A   1      47.123  24.737  27.733  1.00  0.00     0.029 A 
ATOM     49  C   UNL A   1      46.792  26.113  28.087  1.00  0.00     0.049 A 
ATOM     50  H   UNL A   1      44.900  26.916  28.427  1.00  0.00     0.167 HD
ATOM     51  C   UNL A   1      40.926  28.556  28.910  1.00  0.00     0.037 A 
ATOM     52  C   UNL A   1      47.691  27.100  28.257  1.00  0.00     0.037 A 
ATOM     53  C   UNL A   1      41.816  29.650  29.218  1.00  0.00     0.049 A 
ATOM     54  C   UNL A   1      47.224  28.477  28.627  1.00  0.00     0.074 A 
ATOM     55  C   UNL A   1      41.494  30.929  29.646  1.00  0.00     0.029 A 
ATOM     56  N   UNL A   1      43.198  29.603  29.121  1.00  0.00    -0.354 N 
ATOM     57  N   UNL A   1      46.003  28.910  28.820  1.00  0.00    -0.248 NA
ATOM     58  C   UNL A   1      48.262  29.504  28.805  1.00  0.00     0.031 C 
ATOM     59  C   UNL A   1      42.678  31.666  29.767  1.00  0.00     0.029 A 
ATOM     60  C   UNL A   1      43.740  30.836  29.454  1.00  0.00     0.049 A 
ATOM     61  H   UNL A   1      43.718  28.810  28.856  1.00  0.00     0.167 HD
ATOM     62  C   UNL A   1      46.125  30.250  29.162  1.00  0.00     0.074 A 
ATOM     63  C   UNL A   1      47.540  30.557  29.162  1.00  0.00     0.031 C 
ATOM     64  C   UNL A   1      45.148  31.142  29.451  1.00  0.00     0.037 A 
BRANCH  51  65
ATOM     65  C   UNL A   1      39.451  28.822  28.976  1.00  0.00     0.057 A 
ATOM     66  C   UNL A   1      38.725  28.653  30.161  1.00  0.00     0.134 A 
ATOM     67  C   UNL A   1      38.760  29.318  27.861  1.00  0.00     0.134 A 
ATOM     68  F   UNL A   1      39.328  28.182  31.264  1.00  0.00    -0.206 F 
ATOM     69  C   UNL A   1      37.362  28.944  30.232  1.00  0.00     0.040 A 
ATOM     70  C   UNL A   1      37.402  29.633  27.926  1.00  0.00     0.040 A 
ATOM     71  F   UNL A   1      39.398  29.517  26.698  1.00  0.00    -0.206 F 
ATOM     72  C   UNL A   1      36.698  29.443  29.112  1.00  0.00     0.006 A 
ENDBRANCH  51  65
BRANCH  52  73
ATOM     73  C   UNL A   1      49.137  26.813  28.101  1.00  0.00     0.057 A 
ATOM     74  C   UNL A   1      49.771  26.975  26.865  1.00  0.00     0.134 A 
ATOM     75  C   UNL A   1      49.917  26.378  29.179  1.00  0.00     0.134 A 
ATOM     76  F   UNL A   1      49.069  27.371  25.793  1.00  0.00    -0.206 F 
ATOM     77  C   UNL A   1      51.130  26.704  26.702  1.00  0.00     0.040 A 
ATOM     78  C   UNL A   1      51.281  26.124  29.035  1.00  0.00     0.040 A 
ATOM     79  F   UNL A   1      49.365  26.211  30.390  1.00  0.00    -0.206 F 
ATOM     80  C   UNL A   1      51.890  26.282  27.791  1.00  0.00     0.006 A 
ENDBRANCH  52  73
BRANCH  64  81
ATOM     81  C   UNL A   1      45.576  32.533  29.811  1.00  0.00     0.057 A 
ATOM     82  C   UNL A   1      45.691  33.542  28.847  1.00  0.00     0.134 A 
ATOM     83  C   UNL A   1      45.852  32.875  31.141  1.00  0.00     0.134 A 
ATOM     84  F   UNL A   1      45.457  33.275  27.553  1.00  0.00    -0.206 F 
ATOM     85  C   UNL A   1      46.082  34.837  29.189  1.00  0.00     0.040 A 
ATOM     86  C   UNL A   1      46.223  34.172  31.499  1.00  0.00     0.040 A 
ATOM     87  F   UNL A   1      45.758  31.957  32.114  1.00  0.00    -0.206 F 
ATOM     88  C   UNL A   1      46.343  35.156  30.520  1.00  0.00     0.006 A 
ENDBRANCH  64  81
ENDBRANCH  38  39
ENDBRANCH  30  33
ENDBRANCH  28  29
ENDBRANCH  27  28
ENDBRANCH  26  27
ENDBRANCH   1  26
TORSDOF 16
ENDMDL
MODEL 2
REMARK VINA RESULT:     -11.2      4.677      8.668
REMARK SMILES Cc1ccc(OCCNc2ccc(Cl)cc2C(=O)NCCCCNC(=O)c2ccc(-c3c4nc(c(-c5c(F)cccc5F)c5ccc([nH]5)c(-c5c(F)cccc5F)c5nc(c(-c6c(F)cccc6F)c6ccc3[nH]6)C=C5)C=C4)cc2)cc1C
REMARK SMILES IDX 20 1 19 2 17 3 18 4 16 6 10 7 11 8 12 9 15 10 13 11 14 12
REMARK SMILES IDX 9 13 8 15 7 16 6 17 5 18 1 19 2 20 3 21 82 22 4 23 81 24
REMARK SMILES IDX 83 25 21 26 22 27 23 28 24 29 25 30 26 32 27 33 28 34 80 35
REMARK SMILES IDX 29 36 79 37 30 38 31 39 32 40 73 41 33 42 78 43 72 44 74 45
REMARK SMILES IDX 34 46 77 47 71 48 70 49 35 51 61 52 44 53 60 54 45 55 48 56
REMARK SMILES IDX 59 57 75 58 46 59 47 60 58 62 76 63 49 64 36 65 37 66 42 67
REMARK SMILES IDX 38 68 39 69 41 70 43 71 40 72 62 73 63 74 68 75 64 76 65 77
REMARK SMILES IDX 67 78 69 79 66 80 50 81 51 82 56 83 52 84 53 85 55 86 57 87
REMARK SMILES IDX 54 88
REMARK H PARENT 19 5 9 14 24 31 74 50 48 61
REMARK Flexibility Score: inf
ROOT
ATOM      1  C   UNL A   1      32.032  29.362  27.218  1.00  0.00     0.116 C 
ENDROOT
BRANCH   1   2
ATOM      2  N   UNL A   1      33.248  28.644  26.917  1.00  0.00    -0.352 N 
ATOM      3  C   UNL A   1      33.405  27.432  26.268  1.00  0.00     0.253 C 
ATOM      4  O   UNL A   1      34.548  26.993  26.133  1.00  0.00    -0.269 OA
ATOM      5  H   UNL A   1      34.081  29.076  27.214  1.00  0.00     0.163 HD
BRANCH   3   6
ATOM      6  C   UNL A   1      32.259  26.591  25.798  1.00  0.00     0.064 A 
ATOM      7  C   UNL A   1      31.419  26.874  24.688  1.00  0.00     0.047 A 
ATOM      8  C   UNL A   1      30.406  25.953  24.370  1.00  0.00     0.028 A 
ATOM      9  C   UNL A   1      30.275  24.748  25.066  1.00  0.00     0.022 A 
ATOM     10  C   UNL A   1      32.137  25.359  26.469  1.00  0.00     0.036 A 
ATOM     11  C   UNL A   1      31.164  24.443  26.090  1.00  0.00     0.041 A 
ATOM     12  Cl  UNL A   1      31.087  22.904  26.857  1.00  0.00    -0.084 Cl
BRANCH   7  13
ATOM     13  N   UNL A   1      31.766  27.818  23.734  1.00  0.00    -0.381 N 
ATOM     14  H   UNL A   1      31.788  28.757  24.031  1.00  0.00     0.160 HD
BRANCH  13  15
ATOM     15  C   UNL A   1      32.103  27.570  22.339  1.00  0.00     0.154 C 
BRANCH  15  16
ATOM     16  C   UNL A   1      33.543  27.003  22.228  1.00  0.00     0.250 C 
BRANCH  16  17
ATOM     17  O   UNL A   1      33.633  25.670  21.702  1.00  0.00    -0.492 OA
BRANCH  17  18
ATOM     18  C   UNL A   1      33.540  24.624  22.582  1.00  0.00     0.119 A 
ATOM     19  C   UNL A   1      33.803  21.064  25.034  1.00  0.00     0.044 C 
ATOM     20  C   UNL A   1      33.698  22.345  24.258  1.00  0.00    -0.048 A 
ATOM     21  C   UNL A   1      32.747  22.422  23.248  1.00  0.00     0.007 A 
ATOM     22  C   UNL A   1      34.494  23.477  24.517  1.00  0.00    -0.045 A 
ATOM     23  C   UNL A   1      32.657  23.564  22.461  1.00  0.00     0.047 A 
ATOM     24  C   UNL A   1      34.442  24.587  23.641  1.00  0.00     0.050 A 
ATOM     25  C   UNL A   1      35.341  23.553  25.755  1.00  0.00     0.045 C 
ENDBRANCH  17  18
ENDBRANCH  16  17
ENDBRANCH  15  16
ENDBRANCH  13  15
ENDBRANCH   7  13
ENDBRANCH   3   6
ENDBRANCH   1   2
BRANCH   1  26
ATOM     26  C   UNL A   1      31.674  30.542  26.298  1.00  0.00     0.023 C 
BRANCH  26  27
ATOM     27  C   UNL A   1      31.296  31.926  26.851  1.00  0.00     0.023 C 
BRANCH  27  28
ATOM     28  C   UNL A   1      32.123  33.180  26.541  1.00  0.00     0.116 C 
BRANCH  28  29
ATOM     29  N   UNL A   1      32.217  34.178  27.592  1.00  0.00    -0.352 N 
ATOM     30  C   UNL A   1      33.242  34.462  28.472  1.00  0.00     0.251 C 
ATOM     31  H   UNL A   1      31.417  34.744  27.695  1.00  0.00     0.163 HD
ATOM     32  O   UNL A   1      33.153  35.467  29.178  1.00  0.00    -0.269 OA
BRANCH  30  33
ATOM     33  C   UNL A   1      34.397  33.542  28.674  1.00  0.00     0.039 A 
ATOM     34  C   UNL A   1      35.681  34.107  28.681  1.00  0.00     0.014 A 
ATOM     35  C   UNL A   1      34.259  32.169  28.887  1.00  0.00     0.014 A 
ATOM     36  C   UNL A   1      36.793  33.336  29.045  1.00  0.00     0.010 A 
ATOM     37  C   UNL A   1      35.365  31.406  29.288  1.00  0.00     0.010 A 
ATOM     38  C   UNL A   1      36.631  31.995  29.430  1.00  0.00    -0.014 A 
BRANCH  38  39
ATOM     39  C   UNL A   1      37.714  31.283  30.166  1.00  0.00     0.031 A 
ATOM     40  C   UNL A   1      38.042  31.570  31.602  1.00  0.00     0.074 A 
ATOM     41  C   UNL A   1      38.481  30.410  29.479  1.00  0.00     0.049 A 
ATOM     42  N   UNL A   1      38.990  31.055  32.349  1.00  0.00    -0.248 NA
ATOM     43  C   UNL A   1      37.216  32.572  32.286  1.00  0.00     0.031 C 
ATOM     44  C   UNL A   1      38.315  30.078  28.062  1.00  0.00     0.029 A 
ATOM     45  N   UNL A   1      39.559  29.655  29.870  1.00  0.00    -0.354 N 
ATOM     46  C   UNL A   1      38.880  31.670  33.588  1.00  0.00     0.074 A 
ATOM     47  C   UNL A   1      37.791  32.622  33.482  1.00  0.00     0.031 C 
ATOM     48  C   UNL A   1      39.244  29.178  27.707  1.00  0.00     0.029 A 
ATOM     49  C   UNL A   1      40.093  28.892  28.859  1.00  0.00     0.049 A 
ATOM     50  H   UNL A   1      39.916  29.658  30.787  1.00  0.00     0.167 HD
ATOM     51  C   UNL A   1      39.610  31.455  34.711  1.00  0.00     0.037 A 
ATOM     52  C   UNL A   1      41.151  28.059  28.846  1.00  0.00     0.037 A 
ATOM     53  C   UNL A   1      40.690  30.504  34.824  1.00  0.00     0.049 A 
ATOM     54  C   UNL A   1      41.945  27.845  30.100  1.00  0.00     0.074 A 
ATOM     55  C   UNL A   1      41.430  30.171  35.949  1.00  0.00     0.029 A 
ATOM     56  N   UNL A   1      41.193  29.743  33.780  1.00  0.00    -0.354 N 
ATOM     57  N   UNL A   1      41.772  28.372  31.286  1.00  0.00    -0.248 NA
ATOM     58  C   UNL A   1      43.082  26.915  30.014  1.00  0.00     0.031 C 
ATOM     59  C   UNL A   1      42.408  29.240  35.575  1.00  0.00     0.029 A 
ATOM     60  C   UNL A   1      42.251  28.964  34.227  1.00  0.00     0.049 A 
ATOM     61  H   UNL A   1      40.850  29.755  32.859  1.00  0.00     0.167 HD
ATOM     62  C   UNL A   1      42.762  27.826  32.092  1.00  0.00     0.074 A 
ATOM     63  C   UNL A   1      43.524  26.915  31.264  1.00  0.00     0.031 C 
ATOM     64  C   UNL A   1      43.011  28.060  33.403  1.00  0.00     0.037 A 
BRANCH  51  65
ATOM     65  C   UNL A   1      39.266  32.263  35.928  1.00  0.00     0.057 A 
ATOM     66  C   UNL A   1      39.815  33.532  36.146  1.00  0.00     0.134 A 
ATOM     67  C   UNL A   1      38.325  31.798  36.856  1.00  0.00     0.134 A 
ATOM     68  F   UNL A   1      40.722  34.035  35.294  1.00  0.00    -0.206 F 
ATOM     69  C   UNL A   1      39.459  34.301  37.256  1.00  0.00     0.040 A 
ATOM     70  C   UNL A   1      37.945  32.567  37.958  1.00  0.00     0.040 A 
ATOM     71  F   UNL A   1      37.749  30.596  36.700  1.00  0.00    -0.206 F 
ATOM     72  C   UNL A   1      38.516  33.821  38.162  1.00  0.00     0.006 A 
ENDBRANCH  51  65
BRANCH  52  73
ATOM     73  C   UNL A   1      41.507  27.343  27.598  1.00  0.00     0.057 A 
ATOM     74  C   UNL A   1      41.042  26.046  27.357  1.00  0.00     0.134 A 
ATOM     75  C   UNL A   1      42.310  27.937  26.616  1.00  0.00     0.134 A 
ATOM     76  F   UNL A   1      40.285  25.421  28.270  1.00  0.00    -0.206 F 
ATOM     77  C   UNL A   1      41.373  25.357  26.190  1.00  0.00     0.040 A 
ATOM     78  C   UNL A   1      42.631  27.268  25.435  1.00  0.00     0.040 A 
ATOM     79  F   UNL A   1      42.779  29.181  26.788  1.00  0.00    -0.206 F 
ATOM     80  C   UNL A   1      42.166  25.971  25.222  1.00  0.00     0.006 A 
ENDBRANCH  52  73
BRANCH  64  81
ATOM     81  C   UNL A   1      44.144  27.305  34.030  1.00  0.00     0.057 A 
ATOM     82  C   UNL A   1      43.963  26.036  34.593  1.00  0.00     0.134 A 
ATOM     83  C   UNL A   1      45.438  27.842  34.048  1.00  0.00     0.134 A 
ATOM     84  F   UNL A   1      42.745  25.474  34.623  1.00  0.00    -0.206 F 
ATOM     85  C   UNL A   1      45.023  25.335  35.169  1.00  0.00     0.040 A 
ATOM     86  C   UNL A   1      46.511  27.141  34.601  1.00  0.00     0.040 A 
ATOM     87  F   UNL A   1      45.681  29.051  33.523  1.00  0.00    -0.206 F 
ATOM     88  C   UNL A   1      46.304  25.885  35.167  1.00  0.00     0.006 A 
ENDBRANCH  64  81
ENDBRANCH  38  39
ENDBRANCH  30  33
ENDBRANCH  28  29
ENDBRANCH  27  28
ENDBRANCH  26  27
ENDBRANCH   1  26
TORSDOF 16
ENDMDL
MODEL 3
REMARK VINA RESULT:     -11.1      4.984      9.540
REMARK SMILES Cc1ccc(OCCNc2ccc(Cl)cc2C(=O)NCCCCNC(=O)c2ccc(-c3c4nc(c(-c5c(F)cccc5F)c5ccc([nH]5)c(-c5c(F)cccc5F)c5nc(c(-c6c(F)cccc6F)c6ccc3[nH]6)C=C5)C=C4)cc2)cc1C
REMARK SMILES IDX 20 1 19 2 17 3 18 4 16 6 10 7 11 8 12 9 15 10 13 11 14 12
REMARK SMILES IDX 9 13 8 15 7 16 6 17 5 18 1 19 2 20 3 21 82 22 4 23 81 24
REMARK SMILES IDX 83 25 21 26 22 27 23 28 24 29 25 30 26 32 27 33 28 34 80 35
REMARK SMILES IDX 29 36 79 37 30 38 31 39 32 40 73 41 33 42 78 43 72 44 74 45
REMARK SMILES IDX 34 46 77 47 71 48 70 49 35 51 61 52 44 53 60 54 45 55 48 56
REMARK SMILES IDX 59 57 75 58 46 59 47 60 58 62 76 63 49 64 36 65 37 66 42 67
REMARK SMILES IDX 38 68 39 69 41 70 43 71 40 72 62 73 63 74 68 75 64 76 65 77
REMARK SMILES IDX 67 78 69 79 66 80 50 81 51 82 56 83 52 84 53 85 55 86 57 87
REMARK SMILES IDX 54 88
REMARK H PARENT 19 5 9 14 24 31 74 50 48 61
REMARK Flexibility Score: inf
ROOT
ATOM      1  C   UNL A   1      33.226  28.453  27.253  1.00  0.00     0.116 C 
ENDROOT
BRANCH   1   2
ATOM      2  N   UNL A   1      33.872  28.263  25.975  1.00  0.00    -0.352 N 
ATOM      3  C   UNL A   1      33.601  27.325  24.994  1.00  0.00     0.253 C 
ATOM      4  O   UNL A   1      34.298  27.335  23.978  1.00  0.00    -0.269 OA
ATOM      5  H   UNL A   1      34.608  28.885  25.776  1.00  0.00     0.163 HD
BRANCH   3   6
ATOM      6  C   UNL A   1      32.565  26.254  25.137  1.00  0.00     0.064 A 
ATOM      7  C   UNL A   1      31.426  26.082  24.308  1.00  0.00     0.047 A 
ATOM      8  C   UNL A   1      30.571  24.997  24.570  1.00  0.00     0.028 A 
ATOM      9  C   UNL A   1      30.872  24.058  25.561  1.00  0.00     0.022 A 
ATOM     10  C   UNL A   1      32.874  25.284  26.110  1.00  0.00     0.036 A 
ATOM     11  C   UNL A   1      32.040  24.189  26.303  1.00  0.00     0.041 A 
ATOM     12  Cl  UNL A   1      32.477  22.964  27.429  1.00  0.00    -0.084 Cl
BRANCH   7  13
ATOM     13  N   UNL A   1      31.315  26.719  23.082  1.00  0.00    -0.381 N 
ATOM     14  H   UNL A   1      31.164  27.692  23.103  1.00  0.00     0.160 HD
BRANCH  13  15
ATOM     15  C   UNL A   1      31.397  26.103  21.764  1.00  0.00     0.154 C 
BRANCH  15  16
ATOM     16  C   UNL A   1      32.875  25.798  21.406  1.00  0.00     0.250 C 
BRANCH  16  17
ATOM     17  O   UNL A   1      33.176  24.410  21.194  1.00  0.00    -0.492 OA
BRANCH  17  18
ATOM     18  C   UNL A   1      33.398  23.626  22.296  1.00  0.00     0.119 A 
ATOM     19  C   UNL A   1      34.587  20.837  25.388  1.00  0.00     0.044 C 
ATOM     20  C   UNL A   1      34.174  21.867  24.377  1.00  0.00    -0.048 A 
ATOM     21  C   UNL A   1      33.011  21.643  23.652  1.00  0.00     0.007 A 
ATOM     22  C   UNL A   1      34.890  23.058  24.145  1.00  0.00    -0.045 A 
ATOM     23  C   UNL A   1      32.624  22.537  22.661  1.00  0.00     0.047 A 
ATOM     24  C   UNL A   1      34.522  23.899  23.069  1.00  0.00     0.050 A 
ATOM     25  C   UNL A   1      35.991  23.485  25.073  1.00  0.00     0.045 C 
ENDBRANCH  17  18
ENDBRANCH  16  17
ENDBRANCH  15  16
ENDBRANCH  13  15
ENDBRANCH   7  13
ENDBRANCH   3   6
ENDBRANCH   1   2
BRANCH   1  26
ATOM     26  C   UNL A   1      31.978  29.351  27.274  1.00  0.00     0.023 C 
BRANCH  26  27
ATOM     27  C   UNL A   1      32.008  30.808  26.782  1.00  0.00     0.023 C 
BRANCH  27  28
ATOM     28  C   UNL A   1      33.048  31.815  27.286  1.00  0.00     0.116 C 
BRANCH  28  29
ATOM     29  N   UNL A   1      32.559  33.135  27.648  1.00  0.00    -0.352 N 
ATOM     30  C   UNL A   1      33.165  34.152  28.358  1.00  0.00     0.251 C 
ATOM     31  H   UNL A   1      31.646  33.335  27.338  1.00  0.00     0.163 HD
ATOM     32  O   UNL A   1      32.608  35.250  28.405  1.00  0.00    -0.269 OA
BRANCH  30  33
ATOM     33  C   UNL A   1      34.405  33.941  29.155  1.00  0.00     0.039 A 
ATOM     34  C   UNL A   1      34.268  33.367  30.428  1.00  0.00     0.014 A 
ATOM     35  C   UNL A   1      35.683  34.253  28.687  1.00  0.00     0.014 A 
ATOM     36  C   UNL A   1      35.399  32.973  31.154  1.00  0.00     0.010 A 
ATOM     37  C   UNL A   1      36.816  33.825  29.395  1.00  0.00     0.010 A 
ATOM     38  C   UNL A   1      36.683  33.127  30.606  1.00  0.00    -0.014 A 
BRANCH  38  39
ATOM     39  C   UNL A   1      37.844  32.388  31.180  1.00  0.00     0.031 A 
ATOM     40  C   UNL A   1      38.514  31.251  30.466  1.00  0.00     0.074 A 
ATOM     41  C   UNL A   1      38.245  32.708  32.429  1.00  0.00     0.049 A 
ATOM     42  N   UNL A   1      39.505  30.494  30.873  1.00  0.00    -0.248 NA
ATOM     43  C   UNL A   1      38.000  30.904  29.136  1.00  0.00     0.031 C 
ATOM     44  C   UNL A   1      37.647  33.752  33.263  1.00  0.00     0.029 A 
ATOM     45  N   UNL A   1      39.236  32.181  33.220  1.00  0.00    -0.354 N 
ATOM     46  C   UNL A   1      39.733  29.579  29.855  1.00  0.00     0.074 A 
ATOM     47  C   UNL A   1      38.753  29.857  28.822  1.00  0.00     0.031 C 
ATOM     48  C   UNL A   1      38.290  33.800  34.440  1.00  0.00     0.029 A 
ATOM     49  C   UNL A   1      39.323  32.770  34.459  1.00  0.00     0.049 A 
ATOM     50  H   UNL A   1      39.829  31.451  32.929  1.00  0.00     0.167 HD
ATOM     51  C   UNL A   1      40.676  28.607  29.781  1.00  0.00     0.037 A 
ATOM     52  C   UNL A   1      40.134  32.514  35.503  1.00  0.00     0.037 A 
ATOM     53  C   UNL A   1      41.658  28.330  30.802  1.00  0.00     0.049 A 
ATOM     54  C   UNL A   1      41.164  31.428  35.398  1.00  0.00     0.074 A 
ATOM     55  C   UNL A   1      42.697  27.411  30.772  1.00  0.00     0.029 A 
ATOM     56  N   UNL A   1      41.720  28.956  32.037  1.00  0.00    -0.354 N 
ATOM     57  N   UNL A   1      41.420  30.630  34.392  1.00  0.00    -0.248 NA
ATOM     58  C   UNL A   1      42.020  31.210  36.573  1.00  0.00     0.031 C 
ATOM     59  C   UNL A   1      43.360  27.453  32.005  1.00  0.00     0.029 A 
ATOM     60  C   UNL A   1      42.760  28.425  32.787  1.00  0.00     0.049 A 
ATOM     61  H   UNL A   1      41.115  29.671  32.337  1.00  0.00     0.167 HD
ATOM     62  C   UNL A   1      42.477  29.829  34.803  1.00  0.00     0.074 A 
ATOM     63  C   UNL A   1      42.824  30.247  36.146  1.00  0.00     0.031 C 
ATOM     64  C   UNL A   1      43.103  28.838  34.123  1.00  0.00     0.037 A 
BRANCH  51  65
ATOM     65  C   UNL A   1      40.702  27.758  28.544  1.00  0.00     0.057 A 
ATOM     66  C   UNL A   1      39.958  26.575  28.448  1.00  0.00     0.134 A 
ATOM     67  C   UNL A   1      41.425  28.160  27.412  1.00  0.00     0.134 A 
ATOM     68  F   UNL A   1      39.245  26.135  29.496  1.00  0.00    -0.206 F 
ATOM     69  C   UNL A   1      39.949  25.811  27.280  1.00  0.00     0.040 A 
ATOM     70  C   UNL A   1      41.406  27.414  26.232  1.00  0.00     0.040 A 
ATOM     71  F   UNL A   1      42.147  29.290  27.431  1.00  0.00    -0.206 F 
ATOM     72  C   UNL A   1      40.669  26.234  26.165  1.00  0.00     0.006 A 
ENDBRANCH  51  65
BRANCH  52  73
ATOM     73  C   UNL A   1      40.018  33.324  36.740  1.00  0.00     0.057 A 
ATOM     74  C   UNL A   1      39.110  32.974  37.744  1.00  0.00     0.134 A 
ATOM     75  C   UNL A   1      40.814  34.457  36.950  1.00  0.00     0.134 A 
ATOM     76  F   UNL A   1      38.309  31.910  37.588  1.00  0.00    -0.206 F 
ATOM     77  C   UNL A   1      38.986  33.729  38.911  1.00  0.00     0.040 A 
ATOM     78  C   UNL A   1      40.716  35.208  38.121  1.00  0.00     0.040 A 
ATOM     79  F   UNL A   1      41.708  34.837  36.026  1.00  0.00    -0.206 F 
ATOM     80  C   UNL A   1      39.796  34.848  39.103  1.00  0.00     0.006 A 
ENDBRANCH  52  73
BRANCH  64  81
ATOM     81  C   UNL A   1      44.241  28.149  34.813  1.00  0.00     0.057 A 
ATOM     82  C   UNL A   1      44.041  27.021  35.619  1.00  0.00     0.134 A 
ATOM     83  C   UNL A   1      45.557  28.602  34.650  1.00  0.00     0.134 A 
ATOM     84  F   UNL A   1      42.803  26.548  35.829  1.00  0.00    -0.206 F 
ATOM     85  C   UNL A   1      45.106  26.378  36.252  1.00  0.00     0.040 A 
ATOM     86  C   UNL A   1      46.632  27.955  35.261  1.00  0.00     0.040 A 
ATOM     87  F   UNL A   1      45.818  29.675  33.889  1.00  0.00    -0.206 F 
ATOM     88  C   UNL A   1      46.407  26.842  36.068  1.00  0.00     0.006 A 
ENDBRANCH  64  81
ENDBRANCH  38  39
ENDBRANCH  30  33
ENDBRANCH  28  29
ENDBRANCH  27  28
ENDBRANCH  26  27
ENDBRANCH   1  26
TORSDOF 16
ENDMDL
