MODEL 1
REMARK VINA RESULT:     -12.8      0.000      0.000
REMARK SMILES Nc1ccc(-c2cc(Cl)cc3c2O[C@H](C(F)(F)F)C(C(=O)NCCCCNC(=O)c2ccc(-c4c5nc(c(-c6c(F)cccc6F)c6ccc([nH]6)c(-c6c(F)cccc6F)c6nc(c(-c7c(F)cccc7F)c7ccc4[nH]7)C=C6)C=C5)cc2)=C3)cc1
REMARK SMILES IDX 24 1 23 2 22 3 20 4 21 5 19 7 6 8 7 9 12 10 8 11 11 12 13 13
REMARK SMILES IDX 9 14 10 15 84 16 14 17 5 18 2 19 3 20 86 21 4 22 85 23 1 24
REMARK SMILES IDX 15 27 16 28 17 29 18 30 25 31 26 32 27 33 28 34 29 36 30 37
REMARK SMILES IDX 31 38 83 39 32 40 82 41 33 42 34 43 35 44 76 45 36 46 81 47
REMARK SMILES IDX 75 48 77 49 37 50 80 51 74 52 73 53 38 55 64 56 47 57 63 58
REMARK SMILES IDX 48 59 51 60 62 61 78 62 49 63 50 64 61 66 79 67 52 68 39 69
REMARK SMILES IDX 40 70 45 71 41 72 42 73 44 74 46 75 43 76 65 77 66 78 71 79
REMARK SMILES IDX 67 80 68 81 70 82 72 83 69 84 53 85 54 86 59 87 55 88 56 89
REMARK SMILES IDX 58 90 60 91 57 92
REMARK H PARENT 22 6 1 25 1 26 27 35 77 54 51 65
REMARK Flexibility Score: inf
ROOT
ATOM      1  C   UNL A   1      33.503  28.279  24.766  1.00  0.00     0.023 C 
ENDROOT
BRANCH   1   2
ATOM      2  C   UNL A   1      32.452  27.375  24.125  1.00  0.00     0.116 C 
BRANCH   2   3
ATOM      3  N   UNL A   1      31.553  26.793  25.105  1.00  0.00    -0.352 N 
ATOM      4  C   UNL A   1      31.431  25.609  25.753  1.00  0.00     0.251 C 
ATOM      5  O   UNL A   1      30.481  25.535  26.540  1.00  0.00    -0.270 OA
ATOM      6  H   UNL A   1      30.845  27.424  25.369  1.00  0.00     0.163 HD
BRANCH   4   7
ATOM      7  C   UNL A   1      32.335  24.434  25.580  1.00  0.00     0.067 C 
ATOM      8  C   UNL A   1      34.931  21.126  25.323  1.00  0.00     0.026 A 
ATOM      9  C   UNL A   1      36.311  21.337  25.462  1.00  0.00     0.033 A 
ATOM     10  C   UNL A   1      34.073  22.231  25.486  1.00  0.00     0.135 A 
ATOM     11  C   UNL A   1      36.804  22.612  25.750  1.00  0.00     0.042 A 
ATOM     12  C   UNL A   1      34.564  23.511  25.768  1.00  0.00     0.019 A 
ATOM     13  O   UNL A   1      32.723  21.996  25.423  1.00  0.00    -0.475 OA
ATOM     14  Cl  UNL A   1      38.500  22.846  25.920  1.00  0.00    -0.084 Cl
ATOM     15  C   UNL A   1      35.940  23.698  25.903  1.00  0.00     0.032 A 
ATOM     16  C   UNL A   1      33.621  24.614  25.942  1.00  0.00     0.025 C 
ATOM     17  C   UNL A   1      31.902  23.116  25.010  1.00  0.00     0.314 C 
BRANCH   8  18
ATOM     18  C   UNL A   1      34.397  19.793  25.001  1.00  0.00    -0.014 A 
ATOM     19  C   UNL A   1      33.375  17.187  24.563  1.00  0.00     0.031 A 
ATOM     20  C   UNL A   1      32.527  18.228  24.937  1.00  0.00     0.026 A 
ATOM     21  C   UNL A   1      34.737  17.453  24.421  1.00  0.00     0.026 A 
ATOM     22  C   UNL A   1      33.027  19.518  25.138  1.00  0.00     0.011 A 
ATOM     23  C   UNL A   1      35.244  18.743  24.624  1.00  0.00     0.011 A 
BRANCH  19  24
ATOM     24  N   UNL A   1      32.894  15.893  24.461  1.00  0.00    -0.399 N 
ATOM     25  H   UNL A   1      32.347  15.512  25.185  1.00  0.00     0.156 HD
ATOM     26  H   UNL A   1      33.099  15.352  23.663  1.00  0.00     0.156 HD
ENDBRANCH  19  24
ENDBRANCH   8  18
BRANCH  17  27
ATOM     27  C   UNL A   1      31.784  23.134  23.474  1.00  0.00     0.429 C 
ATOM     28  F   UNL A   1      30.549  23.552  23.096  1.00  0.00    -0.167 F 
ATOM     29  F   UNL A   1      32.668  23.983  22.899  1.00  0.00    -0.167 F 
ATOM     30  F   UNL A   1      31.987  21.919  22.916  1.00  0.00    -0.167 F 
ENDBRANCH  17  27
ENDBRANCH   4   7
ENDBRANCH   2   3
ENDBRANCH   1   2
BRANCH   1  31
ATOM     31  C   UNL A   1      33.004  29.061  25.986  1.00  0.00     0.023 C 
BRANCH  31  32
ATOM     32  C   UNL A   1      33.919  29.023  27.208  1.00  0.00     0.116 C 
BRANCH  32  33
ATOM     33  N   UNL A   1      33.965  30.262  27.970  1.00  0.00    -0.352 N 
ATOM     34  C   UNL A   1      35.031  30.778  28.675  1.00  0.00     0.251 C 
ATOM     35  H   UNL A   1      33.136  30.794  27.985  1.00  0.00     0.163 HD
ATOM     36  O   UNL A   1      34.913  31.799  29.342  1.00  0.00    -0.269 OA
BRANCH  34  37
ATOM     37  C   UNL A   1      36.307  30.034  28.665  1.00  0.00     0.039 A 
ATOM     38  C   UNL A   1      36.741  29.369  29.812  1.00  0.00     0.014 A 
ATOM     39  C   UNL A   1      37.119  30.096  27.530  1.00  0.00     0.014 A 
ATOM     40  C   UNL A   1      38.056  28.932  29.890  1.00  0.00     0.010 A 
ATOM     41  C   UNL A   1      38.419  29.585  27.585  1.00  0.00     0.010 A 
ATOM     42  C   UNL A   1      38.918  29.059  28.787  1.00  0.00    -0.014 A 
BRANCH  42  43
ATOM     43  C   UNL A   1      40.347  28.683  28.939  1.00  0.00     0.031 A 
ATOM     44  C   UNL A   1      40.837  27.334  28.483  1.00  0.00     0.074 A 
ATOM     45  C   UNL A   1      41.220  29.592  29.410  1.00  0.00     0.049 A 
ATOM     46  N   UNL A   1      42.057  26.856  28.483  1.00  0.00    -0.248 NA
ATOM     47  C   UNL A   1      39.830  26.396  27.962  1.00  0.00     0.031 C 
ATOM     48  C   UNL A   1      40.869  30.937  29.872  1.00  0.00     0.029 A 
ATOM     49  N   UNL A   1      42.583  29.537  29.545  1.00  0.00    -0.354 N 
ATOM     50  C   UNL A   1      41.960  25.560  27.989  1.00  0.00     0.074 A 
ATOM     51  C   UNL A   1      40.560  25.317  27.718  1.00  0.00     0.031 C 
ATOM     52  C   UNL A   1      41.994  31.600  30.180  1.00  0.00     0.029 A 
ATOM     53  C   UNL A   1      43.137  30.713  29.986  1.00  0.00     0.049 A 
ATOM     54  H   UNL A   1      43.113  28.732  29.344  1.00  0.00     0.167 HD
ATOM     55  C   UNL A   1      42.948  24.659  27.771  1.00  0.00     0.037 A 
ATOM     56  C   UNL A   1      44.421  31.041  30.211  1.00  0.00     0.037 A 
ATOM     57  C   UNL A   1      44.346  24.908  28.008  1.00  0.00     0.049 A 
ATOM     58  C   UNL A   1      45.493  30.017  29.975  1.00  0.00     0.074 A 
ATOM     59  C   UNL A   1      45.423  24.065  27.795  1.00  0.00     0.029 A 
ATOM     60  N   UNL A   1      44.860  26.095  28.508  1.00  0.00    -0.354 N 
ATOM     61  N   UNL A   1      45.384  28.798  29.506  1.00  0.00    -0.248 NA
ATOM     62  C   UNL A   1      46.867  30.416  30.310  1.00  0.00     0.031 C 
ATOM     63  C   UNL A   1      46.588  24.732  28.193  1.00  0.00     0.029 A 
ATOM     64  C   UNL A   1      46.237  26.002  28.623  1.00  0.00     0.049 A 
ATOM     65  H   UNL A   1      44.326  26.887  28.744  1.00  0.00     0.167 HD
ATOM     66  C   UNL A   1      46.673  28.286  29.483  1.00  0.00     0.074 A 
ATOM     67  C   UNL A   1      47.550  29.334  29.962  1.00  0.00     0.031 C 
ATOM     68  C   UNL A   1      47.092  27.054  29.107  1.00  0.00     0.037 A 
BRANCH  55  69
ATOM     69  C   UNL A   1      42.546  23.306  27.260  1.00  0.00     0.057 A 
ATOM     70  C   UNL A   1      42.591  23.022  25.889  1.00  0.00     0.134 A 
ATOM     71  C   UNL A   1      42.088  22.298  28.116  1.00  0.00     0.134 A 
ATOM     72  F   UNL A   1      43.017  23.946  25.014  1.00  0.00    -0.206 F 
ATOM     73  C   UNL A   1      42.193  21.781  25.388  1.00  0.00     0.040 A 
ATOM     74  C   UNL A   1      41.706  21.046  27.629  1.00  0.00     0.040 A 
ATOM     75  F   UNL A   1      42.036  22.503  29.440  1.00  0.00    -0.206 F 
ATOM     76  C   UNL A   1      41.754  20.786  26.260  1.00  0.00     0.006 A 
ENDBRANCH  55  69
BRANCH  56  77
ATOM     77  C   UNL A   1      44.765  32.403  30.684  1.00  0.00     0.057 A 
ATOM     78  C   UNL A   1      45.023  33.443  29.783  1.00  0.00     0.134 A 
ATOM     79  C   UNL A   1      44.839  32.694  32.050  1.00  0.00     0.134 A 
ATOM     80  F   UNL A   1      44.970  33.223  28.461  1.00  0.00    -0.206 F 
ATOM     81  C   UNL A   1      45.356  34.723  30.225  1.00  0.00     0.040 A 
ATOM     82  C   UNL A   1      45.149  33.976  32.506  1.00  0.00     0.040 A 
ATOM     83  F   UNL A   1      44.583  31.741  32.958  1.00  0.00    -0.206 F 
ATOM     84  C   UNL A   1      45.414  34.994  31.591  1.00  0.00     0.006 A 
ENDBRANCH  56  77
BRANCH  68  85
ATOM     85  C   UNL A   1      48.564  26.791  29.190  1.00  0.00     0.057 A 
ATOM     86  C   UNL A   1      49.413  27.125  28.127  1.00  0.00     0.134 A 
ATOM     87  C   UNL A   1      49.142  26.205  30.324  1.00  0.00     0.134 A 
ATOM     88  F   UNL A   1      48.920  27.684  27.012  1.00  0.00    -0.206 F 
ATOM     89  C   UNL A   1      50.786  26.890  28.193  1.00  0.00     0.040 A 
ATOM     90  C   UNL A   1      50.516  25.983  30.408  1.00  0.00     0.040 A 
ATOM     91  F   UNL A   1      48.381  25.878  31.380  1.00  0.00    -0.206 F 
ATOM     92  C   UNL A   1      51.342  26.324  29.339  1.00  0.00     0.006 A 
ENDBRANCH  68  85
ENDBRANCH  42  43
ENDBRANCH  34  37
ENDBRANCH  32  33
ENDBRANCH  31  32
ENDBRANCH   1  31
TORSDOF 14
ENDMDL
MODEL 2
REMARK VINA RESULT:     -12.8      0.651      6.129
REMARK SMILES Nc1ccc(-c2cc(Cl)cc3c2O[C@H](C(F)(F)F)C(C(=O)NCCCCNC(=O)c2ccc(-c4c5nc(c(-c6c(F)cccc6F)c6ccc([nH]6)c(-c6c(F)cccc6F)c6nc(c(-c7c(F)cccc7F)c7ccc4[nH]7)C=C6)C=C5)cc2)=C3)cc1
REMARK SMILES IDX 24 1 23 2 22 3 20 4 21 5 19 7 6 8 7 9 12 10 8 11 11 12 13 13
REMARK SMILES IDX 9 14 10 15 84 16 14 17 5 18 2 19 3 20 86 21 4 22 85 23 1 24
REMARK SMILES IDX 15 27 16 28 17 29 18 30 25 31 26 32 27 33 28 34 29 36 30 37
REMARK SMILES IDX 31 38 83 39 32 40 82 41 33 42 34 43 35 44 76 45 36 46 81 47
REMARK SMILES IDX 75 48 77 49 37 50 80 51 74 52 73 53 38 55 64 56 47 57 63 58
REMARK SMILES IDX 48 59 51 60 62 61 78 62 49 63 50 64 61 66 79 67 52 68 39 69
REMARK SMILES IDX 40 70 45 71 41 72 42 73 44 74 46 75 43 76 65 77 66 78 71 79
REMARK SMILES IDX 67 80 68 81 70 82 72 83 69 84 53 85 54 86 59 87 55 88 56 89
REMARK SMILES IDX 58 90 60 91 57 92
REMARK H PARENT 22 6 1 25 1 26 27 35 77 54 51 65
REMARK Flexibility Score: inf
ROOT
ATOM      1  C   UNL A   1      33.658  27.915  24.945  1.00  0.00     0.023 C 
ENDROOT
BRANCH   1   2
ATOM      2  C   UNL A   1      32.413  27.349  24.264  1.00  0.00     0.116 C 
BRANCH   2   3
ATOM      3  N   UNL A   1      31.492  26.747  25.213  1.00  0.00    -0.352 N 
ATOM      4  C   UNL A   1      31.350  25.547  25.827  1.00  0.00     0.251 C 
ATOM      5  O   UNL A   1      30.386  25.459  26.594  1.00  0.00    -0.270 OA
ATOM      6  H   UNL A   1      30.784  27.376  25.480  1.00  0.00     0.163 HD
BRANCH   4   7
ATOM      7  C   UNL A   1      32.249  24.371  25.639  1.00  0.00     0.067 C 
ATOM      8  C   UNL A   1      34.833  21.056  25.340  1.00  0.00     0.026 A 
ATOM      9  C   UNL A   1      36.214  21.262  25.472  1.00  0.00     0.033 A 
ATOM     10  C   UNL A   1      33.979  22.163  25.517  1.00  0.00     0.135 A 
ATOM     11  C   UNL A   1      36.713  22.533  25.767  1.00  0.00     0.042 A 
ATOM     12  C   UNL A   1      34.477  23.439  25.806  1.00  0.00     0.019 A 
ATOM     13  O   UNL A   1      32.629  21.933  25.461  1.00  0.00    -0.475 OA
ATOM     14  Cl  UNL A   1      38.411  22.761  25.928  1.00  0.00    -0.084 Cl
ATOM     15  C   UNL A   1      35.854  23.621  25.934  1.00  0.00     0.032 A 
ATOM     16  C   UNL A   1      33.538  24.544  25.995  1.00  0.00     0.025 C 
ATOM     17  C   UNL A   1      31.808  23.059  25.062  1.00  0.00     0.314 C 
BRANCH   8  18
ATOM     18  C   UNL A   1      34.292  19.727  25.012  1.00  0.00    -0.014 A 
ATOM     19  C   UNL A   1      33.269  17.125  24.559  1.00  0.00     0.031 A 
ATOM     20  C   UNL A   1      32.436  18.145  25.015  1.00  0.00     0.026 A 
ATOM     21  C   UNL A   1      34.618  17.410  24.343  1.00  0.00     0.026 A 
ATOM     22  C   UNL A   1      32.936  19.434  25.223  1.00  0.00     0.011 A 
ATOM     23  C   UNL A   1      35.124  18.698  24.554  1.00  0.00     0.011 A 
BRANCH  19  24
ATOM     24  N   UNL A   1      32.794  15.829  24.448  1.00  0.00    -0.399 N 
ATOM     25  H   UNL A   1      33.397  15.068  24.608  1.00  0.00     0.156 HD
ATOM     26  H   UNL A   1      31.853  15.668  24.208  1.00  0.00     0.156 HD
ENDBRANCH  19  24
ENDBRANCH   8  18
BRANCH  17  27
ATOM     27  C   UNL A   1      31.681  23.088  23.527  1.00  0.00     0.429 C 
ATOM     28  F   UNL A   1      30.451  23.531  23.159  1.00  0.00    -0.167 F 
ATOM     29  F   UNL A   1      32.576  23.925  22.951  1.00  0.00    -0.167 F 
ATOM     30  F   UNL A   1      31.858  21.874  22.960  1.00  0.00    -0.167 F 
ENDBRANCH  17  27
ENDBRANCH   4   7
ENDBRANCH   2   3
ENDBRANCH   1   2
BRANCH   1  31
ATOM     31  C   UNL A   1      33.406  29.182  25.768  1.00  0.00     0.023 C 
BRANCH  31  32
ATOM     32  C   UNL A   1      33.713  29.066  27.260  1.00  0.00     0.116 C 
BRANCH  32  33
ATOM     33  N   UNL A   1      33.766  30.337  27.968  1.00  0.00    -0.352 N 
ATOM     34  C   UNL A   1      34.848  30.895  28.616  1.00  0.00     0.251 C 
ATOM     35  H   UNL A   1      32.931  30.858  27.989  1.00  0.00     0.163 HD
ATOM     36  O   UNL A   1      34.737  31.942  29.243  1.00  0.00    -0.269 OA
BRANCH  34  37
ATOM     37  C   UNL A   1      36.134  30.169  28.593  1.00  0.00     0.039 A 
ATOM     38  C   UNL A   1      36.573  29.485  29.726  1.00  0.00     0.014 A 
ATOM     39  C   UNL A   1      36.947  30.266  27.461  1.00  0.00     0.014 A 
ATOM     40  C   UNL A   1      37.894  29.064  29.798  1.00  0.00     0.010 A 
ATOM     41  C   UNL A   1      38.253  29.771  27.509  1.00  0.00     0.010 A 
ATOM     42  C   UNL A   1      38.756  29.226  28.700  1.00  0.00    -0.014 A 
BRANCH  42  43
ATOM     43  C   UNL A   1      40.189  28.866  28.849  1.00  0.00     0.031 A 
ATOM     44  C   UNL A   1      41.138  29.781  29.576  1.00  0.00     0.074 A 
ATOM     45  C   UNL A   1      40.617  27.671  28.402  1.00  0.00     0.049 A 
ATOM     46  N   UNL A   1      42.407  29.604  29.854  1.00  0.00    -0.248 NA
ATOM     47  C   UNL A   1      40.598  31.064  30.053  1.00  0.00     0.031 C 
ATOM     48  C   UNL A   1      39.791  26.691  27.693  1.00  0.00     0.029 A 
ATOM     49  N   UNL A   1      41.840  27.061  28.509  1.00  0.00    -0.354 N 
ATOM     50  C   UNL A   1      42.819  30.757  30.511  1.00  0.00     0.074 A 
ATOM     51  C   UNL A   1      41.674  31.638  30.575  1.00  0.00     0.031 C 
ATOM     52  C   UNL A   1      40.513  25.580  27.485  1.00  0.00     0.029 A 
ATOM     53  C   UNL A   1      41.864  25.787  27.998  1.00  0.00     0.049 A 
ATOM     54  H   UNL A   1      42.626  27.495  28.915  1.00  0.00     0.167 HD
ATOM     55  C   UNL A   1      44.038  31.051  31.024  1.00  0.00     0.037 A 
ATOM     56  C   UNL A   1      42.860  24.887  27.947  1.00  0.00     0.037 A 
ATOM     57  C   UNL A   1      45.172  30.164  30.992  1.00  0.00     0.049 A 
ATOM     58  C   UNL A   1      44.204  25.246  28.511  1.00  0.00     0.074 A 
ATOM     59  C   UNL A   1      46.442  30.365  31.507  1.00  0.00     0.029 A 
ATOM     60  N   UNL A   1      45.169  28.903  30.416  1.00  0.00    -0.354 N 
ATOM     61  N   UNL A   1      44.576  26.339  29.130  1.00  0.00    -0.248 NA
ATOM     62  C   UNL A   1      45.270  24.245  28.357  1.00  0.00     0.031 C 
ATOM     63  C   UNL A   1      47.216  29.235  31.217  1.00  0.00     0.029 A 
ATOM     64  C   UNL A   1      46.418  28.319  30.550  1.00  0.00     0.049 A 
ATOM     65  H   UNL A   1      44.394  28.484  29.977  1.00  0.00     0.167 HD
ATOM     66  C   UNL A   1      45.915  26.157  29.447  1.00  0.00     0.074 A 
ATOM     67  C   UNL A   1      46.283  24.839  28.972  1.00  0.00     0.031 C 
ATOM     68  C   UNL A   1      46.766  27.009  30.067  1.00  0.00     0.037 A 
BRANCH  55  69
ATOM     69  C   UNL A   1      44.213  32.401  31.655  1.00  0.00     0.057 A 
ATOM     70  C   UNL A   1      43.945  32.590  33.017  1.00  0.00     0.134 A 
ATOM     71  C   UNL A   1      44.616  33.518  30.914  1.00  0.00     0.134 A 
ATOM     72  F   UNL A   1      43.551  31.562  33.783  1.00  0.00    -0.206 F 
ATOM     73  C   UNL A   1      44.070  33.844  33.619  1.00  0.00     0.040 A 
ATOM     74  C   UNL A   1      44.764  34.773  31.508  1.00  0.00     0.040 A 
ATOM     75  F   UNL A   1      44.902  33.400  29.609  1.00  0.00    -0.206 F 
ATOM     76  C   UNL A   1      44.487  34.940  32.864  1.00  0.00     0.006 A 
ENDBRANCH  55  69
BRANCH  56  77
ATOM     77  C   UNL A   1      42.623  23.554  27.343  1.00  0.00     0.057 A 
ATOM     78  C   UNL A   1      42.217  22.464  28.119  1.00  0.00     0.134 A 
ATOM     79  C   UNL A   1      42.797  23.345  25.971  1.00  0.00     0.134 A 
ATOM     80  F   UNL A   1      42.038  22.603  29.441  1.00  0.00    -0.206 F 
ATOM     81  C   UNL A   1      42.003  21.207  27.555  1.00  0.00     0.040 A 
ATOM     82  C   UNL A   1      42.564  22.099  25.389  1.00  0.00     0.040 A 
ATOM     83  F   UNL A   1      43.167  24.359  25.175  1.00  0.00    -0.206 F 
ATOM     84  C   UNL A   1      42.171  21.023  26.184  1.00  0.00     0.006 A 
ENDBRANCH  56  77
BRANCH  68  85
ATOM     85  C   UNL A   1      48.169  26.526  30.274  1.00  0.00     0.057 A 
ATOM     86  C   UNL A   1      48.516  25.808  31.425  1.00  0.00     0.134 A 
ATOM     87  C   UNL A   1      49.176  26.772  29.332  1.00  0.00     0.134 A 
ATOM     88  F   UNL A   1      47.598  25.543  32.366  1.00  0.00    -0.206 F 
ATOM     89  C   UNL A   1      49.817  25.347  31.628  1.00  0.00     0.040 A 
ATOM     90  C   UNL A   1      50.475  26.300  29.515  1.00  0.00     0.040 A 
ATOM     91  F   UNL A   1      48.898  27.440  28.202  1.00  0.00    -0.206 F 
ATOM     92  C   UNL A   1      50.800  25.587  30.668  1.00  0.00     0.006 A 
ENDBRANCH  68  85
ENDBRANCH  42  43
ENDBRANCH  34  37
ENDBRANCH  32  33
ENDBRANCH  31  32
ENDBRANCH   1  31
TORSDOF 14
ENDMDL
MODEL 3
REMARK VINA RESULT:     -12.7      3.450      6.760
REMARK SMILES Nc1ccc(-c2cc(Cl)cc3c2O[C@H](C(F)(F)F)C(C(=O)NCCCCNC(=O)c2ccc(-c4c5nc(c(-c6c(F)cccc6F)c6ccc([nH]6)c(-c6c(F)cccc6F)c6nc(c(-c7c(F)cccc7F)c7ccc4[nH]7)C=C6)C=C5)cc2)=C3)cc1
REMARK SMILES IDX 24 1 23 2 22 3 20 4 21 5 19 7 6 8 7 9 12 10 8 11 11 12 13 13
REMARK SMILES IDX 9 14 10 15 84 16 14 17 5 18 2 19 3 20 86 21 4 22 85 23 1 24
REMARK SMILES IDX 15 27 16 28 17 29 18 30 25 31 26 32 27 33 28 34 29 36 30 37
REMARK SMILES IDX 31 38 83 39 32 40 82 41 33 42 34 43 35 44 76 45 36 46 81 47
REMARK SMILES IDX 75 48 77 49 37 50 80 51 74 52 73 53 38 55 64 56 47 57 63 58
REMARK SMILES IDX 48 59 51 60 62 61 78 62 49 63 50 64 61 66 79 67 52 68 39 69
REMARK SMILES IDX 40 70 45 71 41 72 42 73 44 74 46 75 43 76 65 77 66 78 71 79
REMARK SMILES IDX 67 80 68 81 70 82 72 83 69 84 53 85 54 86 59 87 55 88 56 89
REMARK SMILES IDX 58 90 60 91 57 92
REMARK H PARENT 22 6 1 25 1 26 27 35 77 54 51 65
REMARK Flexibility Score: inf
ROOT
ATOM      1  C   UNL A   1      32.397  29.030  24.264  1.00  0.00     0.023 C 
ENDROOT
BRANCH   1   2
ATOM      2  C   UNL A   1      32.005  27.587  23.951  1.00  0.00     0.116 C 
BRANCH   2   3
ATOM      3  N   UNL A   1      31.162  27.009  24.983  1.00  0.00    -0.352 N 
ATOM      4  C   UNL A   1      31.111  25.849  25.682  1.00  0.00     0.251 C 
ATOM      5  O   UNL A   1      30.190  25.768  26.501  1.00  0.00    -0.270 OA
ATOM      6  H   UNL A   1      30.435  27.620  25.242  1.00  0.00     0.163 HD
BRANCH   4   7
ATOM      7  C   UNL A   1      32.061  24.708  25.529  1.00  0.00     0.067 C 
ATOM      8  C   UNL A   1      34.788  21.503  25.327  1.00  0.00     0.026 A 
ATOM      9  C   UNL A   1      36.160  21.774  25.442  1.00  0.00     0.033 A 
ATOM     10  C   UNL A   1      33.887  22.576  25.471  1.00  0.00     0.135 A 
ATOM     11  C   UNL A   1      36.603  23.076  25.688  1.00  0.00     0.042 A 
ATOM     12  C   UNL A   1      34.329  23.883  25.712  1.00  0.00     0.019 A 
ATOM     13  O   UNL A   1      32.548  22.285  25.434  1.00  0.00    -0.475 OA
ATOM     14  Cl  UNL A   1      38.290  23.384  25.828  1.00  0.00    -0.084 Cl
ATOM     15  C   UNL A   1      35.697  24.130  25.822  1.00  0.00     0.032 A 
ATOM     16  C   UNL A   1      33.343  24.950  25.868  1.00  0.00     0.025 C 
ATOM     17  C   UNL A   1      31.676  23.358  25.001  1.00  0.00     0.314 C 
BRANCH   8  18
ATOM     18  C   UNL A   1      34.306  20.140  25.049  1.00  0.00    -0.014 A 
ATOM     19  C   UNL A   1      33.373  17.563  24.334  1.00  0.00     0.031 A 
ATOM     20  C   UNL A   1      34.730  17.873  24.257  1.00  0.00     0.026 A 
ATOM     21  C   UNL A   1      32.485  18.552  24.758  1.00  0.00     0.026 A 
ATOM     22  C   UNL A   1      35.194  19.140  24.626  1.00  0.00     0.011 A 
ATOM     23  C   UNL A   1      32.944  19.823  25.124  1.00  0.00     0.011 A 
BRANCH  19  24
ATOM     24  N   UNL A   1      32.906  16.343  23.876  1.00  0.00    -0.399 N 
ATOM     25  H   UNL A   1      33.504  15.561  23.858  1.00  0.00     0.156 HD
ATOM     26  H   UNL A   1      31.975  16.256  23.567  1.00  0.00     0.156 HD
ENDBRANCH  19  24
ENDBRANCH   8  18
BRANCH  17  27
ATOM     27  C   UNL A   1      31.538  23.327  23.468  1.00  0.00     0.429 C 
ATOM     28  F   UNL A   1      30.275  23.660  23.096  1.00  0.00    -0.167 F 
ATOM     29  F   UNL A   1      32.361  24.213  22.858  1.00  0.00    -0.167 F 
ATOM     30  F   UNL A   1      31.806  22.112  22.939  1.00  0.00    -0.167 F 
ENDBRANCH  17  27
ENDBRANCH   4   7
ENDBRANCH   2   3
ENDBRANCH   1   2
BRANCH   1  31
ATOM     31  C   UNL A   1      31.519  29.708  25.321  1.00  0.00     0.023 C 
BRANCH  31  32
ATOM     32  C   UNL A   1      32.253  30.195  26.569  1.00  0.00     0.116 C 
BRANCH  32  33
ATOM     33  N   UNL A   1      32.055  31.604  26.877  1.00  0.00    -0.352 N 
ATOM     34  C   UNL A   1      32.957  32.475  27.451  1.00  0.00     0.251 C 
ATOM     35  H   UNL A   1      31.174  31.979  26.650  1.00  0.00     0.163 HD
ATOM     36  O   UNL A   1      32.636  33.625  27.729  1.00  0.00    -0.269 OA
BRANCH  34  37
ATOM     37  C   UNL A   1      34.305  31.972  27.787  1.00  0.00     0.039 A 
ATOM     38  C   UNL A   1      34.510  30.610  28.007  1.00  0.00     0.014 A 
ATOM     39  C   UNL A   1      35.340  32.889  27.984  1.00  0.00     0.014 A 
ATOM     40  C   UNL A   1      35.690  30.188  28.606  1.00  0.00     0.010 A 
ATOM     41  C   UNL A   1      36.557  32.449  28.514  1.00  0.00     0.010 A 
ATOM     42  C   UNL A   1      36.715  31.106  28.890  1.00  0.00    -0.014 A 
BRANCH  42  43
ATOM     43  C   UNL A   1      37.917  30.640  29.629  1.00  0.00     0.031 A 
ATOM     44  C   UNL A   1      38.122  31.015  31.073  1.00  0.00     0.074 A 
ATOM     45  C   UNL A   1      38.780  29.805  29.022  1.00  0.00     0.049 A 
ATOM     46  N   UNL A   1      39.078  30.652  31.892  1.00  0.00    -0.248 NA
ATOM     47  C   UNL A   1      37.129  31.917  31.678  1.00  0.00     0.031 C 
ATOM     48  C   UNL A   1      38.683  29.358  27.630  1.00  0.00     0.029 A 
ATOM     49  N   UNL A   1      39.887  29.157  29.504  1.00  0.00    -0.354 N 
ATOM     50  C   UNL A   1      38.816  31.298  33.095  1.00  0.00     0.074 A 
ATOM     51  C   UNL A   1      37.624  32.093  32.896  1.00  0.00     0.031 C 
ATOM     52  C   UNL A   1      39.651  28.460  27.391  1.00  0.00     0.029 A 
ATOM     53  C   UNL A   1      40.465  28.308  28.593  1.00  0.00     0.049 A 
ATOM     54  H   UNL A   1      40.232  29.285  30.417  1.00  0.00     0.167 HD
ATOM     55  C   UNL A   1      39.501  31.229  34.262  1.00  0.00     0.037 A 
ATOM     56  C   UNL A   1      41.532  27.499  28.710  1.00  0.00     0.037 A 
ATOM     57  C   UNL A   1      40.669  30.414  34.474  1.00  0.00     0.049 A 
ATOM     58  C   UNL A   1      42.280  27.453  30.010  1.00  0.00     0.074 A 
ATOM     59  C   UNL A   1      41.418  30.260  35.629  1.00  0.00     0.029 A 
ATOM     60  N   UNL A   1      41.256  29.612  33.508  1.00  0.00    -0.354 N 
ATOM     61  N   UNL A   1      42.018  28.069  31.138  1.00  0.00    -0.248 NA
ATOM     62  C   UNL A   1      43.480  26.605  30.050  1.00  0.00     0.031 C 
ATOM     63  C   UNL A   1      42.474  29.384  35.353  1.00  0.00     0.029 A 
ATOM     64  C   UNL A   1      42.364  28.970  34.035  1.00  0.00     0.049 A 
ATOM     65  H   UNL A   1      40.932  29.511  32.584  1.00  0.00     0.167 HD
ATOM     66  C   UNL A   1      43.014  27.679  32.021  1.00  0.00     0.074 A 
ATOM     67  C   UNL A   1      43.871  26.755  31.307  1.00  0.00     0.031 C 
ATOM     68  C   UNL A   1      43.208  28.058  33.307  1.00  0.00     0.037 A 
BRANCH  55  69
ATOM     69  C   UNL A   1      39.009  32.072  35.401  1.00  0.00     0.057 A 
ATOM     70  C   UNL A   1      39.385  33.417  35.506  1.00  0.00     0.134 A 
ATOM     71  C   UNL A   1      38.190  31.548  36.409  1.00  0.00     0.134 A 
ATOM     72  F   UNL A   1      40.171  33.979  34.575  1.00  0.00    -0.206 F 
ATOM     73  C   UNL A   1      38.964  34.212  36.574  1.00  0.00     0.040 A 
ATOM     74  C   UNL A   1      37.747  32.338  37.472  1.00  0.00     0.040 A 
ATOM     75  F   UNL A   1      37.783  30.271  36.359  1.00  0.00    -0.206 F 
ATOM     76  C   UNL A   1      38.137  33.673  37.558  1.00  0.00     0.006 A 
ENDBRANCH  55  69
BRANCH  56  77
ATOM     77  C   UNL A   1      41.955  26.662  27.563  1.00  0.00     0.057 A 
ATOM     78  C   UNL A   1      41.510  25.343  27.419  1.00  0.00     0.134 A 
ATOM     79  C   UNL A   1      42.815  27.166  26.582  1.00  0.00     0.134 A 
ATOM     80  F   UNL A   1      40.686  24.804  28.330  1.00  0.00    -0.206 F 
ATOM     81  C   UNL A   1      41.914  24.550  26.346  1.00  0.00     0.040 A 
ATOM     82  C   UNL A   1      43.210  26.392  25.490  1.00  0.00     0.040 A 
ATOM     83  F   UNL A   1      43.259  28.430  26.658  1.00  0.00    -0.206 F 
ATOM     84  C   UNL A   1      42.762  25.077  25.374  1.00  0.00     0.006 A 
ENDBRANCH  56  77
BRANCH  68  85
ATOM     85  C   UNL A   1      44.383  27.458  34.016  1.00  0.00     0.057 A 
ATOM     86  C   UNL A   1      45.627  28.101  34.011  1.00  0.00     0.134 A 
ATOM     87  C   UNL A   1      44.281  26.242  34.704  1.00  0.00     0.134 A 
ATOM     88  F   UNL A   1      45.789  29.266  33.367  1.00  0.00    -0.206 F 
ATOM     89  C   UNL A   1      46.728  27.556  34.672  1.00  0.00     0.040 A 
ATOM     90  C   UNL A   1      45.370  25.698  35.384  1.00  0.00     0.040 A 
ATOM     91  F   UNL A   1      43.110  25.589  34.757  1.00  0.00    -0.206 F 
ATOM     92  C   UNL A   1      46.600  26.354  35.366  1.00  0.00     0.006 A 
ENDBRANCH  68  85
ENDBRANCH  42  43
ENDBRANCH  34  37
ENDBRANCH  32  33
ENDBRANCH  31  32
ENDBRANCH   1  31
TORSDOF 14
ENDMDL
