MODEL 1
REMARK VINA RESULT:     -11.7      0.000      0.000
REMARK SMILES Cc1ccccc1OCC[NH+]1CCC(CC(=O)NCCCCNC(=O)c2ccc(-c3c4nc(c(-c5c(F)cccc5F)c5ccc([nH]5)c(-c5c(F)cccc5F)c5nc(c(-c6c(F)cccc6F)c6ccc3[nH]6)C=C5)C=C4)cc2)CC1
REMARK SMILES IDX 19 1 18 2 16 3 17 4 15 6 14 7 11 8 12 9 81 10 13 12 80 13
REMARK SMILES IDX 10 14 9 15 8 16 7 17 1 18 2 19 3 20 4 21 6 22 5 23 20 24
REMARK SMILES IDX 21 25 22 26 23 27 24 28 25 30 26 31 27 32 79 33 28 34 78 35
REMARK SMILES IDX 29 36 30 37 31 38 72 39 32 40 77 41 71 42 73 43 33 44 76 45
REMARK SMILES IDX 70 46 69 47 34 49 60 50 43 51 59 52 44 53 47 54 58 55 74 56
REMARK SMILES IDX 45 57 46 58 57 60 75 61 48 62 35 63 36 64 41 65 37 66 38 67
REMARK SMILES IDX 40 68 42 69 39 70 61 71 62 72 67 73 63 74 64 75 66 76 68 77
REMARK SMILES IDX 65 78 49 79 50 80 55 81 51 82 52 83 54 84 56 85 53 86
REMARK H PARENT 18 5 11 11 23 29 73 48 47 59
REMARK Flexibility Score: inf
ROOT
ATOM      1  C   UNL A   1      33.675  35.915  28.398  1.00  0.00     0.116 C 
ENDROOT
BRANCH   1   2
ATOM      2  N   UNL A   1      34.889  35.124  28.171  1.00  0.00    -0.356 N 
ATOM      3  C   UNL A   1      35.146  33.782  28.261  1.00  0.00     0.220 C 
ATOM      4  O   UNL A   1      36.311  33.411  28.092  1.00  0.00    -0.275 OA
ATOM      5  H   UNL A   1      35.668  35.661  27.901  1.00  0.00     0.163 HD
BRANCH   3   6
ATOM      6  C   UNL A   1      34.046  32.759  28.534  1.00  0.00     0.104 C 
BRANCH   6   7
ATOM      7  C   UNL A   1      33.835  31.740  27.366  1.00  0.00     0.009 C 
ATOM      8  N   UNL A   1      32.882  28.190  26.043  1.00  0.00    -0.332 N 
ATOM      9  C   UNL A   1      34.619  28.530  26.659  1.00  0.00     0.262 C 
ATOM     10  C   UNL A   1      31.604  29.540  26.101  1.00  0.00     0.262 C 
ATOM     11  H   UNL A   1      33.149  28.173  25.058  1.00  0.00     0.348 HD
ATOM     12  C   UNL A   1      35.024  30.203  27.589  1.00  0.00     0.066 C 
ATOM     13  C   UNL A   1      32.010  31.386  26.657  1.00  0.00     0.066 C 
BRANCH   8  14
ATOM     14  C   UNL A   1      32.316  26.892  26.330  1.00  0.00     0.304 C 
BRANCH  14  15
ATOM     15  C   UNL A   1      32.544  25.927  25.199  1.00  0.00     0.290 C 
BRANCH  15  16
ATOM     16  O   UNL A   1      31.396  25.729  24.377  1.00  0.00    -0.487 OA
BRANCH  16  17
ATOM     17  C   UNL A   1      30.954  26.779  23.585  1.00  0.00     0.122 A 
ATOM     18  C   UNL A   1      33.734  28.162  22.464  1.00  0.00     0.048 C 
ATOM     19  C   UNL A   1      31.724  27.846  22.793  1.00  0.00    -0.009 A 
ATOM     20  C   UNL A   1      30.606  28.748  22.374  1.00  0.00     0.007 A 
ATOM     21  C   UNL A   1      29.210  28.732  22.668  1.00  0.00     0.001 A 
ATOM     22  C   UNL A   1      29.537  26.783  23.878  1.00  0.00     0.047 A 
ATOM     23  C   UNL A   1      28.674  27.758  23.449  1.00  0.00     0.004 A 
ENDBRANCH  16  17
ENDBRANCH  15  16
ENDBRANCH  14  15
ENDBRANCH   8  14
ENDBRANCH   6   7
ENDBRANCH   3   6
ENDBRANCH   1   2
BRANCH   1  24
ATOM     24  C   UNL A   1      32.933  35.485  29.682  1.00  0.00     0.023 C 
BRANCH  24  25
ATOM     25  C   UNL A   1      32.989  36.369  30.909  1.00  0.00     0.023 C 
BRANCH  25  26
ATOM     26  C   UNL A   1      32.675  35.643  32.195  1.00  0.00     0.116 C 
BRANCH  26  27
ATOM     27  N   UNL A   1      33.603  35.802  33.309  1.00  0.00    -0.352 N 
ATOM     28  C   UNL A   1      34.695  35.004  33.640  1.00  0.00     0.251 C 
ATOM     29  H   UNL A   1      33.435  36.570  33.901  1.00  0.00     0.163 HD
ATOM     30  O   UNL A   1      35.339  35.239  34.660  1.00  0.00    -0.269 OA
BRANCH  28  31
ATOM     31  C   UNL A   1      35.197  33.980  32.674  1.00  0.00     0.039 A 
ATOM     32  C   UNL A   1      35.122  32.633  33.050  1.00  0.00     0.014 A 
ATOM     33  C   UNL A   1      36.034  34.342  31.632  1.00  0.00     0.014 A 
ATOM     34  C   UNL A   1      36.128  31.761  32.645  1.00  0.00     0.010 A 
ATOM     35  C   UNL A   1      37.145  33.570  31.414  1.00  0.00     0.010 A 
ATOM     36  C   UNL A   1      37.219  32.297  31.975  1.00  0.00    -0.014 A 
BRANCH  36  37
ATOM     37  C   UNL A   1      38.516  31.658  31.833  1.00  0.00     0.031 A 
ATOM     38  C   UNL A   1      38.609  30.427  31.029  1.00  0.00     0.074 A 
ATOM     39  C   UNL A   1      39.610  32.333  32.248  1.00  0.00     0.049 A 
ATOM     40  N   UNL A   1      39.630  29.648  31.000  1.00  0.00    -0.248 NA
ATOM     41  C   UNL A   1      37.496  29.939  30.218  1.00  0.00     0.031 C 
ATOM     42  C   UNL A   1      41.005  32.090  31.894  1.00  0.00     0.029 A 
ATOM     43  N   UNL A   1      39.675  33.303  33.261  1.00  0.00    -0.354 N 
ATOM     44  C   UNL A   1      39.435  28.734  29.987  1.00  0.00     0.074 A 
ATOM     45  C   UNL A   1      38.053  28.886  29.617  1.00  0.00     0.031 C 
ATOM     46  C   UNL A   1      41.792  32.643  32.834  1.00  0.00     0.029 A 
ATOM     47  C   UNL A   1      40.918  33.102  33.903  1.00  0.00     0.049 A 
ATOM     48  H   UNL A   1      38.996  33.982  33.479  1.00  0.00     0.167 HD
ATOM     49  C   UNL A   1      40.518  28.058  29.512  1.00  0.00     0.037 A 
ATOM     50  C   UNL A   1      40.958  32.629  35.185  1.00  0.00     0.037 A 
ATOM     51  C   UNL A   1      41.662  28.269  30.408  1.00  0.00     0.049 A 
ATOM     52  C   UNL A   1      41.606  31.265  35.313  1.00  0.00     0.074 A 
ATOM     53  C   UNL A   1      42.770  29.096  30.347  1.00  0.00     0.029 A 
ATOM     54  N   UNL A   1      41.577  27.822  31.725  1.00  0.00    -0.354 N 
ATOM     55  N   UNL A   1      41.805  30.451  34.312  1.00  0.00    -0.248 NA
ATOM     56  C   UNL A   1      42.059  30.705  36.583  1.00  0.00     0.031 C 
ATOM     57  C   UNL A   1      43.275  29.242  31.669  1.00  0.00     0.029 A 
ATOM     58  C   UNL A   1      42.505  28.466  32.521  1.00  0.00     0.049 A 
ATOM     59  H   UNL A   1      40.943  27.140  32.045  1.00  0.00     0.167 HD
ATOM     60  C   UNL A   1      42.334  29.276  34.773  1.00  0.00     0.074 A 
ATOM     61  C   UNL A   1      42.508  29.497  36.197  1.00  0.00     0.031 C 
ATOM     62  C   UNL A   1      42.554  28.203  33.956  1.00  0.00     0.037 A 
BRANCH  49  63
ATOM     63  C   UNL A   1      40.636  27.400  28.145  1.00  0.00     0.057 A 
ATOM     64  C   UNL A   1      40.148  26.090  27.952  1.00  0.00     0.134 A 
ATOM     65  C   UNL A   1      41.299  27.920  27.014  1.00  0.00     0.134 A 
ATOM     66  F   UNL A   1      39.459  25.451  28.908  1.00  0.00    -0.206 F 
ATOM     67  C   UNL A   1      40.349  25.355  26.772  1.00  0.00     0.040 A 
ATOM     68  C   UNL A   1      41.498  27.201  25.825  1.00  0.00     0.040 A 
ATOM     69  F   UNL A   1      41.814  29.148  26.972  1.00  0.00    -0.206 F 
ATOM     70  C   UNL A   1      41.036  25.905  25.703  1.00  0.00     0.006 A 
ENDBRANCH  49  63
BRANCH  50  71
ATOM     71  C   UNL A   1      39.816  33.115  36.010  1.00  0.00     0.057 A 
ATOM     72  C   UNL A   1      38.729  32.247  36.223  1.00  0.00     0.134 A 
ATOM     73  C   UNL A   1      39.957  34.182  36.902  1.00  0.00     0.134 A 
ATOM     74  F   UNL A   1      38.531  31.205  35.401  1.00  0.00    -0.206 F 
ATOM     75  C   UNL A   1      37.910  32.349  37.352  1.00  0.00     0.040 A 
ATOM     76  C   UNL A   1      39.130  34.303  38.027  1.00  0.00     0.040 A 
ATOM     77  F   UNL A   1      40.978  35.042  36.781  1.00  0.00    -0.206 F 
ATOM     78  C   UNL A   1      38.139  33.356  38.282  1.00  0.00     0.006 A 
ENDBRANCH  50  71
BRANCH  62  79
ATOM     79  C   UNL A   1      42.873  26.806  34.427  1.00  0.00     0.057 A 
ATOM     80  C   UNL A   1      41.953  25.959  35.061  1.00  0.00     0.134 A 
ATOM     81  C   UNL A   1      44.108  26.208  34.092  1.00  0.00     0.134 A 
ATOM     82  F   UNL A   1      40.705  26.360  35.339  1.00  0.00    -0.206 F 
ATOM     83  C   UNL A   1      42.256  24.630  35.386  1.00  0.00     0.040 A 
ATOM     84  C   UNL A   1      44.398  24.867  34.357  1.00  0.00     0.040 A 
ATOM     85  F   UNL A   1      45.074  26.895  33.464  1.00  0.00    -0.206 F 
ATOM     86  C   UNL A   1      43.476  24.075  35.021  1.00  0.00     0.006 A 
ENDBRANCH  62  79
ENDBRANCH  36  37
ENDBRANCH  28  31
ENDBRANCH  26  27
ENDBRANCH  25  26
ENDBRANCH  24  25
ENDBRANCH   1  24
TORSDOF 16
ENDMDL
MODEL 2
REMARK VINA RESULT:     -11.6      3.644      9.615
REMARK SMILES Cc1ccccc1OCC[NH+]1CCC(CC(=O)NCCCCNC(=O)c2ccc(-c3c4nc(c(-c5c(F)cccc5F)c5ccc([nH]5)c(-c5c(F)cccc5F)c5nc(c(-c6c(F)cccc6F)c6ccc3[nH]6)C=C5)C=C4)cc2)CC1
REMARK SMILES IDX 19 1 18 2 16 3 17 4 15 6 14 7 11 8 12 9 81 10 13 12 80 13
REMARK SMILES IDX 10 14 9 15 8 16 7 17 1 18 2 19 3 20 4 21 6 22 5 23 20 24
REMARK SMILES IDX 21 25 22 26 23 27 24 28 25 30 26 31 27 32 79 33 28 34 78 35
REMARK SMILES IDX 29 36 30 37 31 38 72 39 32 40 77 41 71 42 73 43 33 44 76 45
REMARK SMILES IDX 70 46 69 47 34 49 60 50 43 51 59 52 44 53 47 54 58 55 74 56
REMARK SMILES IDX 45 57 46 58 57 60 75 61 48 62 35 63 36 64 41 65 37 66 38 67
REMARK SMILES IDX 40 68 42 69 39 70 61 71 62 72 67 73 63 74 64 75 66 76 68 77
REMARK SMILES IDX 65 78 49 79 50 80 55 81 51 82 52 83 54 84 56 85 53 86
REMARK H PARENT 18 5 11 11 23 29 73 48 47 59
REMARK Flexibility Score: inf
ROOT
ATOM      1  C   UNL A   1      35.235  21.150  25.543  1.00  0.00     0.116 C 
ENDROOT
BRANCH   1   2
ATOM      2  N   UNL A   1      34.250  20.070  25.649  1.00  0.00    -0.356 N 
ATOM      3  C   UNL A   1      33.077  19.822  24.987  1.00  0.00     0.220 C 
ATOM      4  O   UNL A   1      32.402  18.859  25.361  1.00  0.00    -0.275 OA
ATOM      5  H   UNL A   1      34.476  19.391  26.325  1.00  0.00     0.163 HD
BRANCH   3   6
ATOM      6  C   UNL A   1      32.611  20.677  23.811  1.00  0.00     0.104 C 
BRANCH   6   7
ATOM      7  C   UNL A   1      32.639  22.213  24.103  1.00  0.00     0.009 C 
ATOM      8  N   UNL A   1      31.527  25.874  23.315  1.00  0.00    -0.332 N 
ATOM      9  C   UNL A   1      32.945  25.096  22.367  1.00  0.00     0.262 C 
ATOM     10  C   UNL A   1      30.629  24.881  24.606  1.00  0.00     0.262 C 
ATOM     11  H   UNL A   1      32.129  26.480  23.874  1.00  0.00     0.348 HD
ATOM     12  C   UNL A   1      33.315  23.183  22.545  1.00  0.00     0.066 C 
ATOM     13  C   UNL A   1      31.173  23.066  25.144  1.00  0.00     0.066 C 
BRANCH   8  14
ATOM     14  C   UNL A   1      30.639  26.750  22.585  1.00  0.00     0.304 C 
BRANCH  14  15
ATOM     15  C   UNL A   1      30.805  28.183  23.010  1.00  0.00     0.290 C 
BRANCH  15  16
ATOM     16  O   UNL A   1      30.756  28.369  24.423  1.00  0.00    -0.487 OA
BRANCH  16  17
ATOM     17  C   UNL A   1      31.941  28.604  25.106  1.00  0.00     0.122 A 
ATOM     18  C   UNL A   1      34.224  28.744  22.725  1.00  0.00     0.048 C 
ATOM     19  C   UNL A   1      33.387  28.746  24.609  1.00  0.00    -0.009 A 
ATOM     20  C   UNL A   1      34.131  28.769  25.907  1.00  0.00     0.007 A 
ATOM     21  C   UNL A   1      33.693  28.617  27.256  1.00  0.00     0.001 A 
ATOM     22  C   UNL A   1      31.517  28.445  26.481  1.00  0.00     0.047 A 
ATOM     23  C   UNL A   1      32.380  28.426  27.545  1.00  0.00     0.004 A 
ENDBRANCH  16  17
ENDBRANCH  15  16
ENDBRANCH  14  15
ENDBRANCH   8  14
ENDBRANCH   6   7
ENDBRANCH   3   6
ENDBRANCH   1   2
BRANCH   1  24
ATOM     24  C   UNL A   1      36.438  20.757  24.659  1.00  0.00     0.023 C 
BRANCH  24  25
ATOM     25  C   UNL A   1      37.812  20.629  25.279  1.00  0.00     0.023 C 
BRANCH  25  26
ATOM     26  C   UNL A   1      38.491  21.954  25.528  1.00  0.00     0.116 C 
BRANCH  26  27
ATOM     27  N   UNL A   1      39.809  21.935  26.153  1.00  0.00    -0.352 N 
ATOM     28  C   UNL A   1      40.555  23.014  26.622  1.00  0.00     0.251 C 
ATOM     29  H   UNL A   1      40.223  21.048  26.256  1.00  0.00     0.163 HD
ATOM     30  O   UNL A   1      41.688  22.831  27.062  1.00  0.00    -0.269 OA
BRANCH  28  31
ATOM     31  C   UNL A   1      39.924  24.361  26.758  1.00  0.00     0.039 A 
ATOM     32  C   UNL A   1      40.521  25.436  26.088  1.00  0.00     0.014 A 
ATOM     33  C   UNL A   1      39.028  24.622  27.782  1.00  0.00     0.014 A 
ATOM     34  C   UNL A   1      40.504  26.695  26.679  1.00  0.00     0.010 A 
ATOM     35  C   UNL A   1      39.193  25.784  28.487  1.00  0.00     0.010 A 
ATOM     36  C   UNL A   1      39.986  26.802  27.962  1.00  0.00    -0.014 A 
BRANCH  36  37
ATOM     37  C   UNL A   1      40.238  27.897  28.882  1.00  0.00     0.031 A 
ATOM     38  C   UNL A   1      39.272  29.009  28.933  1.00  0.00     0.074 A 
ATOM     39  C   UNL A   1      41.213  27.746  29.805  1.00  0.00     0.049 A 
ATOM     40  N   UNL A   1      39.477  30.129  29.529  1.00  0.00    -0.248 NA
ATOM     41  C   UNL A   1      37.985  28.957  28.242  1.00  0.00     0.031 C 
ATOM     42  C   UNL A   1      41.413  28.505  31.035  1.00  0.00     0.029 A 
ATOM     43  N   UNL A   1      42.364  26.950  29.700  1.00  0.00    -0.354 N 
ATOM     44  C   UNL A   1      38.285  30.822  29.546  1.00  0.00     0.074 A 
ATOM     45  C   UNL A   1      37.431  30.104  28.636  1.00  0.00     0.031 C 
ATOM     46  C   UNL A   1      42.695  28.375  31.419  1.00  0.00     0.029 A 
ATOM     47  C   UNL A   1      43.389  27.673  30.351  1.00  0.00     0.049 A 
ATOM     48  H   UNL A   1      42.442  26.071  29.263  1.00  0.00     0.167 HD
ATOM     49  C   UNL A   1      38.148  31.844  30.436  1.00  0.00     0.037 A 
ATOM     50  C   UNL A   1      44.420  28.201  29.626  1.00  0.00     0.037 A 
ATOM     51  C   UNL A   1      39.455  32.167  31.020  1.00  0.00     0.049 A 
ATOM     52  C   UNL A   1      44.470  29.715  29.651  1.00  0.00     0.074 A 
ATOM     53  C   UNL A   1      40.053  31.851  32.229  1.00  0.00     0.029 A 
ATOM     54  N   UNL A   1      40.472  32.624  30.186  1.00  0.00    -0.354 N 
ATOM     55  N   UNL A   1      43.475  30.476  30.018  1.00  0.00    -0.248 NA
ATOM     56  C   UNL A   1      45.639  30.490  29.241  1.00  0.00     0.031 C 
ATOM     57  C   UNL A   1      41.459  32.005  32.069  1.00  0.00     0.029 A 
ATOM     58  C   UNL A   1      41.707  32.458  30.784  1.00  0.00     0.049 A 
ATOM     59  H   UNL A   1      40.331  33.013  29.293  1.00  0.00     0.167 HD
ATOM     60  C   UNL A   1      43.814  31.792  29.849  1.00  0.00     0.074 A 
ATOM     61  C   UNL A   1      45.192  31.749  29.395  1.00  0.00     0.031 C 
ATOM     62  C   UNL A   1      42.927  32.809  30.063  1.00  0.00     0.037 A 
BRANCH  49  63
ATOM     63  C   UNL A   1      36.834  32.406  30.960  1.00  0.00     0.057 A 
ATOM     64  C   UNL A   1      36.230  33.501  30.307  1.00  0.00     0.134 A 
ATOM     65  C   UNL A   1      36.162  32.018  32.137  1.00  0.00     0.134 A 
ATOM     66  F   UNL A   1      36.712  33.983  29.152  1.00  0.00    -0.206 F 
ATOM     67  C   UNL A   1      35.104  34.175  30.807  1.00  0.00     0.040 A 
ATOM     68  C   UNL A   1      35.029  32.675  32.643  1.00  0.00     0.040 A 
ATOM     69  F   UNL A   1      36.548  30.991  32.892  1.00  0.00    -0.206 F 
ATOM     70  C   UNL A   1      34.502  33.770  31.986  1.00  0.00     0.006 A 
ENDBRANCH  49  63
BRANCH  50  71
ATOM     71  C   UNL A   1      44.796  27.351  28.461  1.00  0.00     0.057 A 
ATOM     72  C   UNL A   1      45.501  26.159  28.705  1.00  0.00     0.134 A 
ATOM     73  C   UNL A   1      44.136  27.455  27.233  1.00  0.00     0.134 A 
ATOM     74  F   UNL A   1      46.164  25.994  29.861  1.00  0.00    -0.206 F 
ATOM     75  C   UNL A   1      45.433  25.066  27.835  1.00  0.00     0.040 A 
ATOM     76  C   UNL A   1      44.075  26.372  26.347  1.00  0.00     0.040 A 
ATOM     77  F   UNL A   1      43.424  28.551  26.933  1.00  0.00    -0.206 F 
ATOM     78  C   UNL A   1      44.679  25.157  26.671  1.00  0.00     0.006 A 
ENDBRANCH  50  71
BRANCH  62  79
ATOM     79  C   UNL A   1      43.136  34.243  29.646  1.00  0.00     0.057 A 
ATOM     80  C   UNL A   1      43.233  35.318  30.543  1.00  0.00     0.134 A 
ATOM     81  C   UNL A   1      43.418  34.559  28.299  1.00  0.00     0.134 A 
ATOM     82  F   UNL A   1      43.099  35.143  31.865  1.00  0.00    -0.206 F 
ATOM     83  C   UNL A   1      43.537  36.620  30.124  1.00  0.00     0.040 A 
ATOM     84  C   UNL A   1      43.780  35.842  27.880  1.00  0.00     0.040 A 
ATOM     85  F   UNL A   1      43.383  33.624  27.336  1.00  0.00    -0.206 F 
ATOM     86  C   UNL A   1      43.826  36.883  28.792  1.00  0.00     0.006 A 
ENDBRANCH  62  79
ENDBRANCH  36  37
ENDBRANCH  28  31
ENDBRANCH  26  27
ENDBRANCH  25  26
ENDBRANCH  24  25
ENDBRANCH   1  24
TORSDOF 16
ENDMDL
MODEL 3
REMARK VINA RESULT:     -11.6      1.676      2.714
REMARK SMILES Cc1ccccc1OCC[NH+]1CCC(CC(=O)NCCCCNC(=O)c2ccc(-c3c4nc(c(-c5c(F)cccc5F)c5ccc([nH]5)c(-c5c(F)cccc5F)c5nc(c(-c6c(F)cccc6F)c6ccc3[nH]6)C=C5)C=C4)cc2)CC1
REMARK SMILES IDX 19 1 18 2 16 3 17 4 15 6 14 7 11 8 12 9 81 10 13 12 80 13
REMARK SMILES IDX 10 14 9 15 8 16 7 17 1 18 2 19 3 20 4 21 6 22 5 23 20 24
REMARK SMILES IDX 21 25 22 26 23 27 24 28 25 30 26 31 27 32 79 33 28 34 78 35
REMARK SMILES IDX 29 36 30 37 31 38 72 39 32 40 77 41 71 42 73 43 33 44 76 45
REMARK SMILES IDX 70 46 69 47 34 49 60 50 43 51 59 52 44 53 47 54 58 55 74 56
REMARK SMILES IDX 45 57 46 58 57 60 75 61 48 62 35 63 36 64 41 65 37 66 38 67
REMARK SMILES IDX 40 68 42 69 39 70 61 71 62 72 67 73 63 74 64 75 66 76 68 77
REMARK SMILES IDX 65 78 49 79 50 80 55 81 51 82 52 83 54 84 56 85 53 86
REMARK H PARENT 18 5 11 11 23 29 73 48 47 59
REMARK Flexibility Score: inf
ROOT
ATOM      1  C   UNL A   1      33.166  33.751  28.033  1.00  0.00     0.116 C 
ENDROOT
BRANCH   1   2
ATOM      2  N   UNL A   1      34.135  32.652  28.085  1.00  0.00    -0.356 N 
ATOM      3  C   UNL A   1      34.068  31.343  27.690  1.00  0.00     0.220 C 
ATOM      4  O   UNL A   1      35.032  30.617  27.948  1.00  0.00    -0.275 OA
ATOM      5  H   UNL A   1      35.000  32.904  28.482  1.00  0.00     0.163 HD
BRANCH   3   6
ATOM      6  C   UNL A   1      32.866  30.783  26.933  1.00  0.00     0.104 C 
BRANCH   6   7
ATOM      7  C   UNL A   1      33.057  29.305  26.458  1.00  0.00     0.009 C 
ATOM      8  N   UNL A   1      31.692  26.010  24.864  1.00  0.00    -0.332 N 
ATOM      9  C   UNL A   1      31.417  26.359  26.686  1.00  0.00     0.262 C 
ATOM     10  C   UNL A   1      32.584  27.258  23.813  1.00  0.00     0.262 C 
ATOM     11  H   UNL A   1      32.406  25.299  25.027  1.00  0.00     0.348 HD
ATOM     12  C   UNL A   1      31.834  28.123  27.423  1.00  0.00     0.066 C 
ATOM     13  C   UNL A   1      33.394  28.900  24.540  1.00  0.00     0.066 C 
BRANCH   8  14
ATOM     14  C   UNL A   1      30.625  25.354  24.144  1.00  0.00     0.304 C 
BRANCH  14  15
ATOM     15  C   UNL A   1      30.924  23.896  23.922  1.00  0.00     0.290 C 
BRANCH  15  16
ATOM     16  O   UNL A   1      31.262  23.195  25.117  1.00  0.00    -0.487 OA
BRANCH  16  17
ATOM     17  C   UNL A   1      32.429  22.443  25.140  1.00  0.00     0.122 A 
ATOM     18  C   UNL A   1      34.833  24.698  25.317  1.00  0.00     0.048 C 
ATOM     19  C   UNL A   1      33.905  22.862  25.184  1.00  0.00    -0.009 A 
ATOM     20  C   UNL A   1      34.580  21.543  24.972  1.00  0.00     0.007 A 
ATOM     21  C   UNL A   1      34.059  20.242  24.708  1.00  0.00     0.001 A 
ATOM     22  C   UNL A   1      31.920  21.116  24.865  1.00  0.00     0.047 A 
ATOM     23  C   UNL A   1      32.721  20.030  24.626  1.00  0.00     0.004 A 
ENDBRANCH  16  17
ENDBRANCH  15  16
ENDBRANCH  14  15
ENDBRANCH   8  14
ENDBRANCH   6   7
ENDBRANCH   3   6
ENDBRANCH   1   2
BRANCH   1  24
ATOM     24  C   UNL A   1      33.827  35.122  28.295  1.00  0.00     0.023 C 
BRANCH  24  25
ATOM     25  C   UNL A   1      33.235  36.051  29.332  1.00  0.00     0.023 C 
BRANCH  25  26
ATOM     26  C   UNL A   1      33.056  35.412  30.689  1.00  0.00     0.116 C 
BRANCH  26  27
ATOM     27  N   UNL A   1      33.934  35.850  31.768  1.00  0.00    -0.352 N 
ATOM     28  C   UNL A   1      34.933  35.126  32.413  1.00  0.00     0.251 C 
ATOM     29  H   UNL A   1      33.805  36.776  32.077  1.00  0.00     0.163 HD
ATOM     30  O   UNL A   1      35.540  35.626  33.358  1.00  0.00    -0.269 OA
BRANCH  28  31
ATOM     31  C   UNL A   1      35.392  33.818  31.855  1.00  0.00     0.039 A 
ATOM     32  C   UNL A   1      35.479  32.727  32.729  1.00  0.00     0.014 A 
ATOM     33  C   UNL A   1      36.056  33.761  30.641  1.00  0.00     0.014 A 
ATOM     34  C   UNL A   1      36.495  31.794  32.547  1.00  0.00     0.010 A 
ATOM     35  C   UNL A   1      37.191  32.997  30.575  1.00  0.00     0.010 A 
ATOM     36  C   UNL A   1      37.443  32.052  31.566  1.00  0.00    -0.014 A 
BRANCH  36  37
ATOM     37  C   UNL A   1      38.760  31.444  31.489  1.00  0.00     0.031 A 
ATOM     38  C   UNL A   1      38.926  30.227  30.676  1.00  0.00     0.074 A 
ATOM     39  C   UNL A   1      39.813  32.137  31.974  1.00  0.00     0.049 A 
ATOM     40  N   UNL A   1      39.966  29.471  30.694  1.00  0.00    -0.248 NA
ATOM     41  C   UNL A   1      37.873  29.725  29.797  1.00  0.00     0.031 C 
ATOM     42  C   UNL A   1      41.232  31.931  31.696  1.00  0.00     0.029 A 
ATOM     43  N   UNL A   1      39.799  33.094  33.001  1.00  0.00    -0.354 N 
ATOM     44  C   UNL A   1      39.849  28.568  29.660  1.00  0.00     0.074 A 
ATOM     45  C   UNL A   1      38.486  28.694  29.215  1.00  0.00     0.031 C 
ATOM     46  C   UNL A   1      41.951  32.488  32.686  1.00  0.00     0.029 A 
ATOM     47  C   UNL A   1      41.008  32.911  33.709  1.00  0.00     0.049 A 
ATOM     48  H   UNL A   1      39.094  33.754  33.190  1.00  0.00     0.167 HD
ATOM     49  C   UNL A   1      40.973  27.923  29.238  1.00  0.00     0.037 A 
ATOM     50  C   UNL A   1      40.987  32.422  34.985  1.00  0.00     0.037 A 
ATOM     51  C   UNL A   1      42.059  28.147  30.200  1.00  0.00     0.049 A 
ATOM     52  C   UNL A   1      41.659  31.071  35.132  1.00  0.00     0.074 A 
ATOM     53  C   UNL A   1      43.150  29.000  30.212  1.00  0.00     0.029 A 
ATOM     54  N   UNL A   1      41.911  27.680  31.503  1.00  0.00    -0.354 N 
ATOM     55  N   UNL A   1      41.933  30.276  34.133  1.00  0.00    -0.248 NA
ATOM     56  C   UNL A   1      42.053  30.503  36.419  1.00  0.00     0.031 C 
ATOM     57  C   UNL A   1      43.576  29.138  31.562  1.00  0.00     0.029 A 
ATOM     58  C   UNL A   1      42.778  28.333  32.359  1.00  0.00     0.049 A 
ATOM     59  H   UNL A   1      41.276  26.979  31.778  1.00  0.00     0.167 HD
ATOM     60  C   UNL A   1      42.462  29.106  34.608  1.00  0.00     0.074 A 
ATOM     61  C   UNL A   1      42.550  29.312  36.042  1.00  0.00     0.031 C 
ATOM     62  C   UNL A   1      42.752  28.051  33.790  1.00  0.00     0.037 A 
BRANCH  49  63
ATOM     63  C   UNL A   1      41.183  27.288  27.871  1.00  0.00     0.057 A 
ATOM     64  C   UNL A   1      40.755  25.963  27.640  1.00  0.00     0.134 A 
ATOM     65  C   UNL A   1      41.879  27.847  26.779  1.00  0.00     0.134 A 
ATOM     66  F   UNL A   1      40.046  25.286  28.555  1.00  0.00    -0.206 F 
ATOM     67  C   UNL A   1      41.042  25.251  26.464  1.00  0.00     0.040 A 
ATOM     68  C   UNL A   1      42.163  27.152  25.594  1.00  0.00     0.040 A 
ATOM     69  F   UNL A   1      42.347  29.095  26.776  1.00  0.00    -0.206 F 
ATOM     70  C   UNL A   1      41.758  25.841  25.436  1.00  0.00     0.006 A 
ENDBRANCH  49  63
BRANCH  50  71
ATOM     71  C   UNL A   1      39.790  32.870  35.751  1.00  0.00     0.057 A 
ATOM     72  C   UNL A   1      38.727  31.963  35.919  1.00  0.00     0.134 A 
ATOM     73  C   UNL A   1      39.848  33.947  36.640  1.00  0.00     0.134 A 
ATOM     74  F   UNL A   1      38.607  30.910  35.096  1.00  0.00    -0.206 F 
ATOM     75  C   UNL A   1      37.851  32.042  37.006  1.00  0.00     0.040 A 
ATOM     76  C   UNL A   1      38.965  34.044  37.724  1.00  0.00     0.040 A 
ATOM     77  F   UNL A   1      40.842  34.843  36.561  1.00  0.00    -0.206 F 
ATOM     78  C   UNL A   1      37.998  33.062  37.938  1.00  0.00     0.006 A 
ENDBRANCH  50  71
BRANCH  62  79
ATOM     79  C   UNL A   1      43.077  26.655  34.260  1.00  0.00     0.057 A 
ATOM     80  C   UNL A   1      44.361  26.090  34.223  1.00  0.00     0.134 A 
ATOM     81  C   UNL A   1      42.104  25.886  34.934  1.00  0.00     0.134 A 
ATOM     82  F   UNL A   1      45.407  26.756  33.712  1.00  0.00    -0.206 F 
ATOM     83  C   UNL A   1      44.644  24.831  34.768  1.00  0.00     0.040 A 
ATOM     84  C   UNL A   1      42.389  24.656  35.534  1.00  0.00     0.040 A 
ATOM     85  F   UNL A   1      40.838  26.313  35.064  1.00  0.00    -0.206 F 
ATOM     86  C   UNL A   1      43.661  24.116  35.440  1.00  0.00     0.006 A 
ENDBRANCH  62  79
ENDBRANCH  36  37
ENDBRANCH  28  31
ENDBRANCH  26  27
ENDBRANCH  25  26
ENDBRANCH  24  25
ENDBRANCH   1  24
TORSDOF 16
ENDMDL
