MODEL 1
REMARK VINA RESULT:     -12.2      0.000      0.000
REMARK SMILES CC(C)CCc1cc2c(cc1Cl)C=C(C(=O)NCCCCNC(=O)c1ccc(-c3c4nc(c(-c5c(F)cccc5F)c5ccc([nH]5)c(-c5c(F)cccc5F)c5nc(c(-c6c(F)cccc6F)c6ccc3[nH]6)C=C5)C=C4)cc1)[C@@H](C(F)(F)F)O2
REMARK SMILES IDX 19 1 18 2 17 3 15 4 16 5 14 7 6 8 7 9 11 10 8 11 10 12 12 13
REMARK SMILES IDX 9 14 84 15 13 16 79 17 5 18 4 19 2 20 1 21 3 22 80 23 81 24
REMARK SMILES IDX 82 25 83 26 20 27 21 28 22 29 23 30 24 32 25 33 26 34 78 35
REMARK SMILES IDX 27 36 77 37 28 38 29 39 30 40 71 41 31 42 76 43 70 44 72 45
REMARK SMILES IDX 32 46 75 47 69 48 68 49 33 51 59 52 42 53 58 54 43 55 46 56
REMARK SMILES IDX 57 57 73 58 44 59 45 60 56 62 74 63 47 64 34 65 35 66 40 67
REMARK SMILES IDX 36 68 37 69 39 70 41 71 38 72 60 73 61 74 66 75 62 76 63 77
REMARK SMILES IDX 65 78 67 79 64 80 48 81 49 82 54 83 50 84 51 85 53 86 55 87
REMARK SMILES IDX 52 88
REMARK H PARENT 17 6 22 31 72 50 46 61
REMARK Flexibility Score: inf
ROOT
ATOM      1  C   UNL A   1      37.196  22.719  24.461  1.00  0.00     0.023 C 
ENDROOT
BRANCH   1   2
ATOM      2  C   UNL A   1      36.860  23.733  25.552  1.00  0.00     0.116 C 
BRANCH   2   3
ATOM      3  N   UNL A   1      35.872  23.223  26.486  1.00  0.00    -0.352 N 
ATOM      4  C   UNL A   1      34.536  23.336  26.671  1.00  0.00     0.251 C 
ATOM      5  O   UNL A   1      34.087  22.710  27.636  1.00  0.00    -0.270 OA
ATOM      6  H   UNL A   1      36.283  22.640  27.164  1.00  0.00     0.163 HD
BRANCH   4   7
ATOM      7  C   UNL A   1      33.610  24.138  25.817  1.00  0.00     0.067 C 
ATOM      8  C   UNL A   1      31.047  27.913  23.636  1.00  0.00    -0.026 A 
ATOM      9  C   UNL A   1      31.280  26.564  23.324  1.00  0.00     0.052 A 
ATOM     10  C   UNL A   1      31.651  28.441  24.791  1.00  0.00     0.045 A 
ATOM     11  C   UNL A   1      32.094  25.776  24.132  1.00  0.00     0.128 A 
ATOM     12  C   UNL A   1      32.483  27.647  25.592  1.00  0.00     0.032 A 
ATOM     13  Cl  UNL A   1      31.398  30.077  25.286  1.00  0.00    -0.084 Cl
ATOM     14  C   UNL A   1      32.711  26.310  25.261  1.00  0.00     0.019 A 
ATOM     15  O   UNL A   1      32.286  24.484  23.734  1.00  0.00    -0.475 OA
ATOM     16  C   UNL A   1      33.607  25.467  26.044  1.00  0.00     0.025 C 
ATOM     17  C   UNL A   1      32.686  23.558  24.782  1.00  0.00     0.314 C 
BRANCH   8  18
ATOM     18  C   UNL A   1      30.188  28.729  22.696  1.00  0.00     0.037 C 
BRANCH  18  19
ATOM     19  C   UNL A   1      28.693  28.727  23.049  1.00  0.00     0.008 C 
BRANCH  19  20
ATOM     20  C   UNL A   1      27.878  29.928  22.524  1.00  0.00    -0.017 C 
ATOM     21  C   UNL A   1      27.670  31.005  23.589  1.00  0.00     0.007 C 
ATOM     22  C   UNL A   1      28.584  30.537  21.310  1.00  0.00     0.007 C 
ENDBRANCH  19  20
ENDBRANCH  18  19
ENDBRANCH   8  18
BRANCH  17  23
ATOM     23  C   UNL A   1      31.429  22.918  25.405  1.00  0.00     0.429 C 
ATOM     24  F   UNL A   1      30.337  23.188  24.646  1.00  0.00    -0.167 F 
ATOM     25  F   UNL A   1      31.519  21.569  25.481  1.00  0.00    -0.167 F 
ATOM     26  F   UNL A   1      31.177  23.366  26.654  1.00  0.00    -0.167 F 
ENDBRANCH  17  23
ENDBRANCH   4   7
ENDBRANCH   2   3
ENDBRANCH   1   2
BRANCH   1  27
ATOM     27  C   UNL A   1      37.554  21.326  24.985  1.00  0.00     0.023 C 
BRANCH  27  28
ATOM     28  C   UNL A   1      38.813  21.253  25.847  1.00  0.00     0.116 C 
BRANCH  28  29
ATOM     29  N   UNL A   1      39.610  20.049  25.647  1.00  0.00    -0.352 N 
ATOM     30  C   UNL A   1      40.937  19.863  25.967  1.00  0.00     0.251 C 
ATOM     31  H   UNL A   1      39.147  19.282  25.239  1.00  0.00     0.163 HD
ATOM     32  O   UNL A   1      41.518  18.817  25.703  1.00  0.00    -0.269 OA
BRANCH  30  33
ATOM     33  C   UNL A   1      41.660  20.991  26.583  1.00  0.00     0.039 A 
ATOM     34  C   UNL A   1      41.631  21.157  27.970  1.00  0.00     0.014 A 
ATOM     35  C   UNL A   1      42.230  21.959  25.755  1.00  0.00     0.014 A 
ATOM     36  C   UNL A   1      42.014  22.376  28.513  1.00  0.00     0.010 A 
ATOM     37  C   UNL A   1      42.675  23.158  26.312  1.00  0.00     0.010 A 
ATOM     38  C   UNL A   1      42.508  23.399  27.685  1.00  0.00    -0.014 A 
BRANCH  38  39
ATOM     39  C   UNL A   1      42.779  24.736  28.268  1.00  0.00     0.031 A 
ATOM     40  C   UNL A   1      44.188  25.152  28.596  1.00  0.00     0.074 A 
ATOM     41  C   UNL A   1      41.763  25.602  28.429  1.00  0.00     0.049 A 
ATOM     42  N   UNL A   1      44.620  26.285  29.093  1.00  0.00    -0.248 NA
ATOM     43  C   UNL A   1      45.254  24.171  28.334  1.00  0.00     0.031 C 
ATOM     44  C   UNL A   1      40.359  25.321  28.124  1.00  0.00     0.029 A 
ATOM     45  N   UNL A   1      41.760  26.901  28.862  1.00  0.00    -0.354 N 
ATOM     46  C   UNL A   1      45.995  26.143  29.226  1.00  0.00     0.074 A 
ATOM     47  C   UNL A   1      46.329  24.810  28.772  1.00  0.00     0.031 C 
ATOM     48  C   UNL A   1      39.638  26.433  28.330  1.00  0.00     0.029 A 
ATOM     49  C   UNL A   1      40.518  27.485  28.828  1.00  0.00     0.049 A 
ATOM     50  H   UNL A   1      42.570  27.371  29.168  1.00  0.00     0.167 HD
ATOM     51  C   UNL A   1      46.899  27.045  29.678  1.00  0.00     0.037 A 
ATOM     52  C   UNL A   1      40.131  28.726  29.169  1.00  0.00     0.037 A 
ATOM     53  C   UNL A   1      46.574  28.383  30.098  1.00  0.00     0.049 A 
ATOM     54  C   UNL A   1      41.149  29.696  29.690  1.00  0.00     0.074 A 
ATOM     55  C   UNL A   1      47.424  29.378  30.548  1.00  0.00     0.029 A 
ATOM     56  N   UNL A   1      45.294  28.913  30.111  1.00  0.00    -0.354 N 
ATOM     57  N   UNL A   1      42.443  29.541  29.828  1.00  0.00    -0.248 NA
ATOM     58  C   UNL A   1      40.648  31.008  30.121  1.00  0.00     0.031 C 
ATOM     59  C   UNL A   1      46.653  30.505  30.859  1.00  0.00     0.029 A 
ATOM     60  C   UNL A   1      45.328  30.218  30.577  1.00  0.00     0.049 A 
ATOM     61  H   UNL A   1      44.481  28.434  29.832  1.00  0.00     0.167 HD
ATOM     62  C   UNL A   1      42.910  30.731  30.366  1.00  0.00     0.074 A 
ATOM     63  C   UNL A   1      41.766  31.609  30.503  1.00  0.00     0.031 C 
ATOM     64  C   UNL A   1      44.174  31.064  30.724  1.00  0.00     0.037 A 
BRANCH  51  65
ATOM     65  C   UNL A   1      48.330  26.607  29.758  1.00  0.00     0.057 A 
ATOM     66  C   UNL A   1      49.206  26.836  28.690  1.00  0.00     0.134 A 
ATOM     67  C   UNL A   1      48.832  25.926  30.874  1.00  0.00     0.134 A 
ATOM     68  F   UNL A   1      48.785  27.482  27.592  1.00  0.00    -0.206 F 
ATOM     69  C   UNL A   1      50.532  26.402  28.728  1.00  0.00     0.040 A 
ATOM     70  C   UNL A   1      50.162  25.501  30.931  1.00  0.00     0.040 A 
ATOM     71  F   UNL A   1      48.048  25.689  31.936  1.00  0.00    -0.206 F 
ATOM     72  C   UNL A   1      51.014  25.734  29.852  1.00  0.00     0.006 A 
ENDBRANCH  51  65
BRANCH  52  73
ATOM     73  C   UNL A   1      38.709  29.115  29.033  1.00  0.00     0.057 A 
ATOM     74  C   UNL A   1      38.190  29.554  27.810  1.00  0.00     0.134 A 
ATOM     75  C   UNL A   1      37.842  29.070  30.129  1.00  0.00     0.134 A 
ATOM     76  F   UNL A   1      38.976  29.621  26.725  1.00  0.00    -0.206 F 
ATOM     77  C   UNL A   1      36.858  29.951  27.684  1.00  0.00     0.040 A 
ATOM     78  C   UNL A   1      36.503  29.446  30.013  1.00  0.00     0.040 A 
ATOM     79  F   UNL A   1      38.282  28.640  31.321  1.00  0.00    -0.206 F 
ATOM     80  C   UNL A   1      36.011  29.893  28.789  1.00  0.00     0.006 A 
ENDBRANCH  52  73
BRANCH  64  81
ATOM     81  C   UNL A   1      44.367  32.430  31.306  1.00  0.00     0.057 A 
ATOM     82  C   UNL A   1      44.618  33.534  30.483  1.00  0.00     0.134 A 
ATOM     83  C   UNL A   1      44.306  32.646  32.688  1.00  0.00     0.134 A 
ATOM     84  F   UNL A   1      44.690  33.388  29.151  1.00  0.00    -0.206 F 
ATOM     85  C   UNL A   1      44.798  34.810  31.016  1.00  0.00     0.040 A 
ATOM     86  C   UNL A   1      44.468  33.921  33.232  1.00  0.00     0.040 A 
ATOM     87  F   UNL A   1      44.052  31.628  33.523  1.00  0.00    -0.206 F 
ATOM     88  C   UNL A   1      44.718  35.007  32.394  1.00  0.00     0.006 A 
ENDBRANCH  64  81
ENDBRANCH  38  39
ENDBRANCH  30  33
ENDBRANCH  28  29
ENDBRANCH  27  28
ENDBRANCH   1  27
TORSDOF 15
ENDMDL
MODEL 2
REMARK VINA RESULT:     -12.1      0.420      6.087
REMARK SMILES CC(C)CCc1cc2c(cc1Cl)C=C(C(=O)NCCCCNC(=O)c1ccc(-c3c4nc(c(-c5c(F)cccc5F)c5ccc([nH]5)c(-c5c(F)cccc5F)c5nc(c(-c6c(F)cccc6F)c6ccc3[nH]6)C=C5)C=C4)cc1)[C@@H](C(F)(F)F)O2
REMARK SMILES IDX 19 1 18 2 17 3 15 4 16 5 14 7 6 8 7 9 11 10 8 11 10 12 12 13
REMARK SMILES IDX 9 14 84 15 13 16 79 17 5 18 4 19 2 20 1 21 3 22 80 23 81 24
REMARK SMILES IDX 82 25 83 26 20 27 21 28 22 29 23 30 24 32 25 33 26 34 78 35
REMARK SMILES IDX 27 36 77 37 28 38 29 39 30 40 71 41 31 42 76 43 70 44 72 45
REMARK SMILES IDX 32 46 75 47 69 48 68 49 33 51 59 52 42 53 58 54 43 55 46 56
REMARK SMILES IDX 57 57 73 58 44 59 45 60 56 62 74 63 47 64 34 65 35 66 40 67
REMARK SMILES IDX 36 68 37 69 39 70 41 71 38 72 60 73 61 74 66 75 62 76 63 77
REMARK SMILES IDX 65 78 67 79 64 80 48 81 49 82 54 83 50 84 51 85 53 86 55 87
REMARK SMILES IDX 52 88
REMARK H PARENT 17 6 22 31 72 50 46 61
REMARK Flexibility Score: inf
ROOT
ATOM      1  C   UNL A   1      36.940  22.986  24.595  1.00  0.00     0.023 C 
ENDROOT
BRANCH   1   2
ATOM      2  C   UNL A   1      36.677  23.719  25.908  1.00  0.00     0.116 C 
BRANCH   2   3
ATOM      3  N   UNL A   1      35.531  23.175  26.615  1.00  0.00    -0.352 N 
ATOM      4  C   UNL A   1      34.187  23.338  26.591  1.00  0.00     0.251 C 
ATOM      5  O   UNL A   1      33.563  22.649  27.405  1.00  0.00    -0.270 OA
ATOM      6  H   UNL A   1      35.803  22.512  27.290  1.00  0.00     0.163 HD
BRANCH   4   7
ATOM      7  C   UNL A   1      33.443  24.259  25.682  1.00  0.00     0.067 C 
ATOM      8  C   UNL A   1      31.368  28.335  23.526  1.00  0.00    -0.026 A 
ATOM      9  C   UNL A   1      31.640  27.024  23.106  1.00  0.00     0.052 A 
ATOM     10  C   UNL A   1      31.753  28.710  24.825  1.00  0.00     0.045 A 
ATOM     11  C   UNL A   1      32.283  26.124  23.952  1.00  0.00     0.128 A 
ATOM     12  C   UNL A   1      32.414  27.805  25.666  1.00  0.00     0.032 A 
ATOM     13  Cl  UNL A   1      31.430  30.287  25.454  1.00  0.00    -0.084 Cl
ATOM     14  C   UNL A   1      32.685  26.508  25.229  1.00  0.00     0.019 A 
ATOM     15  O   UNL A   1      32.532  24.880  23.447  1.00  0.00    -0.475 OA
ATOM     16  C   UNL A   1      33.412  25.553  26.058  1.00  0.00     0.025 C 
ATOM     17  C   UNL A   1      32.721  23.829  24.436  1.00  0.00     0.314 C 
BRANCH   8  18
ATOM     18  C   UNL A   1      30.706  29.279  22.547  1.00  0.00     0.037 C 
BRANCH  18  19
ATOM     19  C   UNL A   1      29.212  29.519  22.816  1.00  0.00     0.008 C 
BRANCH  19  20
ATOM     20  C   UNL A   1      28.682  30.922  22.452  1.00  0.00    -0.017 C 
ATOM     21  C   UNL A   1      28.050  30.965  21.060  1.00  0.00     0.007 C 
ATOM     22  C   UNL A   1      27.656  31.371  23.495  1.00  0.00     0.007 C 
ENDBRANCH  19  20
ENDBRANCH  18  19
ENDBRANCH   8  18
BRANCH  17  23
ATOM     23  C   UNL A   1      31.363  23.163  24.739  1.00  0.00     0.429 C 
ATOM     24  F   UNL A   1      31.528  21.833  24.953  1.00  0.00    -0.167 F 
ATOM     25  F   UNL A   1      30.781  23.662  25.855  1.00  0.00    -0.167 F 
ATOM     26  F   UNL A   1      30.473  23.306  23.733  1.00  0.00    -0.167 F 
ENDBRANCH  17  23
ENDBRANCH   4   7
ENDBRANCH   2   3
ENDBRANCH   1   2
BRANCH   1  27
ATOM     27  C   UNL A   1      37.517  21.578  24.763  1.00  0.00     0.023 C 
BRANCH  27  28
ATOM     28  C   UNL A   1      38.720  21.469  25.697  1.00  0.00     0.116 C 
BRANCH  28  29
ATOM     29  N   UNL A   1      39.421  20.193  25.628  1.00  0.00    -0.352 N 
ATOM     30  C   UNL A   1      40.716  19.929  26.020  1.00  0.00     0.251 C 
ATOM     31  H   UNL A   1      38.912  19.434  25.261  1.00  0.00     0.163 HD
ATOM     32  O   UNL A   1      41.218  18.823  25.865  1.00  0.00    -0.269 OA
BRANCH  30  33
ATOM     33  C   UNL A   1      41.505  21.043  26.577  1.00  0.00     0.039 A 
ATOM     34  C   UNL A   1      41.463  21.303  27.948  1.00  0.00     0.014 A 
ATOM     35  C   UNL A   1      42.157  21.912  25.700  1.00  0.00     0.014 A 
ATOM     36  C   UNL A   1      41.921  22.527  28.419  1.00  0.00     0.010 A 
ATOM     37  C   UNL A   1      42.676  23.112  26.187  1.00  0.00     0.010 A 
ATOM     38  C   UNL A   1      42.502  23.454  27.537  1.00  0.00    -0.014 A 
BRANCH  38  39
ATOM     39  C   UNL A   1      42.857  24.805  28.038  1.00  0.00     0.031 A 
ATOM     40  C   UNL A   1      41.786  25.836  28.274  1.00  0.00     0.074 A 
ATOM     41  C   UNL A   1      44.136  25.075  28.351  1.00  0.00     0.049 A 
ATOM     42  N   UNL A   1      41.904  27.061  28.725  1.00  0.00    -0.248 NA
ATOM     43  C   UNL A   1      40.401  25.444  27.966  1.00  0.00     0.031 C 
ATOM     44  C   UNL A   1      45.258  24.149  28.188  1.00  0.00     0.029 A 
ATOM     45  N   UNL A   1      44.702  26.197  28.898  1.00  0.00    -0.354 N 
ATOM     46  C   UNL A   1      40.620  27.590  28.729  1.00  0.00     0.074 A 
ATOM     47  C   UNL A   1      39.736  26.562  28.223  1.00  0.00     0.031 C 
ATOM     48  C   UNL A   1      46.370  24.721  28.674  1.00  0.00     0.029 A 
ATOM     49  C   UNL A   1      46.049  26.068  29.134  1.00  0.00     0.049 A 
ATOM     50  H   UNL A   1      44.194  27.014  29.102  1.00  0.00     0.167 HD
ATOM     51  C   UNL A   1      40.212  28.820  29.126  1.00  0.00     0.037 A 
ATOM     52  C   UNL A   1      46.927  26.943  29.655  1.00  0.00     0.037 A 
ATOM     53  C   UNL A   1      41.084  29.832  29.663  1.00  0.00     0.049 A 
ATOM     54  C   UNL A   1      46.454  28.305  30.063  1.00  0.00     0.074 A 
ATOM     55  C   UNL A   1      40.761  31.100  30.116  1.00  0.00     0.029 A 
ATOM     56  N   UNL A   1      42.453  29.686  29.824  1.00  0.00    -0.354 N 
ATOM     57  N   UNL A   1      45.239  28.798  30.043  1.00  0.00    -0.248 NA
ATOM     58  C   UNL A   1      47.478  29.240  30.549  1.00  0.00     0.031 C 
ATOM     59  C   UNL A   1      41.941  31.731  30.528  1.00  0.00     0.029 A 
ATOM     60  C   UNL A   1      42.992  30.846  30.355  1.00  0.00     0.049 A 
ATOM     61  H   UNL A   1      42.966  28.878  29.594  1.00  0.00     0.167 HD
ATOM     62  C   UNL A   1      45.353  30.100  30.506  1.00  0.00     0.074 A 
ATOM     63  C   UNL A   1      46.750  30.312  30.828  1.00  0.00     0.031 C 
ATOM     64  C   UNL A   1      44.388  31.041  30.646  1.00  0.00     0.037 A 
BRANCH  51  65
ATOM     65  C   UNL A   1      38.757  29.145  28.980  1.00  0.00     0.057 A 
ATOM     66  C   UNL A   1      37.887  29.024  30.071  1.00  0.00     0.134 A 
ATOM     67  C   UNL A   1      38.209  29.542  27.754  1.00  0.00     0.134 A 
ATOM     68  F   UNL A   1      38.350  28.647  31.272  1.00  0.00    -0.206 F 
ATOM     69  C   UNL A   1      36.521  29.284  29.947  1.00  0.00     0.040 A 
ATOM     70  C   UNL A   1      36.847  29.821  27.621  1.00  0.00     0.040 A 
ATOM     71  F   UNL A   1      38.992  29.692  26.676  1.00  0.00    -0.206 F 
ATOM     72  C   UNL A   1      35.998  29.687  28.719  1.00  0.00     0.006 A 
ENDBRANCH  51  65
BRANCH  52  73
ATOM     73  C   UNL A   1      48.347  26.551  29.810  1.00  0.00     0.057 A 
ATOM     74  C   UNL A   1      49.294  26.848  28.823  1.00  0.00     0.134 A 
ATOM     75  C   UNL A   1      48.784  25.858  30.943  1.00  0.00     0.134 A 
ATOM     76  F   UNL A   1      48.931  27.509  27.713  1.00  0.00    -0.206 F 
ATOM     77  C   UNL A   1      50.626  26.455  28.950  1.00  0.00     0.040 A 
ATOM     78  C   UNL A   1      50.116  25.475  31.092  1.00  0.00     0.040 A 
ATOM     79  F   UNL A   1      47.922  25.564  31.928  1.00  0.00    -0.206 F 
ATOM     80  C   UNL A   1      51.040  25.769  30.091  1.00  0.00     0.006 A 
ENDBRANCH  52  73
BRANCH  64  81
ATOM     81  C   UNL A   1      44.825  32.379  31.155  1.00  0.00     0.057 A 
ATOM     82  C   UNL A   1      45.205  33.396  30.272  1.00  0.00     0.134 A 
ATOM     83  C   UNL A   1      44.871  32.654  32.527  1.00  0.00     0.134 A 
ATOM     84  F   UNL A   1      45.184  33.190  28.947  1.00  0.00    -0.206 F 
ATOM     85  C   UNL A   1      45.613  34.646  30.738  1.00  0.00     0.040 A 
ATOM     86  C   UNL A   1      45.261  33.906  33.004  1.00  0.00     0.040 A 
ATOM     87  F   UNL A   1      44.502  31.723  33.419  1.00  0.00    -0.206 F 
ATOM     88  C   UNL A   1      45.637  34.905  32.107  1.00  0.00     0.006 A 
ENDBRANCH  64  81
ENDBRANCH  38  39
ENDBRANCH  30  33
ENDBRANCH  28  29
ENDBRANCH  27  28
ENDBRANCH   1  27
TORSDOF 15
ENDMDL
MODEL 3
REMARK VINA RESULT:     -12.0      3.206      7.479
REMARK SMILES CC(C)CCc1cc2c(cc1Cl)C=C(C(=O)NCCCCNC(=O)c1ccc(-c3c4nc(c(-c5c(F)cccc5F)c5ccc([nH]5)c(-c5c(F)cccc5F)c5nc(c(-c6c(F)cccc6F)c6ccc3[nH]6)C=C5)C=C4)cc1)[C@@H](C(F)(F)F)O2
REMARK SMILES IDX 19 1 18 2 17 3 15 4 16 5 14 7 6 8 7 9 11 10 8 11 10 12 12 13
REMARK SMILES IDX 9 14 84 15 13 16 79 17 5 18 4 19 2 20 1 21 3 22 80 23 81 24
REMARK SMILES IDX 82 25 83 26 20 27 21 28 22 29 23 30 24 32 25 33 26 34 78 35
REMARK SMILES IDX 27 36 77 37 28 38 29 39 30 40 71 41 31 42 76 43 70 44 72 45
REMARK SMILES IDX 32 46 75 47 69 48 68 49 33 51 59 52 42 53 58 54 43 55 46 56
REMARK SMILES IDX 57 57 73 58 44 59 45 60 56 62 74 63 47 64 34 65 35 66 40 67
REMARK SMILES IDX 36 68 37 69 39 70 41 71 38 72 60 73 61 74 66 75 62 76 63 77
REMARK SMILES IDX 65 78 67 79 64 80 48 81 49 82 54 83 50 84 51 85 53 86 55 87
REMARK SMILES IDX 52 88
REMARK H PARENT 17 6 22 31 72 50 46 61
REMARK Flexibility Score: inf
ROOT
ATOM      1  C   UNL A   1      36.800  21.594  24.232  1.00  0.00     0.023 C 
ENDROOT
BRANCH   1   2
ATOM      2  C   UNL A   1      36.027  20.702  25.201  1.00  0.00     0.116 C 
BRANCH   2   3
ATOM      3  N   UNL A   1      34.762  20.260  24.643  1.00  0.00    -0.352 N 
ATOM      4  C   UNL A   1      33.506  20.754  24.528  1.00  0.00     0.251 C 
ATOM      5  O   UNL A   1      32.701  20.007  23.962  1.00  0.00    -0.270 OA
ATOM      6  H   UNL A   1      34.836  19.364  24.242  1.00  0.00     0.163 HD
BRANCH   4   7
ATOM      7  C   UNL A   1      33.053  22.088  25.022  1.00  0.00     0.067 C 
ATOM      8  C   UNL A   1      31.973  27.010  25.436  1.00  0.00    -0.026 A 
ATOM      9  C   UNL A   1      31.593  25.851  26.131  1.00  0.00     0.052 A 
ATOM     10  C   UNL A   1      32.828  26.870  24.329  1.00  0.00     0.045 A 
ATOM     11  C   UNL A   1      32.045  24.598  25.727  1.00  0.00     0.128 A 
ATOM     12  C   UNL A   1      33.267  25.604  23.918  1.00  0.00     0.032 A 
ATOM     13  Cl  UNL A   1      33.387  28.235  23.429  1.00  0.00    -0.084 Cl
ATOM     14  C   UNL A   1      32.872  24.462  24.615  1.00  0.00     0.019 A 
ATOM     15  O   UNL A   1      31.599  23.526  26.446  1.00  0.00    -0.475 OA
ATOM     16  C   UNL A   1      33.269  23.125  24.189  1.00  0.00     0.025 C 
ATOM     17  C   UNL A   1      32.426  22.331  26.367  1.00  0.00     0.314 C 
BRANCH   8  18
ATOM     18  C   UNL A   1      31.415  28.338  25.896  1.00  0.00     0.037 C 
BRANCH  18  19
ATOM     19  C   UNL A   1      32.158  28.952  27.093  1.00  0.00     0.008 C 
BRANCH  19  20
ATOM     20  C   UNL A   1      33.456  29.716  26.757  1.00  0.00    -0.017 C 
ATOM     21  C   UNL A   1      33.644  30.960  27.626  1.00  0.00     0.007 C 
ATOM     22  C   UNL A   1      34.659  28.785  26.927  1.00  0.00     0.007 C 
ENDBRANCH  19  20
ENDBRANCH  18  19
ENDBRANCH   8  18
BRANCH  17  23
ATOM     23  C   UNL A   1      33.463  22.351  27.508  1.00  0.00     0.429 C 
ATOM     24  F   UNL A   1      34.477  23.201  27.208  1.00  0.00    -0.167 F 
ATOM     25  F   UNL A   1      32.936  22.779  28.679  1.00  0.00    -0.167 F 
ATOM     26  F   UNL A   1      34.007  21.136  27.742  1.00  0.00    -0.167 F 
ENDBRANCH  17  23
ENDBRANCH   4   7
ENDBRANCH   2   3
ENDBRANCH   1   2
BRANCH   1  27
ATOM     27  C   UNL A   1      36.718  23.089  24.550  1.00  0.00     0.023 C 
BRANCH  27  28
ATOM     28  C   UNL A   1      37.551  23.553  25.743  1.00  0.00     0.116 C 
BRANCH  28  29
ATOM     29  N   UNL A   1      38.895  22.991  25.794  1.00  0.00    -0.352 N 
ATOM     30  C   UNL A   1      40.003  23.530  26.409  1.00  0.00     0.251 C 
ATOM     31  H   UNL A   1      39.025  22.128  25.337  1.00  0.00     0.163 HD
ATOM     32  O   UNL A   1      41.100  22.989  26.341  1.00  0.00    -0.269 OA
BRANCH  30  33
ATOM     33  C   UNL A   1      39.842  24.820  27.106  1.00  0.00     0.039 A 
ATOM     34  C   UNL A   1      40.450  25.966  26.589  1.00  0.00     0.014 A 
ATOM     35  C   UNL A   1      39.215  24.839  28.353  1.00  0.00     0.014 A 
ATOM     36  C   UNL A   1      40.584  27.085  27.401  1.00  0.00     0.010 A 
ATOM     37  C   UNL A   1      39.295  25.988  29.140  1.00  0.00     0.010 A 
ATOM     38  C   UNL A   1      40.036  27.093  28.695  1.00  0.00    -0.014 A 
BRANCH  38  39
ATOM     39  C   UNL A   1      40.311  28.244  29.591  1.00  0.00     0.031 A 
ATOM     40  C   UNL A   1      39.307  29.357  29.731  1.00  0.00     0.074 A 
ATOM     41  C   UNL A   1      41.431  28.245  30.335  1.00  0.00     0.049 A 
ATOM     42  N   UNL A   1      39.365  30.432  30.477  1.00  0.00    -0.248 NA
ATOM     43  C   UNL A   1      38.077  29.253  28.929  1.00  0.00     0.031 C 
ATOM     44  C   UNL A   1      42.466  27.211  30.304  1.00  0.00     0.029 A 
ATOM     45  N   UNL A   1      41.870  29.132  31.282  1.00  0.00    -0.354 N 
ATOM     46  C   UNL A   1      38.199  31.140  30.217  1.00  0.00     0.074 A 
ATOM     47  C   UNL A   1      37.455  30.384  29.233  1.00  0.00     0.031 C 
ATOM     48  C   UNL A   1      43.394  27.495  31.229  1.00  0.00     0.029 A 
ATOM     49  C   UNL A   1      43.046  28.754  31.880  1.00  0.00     0.049 A 
ATOM     50  H   UNL A   1      41.389  29.960  31.512  1.00  0.00     0.167 HD
ATOM     51  C   UNL A   1      37.782  32.311  30.755  1.00  0.00     0.037 A 
ATOM     52  C   UNL A   1      43.768  29.359  32.839  1.00  0.00     0.037 A 
ATOM     53  C   UNL A   1      38.503  33.048  31.760  1.00  0.00     0.049 A 
ATOM     54  C   UNL A   1      43.296  30.667  33.399  1.00  0.00     0.074 A 
ATOM     55  C   UNL A   1      38.149  34.231  32.385  1.00  0.00     0.029 A 
ATOM     56  N   UNL A   1      39.725  32.664  32.291  1.00  0.00    -0.354 N 
ATOM     57  N   UNL A   1      42.200  31.333  33.129  1.00  0.00    -0.248 NA
ATOM     58  C   UNL A   1      44.171  31.315  34.385  1.00  0.00     0.031 C 
ATOM     59  C   UNL A   1      39.172  34.578  33.277  1.00  0.00     0.029 A 
ATOM     60  C   UNL A   1      40.147  33.596  33.225  1.00  0.00     0.049 A 
ATOM     61  H   UNL A   1      40.219  31.850  32.041  1.00  0.00     0.167 HD
ATOM     62  C   UNL A   1      42.256  32.482  33.905  1.00  0.00     0.074 A 
ATOM     63  C   UNL A   1      43.479  32.408  34.679  1.00  0.00     0.031 C 
ATOM     64  C   UNL A   1      41.377  33.511  33.966  1.00  0.00     0.037 A 
BRANCH  51  65
ATOM     65  C   UNL A   1      36.488  32.878  30.255  1.00  0.00     0.057 A 
ATOM     66  C   UNL A   1      36.452  33.645  29.084  1.00  0.00     0.134 A 
ATOM     67  C   UNL A   1      35.286  32.698  30.950  1.00  0.00     0.134 A 
ATOM     68  F   UNL A   1      37.570  33.856  28.374  1.00  0.00    -0.206 F 
ATOM     69  C   UNL A   1      35.265  34.215  28.622  1.00  0.00     0.040 A 
ATOM     70  C   UNL A   1      34.088  33.249  30.489  1.00  0.00     0.040 A 
ATOM     71  F   UNL A   1      35.252  31.961  32.070  1.00  0.00    -0.206 F 
ATOM     72  C   UNL A   1      34.077  34.016  29.324  1.00  0.00     0.006 A 
ENDBRANCH  51  65
BRANCH  52  73
ATOM     73  C   UNL A   1      45.020  28.732  33.321  1.00  0.00     0.057 A 
ATOM     74  C   UNL A   1      46.247  28.988  32.699  1.00  0.00     0.134 A 
ATOM     75  C   UNL A   1      45.012  27.849  34.406  1.00  0.00     0.134 A 
ATOM     76  F   UNL A   1      46.314  29.825  31.652  1.00  0.00    -0.206 F 
ATOM     77  C   UNL A   1      47.424  28.376  33.129  1.00  0.00     0.040 A 
ATOM     78  C   UNL A   1      46.185  27.244  34.858  1.00  0.00     0.040 A 
ATOM     79  F   UNL A   1      43.867  27.581  35.050  1.00  0.00    -0.206 F 
ATOM     80  C   UNL A   1      47.394  27.504  34.216  1.00  0.00     0.006 A 
ENDBRANCH  52  73
BRANCH  64  81
ATOM     81  C   UNL A   1      41.725  34.635  34.892  1.00  0.00     0.057 A 
ATOM     82  C   UNL A   1      41.397  34.575  36.252  1.00  0.00     0.134 A 
ATOM     83  C   UNL A   1      42.385  35.780  34.430  1.00  0.00     0.134 A 
ATOM     84  F   UNL A   1      40.763  33.505  36.753  1.00  0.00    -0.206 F 
ATOM     85  C   UNL A   1      41.718  35.617  37.122  1.00  0.00     0.040 A 
ATOM     86  C   UNL A   1      42.726  36.821  35.293  1.00  0.00     0.040 A 
ATOM     87  F   UNL A   1      42.738  35.885  33.140  1.00  0.00    -0.206 F 
ATOM     88  C   UNL A   1      42.389  36.742  36.644  1.00  0.00     0.006 A 
ENDBRANCH  64  81
ENDBRANCH  38  39
ENDBRANCH  30  33
ENDBRANCH  28  29
ENDBRANCH  27  28
ENDBRANCH   1  27
TORSDOF 15
ENDMDL
