MODEL 1
REMARK VINA RESULT:     -13.2      0.000      0.000
REMARK SMILES Cc1cc(OCC(=O)N[C@@H](Cc2ccc(Cl)cc2)C(=O)NCCCCNC(=O)c2ccc(-c3c4nc(c(-c5c(F)cccc5F)c5ccc([nH]5)c(-c5c(F)cccc5F)c5nc(c(-c6c(F)cccc6F)c6ccc3[nH]6)C=C5)C=C4)cc2)c2c(C)c(C)c(=O)oc2c1
REMARK SMILES IDX 22 1 21 2 19 3 20 4 10 6 9 7 7 8 8 9 6 11 5 12 4 13 1 14
REMARK SMILES IDX 2 15 3 16 92 17 91 18 83 19 90 20 84 21 88 22 85 23 86 24
REMARK SMILES IDX 89 25 87 26 11 27 12 28 13 29 18 30 14 31 17 32 15 33 16 34
REMARK SMILES IDX 23 35 24 36 25 37 26 38 27 39 28 41 29 42 30 43 82 44 31 45
REMARK SMILES IDX 81 46 32 47 33 48 34 49 75 50 35 51 80 52 74 53 76 54 36 55
REMARK SMILES IDX 79 56 73 57 72 58 37 60 63 61 46 62 62 63 47 64 50 65 61 66
REMARK SMILES IDX 77 67 48 68 49 69 60 71 78 72 51 73 38 74 39 75 44 76 40 77
REMARK SMILES IDX 41 78 43 79 45 80 42 81 64 82 65 83 70 84 66 85 67 86 69 87
REMARK SMILES IDX 71 88 68 89 52 90 53 91 58 92 54 93 55 94 57 95 59 96 56 97
REMARK H PARENT 21 5 9 10 26 40 76 59 50 70
REMARK Flexibility Score: inf
ROOT
ATOM      1  C   UNL A   1      34.162  28.649  27.303  1.00  0.00     0.116 C 
ENDROOT
BRANCH   1   2
ATOM      2  N   UNL A   1      32.754  28.709  27.638  1.00  0.00    -0.354 N 
ATOM      3  C   UNL A   1      31.740  27.843  27.354  1.00  0.00     0.242 C 
ATOM      4  O   UNL A   1      30.736  27.909  28.073  1.00  0.00    -0.273 OA
ATOM      5  H   UNL A   1      32.486  29.503  28.154  1.00  0.00     0.163 HD
BRANCH   3   6
ATOM      6  C   UNL A   1      31.834  26.738  26.273  1.00  0.00     0.175 C 
BRANCH   6   7
ATOM      7  N   UNL A   1      30.800  25.712  26.406  1.00  0.00    -0.341 N 
ATOM      8  C   UNL A   1      30.948  24.405  26.759  1.00  0.00     0.258 C 
ATOM      9  O   UNL A   1      29.947  23.789  27.132  1.00  0.00    -0.271 OA
ATOM     10  H   UNL A   1      29.879  26.003  26.216  1.00  0.00     0.164 HD
BRANCH   8  11
ATOM     11  C   UNL A   1      32.320  23.720  26.657  1.00  0.00     0.329 C 
BRANCH  11  12
ATOM     12  O   UNL A   1      32.789  23.363  25.360  1.00  0.00    -0.483 OA
BRANCH  12  13
ATOM     13  C   UNL A   1      33.402  22.148  25.183  1.00  0.00     0.131 A 
ATOM     14  C   UNL A   1      32.437  18.531  24.374  1.00  0.00     0.044 C 
ATOM     15  C   UNL A   1      33.255  19.750  24.678  1.00  0.00    -0.044 A 
ATOM     16  C   UNL A   1      32.648  20.978  24.945  1.00  0.00     0.050 A 
ATOM     17  C   UNL A   1      34.638  19.674  24.743  1.00  0.00     0.051 A 
ATOM     18  C   UNL A   1      35.384  20.820  25.045  1.00  0.00     0.142 A 
ATOM     19  C   UNL A   1      34.816  22.085  25.259  1.00  0.00     0.063 A 
ATOM     20  O   UNL A   1      36.766  20.591  25.127  1.00  0.00    -0.422 OA
ATOM     21  C   UNL A   1      35.763  23.208  25.538  1.00  0.00    -0.026 A 
ATOM     22  C   UNL A   1      37.644  21.580  25.503  1.00  0.00     0.339 A 
ATOM     23  C   UNL A   1      35.261  24.624  25.665  1.00  0.00     0.046 C 
ATOM     24  C   UNL A   1      37.084  22.944  25.677  1.00  0.00     0.038 A 
ATOM     25  O   UNL A   1      38.838  21.343  25.656  1.00  0.00    -0.246 OA
ATOM     26  C   UNL A   1      38.152  23.950  26.033  1.00  0.00     0.052 C 
ENDBRANCH  12  13
ENDBRANCH  11  12
ENDBRANCH   8  11
ENDBRANCH   6   7
BRANCH   6  27
ATOM     27  C   UNL A   1      32.017  27.282  24.842  1.00  0.00     0.070 C 
BRANCH  27  28
ATOM     28  C   UNL A   1      30.881  28.089  24.262  1.00  0.00    -0.045 A 
ATOM     29  C   UNL A   1      29.817  27.446  23.610  1.00  0.00     0.005 A 
ATOM     30  C   UNL A   1      30.887  29.491  24.338  1.00  0.00     0.005 A 
ATOM     31  C   UNL A   1      28.805  28.192  23.000  1.00  0.00     0.021 A 
ATOM     32  C   UNL A   1      29.879  30.236  23.720  1.00  0.00     0.021 A 
ATOM     33  C   UNL A   1      28.849  29.583  23.045  1.00  0.00     0.041 A 
ATOM     34  Cl  UNL A   1      27.637  30.501  22.244  1.00  0.00    -0.084 Cl
ENDBRANCH  27  28
ENDBRANCH   6  27
ENDBRANCH   3   6
ENDBRANCH   1   2
BRANCH   1  35
ATOM     35  C   UNL A   1      34.729  29.958  26.776  1.00  0.00     0.023 C 
BRANCH  35  36
ATOM     36  C   UNL A   1      34.428  31.180  27.642  1.00  0.00     0.023 C 
BRANCH  36  37
ATOM     37  C   UNL A   1      35.486  31.539  28.683  1.00  0.00     0.116 C 
BRANCH  37  38
ATOM     38  N   UNL A   1      35.423  30.758  29.912  1.00  0.00    -0.352 N 
ATOM     39  C   UNL A   1      36.450  30.090  30.548  1.00  0.00     0.251 C 
ATOM     40  H   UNL A   1      34.539  30.700  30.340  1.00  0.00     0.163 HD
ATOM     41  O   UNL A   1      36.241  29.414  31.545  1.00  0.00    -0.269 OA
BRANCH  39  42
ATOM     42  C   UNL A   1      37.801  30.149  29.952  1.00  0.00     0.039 A 
ATOM     43  C   UNL A   1      37.995  29.800  28.615  1.00  0.00     0.014 A 
ATOM     44  C   UNL A   1      38.891  30.422  30.784  1.00  0.00     0.014 A 
ATOM     45  C   UNL A   1      39.281  29.520  28.167  1.00  0.00     0.010 A 
ATOM     46  C   UNL A   1      40.186  30.213  30.306  1.00  0.00     0.010 A 
ATOM     47  C   UNL A   1      40.386  29.686  29.020  1.00  0.00    -0.014 A 
BRANCH  47  48
ATOM     48  C   UNL A   1      41.723  29.214  28.580  1.00  0.00     0.031 A 
ATOM     49  C   UNL A   1      42.907  30.149  28.611  1.00  0.00     0.074 A 
ATOM     50  C   UNL A   1      41.895  27.925  28.235  1.00  0.00     0.049 A 
ATOM     51  N   UNL A   1      44.152  29.917  28.281  1.00  0.00    -0.248 NA
ATOM     52  C   UNL A   1      42.659  31.524  29.075  1.00  0.00     0.031 C 
ATOM     53  C   UNL A   1      40.839  26.913  28.198  1.00  0.00     0.029 A 
ATOM     54  N   UNL A   1      43.028  27.240  27.881  1.00  0.00    -0.354 N 
ATOM     55  C   UNL A   1      44.830  31.115  28.477  1.00  0.00     0.074 A 
ATOM     56  C   UNL A   1      43.854  32.081  28.932  1.00  0.00     0.031 C 
ATOM     57  C   UNL A   1      41.381  25.725  27.889  1.00  0.00     0.029 A 
ATOM     58  C   UNL A   1      42.811  25.903  27.654  1.00  0.00     0.049 A 
ATOM     59  H   UNL A   1      43.912  27.664  27.797  1.00  0.00     0.167 HD
ATOM     60  C   UNL A   1      46.147  31.385  28.309  1.00  0.00     0.037 A 
ATOM     61  C   UNL A   1      43.666  24.932  27.288  1.00  0.00     0.037 A 
ATOM     62  C   UNL A   1      47.127  30.422  27.881  1.00  0.00     0.049 A 
ATOM     63  C   UNL A   1      45.112  25.270  27.064  1.00  0.00     0.074 A 
ATOM     64  C   UNL A   1      48.485  30.602  27.674  1.00  0.00     0.029 A 
ATOM     65  N   UNL A   1      46.854  29.091  27.605  1.00  0.00    -0.354 N 
ATOM     66  N   UNL A   1      45.730  26.413  27.229  1.00  0.00    -0.248 NA
ATOM     67  C   UNL A   1      45.977  24.181  26.587  1.00  0.00     0.031 C 
ATOM     68  C   UNL A   1      49.029  29.384  27.249  1.00  0.00     0.029 A 
ATOM     69  C   UNL A   1      48.016  28.440  27.222  1.00  0.00     0.049 A 
ATOM     70  H   UNL A   1      45.967  28.671  27.671  1.00  0.00     0.167 HD
ATOM     71  C   UNL A   1      47.055  26.180  26.890  1.00  0.00     0.074 A 
ATOM     72  C   UNL A   1      47.156  24.781  26.529  1.00  0.00     0.031 C 
ATOM     73  C   UNL A   1      48.095  27.048  26.870  1.00  0.00     0.037 A 
BRANCH  60  74
ATOM     74  C   UNL A   1      46.606  32.787  28.581  1.00  0.00     0.057 A 
ATOM     75  C   UNL A   1      46.631  33.742  27.559  1.00  0.00     0.134 A 
ATOM     76  C   UNL A   1      47.056  33.181  29.848  1.00  0.00     0.134 A 
ATOM     77  F   UNL A   1      46.217  33.429  26.322  1.00  0.00    -0.206 F 
ATOM     78  C   UNL A   1      47.092  35.041  27.784  1.00  0.00     0.040 A 
ATOM     79  C   UNL A   1      47.502  34.482  30.091  1.00  0.00     0.040 A 
ATOM     80  F   UNL A   1      47.042  32.317  30.873  1.00  0.00    -0.206 F 
ATOM     81  C   UNL A   1      47.526  35.414  29.055  1.00  0.00     0.006 A 
ENDBRANCH  60  74
BRANCH  61  82
ATOM     82  C   UNL A   1      43.179  23.545  27.100  1.00  0.00     0.057 A 
ATOM     83  C   UNL A   1      42.987  22.687  28.190  1.00  0.00     0.134 A 
ATOM     84  C   UNL A   1      42.878  23.052  25.826  1.00  0.00     0.134 A 
ATOM     85  F   UNL A   1      43.260  23.102  29.436  1.00  0.00    -0.206 F 
ATOM     86  C   UNL A   1      42.518  21.384  28.018  1.00  0.00     0.040 A 
ATOM     87  C   UNL A   1      42.386  21.759  25.642  1.00  0.00     0.040 A 
ATOM     88  F   UNL A   1      43.023  23.836  24.748  1.00  0.00    -0.206 F 
ATOM     89  C   UNL A   1      42.210  20.921  26.741  1.00  0.00     0.006 A 
ENDBRANCH  61  82
BRANCH  73  90
ATOM     90  C   UNL A   1      49.427  26.495  26.465  1.00  0.00     0.057 A 
ATOM     91  C   UNL A   1      49.870  26.596  25.141  1.00  0.00     0.134 A 
ATOM     92  C   UNL A   1      50.267  25.858  27.386  1.00  0.00     0.134 A 
ATOM     93  F   UNL A   1      49.108  27.191  24.211  1.00  0.00    -0.206 F 
ATOM     94  C   UNL A   1      51.108  26.087  24.748  1.00  0.00     0.040 A 
ATOM     95  C   UNL A   1      51.516  25.362  27.009  1.00  0.00     0.040 A 
ATOM     96  F   UNL A   1      49.905  25.747  28.673  1.00  0.00    -0.206 F 
ATOM     97  C   UNL A   1      51.937  25.474  25.685  1.00  0.00     0.006 A 
ENDBRANCH  73  90
ENDBRANCH  47  48
ENDBRANCH  39  42
ENDBRANCH  37  38
ENDBRANCH  36  37
ENDBRANCH  35  36
ENDBRANCH   1  35
TORSDOF 17
ENDMDL
MODEL 2
REMARK VINA RESULT:     -13.1      2.021      3.493
REMARK SMILES Cc1cc(OCC(=O)N[C@@H](Cc2ccc(Cl)cc2)C(=O)NCCCCNC(=O)c2ccc(-c3c4nc(c(-c5c(F)cccc5F)c5ccc([nH]5)c(-c5c(F)cccc5F)c5nc(c(-c6c(F)cccc6F)c6ccc3[nH]6)C=C5)C=C4)cc2)c2c(C)c(C)c(=O)oc2c1
REMARK SMILES IDX 22 1 21 2 19 3 20 4 10 6 9 7 7 8 8 9 6 11 5 12 4 13 1 14
REMARK SMILES IDX 2 15 3 16 92 17 91 18 83 19 90 20 84 21 88 22 85 23 86 24
REMARK SMILES IDX 89 25 87 26 11 27 12 28 13 29 18 30 14 31 17 32 15 33 16 34
REMARK SMILES IDX 23 35 24 36 25 37 26 38 27 39 28 41 29 42 30 43 82 44 31 45
REMARK SMILES IDX 81 46 32 47 33 48 34 49 75 50 35 51 80 52 74 53 76 54 36 55
REMARK SMILES IDX 79 56 73 57 72 58 37 60 63 61 46 62 62 63 47 64 50 65 61 66
REMARK SMILES IDX 77 67 48 68 49 69 60 71 78 72 51 73 38 74 39 75 44 76 40 77
REMARK SMILES IDX 41 78 43 79 45 80 42 81 64 82 65 83 70 84 66 85 67 86 69 87
REMARK SMILES IDX 71 88 68 89 52 90 53 91 58 92 54 93 55 94 57 95 59 96 56 97
REMARK H PARENT 21 5 9 10 26 40 76 59 50 70
REMARK Flexibility Score: inf
ROOT
ATOM      1  C   UNL A   1      32.062  27.316  26.525  1.00  0.00     0.116 C 
ENDROOT
BRANCH   1   2
ATOM      2  N   UNL A   1      31.097  26.247  26.678  1.00  0.00    -0.354 N 
ATOM      3  C   UNL A   1      30.414  25.531  25.740  1.00  0.00     0.242 C 
ATOM      4  O   UNL A   1      29.968  24.434  26.096  1.00  0.00    -0.273 OA
ATOM      5  H   UNL A   1      30.903  25.996  27.610  1.00  0.00     0.163 HD
BRANCH   3   6
ATOM      6  C   UNL A   1      30.273  25.970  24.262  1.00  0.00     0.175 C 
BRANCH   6   7
ATOM      7  N   UNL A   1      30.803  24.989  23.316  1.00  0.00    -0.341 N 
ATOM      8  C   UNL A   1      31.887  24.177  23.460  1.00  0.00     0.258 C 
ATOM      9  O   UNL A   1      31.984  23.202  22.712  1.00  0.00    -0.271 OA
ATOM     10  H   UNL A   1      30.314  24.903  22.466  1.00  0.00     0.164 HD
BRANCH   8  11
ATOM     11  C   UNL A   1      32.969  24.498  24.504  1.00  0.00     0.329 C 
BRANCH  11  12
ATOM     12  O   UNL A   1      33.281  23.495  25.466  1.00  0.00    -0.483 OA
BRANCH  12  13
ATOM     13  C   UNL A   1      34.499  22.865  25.402  1.00  0.00     0.131 A 
ATOM     14  C   UNL A   1      38.213  23.748  25.720  1.00  0.00     0.044 C 
ATOM     15  C   UNL A   1      36.948  22.962  25.541  1.00  0.00    -0.044 A 
ATOM     16  C   UNL A   1      35.704  23.593  25.518  1.00  0.00     0.050 A 
ATOM     17  C   UNL A   1      36.991  21.589  25.350  1.00  0.00     0.051 A 
ATOM     18  C   UNL A   1      35.801  20.875  25.169  1.00  0.00     0.142 A 
ATOM     19  C   UNL A   1      34.528  21.462  25.200  1.00  0.00     0.063 A 
ATOM     20  O   UNL A   1      35.994  19.504  24.938  1.00  0.00    -0.422 OA
ATOM     21  C   UNL A   1      33.360  20.545  25.020  1.00  0.00    -0.026 A 
ATOM     22  C   UNL A   1      34.945  18.663  24.647  1.00  0.00     0.339 A 
ATOM     23  C   UNL A   1      31.950  21.061  25.156  1.00  0.00     0.046 C 
ATOM     24  C   UNL A   1      33.579  19.240  24.733  1.00  0.00     0.038 A 
ATOM     25  O   UNL A   1      35.136  17.486  24.362  1.00  0.00    -0.246 OA
ATOM     26  C   UNL A   1      32.514  18.209  24.450  1.00  0.00     0.052 C 
ENDBRANCH  12  13
ENDBRANCH  11  12
ENDBRANCH   8  11
ENDBRANCH   6   7
BRANCH   6  27
ATOM     27  C   UNL A   1      28.874  26.515  23.905  1.00  0.00     0.070 C 
BRANCH  27  28
ATOM     28  C   UNL A   1      28.811  27.880  23.264  1.00  0.00    -0.045 A 
ATOM     29  C   UNL A   1      29.980  28.490  22.782  1.00  0.00     0.005 A 
ATOM     30  C   UNL A   1      27.592  28.569  23.170  1.00  0.00     0.005 A 
ATOM     31  C   UNL A   1      29.939  29.786  22.263  1.00  0.00     0.021 A 
ATOM     32  C   UNL A   1      27.555  29.869  22.659  1.00  0.00     0.021 A 
ATOM     33  C   UNL A   1      28.730  30.475  22.218  1.00  0.00     0.041 A 
ATOM     34  Cl  UNL A   1      28.691  32.092  21.635  1.00  0.00    -0.084 Cl
ENDBRANCH  27  28
ENDBRANCH   6  27
ENDBRANCH   3   6
ENDBRANCH   1   2
BRANCH   1  35
ATOM     35  C   UNL A   1      31.757  28.549  27.362  1.00  0.00     0.023 C 
BRANCH  35  36
ATOM     36  C   UNL A   1      32.375  29.845  26.841  1.00  0.00     0.023 C 
BRANCH  36  37
ATOM     37  C   UNL A   1      33.803  30.135  27.297  1.00  0.00     0.116 C 
BRANCH  37  38
ATOM     38  N   UNL A   1      33.916  31.122  28.362  1.00  0.00    -0.352 N 
ATOM     39  C   UNL A   1      34.977  31.329  29.221  1.00  0.00     0.251 C 
ATOM     40  H   UNL A   1      33.140  31.714  28.484  1.00  0.00     0.163 HD
ATOM     41  O   UNL A   1      34.911  32.155  30.119  1.00  0.00    -0.269 OA
BRANCH  39  42
ATOM     42  C   UNL A   1      36.174  30.473  29.078  1.00  0.00     0.039 A 
ATOM     43  C   UNL A   1      36.629  29.716  30.158  1.00  0.00     0.014 A 
ATOM     44  C   UNL A   1      36.915  30.545  27.895  1.00  0.00     0.014 A 
ATOM     45  C   UNL A   1      37.921  29.204  30.132  1.00  0.00     0.010 A 
ATOM     46  C   UNL A   1      38.183  29.963  27.845  1.00  0.00     0.010 A 
ATOM     47  C   UNL A   1      38.725  29.356  28.989  1.00  0.00    -0.014 A 
BRANCH  47  48
ATOM     48  C   UNL A   1      40.155  28.960  29.046  1.00  0.00     0.031 A 
ATOM     49  C   UNL A   1      41.175  29.882  29.666  1.00  0.00     0.074 A 
ATOM     50  C   UNL A   1      40.525  27.737  28.622  1.00  0.00     0.049 A 
ATOM     51  N   UNL A   1      42.463  29.706  29.821  1.00  0.00    -0.248 NA
ATOM     52  C   UNL A   1      40.683  31.171  30.181  1.00  0.00     0.031 C 
ATOM     53  C   UNL A   1      39.630  26.740  28.036  1.00  0.00     0.029 A 
ATOM     54  N   UNL A   1      41.747  27.116  28.649  1.00  0.00    -0.354 N 
ATOM     55  C   UNL A   1      42.937  30.862  30.430  1.00  0.00     0.074 A 
ATOM     56  C   UNL A   1      41.804  31.747  30.595  1.00  0.00     0.031 C 
ATOM     57  C   UNL A   1      40.322  25.613  27.803  1.00  0.00     0.029 A 
ATOM     58  C   UNL A   1      41.717  25.829  28.173  1.00  0.00     0.049 A 
ATOM     59  H   UNL A   1      42.567  27.551  28.977  1.00  0.00     0.167 HD
ATOM     60  C   UNL A   1      44.198  31.158  30.829  1.00  0.00     0.037 A 
ATOM     61  C   UNL A   1      42.705  24.927  28.041  1.00  0.00     0.037 A 
ATOM     62  C   UNL A   1      45.324  30.273  30.690  1.00  0.00     0.049 A 
ATOM     63  C   UNL A   1      44.101  25.298  28.448  1.00  0.00     0.074 A 
ATOM     64  C   UNL A   1      46.643  30.486  31.057  1.00  0.00     0.029 A 
ATOM     65  N   UNL A   1      45.261  28.999  30.149  1.00  0.00    -0.354 N 
ATOM     66  N   UNL A   1      44.536  26.405  28.998  1.00  0.00    -0.248 NA
ATOM     67  C   UNL A   1      45.148  24.296  28.203  1.00  0.00     0.031 C 
ATOM     68  C   UNL A   1      47.382  29.348  30.715  1.00  0.00     0.029 A 
ATOM     69  C   UNL A   1      46.518  28.416  30.164  1.00  0.00     0.049 A 
ATOM     70  H   UNL A   1      44.445  28.571  29.804  1.00  0.00     0.167 HD
ATOM     71  C   UNL A   1      45.901  26.230  29.175  1.00  0.00     0.074 A 
ATOM     72  C   UNL A   1      46.219  24.901  28.694  1.00  0.00     0.031 C 
ATOM     73  C   UNL A   1      46.813  27.093  29.684  1.00  0.00     0.037 A 
BRANCH  60  74
ATOM     74  C   UNL A   1      44.428  32.505  31.449  1.00  0.00     0.057 A 
ATOM     75  C   UNL A   1      44.289  32.689  32.829  1.00  0.00     0.134 A 
ATOM     76  C   UNL A   1      44.752  33.626  30.674  1.00  0.00     0.134 A 
ATOM     77  F   UNL A   1      43.977  31.657  33.627  1.00  0.00    -0.206 F 
ATOM     78  C   UNL A   1      44.460  33.943  33.419  1.00  0.00     0.040 A 
ATOM     79  C   UNL A   1      44.944  34.882  31.254  1.00  0.00     0.040 A 
ATOM     80  F   UNL A   1      44.915  33.512  29.348  1.00  0.00    -0.206 F 
ATOM     81  C   UNL A   1      44.792  35.043  32.630  1.00  0.00     0.006 A 
ENDBRANCH  60  74
BRANCH  61  82
ATOM     82  C   UNL A   1      42.415  23.582  27.488  1.00  0.00     0.057 A 
ATOM     83  C   UNL A   1      42.379  23.355  26.107  1.00  0.00     0.134 A 
ATOM     84  C   UNL A   1      42.185  22.490  28.332  1.00  0.00     0.134 A 
ATOM     85  F   UNL A   1      42.590  24.363  25.249  1.00  0.00    -0.206 F 
ATOM     86  C   UNL A   1      42.117  22.088  25.584  1.00  0.00     0.040 A 
ATOM     87  C   UNL A   1      41.945  21.213  27.822  1.00  0.00     0.040 A 
ATOM     88  F   UNL A   1      42.228  22.644  29.663  1.00  0.00    -0.206 F 
ATOM     89  C   UNL A   1      41.907  21.012  26.443  1.00  0.00     0.006 A 
ENDBRANCH  61  82
BRANCH  73  90
ATOM     90  C   UNL A   1      48.229  26.611  29.759  1.00  0.00     0.057 A 
ATOM     91  C   UNL A   1      48.688  25.917  30.884  1.00  0.00     0.134 A 
ATOM     92  C   UNL A   1      49.138  26.840  28.719  1.00  0.00     0.134 A 
ATOM     93  F   UNL A   1      47.867  25.670  31.916  1.00  0.00    -0.206 F 
ATOM     94  C   UNL A   1      50.004  25.461  30.971  1.00  0.00     0.040 A 
ATOM     95  C   UNL A   1      50.451  26.373  28.785  1.00  0.00     0.040 A 
ATOM     96  F   UNL A   1      48.751  27.484  27.608  1.00  0.00    -0.206 F 
ATOM     97  C   UNL A   1      50.888  25.683  29.916  1.00  0.00     0.006 A 
ENDBRANCH  73  90
ENDBRANCH  47  48
ENDBRANCH  39  42
ENDBRANCH  37  38
ENDBRANCH  36  37
ENDBRANCH  35  36
ENDBRANCH   1  35
TORSDOF 17
ENDMDL
MODEL 3
REMARK VINA RESULT:     -13.1      1.656      6.400
REMARK SMILES Cc1cc(OCC(=O)N[C@@H](Cc2ccc(Cl)cc2)C(=O)NCCCCNC(=O)c2ccc(-c3c4nc(c(-c5c(F)cccc5F)c5ccc([nH]5)c(-c5c(F)cccc5F)c5nc(c(-c6c(F)cccc6F)c6ccc3[nH]6)C=C5)C=C4)cc2)c2c(C)c(C)c(=O)oc2c1
REMARK SMILES IDX 22 1 21 2 19 3 20 4 10 6 9 7 7 8 8 9 6 11 5 12 4 13 1 14
REMARK SMILES IDX 2 15 3 16 92 17 91 18 83 19 90 20 84 21 88 22 85 23 86 24
REMARK SMILES IDX 89 25 87 26 11 27 12 28 13 29 18 30 14 31 17 32 15 33 16 34
REMARK SMILES IDX 23 35 24 36 25 37 26 38 27 39 28 41 29 42 30 43 82 44 31 45
REMARK SMILES IDX 81 46 32 47 33 48 34 49 75 50 35 51 80 52 74 53 76 54 36 55
REMARK SMILES IDX 79 56 73 57 72 58 37 60 63 61 46 62 62 63 47 64 50 65 61 66
REMARK SMILES IDX 77 67 48 68 49 69 60 71 78 72 51 73 38 74 39 75 44 76 40 77
REMARK SMILES IDX 41 78 43 79 45 80 42 81 64 82 65 83 70 84 66 85 67 86 69 87
REMARK SMILES IDX 71 88 68 89 52 90 53 91 58 92 54 93 55 94 57 95 59 96 56 97
REMARK H PARENT 21 5 9 10 26 40 76 59 50 70
REMARK Flexibility Score: inf
ROOT
ATOM      1  C   UNL A   1      32.303  27.113  26.533  1.00  0.00     0.116 C 
ENDROOT
BRANCH   1   2
ATOM      2  N   UNL A   1      31.353  26.020  26.570  1.00  0.00    -0.354 N 
ATOM      3  C   UNL A   1      30.685  25.393  25.560  1.00  0.00     0.242 C 
ATOM      4  O   UNL A   1      30.254  24.259  25.799  1.00  0.00    -0.273 OA
ATOM      5  H   UNL A   1      31.158  25.673  27.471  1.00  0.00     0.163 HD
BRANCH   3   6
ATOM      6  C   UNL A   1      30.546  25.978  24.133  1.00  0.00     0.175 C 
BRANCH   6   7
ATOM      7  N   UNL A   1      31.164  25.142  23.104  1.00  0.00    -0.341 N 
ATOM      8  C   UNL A   1      32.305  24.405  23.189  1.00  0.00     0.258 C 
ATOM      9  O   UNL A   1      32.489  23.522  22.348  1.00  0.00    -0.271 OA
ATOM     10  H   UNL A   1      30.694  25.108  22.240  1.00  0.00     0.164 HD
BRANCH   8  11
ATOM     11  C   UNL A   1      33.345  24.699  24.283  1.00  0.00     0.329 C 
BRANCH  11  12
ATOM     12  O   UNL A   1      33.537  23.717  25.297  1.00  0.00    -0.483 OA
BRANCH  12  13
ATOM     13  C   UNL A   1      34.715  23.015  25.331  1.00  0.00     0.131 A 
ATOM     14  C   UNL A   1      38.439  23.673  25.937  1.00  0.00     0.044 C 
ATOM     15  C   UNL A   1      37.147  22.964  25.662  1.00  0.00    -0.044 A 
ATOM     16  C   UNL A   1      35.949  23.669  25.539  1.00  0.00     0.050 A 
ATOM     17  C   UNL A   1      37.121  21.589  25.479  1.00  0.00     0.051 A 
ATOM     18  C   UNL A   1      35.907  20.948  25.207  1.00  0.00     0.142 A 
ATOM     19  C   UNL A   1      34.674  21.611  25.136  1.00  0.00     0.063 A 
ATOM     20  O   UNL A   1      36.033  19.565  24.996  1.00  0.00    -0.422 OA
ATOM     21  C   UNL A   1      33.470  20.765  24.868  1.00  0.00    -0.026 A 
ATOM     22  C   UNL A   1      34.960  18.788  24.627  1.00  0.00     0.339 A 
ATOM     23  C   UNL A   1      32.087  21.366  24.891  1.00  0.00     0.046 C 
ATOM     24  C   UNL A   1      33.630  19.447  24.603  1.00  0.00     0.038 A 
ATOM     25  O   UNL A   1      35.101  17.599  24.361  1.00  0.00    -0.246 OA
ATOM     26  C   UNL A   1      32.529  18.480  24.240  1.00  0.00     0.052 C 
ENDBRANCH  12  13
ENDBRANCH  11  12
ENDBRANCH   8  11
ENDBRANCH   6   7
BRANCH   6  27
ATOM     27  C   UNL A   1      29.120  26.461  23.796  1.00  0.00     0.070 C 
BRANCH  27  28
ATOM     28  C   UNL A   1      28.986  27.834  23.183  1.00  0.00    -0.045 A 
ATOM     29  C   UNL A   1      30.106  28.472  22.627  1.00  0.00     0.005 A 
ATOM     30  C   UNL A   1      27.752  28.502  23.189  1.00  0.00     0.005 A 
ATOM     31  C   UNL A   1      30.005  29.775  22.132  1.00  0.00     0.021 A 
ATOM     32  C   UNL A   1      27.654  29.809  22.702  1.00  0.00     0.021 A 
ATOM     33  C   UNL A   1      28.783  30.442  22.186  1.00  0.00     0.041 A 
ATOM     34  Cl  UNL A   1      28.674  32.066  21.633  1.00  0.00    -0.084 Cl
ENDBRANCH  27  28
ENDBRANCH   6  27
ENDBRANCH   3   6
ENDBRANCH   1   2
BRANCH   1  35
ATOM     35  C   UNL A   1      31.777  28.410  27.129  1.00  0.00     0.023 C 
BRANCH  35  36
ATOM     36  C   UNL A   1      32.580  29.655  26.761  1.00  0.00     0.023 C 
BRANCH  36  37
ATOM     37  C   UNL A   1      33.960  29.775  27.406  1.00  0.00     0.116 C 
BRANCH  37  38
ATOM     38  N   UNL A   1      34.091  30.860  28.369  1.00  0.00    -0.352 N 
ATOM     39  C   UNL A   1      35.178  31.164  29.165  1.00  0.00     0.251 C 
ATOM     40  H   UNL A   1      33.308  31.449  28.465  1.00  0.00     0.163 HD
ATOM     41  O   UNL A   1      35.128  32.070  29.984  1.00  0.00    -0.269 OA
BRANCH  39  42
ATOM     42  C   UNL A   1      36.385  30.317  29.057  1.00  0.00     0.039 A 
ATOM     43  C   UNL A   1      36.892  29.672  30.186  1.00  0.00     0.014 A 
ATOM     44  C   UNL A   1      37.082  30.291  27.847  1.00  0.00     0.014 A 
ATOM     45  C   UNL A   1      38.193  29.181  30.159  1.00  0.00     0.010 A 
ATOM     46  C   UNL A   1      38.359  29.727  27.804  1.00  0.00     0.010 A 
ATOM     47  C   UNL A   1      38.953  29.239  28.978  1.00  0.00    -0.014 A 
BRANCH  47  48
ATOM     48  C   UNL A   1      40.392  28.872  29.019  1.00  0.00     0.031 A 
ATOM     49  C   UNL A   1      40.836  27.489  28.616  1.00  0.00     0.074 A 
ATOM     50  C   UNL A   1      41.308  29.806  29.335  1.00  0.00     0.049 A 
ATOM     51  N   UNL A   1      42.044  26.988  28.572  1.00  0.00    -0.248 NA
ATOM     52  C   UNL A   1      39.783  26.543  28.206  1.00  0.00     0.031 C 
ATOM     53  C   UNL A   1      41.010  31.189  29.709  1.00  0.00     0.029 A 
ATOM     54  N   UNL A   1      42.677  29.739  29.360  1.00  0.00    -0.354 N 
ATOM     55  C   UNL A   1      41.898  25.671  28.151  1.00  0.00     0.074 A 
ATOM     56  C   UNL A   1      40.481  25.439  27.976  1.00  0.00     0.031 C 
ATOM     57  C   UNL A   1      42.164  31.855  29.879  1.00  0.00     0.029 A 
ATOM     58  C   UNL A   1      43.277  30.933  29.678  1.00  0.00     0.049 A 
ATOM     59  H   UNL A   1      43.181  28.916  29.168  1.00  0.00     0.167 HD
ATOM     60  C   UNL A   1      42.856  24.741  27.918  1.00  0.00     0.037 A 
ATOM     61  C   UNL A   1      44.579  31.245  29.804  1.00  0.00     0.037 A 
ATOM     62  C   UNL A   1      44.268  24.973  28.066  1.00  0.00     0.049 A 
ATOM     63  C   UNL A   1      45.617  30.183  29.585  1.00  0.00     0.074 A 
ATOM     64  C   UNL A   1      45.317  24.091  27.860  1.00  0.00     0.029 A 
ATOM     65  N   UNL A   1      44.831  26.180  28.447  1.00  0.00    -0.354 N 
ATOM     66  N   UNL A   1      45.459  28.937  29.213  1.00  0.00    -0.248 NA
ATOM     67  C   UNL A   1      47.016  30.571  29.817  1.00  0.00     0.031 C 
ATOM     68  C   UNL A   1      46.513  24.760  28.141  1.00  0.00     0.029 A 
ATOM     69  C   UNL A   1      46.212  26.065  28.491  1.00  0.00     0.049 A 
ATOM     70  H   UNL A   1      44.326  26.998  28.657  1.00  0.00     0.167 HD
ATOM     71  C   UNL A   1      46.735  28.395  29.155  1.00  0.00     0.074 A 
ATOM     72  C   UNL A   1      47.658  29.454  29.509  1.00  0.00     0.031 C 
ATOM     73  C   UNL A   1      47.111  27.131  28.843  1.00  0.00     0.037 A 
BRANCH  60  74
ATOM     74  C   UNL A   1      42.404  23.378  27.483  1.00  0.00     0.057 A 
ATOM     75  C   UNL A   1      42.225  23.083  26.127  1.00  0.00     0.134 A 
ATOM     76  C   UNL A   1      42.112  22.369  28.410  1.00  0.00     0.134 A 
ATOM     77  F   UNL A   1      42.484  24.006  25.189  1.00  0.00    -0.206 F 
ATOM     78  C   UNL A   1      41.767  21.833  25.706  1.00  0.00     0.040 A 
ATOM     79  C   UNL A   1      41.671  21.109  28.001  1.00  0.00     0.040 A 
ATOM     80  F   UNL A   1      42.279  22.584  29.724  1.00  0.00    -0.206 F 
ATOM     81  C   UNL A   1      41.491  20.841  26.646  1.00  0.00     0.006 A 
ENDBRANCH  60  74
BRANCH  61  82
ATOM     82  C   UNL A   1      44.980  32.626  30.166  1.00  0.00     0.057 A 
ATOM     83  C   UNL A   1      45.173  33.608  29.187  1.00  0.00     0.134 A 
ATOM     84  C   UNL A   1      45.160  32.998  31.502  1.00  0.00     0.134 A 
ATOM     85  F   UNL A   1      45.016  33.311  27.889  1.00  0.00    -0.206 F 
ATOM     86  C   UNL A   1      45.539  34.911  29.524  1.00  0.00     0.040 A 
ATOM     87  C   UNL A   1      45.504  34.304  31.856  1.00  0.00     0.040 A 
ATOM     88  F   UNL A   1      44.967  32.105  32.484  1.00  0.00    -0.206 F 
ATOM     89  C   UNL A   1      45.698  35.263  30.863  1.00  0.00     0.006 A 
ENDBRANCH  61  82
BRANCH  73  90
ATOM     90  C   UNL A   1      48.581  26.843  28.855  1.00  0.00     0.057 A 
ATOM     91  C   UNL A   1      49.362  27.066  27.716  1.00  0.00     0.134 A 
ATOM     92  C   UNL A   1      49.220  26.338  29.994  1.00  0.00     0.134 A 
ATOM     93  F   UNL A   1      48.808  27.545  26.592  1.00  0.00    -0.206 F 
ATOM     94  C   UNL A   1      50.732  26.803  27.710  1.00  0.00     0.040 A 
ATOM     95  C   UNL A   1      50.593  26.089  30.007  1.00  0.00     0.040 A 
ATOM     96  F   UNL A   1      48.527  26.120  31.122  1.00  0.00    -0.206 F 
ATOM     97  C   UNL A   1      51.352  26.319  28.861  1.00  0.00     0.006 A 
ENDBRANCH  73  90
ENDBRANCH  47  48
ENDBRANCH  39  42
ENDBRANCH  37  38
ENDBRANCH  36  37
ENDBRANCH  35  36
ENDBRANCH   1  35
TORSDOF 17
ENDMDL
