MODEL 1
REMARK VINA RESULT:     -13.0      0.000      0.000
REMARK SMILES Cc1nccn1C1(C(=O)NCCCCNC(=O)c2ccc(-c3c4nc(c(-c5c(F)cccc5F)c5ccc([nH]5)c(-c5c(F)cccc5F)c5nc(c(-c6c(F)cccc6F)c6ccc3[nH]6)C=C5)C=C4)cc2)CCN(C(=O)[C@@H]2C[C@H]2c2ccccc2)CC1
REMARK SMILES IDX 12 1 11 2 10 3 8 4 9 5 7 7 72 8 87 9 73 10 86 11 74 12 75 13
REMARK SMILES IDX 76 14 6 15 1 16 2 17 3 18 4 19 5 20 77 21 78 22 79 23 80 24
REMARK SMILES IDX 81 25 85 26 82 27 84 28 83 29 13 30 14 31 15 32 16 33 17 35
REMARK SMILES IDX 18 36 19 37 71 38 20 39 70 40 21 41 22 42 23 43 64 44 24 45
REMARK SMILES IDX 69 46 63 47 65 48 25 49 68 50 62 51 61 52 26 54 52 55 35 56
REMARK SMILES IDX 51 57 36 58 39 59 50 60 66 61 37 62 38 63 49 65 67 66 40 67
REMARK SMILES IDX 27 68 28 69 33 70 29 71 30 72 32 73 34 74 31 75 53 76 54 77
REMARK SMILES IDX 59 78 55 79 56 80 58 81 60 82 57 83 41 84 42 85 47 86 43 87
REMARK SMILES IDX 44 88 46 89 48 90 45 91
REMARK H PARENT 10 6 15 34 65 53 39 64
REMARK Flexibility Score: inf
ROOT
ATOM      1  C   UNL A   1      36.603  20.609  24.984  1.00  0.00     0.023 C 
ENDROOT
BRANCH   1   2
ATOM      2  C   UNL A   1      36.816  22.113  24.763  1.00  0.00     0.116 C 
BRANCH   2   3
ATOM      3  N   UNL A   1      36.127  22.606  23.574  1.00  0.00    -0.354 N 
ATOM      4  C   UNL A   1      34.912  23.211  23.356  1.00  0.00     0.246 C 
ATOM      5  O   UNL A   1      34.621  23.298  22.160  1.00  0.00    -0.272 OA
ATOM      6  H   UNL A   1      36.647  22.478  22.747  1.00  0.00     0.163 HD
BRANCH   4   7
ATOM      7  C   UNL A   1      33.988  23.737  24.535  1.00  0.00     0.127 C 
ATOM      8  C   UNL A   1      34.754  24.935  25.141  1.00  0.00     0.061 C 
ATOM      9  C   UNL A   1      32.644  24.051  23.865  1.00  0.00     0.061 C 
ATOM     10  C   UNL A   1      34.004  26.250  25.338  1.00  0.00     0.122 C 
ATOM     11  C   UNL A   1      31.904  25.205  24.474  1.00  0.00     0.122 C 
ATOM     12  N   UNL A   1      32.711  26.393  24.675  1.00  0.00    -0.342 N 
ATOM     13  C   UNL A   1      32.199  27.700  24.620  1.00  0.00     0.226 C 
ATOM     14  O   UNL A   1      32.816  28.649  25.099  1.00  0.00    -0.275 OA
BRANCH   7  15
ATOM     15  N   UNL A   1      33.695  22.701  25.598  1.00  0.00    -0.320 N 
ATOM     16  C   UNL A   1      32.852  20.606  24.271  1.00  0.00     0.087 C 
ATOM     17  C   UNL A   1      33.242  21.380  25.477  1.00  0.00     0.106 A 
ATOM     18  N   UNL A   1      33.194  20.786  26.654  1.00  0.00    -0.242 NA
ATOM     19  C   UNL A   1      33.676  21.670  27.558  1.00  0.00     0.131 A 
ATOM     20  C   UNL A   1      34.039  22.829  26.932  1.00  0.00     0.108 A 
ENDBRANCH   7  15
BRANCH  13  21
ATOM     21  C   UNL A   1      30.964  28.024  23.853  1.00  0.00     0.087 C 
ATOM     22  C   UNL A   1      30.723  27.438  22.483  1.00  0.00     0.023 C 
ATOM     23  C   UNL A   1      30.833  28.921  22.636  1.00  0.00     0.032 C 
BRANCH  23  24
ATOM     24  C   UNL A   1      29.687  29.914  22.619  1.00  0.00    -0.044 A 
ATOM     25  C   UNL A   1      29.011  30.191  21.423  1.00  0.00     0.004 A 
ATOM     26  C   UNL A   1      29.363  30.709  23.738  1.00  0.00     0.004 A 
ATOM     27  C   UNL A   1      28.102  31.249  21.327  1.00  0.00     0.000 A 
ATOM     28  C   UNL A   1      28.445  31.761  23.652  1.00  0.00     0.000 A 
ATOM     29  C   UNL A   1      27.830  32.044  22.438  1.00  0.00     0.000 A 
ENDBRANCH  23  24
ENDBRANCH  13  21
ENDBRANCH   4   7
ENDBRANCH   2   3
ENDBRANCH   1   2
BRANCH   1  30
ATOM     30  C   UNL A   1      37.846  19.719  24.859  1.00  0.00     0.023 C 
BRANCH  30  31
ATOM     31  C   UNL A   1      39.035  20.171  25.694  1.00  0.00     0.116 C 
BRANCH  31  32
ATOM     32  N   UNL A   1      40.125  19.197  25.714  1.00  0.00    -0.352 N 
ATOM     33  C   UNL A   1      41.472  19.449  25.882  1.00  0.00     0.251 C 
ATOM     34  H   UNL A   1      39.870  18.254  25.595  1.00  0.00     0.163 HD
ATOM     35  O   UNL A   1      42.321  18.630  25.538  1.00  0.00    -0.269 OA
BRANCH  33  36
ATOM     36  C   UNL A   1      41.879  20.726  26.487  1.00  0.00     0.039 A 
ATOM     37  C   UNL A   1      42.149  21.850  25.700  1.00  0.00     0.014 A 
ATOM     38  C   UNL A   1      41.943  20.792  27.877  1.00  0.00     0.014 A 
ATOM     39  C   UNL A   1      42.395  23.066  26.331  1.00  0.00     0.010 A 
ATOM     40  C   UNL A   1      42.050  22.013  28.493  1.00  0.00     0.010 A 
ATOM     41  C   UNL A   1      42.317  23.146  27.730  1.00  0.00    -0.014 A 
BRANCH  41  42
ATOM     42  C   UNL A   1      42.373  24.438  28.408  1.00  0.00     0.031 A 
ATOM     43  C   UNL A   1      41.148  25.275  28.255  1.00  0.00     0.074 A 
ATOM     44  C   UNL A   1      43.341  24.750  29.297  1.00  0.00     0.049 A 
ATOM     45  N   UNL A   1      41.054  26.436  27.696  1.00  0.00    -0.248 NA
ATOM     46  C   UNL A   1      39.851  24.707  28.661  1.00  0.00     0.031 C 
ATOM     47  C   UNL A   1      44.445  23.907  29.772  1.00  0.00     0.029 A 
ATOM     48  N   UNL A   1      43.478  25.869  30.060  1.00  0.00    -0.354 N 
ATOM     49  C   UNL A   1      39.730  26.838  27.857  1.00  0.00     0.074 A 
ATOM     50  C   UNL A   1      39.006  25.675  28.298  1.00  0.00     0.031 C 
ATOM     51  C   UNL A   1      44.976  24.442  30.894  1.00  0.00     0.029 A 
ATOM     52  C   UNL A   1      44.368  25.740  31.121  1.00  0.00     0.049 A 
ATOM     53  H   UNL A   1      42.986  26.702  29.876  1.00  0.00     0.167 HD
ATOM     54  C   UNL A   1      39.390  28.157  27.837  1.00  0.00     0.037 A 
ATOM     55  C   UNL A   1      44.576  26.629  32.125  1.00  0.00     0.037 A 
ATOM     56  C   UNL A   1      40.445  28.953  27.259  1.00  0.00     0.049 A 
ATOM     57  C   UNL A   1      44.056  27.940  31.671  1.00  0.00     0.074 A 
ATOM     58  C   UNL A   1      41.088  28.973  26.036  1.00  0.00     0.029 A 
ATOM     59  N   UNL A   1      41.258  29.655  28.116  1.00  0.00    -0.354 N 
ATOM     60  N   UNL A   1      44.607  28.644  30.723  1.00  0.00    -0.248 NA
ATOM     61  C   UNL A   1      42.660  28.244  31.942  1.00  0.00     0.031 C 
ATOM     62  C   UNL A   1      42.456  29.231  26.347  1.00  0.00     0.029 A 
ATOM     63  C   UNL A   1      42.553  29.433  27.723  1.00  0.00     0.049 A 
ATOM     64  H   UNL A   1      40.965  30.214  28.871  1.00  0.00     0.167 HD
ATOM     65  C   UNL A   1      43.540  29.128  29.983  1.00  0.00     0.074 A 
ATOM     66  C   UNL A   1      42.367  28.931  30.834  1.00  0.00     0.031 C 
ATOM     67  C   UNL A   1      43.664  29.364  28.644  1.00  0.00     0.037 A 
BRANCH  54  68
ATOM     68  C   UNL A   1      38.298  28.776  28.679  1.00  0.00     0.057 A 
ATOM     69  C   UNL A   1      37.449  29.739  28.100  1.00  0.00     0.134 A 
ATOM     70  C   UNL A   1      38.239  28.701  30.086  1.00  0.00     0.134 A 
ATOM     71  F   UNL A   1      37.413  29.916  26.770  1.00  0.00    -0.206 F 
ATOM     72  C   UNL A   1      36.676  30.621  28.866  1.00  0.00     0.040 A 
ATOM     73  C   UNL A   1      37.432  29.542  30.857  1.00  0.00     0.040 A 
ATOM     74  F   UNL A   1      39.029  27.888  30.796  1.00  0.00    -0.206 F 
ATOM     75  C   UNL A   1      36.675  30.531  30.252  1.00  0.00     0.006 A 
ENDBRANCH  54  68
BRANCH  55  76
ATOM     76  C   UNL A   1      44.955  26.380  33.535  1.00  0.00     0.057 A 
ATOM     77  C   UNL A   1      44.197  25.529  34.352  1.00  0.00     0.134 A 
ATOM     78  C   UNL A   1      46.221  26.740  34.027  1.00  0.00     0.134 A 
ATOM     79  F   UNL A   1      42.990  25.101  33.955  1.00  0.00    -0.206 F 
ATOM     80  C   UNL A   1      44.682  25.040  35.572  1.00  0.00     0.040 A 
ATOM     81  C   UNL A   1      46.716  26.263  35.246  1.00  0.00     0.040 A 
ATOM     82  F   UNL A   1      47.058  27.496  33.300  1.00  0.00    -0.206 F 
ATOM     83  C   UNL A   1      45.952  25.396  36.016  1.00  0.00     0.006 A 
ENDBRANCH  55  76
BRANCH  67  84
ATOM     84  C   UNL A   1      45.047  29.324  28.050  1.00  0.00     0.057 A 
ATOM     85  C   UNL A   1      45.666  28.165  27.553  1.00  0.00     0.134 A 
ATOM     86  C   UNL A   1      45.736  30.527  27.871  1.00  0.00     0.134 A 
ATOM     87  F   UNL A   1      45.045  26.980  27.575  1.00  0.00    -0.206 F 
ATOM     88  C   UNL A   1      46.934  28.196  26.964  1.00  0.00     0.040 A 
ATOM     89  C   UNL A   1      46.987  30.578  27.251  1.00  0.00     0.040 A 
ATOM     90  F   UNL A   1      45.185  31.687  28.263  1.00  0.00    -0.206 F 
ATOM     91  C   UNL A   1      47.598  29.407  26.810  1.00  0.00     0.006 A 
ENDBRANCH  67  84
ENDBRANCH  41  42
ENDBRANCH  33  36
ENDBRANCH  31  32
ENDBRANCH  30  31
ENDBRANCH   1  30
TORSDOF 14
ENDMDL
MODEL 2
REMARK VINA RESULT:     -12.8      2.529      8.290
REMARK SMILES Cc1nccn1C1(C(=O)NCCCCNC(=O)c2ccc(-c3c4nc(c(-c5c(F)cccc5F)c5ccc([nH]5)c(-c5c(F)cccc5F)c5nc(c(-c6c(F)cccc6F)c6ccc3[nH]6)C=C5)C=C4)cc2)CCN(C(=O)[C@@H]2C[C@H]2c2ccccc2)CC1
REMARK SMILES IDX 12 1 11 2 10 3 8 4 9 5 7 7 72 8 87 9 73 10 86 11 74 12 75 13
REMARK SMILES IDX 76 14 6 15 1 16 2 17 3 18 4 19 5 20 77 21 78 22 79 23 80 24
REMARK SMILES IDX 81 25 85 26 82 27 84 28 83 29 13 30 14 31 15 32 16 33 17 35
REMARK SMILES IDX 18 36 19 37 71 38 20 39 70 40 21 41 22 42 23 43 64 44 24 45
REMARK SMILES IDX 69 46 63 47 65 48 25 49 68 50 62 51 61 52 26 54 52 55 35 56
REMARK SMILES IDX 51 57 36 58 39 59 50 60 66 61 37 62 38 63 49 65 67 66 40 67
REMARK SMILES IDX 27 68 28 69 33 70 29 71 30 72 32 73 34 74 31 75 53 76 54 77
REMARK SMILES IDX 59 78 55 79 56 80 58 81 60 82 57 83 41 84 42 85 47 86 43 87
REMARK SMILES IDX 44 88 46 89 48 90 45 91
REMARK H PARENT 10 6 15 34 65 53 39 64
REMARK Flexibility Score: inf
ROOT
ATOM      1  C   UNL A   1      32.742  29.889  26.987  1.00  0.00     0.023 C 
ENDROOT
BRANCH   1   2
ATOM      2  C   UNL A   1      31.864  29.610  25.761  1.00  0.00     0.116 C 
BRANCH   2   3
ATOM      3  N   UNL A   1      32.618  29.659  24.511  1.00  0.00    -0.354 N 
ATOM      4  C   UNL A   1      32.998  28.713  23.587  1.00  0.00     0.246 C 
ATOM      5  O   UNL A   1      33.803  29.144  22.756  1.00  0.00    -0.272 OA
ATOM      6  H   UNL A   1      32.920  30.567  24.278  1.00  0.00     0.163 HD
BRANCH   4   7
ATOM      7  C   UNL A   1      32.448  27.225  23.602  1.00  0.00     0.127 C 
ATOM      8  C   UNL A   1      32.883  26.622  22.247  1.00  0.00     0.061 C 
ATOM      9  C   UNL A   1      33.061  26.597  24.860  1.00  0.00     0.061 C 
ATOM     10  C   UNL A   1      33.597  25.272  22.250  1.00  0.00     0.122 C 
ATOM     11  C   UNL A   1      33.367  25.134  24.735  1.00  0.00     0.122 C 
ATOM     12  N   UNL A   1      34.091  24.776  23.531  1.00  0.00    -0.342 N 
ATOM     13  C   UNL A   1      34.997  23.704  23.457  1.00  0.00     0.226 C 
ATOM     14  O   UNL A   1      35.344  23.233  22.376  1.00  0.00    -0.275 OA
BRANCH   7  15
ATOM     15  N   UNL A   1      30.948  27.123  23.772  1.00  0.00    -0.320 N 
ATOM     16  C   UNL A   1      29.973  28.970  22.191  1.00  0.00     0.087 C 
ATOM     17  C   UNL A   1      29.915  27.844  23.156  1.00  0.00     0.106 A 
ATOM     18  N   UNL A   1      28.733  27.385  23.525  1.00  0.00    -0.242 NA
ATOM     19  C   UNL A   1      28.960  26.320  24.327  1.00  0.00     0.131 A 
ATOM     20  C   UNL A   1      30.304  26.106  24.452  1.00  0.00     0.108 A 
ENDBRANCH   7  15
BRANCH  13  21
ATOM     21  C   UNL A   1      35.695  23.186  24.666  1.00  0.00     0.087 C 
ATOM     22  C   UNL A   1      35.962  24.080  25.853  1.00  0.00     0.023 C 
ATOM     23  C   UNL A   1      37.115  23.476  25.117  1.00  0.00     0.032 C 
BRANCH  23  24
ATOM     24  C   UNL A   1      37.957  22.302  25.574  1.00  0.00    -0.044 A 
ATOM     25  C   UNL A   1      39.063  22.508  26.411  1.00  0.00     0.004 A 
ATOM     26  C   UNL A   1      37.777  21.000  25.062  1.00  0.00     0.004 A 
ATOM     27  C   UNL A   1      39.980  21.486  26.675  1.00  0.00     0.000 A 
ATOM     28  C   UNL A   1      38.684  19.970  25.331  1.00  0.00     0.000 A 
ATOM     29  C   UNL A   1      39.799  20.221  26.122  1.00  0.00     0.000 A 
ENDBRANCH  23  24
ENDBRANCH  13  21
ENDBRANCH   4   7
ENDBRANCH   2   3
ENDBRANCH   1   2
BRANCH   1  30
ATOM     30  C   UNL A   1      33.900  28.913  27.233  1.00  0.00     0.023 C 
BRANCH  30  31
ATOM     31  C   UNL A   1      35.246  29.576  27.482  1.00  0.00     0.116 C 
BRANCH  31  32
ATOM     32  N   UNL A   1      35.349  30.187  28.806  1.00  0.00    -0.352 N 
ATOM     33  C   UNL A   1      36.303  29.942  29.772  1.00  0.00     0.251 C 
ATOM     34  H   UNL A   1      34.658  30.850  29.034  1.00  0.00     0.163 HD
ATOM     35  O   UNL A   1      36.107  30.230  30.949  1.00  0.00    -0.269 OA
BRANCH  33  36
ATOM     36  C   UNL A   1      37.574  29.324  29.364  1.00  0.00     0.039 A 
ATOM     37  C   UNL A   1      38.292  29.798  28.262  1.00  0.00     0.014 A 
ATOM     38  C   UNL A   1      38.064  28.278  30.142  1.00  0.00     0.014 A 
ATOM     39  C   UNL A   1      39.553  29.267  28.004  1.00  0.00     0.010 A 
ATOM     40  C   UNL A   1      39.356  27.852  29.970  1.00  0.00     0.010 A 
ATOM     41  C   UNL A   1      40.091  28.311  28.881  1.00  0.00    -0.014 A 
BRANCH  41  42
ATOM     42  C   UNL A   1      41.481  27.882  28.754  1.00  0.00     0.031 A 
ATOM     43  C   UNL A   1      41.675  26.619  27.985  1.00  0.00     0.074 A 
ATOM     44  C   UNL A   1      42.520  28.678  29.088  1.00  0.00     0.049 A 
ATOM     45  N   UNL A   1      42.173  25.507  28.413  1.00  0.00    -0.248 NA
ATOM     46  C   UNL A   1      41.143  26.540  26.613  1.00  0.00     0.031 C 
ATOM     47  C   UNL A   1      42.485  30.062  29.576  1.00  0.00     0.029 A 
ATOM     48  N   UNL A   1      43.855  28.450  28.950  1.00  0.00    -0.354 N 
ATOM     49  C   UNL A   1      42.207  24.648  27.316  1.00  0.00     0.074 A 
ATOM     50  C   UNL A   1      41.411  25.272  26.292  1.00  0.00     0.031 C 
ATOM     51  C   UNL A   1      43.712  30.617  29.460  1.00  0.00     0.029 A 
ATOM     52  C   UNL A   1      44.649  29.588  29.052  1.00  0.00     0.049 A 
ATOM     53  H   UNL A   1      44.228  27.553  28.791  1.00  0.00     0.167 HD
ATOM     54  C   UNL A   1      43.083  23.607  27.267  1.00  0.00     0.037 A 
ATOM     55  C   UNL A   1      45.979  29.681  28.798  1.00  0.00     0.037 A 
ATOM     56  C   UNL A   1      43.614  23.316  28.576  1.00  0.00     0.049 A 
ATOM     57  C   UNL A   1      46.536  28.308  28.847  1.00  0.00     0.074 A 
ATOM     58  C   UNL A   1      43.060  22.955  29.790  1.00  0.00     0.029 A 
ATOM     59  N   UNL A   1      44.881  23.762  28.866  1.00  0.00    -0.354 N 
ATOM     60  N   UNL A   1      46.634  27.609  29.942  1.00  0.00    -0.248 NA
ATOM     61  C   UNL A   1      46.544  27.538  27.613  1.00  0.00     0.031 C 
ATOM     62  C   UNL A   1      43.817  23.671  30.764  1.00  0.00     0.029 A 
ATOM     63  C   UNL A   1      44.832  24.359  30.099  1.00  0.00     0.049 A 
ATOM     64  H   UNL A   1      45.676  23.669  28.294  1.00  0.00     0.167 HD
ATOM     65  C   UNL A   1      46.251  26.329  29.574  1.00  0.00     0.074 A 
ATOM     66  C   UNL A   1      46.301  26.323  28.112  1.00  0.00     0.031 C 
ATOM     67  C   UNL A   1      45.646  25.493  30.468  1.00  0.00     0.037 A 
BRANCH  54  68
ATOM     68  C   UNL A   1      43.757  23.109  26.009  1.00  0.00     0.057 A 
ATOM     69  C   UNL A   1      43.815  21.723  25.765  1.00  0.00     0.134 A 
ATOM     70  C   UNL A   1      44.604  23.891  25.197  1.00  0.00     0.134 A 
ATOM     71  F   UNL A   1      43.063  20.867  26.473  1.00  0.00    -0.206 F 
ATOM     72  C   UNL A   1      44.715  21.155  24.855  1.00  0.00     0.040 A 
ATOM     73  C   UNL A   1      45.469  23.338  24.249  1.00  0.00     0.040 A 
ATOM     74  F   UNL A   1      44.720  25.215  25.345  1.00  0.00    -0.206 F 
ATOM     75  C   UNL A   1      45.555  21.964  24.100  1.00  0.00     0.006 A 
ENDBRANCH  54  68
BRANCH  55  76
ATOM     76  C   UNL A   1      46.756  30.825  28.270  1.00  0.00     0.057 A 
ATOM     77  C   UNL A   1      46.605  31.255  26.943  1.00  0.00     0.134 A 
ATOM     78  C   UNL A   1      47.447  31.699  29.126  1.00  0.00     0.134 A 
ATOM     79  F   UNL A   1      45.931  30.508  26.057  1.00  0.00    -0.206 F 
ATOM     80  C   UNL A   1      47.085  32.496  26.503  1.00  0.00     0.040 A 
ATOM     81  C   UNL A   1      47.936  32.937  28.698  1.00  0.00     0.040 A 
ATOM     82  F   UNL A   1      47.593  31.419  30.430  1.00  0.00    -0.206 F 
ATOM     83  C   UNL A   1      47.742  33.348  27.385  1.00  0.00     0.006 A 
ENDBRANCH  55  76
BRANCH  67  84
ATOM     84  C   UNL A   1      45.634  25.906  31.916  1.00  0.00     0.057 A 
ATOM     85  C   UNL A   1      44.554  26.537  32.555  1.00  0.00     0.134 A 
ATOM     86  C   UNL A   1      46.716  25.547  32.726  1.00  0.00     0.134 A 
ATOM     87  F   UNL A   1      43.425  26.822  31.895  1.00  0.00    -0.206 F 
ATOM     88  C   UNL A   1      44.578  26.851  33.917  1.00  0.00     0.040 A 
ATOM     89  C   UNL A   1      46.739  25.822  34.095  1.00  0.00     0.040 A 
ATOM     90  F   UNL A   1      47.762  24.886  32.202  1.00  0.00    -0.206 F 
ATOM     91  C   UNL A   1      45.674  26.490  34.693  1.00  0.00     0.006 A 
ENDBRANCH  67  84
ENDBRANCH  41  42
ENDBRANCH  33  36
ENDBRANCH  31  32
ENDBRANCH  30  31
ENDBRANCH   1  30
TORSDOF 14
ENDMDL
MODEL 3
REMARK VINA RESULT:     -12.6      2.750      8.207
REMARK SMILES Cc1nccn1C1(C(=O)NCCCCNC(=O)c2ccc(-c3c4nc(c(-c5c(F)cccc5F)c5ccc([nH]5)c(-c5c(F)cccc5F)c5nc(c(-c6c(F)cccc6F)c6ccc3[nH]6)C=C5)C=C4)cc2)CCN(C(=O)[C@@H]2C[C@H]2c2ccccc2)CC1
REMARK SMILES IDX 12 1 11 2 10 3 8 4 9 5 7 7 72 8 87 9 73 10 86 11 74 12 75 13
REMARK SMILES IDX 76 14 6 15 1 16 2 17 3 18 4 19 5 20 77 21 78 22 79 23 80 24
REMARK SMILES IDX 81 25 85 26 82 27 84 28 83 29 13 30 14 31 15 32 16 33 17 35
REMARK SMILES IDX 18 36 19 37 71 38 20 39 70 40 21 41 22 42 23 43 64 44 24 45
REMARK SMILES IDX 69 46 63 47 65 48 25 49 68 50 62 51 61 52 26 54 52 55 35 56
REMARK SMILES IDX 51 57 36 58 39 59 50 60 66 61 37 62 38 63 49 65 67 66 40 67
REMARK SMILES IDX 27 68 28 69 33 70 29 71 30 72 32 73 34 74 31 75 53 76 54 77
REMARK SMILES IDX 59 78 55 79 56 80 58 81 60 82 57 83 41 84 42 85 47 86 43 87
REMARK SMILES IDX 44 88 46 89 48 90 45 91
REMARK H PARENT 10 6 15 34 65 53 39 64
REMARK Flexibility Score: inf
ROOT
ATOM      1  C   UNL A   1      32.704  28.591  27.325  1.00  0.00     0.023 C 
ENDROOT
BRANCH   1   2
ATOM      2  C   UNL A   1      31.624  27.956  26.440  1.00  0.00     0.116 C 
BRANCH   2   3
ATOM      3  N   UNL A   1      31.263  26.610  26.876  1.00  0.00    -0.354 N 
ATOM      4  C   UNL A   1      31.528  25.348  26.397  1.00  0.00     0.246 C 
ATOM      5  O   UNL A   1      30.868  24.469  26.957  1.00  0.00    -0.272 OA
ATOM      6  H   UNL A   1      30.711  26.604  27.691  1.00  0.00     0.163 HD
BRANCH   4   7
ATOM      7  C   UNL A   1      32.577  25.069  25.240  1.00  0.00     0.127 C 
ATOM      8  C   UNL A   1      33.907  25.667  25.751  1.00  0.00     0.061 C 
ATOM      9  C   UNL A   1      32.542  23.548  25.042  1.00  0.00     0.061 C 
ATOM     10  C   UNL A   1      35.161  24.797  25.701  1.00  0.00     0.122 C 
ATOM     11  C   UNL A   1      33.857  22.945  24.645  1.00  0.00     0.122 C 
ATOM     12  N   UNL A   1      34.979  23.369  25.459  1.00  0.00    -0.342 N 
ATOM     13  C   UNL A   1      36.099  22.562  25.723  1.00  0.00     0.226 C 
ATOM     14  O   UNL A   1      37.151  23.044  26.135  1.00  0.00    -0.275 OA
BRANCH   7  15
ATOM     15  N   UNL A   1      32.200  25.674  23.905  1.00  0.00    -0.320 N 
ATOM     16  C   UNL A   1      29.580  25.682  23.896  1.00  0.00     0.087 C 
ATOM     17  C   UNL A   1      30.939  25.951  23.360  1.00  0.00     0.106 A 
ATOM     18  N   UNL A   1      31.051  26.560  22.194  1.00  0.00    -0.242 NA
ATOM     19  C   UNL A   1      32.372  26.758  21.982  1.00  0.00     0.131 A 
ATOM     20  C   UNL A   1      33.094  26.273  23.037  1.00  0.00     0.108 A 
ENDBRANCH   7  15
BRANCH  13  21
ATOM     21  C   UNL A   1      36.023  21.076  25.662  1.00  0.00     0.087 C 
ATOM     22  C   UNL A   1      37.113  20.268  25.001  1.00  0.00     0.023 C 
ATOM     23  C   UNL A   1      35.723  20.208  24.453  1.00  0.00     0.032 C 
BRANCH  23  24
ATOM     24  C   UNL A   1      34.734  19.074  24.634  1.00  0.00    -0.044 A 
ATOM     25  C   UNL A   1      35.174  17.744  24.617  1.00  0.00     0.004 A 
ATOM     26  C   UNL A   1      33.339  19.287  24.660  1.00  0.00     0.004 A 
ATOM     27  C   UNL A   1      34.271  16.677  24.566  1.00  0.00     0.000 A 
ATOM     28  C   UNL A   1      32.431  18.225  24.621  1.00  0.00     0.000 A 
ATOM     29  C   UNL A   1      32.899  16.918  24.551  1.00  0.00     0.000 A 
ENDBRANCH  23  24
ENDBRANCH  13  21
ENDBRANCH   4   7
ENDBRANCH   2   3
ENDBRANCH   1   2
BRANCH   1  30
ATOM     30  C   UNL A   1      33.831  29.335  26.597  1.00  0.00     0.023 C 
BRANCH  30  31
ATOM     31  C   UNL A   1      35.197  29.219  27.257  1.00  0.00     0.116 C 
BRANCH  31  32
ATOM     32  N   UNL A   1      35.308  30.001  28.487  1.00  0.00    -0.352 N 
ATOM     33  C   UNL A   1      36.294  29.918  29.449  1.00  0.00     0.251 C 
ATOM     34  H   UNL A   1      34.598  30.664  28.647  1.00  0.00     0.163 HD
ATOM     35  O   UNL A   1      36.116  30.351  30.584  1.00  0.00    -0.269 OA
BRANCH  33  36
ATOM     36  C   UNL A   1      37.578  29.296  29.088  1.00  0.00     0.039 A 
ATOM     37  C   UNL A   1      38.295  29.709  27.961  1.00  0.00     0.014 A 
ATOM     38  C   UNL A   1      38.079  28.310  29.935  1.00  0.00     0.014 A 
ATOM     39  C   UNL A   1      39.565  29.183  27.746  1.00  0.00     0.010 A 
ATOM     40  C   UNL A   1      39.379  27.896  29.798  1.00  0.00     0.010 A 
ATOM     41  C   UNL A   1      40.114  28.295  28.685  1.00  0.00    -0.014 A 
BRANCH  41  42
ATOM     42  C   UNL A   1      41.511  27.882  28.593  1.00  0.00     0.031 A 
ATOM     43  C   UNL A   1      41.737  26.618  27.835  1.00  0.00     0.074 A 
ATOM     44  C   UNL A   1      42.532  28.691  28.948  1.00  0.00     0.049 A 
ATOM     45  N   UNL A   1      42.237  25.513  28.279  1.00  0.00    -0.248 NA
ATOM     46  C   UNL A   1      41.240  26.527  26.451  1.00  0.00     0.031 C 
ATOM     47  C   UNL A   1      42.469  30.077  29.429  1.00  0.00     0.029 A 
ATOM     48  N   UNL A   1      43.873  28.478  28.844  1.00  0.00    -0.354 N 
ATOM     49  C   UNL A   1      42.308  24.651  27.187  1.00  0.00     0.074 A 
ATOM     50  C   UNL A   1      41.530  25.261  26.142  1.00  0.00     0.031 C 
ATOM     51  C   UNL A   1      43.692  30.645  29.340  1.00  0.00     0.029 A 
ATOM     52  C   UNL A   1      44.651  29.625  28.959  1.00  0.00     0.049 A 
ATOM     53  H   UNL A   1      44.259  27.585  28.697  1.00  0.00     0.167 HD
ATOM     54  C   UNL A   1      43.197  23.619  27.164  1.00  0.00     0.037 A 
ATOM     55  C   UNL A   1      45.986  29.732  28.737  1.00  0.00     0.037 A 
ATOM     56  C   UNL A   1      43.700  23.340  28.487  1.00  0.00     0.049 A 
ATOM     57  C   UNL A   1      46.557  28.366  28.805  1.00  0.00     0.074 A 
ATOM     58  C   UNL A   1      43.121  22.977  29.688  1.00  0.00     0.029 A 
ATOM     59  N   UNL A   1      44.954  23.801  28.805  1.00  0.00    -0.354 N 
ATOM     60  N   UNL A   1      46.636  27.673  29.906  1.00  0.00    -0.248 NA
ATOM     61  C   UNL A   1      46.604  27.591  27.575  1.00  0.00     0.031 C 
ATOM     62  C   UNL A   1      43.846  23.707  30.678  1.00  0.00     0.029 A 
ATOM     63  C   UNL A   1      44.868  24.403  30.034  1.00  0.00     0.049 A 
ATOM     64  H   UNL A   1      45.764  23.715  28.252  1.00  0.00     0.167 HD
ATOM     65  C   UNL A   1      46.277  26.387  29.534  1.00  0.00     0.074 A 
ATOM     66  C   UNL A   1      46.362  26.376  28.074  1.00  0.00     0.031 C 
ATOM     67  C   UNL A   1      45.660  25.548  30.417  1.00  0.00     0.037 A 
BRANCH  54  68
ATOM     68  C   UNL A   1      43.906  23.124  25.924  1.00  0.00     0.057 A 
ATOM     69  C   UNL A   1      43.918  21.743  25.647  1.00  0.00     0.134 A 
ATOM     70  C   UNL A   1      44.822  23.888  25.173  1.00  0.00     0.134 A 
ATOM     71  F   UNL A   1      43.097  20.903  26.297  1.00  0.00    -0.206 F 
ATOM     72  C   UNL A   1      44.834  21.159  24.763  1.00  0.00     0.040 A 
ATOM     73  C   UNL A   1      45.706  23.322  24.250  1.00  0.00     0.040 A 
ATOM     74  F   UNL A   1      44.987  25.202  25.361  1.00  0.00    -0.206 F 
ATOM     75  C   UNL A   1      45.741  21.949  24.069  1.00  0.00     0.006 A 
ENDBRANCH  54  68
BRANCH  55  76
ATOM     76  C   UNL A   1      46.762  30.883  28.222  1.00  0.00     0.057 A 
ATOM     77  C   UNL A   1      46.577  31.359  26.916  1.00  0.00     0.134 A 
ATOM     78  C   UNL A   1      47.490  31.720  29.085  1.00  0.00     0.134 A 
ATOM     79  F   UNL A   1      45.866  30.649  26.027  1.00  0.00    -0.206 F 
ATOM     80  C   UNL A   1      47.061  32.606  26.501  1.00  0.00     0.040 A 
ATOM     81  C   UNL A   1      47.983  32.966  28.682  1.00  0.00     0.040 A 
ATOM     82  F   UNL A   1      47.671  31.396  30.374  1.00  0.00    -0.206 F 
ATOM     83  C   UNL A   1      47.755  33.422  27.390  1.00  0.00     0.006 A 
ENDBRANCH  55  76
BRANCH  67  84
ATOM     84  C   UNL A   1      45.609  25.967  31.863  1.00  0.00     0.057 A 
ATOM     85  C   UNL A   1      44.513  26.601  32.469  1.00  0.00     0.134 A 
ATOM     86  C   UNL A   1      46.668  25.610  32.703  1.00  0.00     0.134 A 
ATOM     87  F   UNL A   1      43.403  26.886  31.777  1.00  0.00    -0.206 F 
ATOM     88  C   UNL A   1      44.500  26.921  33.830  1.00  0.00     0.040 A 
ATOM     89  C   UNL A   1      46.653  25.890  34.072  1.00  0.00     0.040 A 
ATOM     90  F   UNL A   1      47.726  24.946  32.212  1.00  0.00    -0.206 F 
ATOM     91  C   UNL A   1      45.573  26.563  34.637  1.00  0.00     0.006 A 
ENDBRANCH  67  84
ENDBRANCH  41  42
ENDBRANCH  33  36
ENDBRANCH  31  32
ENDBRANCH  30  31
ENDBRANCH   1  30
TORSDOF 14
ENDMDL
