MODEL 1
REMARK VINA RESULT:      -9.7      0.000      0.000
REMARK SMILES C#CC[N@H+](CC(=O)NCCCCNC(=O)c1ccc(-c2c3nc(c(-c4c(F)cccc4F)c4ccc([nH]4)c(-c4c(F)cccc4F)c4nc(c(-c5c(F)cccc5F)c5ccc2[nH]5)C=C4)C=C3)cc1)[C@H](C)C(=O)NCCC
REMARK SMILES IDX 9 1 8 2 6 3 7 4 5 6 4 7 3 9 2 10 1 11 70 12 71 13 72 14
REMARK SMILES IDX 73 15 74 16 75 18 76 19 77 20 10 21 11 22 12 23 13 24 14 25
REMARK SMILES IDX 15 27 16 28 17 29 69 30 18 31 68 32 19 33 20 34 21 35 62 36
REMARK SMILES IDX 22 37 67 38 61 39 63 40 23 41 66 42 60 43 59 44 24 46 50 47
REMARK SMILES IDX 33 48 49 49 34 50 37 51 48 52 64 53 35 54 36 55 47 57 65 58
REMARK SMILES IDX 38 59 25 60 26 61 31 62 27 63 28 64 30 65 32 66 29 67 51 68
REMARK SMILES IDX 52 69 57 70 53 71 54 72 56 73 58 74 55 75 39 76 40 77 45 78
REMARK SMILES IDX 41 79 42 80 44 81 46 82 43 83
REMARK H PARENT 8 5 4 8 74 17 13 26 63 45 37 56
REMARK Flexibility Score: inf
ROOT
ATOM      1  C   UNL A   1      36.917  23.284  25.790  1.00  0.00     0.116 C 
ENDROOT
BRANCH   1   2
ATOM      2  N   UNL A   1      35.865  22.661  26.576  1.00  0.00    -0.351 N 
ATOM      3  C   UNL A   1      34.552  23.032  26.749  1.00  0.00     0.275 C 
ATOM      4  O   UNL A   1      33.866  22.370  27.527  1.00  0.00    -0.269 OA
ATOM      5  H   UNL A   1      36.135  21.847  27.059  1.00  0.00     0.163 HD
BRANCH   3   6
ATOM      6  C   UNL A   1      33.982  24.225  25.960  1.00  0.00     0.364 C 
BRANCH   6   7
ATOM      7  N   UNL A   1      33.162  23.896  24.751  1.00  0.00    -0.307 N 
ATOM      8  H   UNL A   1      33.145  24.690  24.111  1.00  0.00     0.350 HD
BRANCH   7   9
ATOM      9  C   UNL A   1      33.792  22.879  23.929  1.00  0.00     0.355 C 
BRANCH   9  10
ATOM     10  C   UNL A   1      33.487  21.452  24.077  1.00  0.00    -0.047 C 
ATOM     11  C   UNL A   1      33.468  20.283  24.339  1.00  0.00     0.010 C 
ENDBRANCH   9  10
ENDBRANCH   7   9
BRANCH   7  12
ATOM     12  C   UNL A   1      31.708  23.747  25.091  1.00  0.00     0.272 C 
ATOM     13  C   UNL A   1      30.640  23.829  23.984  1.00  0.00     0.086 C 
BRANCH  12  14
ATOM     14  C   UNL A   1      31.202  24.500  26.342  1.00  0.00     0.278 C 
ATOM     15  O   UNL A   1      30.890  23.878  27.364  1.00  0.00    -0.268 OA
ATOM     16  N   UNL A   1      31.017  25.855  26.375  1.00  0.00    -0.351 N 
ATOM     17  H   UNL A   1      30.498  26.168  27.151  1.00  0.00     0.163 HD
BRANCH  16  18
ATOM     18  C   UNL A   1      31.442  26.921  25.483  1.00  0.00     0.116 C 
BRANCH  18  19
ATOM     19  C   UNL A   1      31.487  28.280  26.171  1.00  0.00     0.018 C 
ATOM     20  C   UNL A   1      31.819  28.166  27.653  1.00  0.00     0.006 C 
ENDBRANCH  18  19
ENDBRANCH  16  18
ENDBRANCH  12  14
ENDBRANCH   7  12
ENDBRANCH   6   7
ENDBRANCH   3   6
ENDBRANCH   1   2
BRANCH   1  21
ATOM     21  C   UNL A   1      37.382  22.389  24.631  1.00  0.00     0.023 C 
BRANCH  21  22
ATOM     22  C   UNL A   1      37.883  21.020  25.031  1.00  0.00     0.023 C 
BRANCH  22  23
ATOM     23  C   UNL A   1      39.100  21.073  25.918  1.00  0.00     0.116 C 
BRANCH  23  24
ATOM     24  N   UNL A   1      39.860  19.826  25.907  1.00  0.00    -0.352 N 
ATOM     25  C   UNL A   1      41.209  19.662  26.125  1.00  0.00     0.251 C 
ATOM     26  H   UNL A   1      39.346  19.006  25.725  1.00  0.00     0.163 HD
ATOM     27  O   UNL A   1      41.760  18.585  25.935  1.00  0.00    -0.269 OA
BRANCH  25  28
ATOM     28  C   UNL A   1      41.970  20.845  26.558  1.00  0.00     0.039 A 
ATOM     29  C   UNL A   1      42.400  21.772  25.609  1.00  0.00     0.014 A 
ATOM     30  C   UNL A   1      42.088  21.103  27.926  1.00  0.00     0.014 A 
ATOM     31  C   UNL A   1      42.877  23.009  26.041  1.00  0.00     0.010 A 
ATOM     32  C   UNL A   1      42.433  22.375  28.342  1.00  0.00     0.010 A 
ATOM     33  C   UNL A   1      42.848  23.336  27.407  1.00  0.00    -0.014 A 
BRANCH  33  34
ATOM     34  C   UNL A   1      43.286  24.657  27.919  1.00  0.00     0.031 A 
ATOM     35  C   UNL A   1      42.239  25.689  28.230  1.00  0.00     0.074 A 
ATOM     36  C   UNL A   1      44.595  24.961  28.003  1.00  0.00     0.049 A 
ATOM     37  N   UNL A   1      42.383  26.958  28.512  1.00  0.00    -0.248 NA
ATOM     38  C   UNL A   1      40.835  25.243  28.175  1.00  0.00     0.031 C 
ATOM     39  C   UNL A   1      45.704  24.053  27.703  1.00  0.00     0.029 A 
ATOM     40  N   UNL A   1      45.214  26.137  28.348  1.00  0.00    -0.354 N 
ATOM     41  C   UNL A   1      41.094  27.458  28.641  1.00  0.00     0.074 A 
ATOM     42  C   UNL A   1      40.182  26.381  28.335  1.00  0.00     0.031 C 
ATOM     43  C   UNL A   1      46.866  24.699  27.897  1.00  0.00     0.029 A 
ATOM     44  C   UNL A   1      46.585  26.080  28.276  1.00  0.00     0.049 A 
ATOM     45  H   UNL A   1      44.722  26.944  28.621  1.00  0.00     0.167 HD
ATOM     46  C   UNL A   1      40.705  28.700  29.011  1.00  0.00     0.037 A 
ATOM     47  C   UNL A   1      47.507  27.044  28.470  1.00  0.00     0.037 A 
ATOM     48  C   UNL A   1      41.620  29.759  29.333  1.00  0.00     0.049 A 
ATOM     49  C   UNL A   1      47.049  28.434  28.831  1.00  0.00     0.074 A 
ATOM     50  C   UNL A   1      41.333  31.043  29.760  1.00  0.00     0.029 A 
ATOM     51  N   UNL A   1      43.001  29.657  29.261  1.00  0.00    -0.354 N 
ATOM     52  N   UNL A   1      45.829  28.885  28.999  1.00  0.00    -0.248 NA
ATOM     53  C   UNL A   1      48.094  29.449  29.030  1.00  0.00     0.031 C 
ATOM     54  C   UNL A   1      42.537  31.737  29.882  1.00  0.00     0.029 A 
ATOM     55  C   UNL A   1      43.579  30.864  29.611  1.00  0.00     0.049 A 
ATOM     56  H   UNL A   1      43.497  28.847  29.000  1.00  0.00     0.167 HD
ATOM     57  C   UNL A   1      45.962  30.217  29.370  1.00  0.00     0.074 A 
ATOM     58  C   UNL A   1      47.380  30.503  29.400  1.00  0.00     0.031 C 
ATOM     59  C   UNL A   1      44.996  31.120  29.667  1.00  0.00     0.037 A 
BRANCH  46  60
ATOM     60  C   UNL A   1      39.231  28.972  29.082  1.00  0.00     0.057 A 
ATOM     61  C   UNL A   1      38.502  28.807  30.268  1.00  0.00     0.134 A 
ATOM     62  C   UNL A   1      38.536  29.426  27.954  1.00  0.00     0.134 A 
ATOM     63  F   UNL A   1      39.103  28.361  31.381  1.00  0.00    -0.206 F 
ATOM     64  C   UNL A   1      37.129  29.054  30.321  1.00  0.00     0.040 A 
ATOM     65  C   UNL A   1      37.170  29.711  28.006  1.00  0.00     0.040 A 
ATOM     66  F   UNL A   1      39.172  29.608  26.788  1.00  0.00    -0.206 F 
ATOM     67  C   UNL A   1      36.462  29.516  29.189  1.00  0.00     0.006 A 
ENDBRANCH  46  60
BRANCH  47  68
ATOM     68  C   UNL A   1      48.956  26.736  28.336  1.00  0.00     0.057 A 
ATOM     69  C   UNL A   1      49.592  26.791  27.089  1.00  0.00     0.134 A 
ATOM     70  C   UNL A   1      49.734  26.356  29.436  1.00  0.00     0.134 A 
ATOM     71  F   UNL A   1      48.899  27.133  25.993  1.00  0.00    -0.206 F 
ATOM     72  C   UNL A   1      50.937  26.450  26.936  1.00  0.00     0.040 A 
ATOM     73  C   UNL A   1      51.088  26.043  29.303  1.00  0.00     0.040 A 
ATOM     74  F   UNL A   1      49.191  26.293  30.661  1.00  0.00    -0.206 F 
ATOM     75  C   UNL A   1      51.690  26.078  28.047  1.00  0.00     0.006 A 
ENDBRANCH  47  68
BRANCH  59  76
ATOM     76  C   UNL A   1      45.425  32.483  30.127  1.00  0.00     0.057 A 
ATOM     77  C   UNL A   1      45.661  32.779  31.474  1.00  0.00     0.134 A 
ATOM     78  C   UNL A   1      45.702  33.484  29.185  1.00  0.00     0.134 A 
ATOM     79  F   UNL A   1      45.408  31.868  32.426  1.00  0.00    -0.206 F 
ATOM     80  C   UNL A   1      46.148  34.026  31.869  1.00  0.00     0.040 A 
ATOM     81  C   UNL A   1      46.219  34.722  29.565  1.00  0.00     0.040 A 
ATOM     82  F   UNL A   1      45.509  33.260  27.876  1.00  0.00    -0.206 F 
ATOM     83  C   UNL A   1      46.442  34.997  30.912  1.00  0.00     0.006 A 
ENDBRANCH  59  76
ENDBRANCH  33  34
ENDBRANCH  25  28
ENDBRANCH  23  24
ENDBRANCH  22  23
ENDBRANCH  21  22
ENDBRANCH   1  21
TORSDOF 18
ENDMDL
MODEL 2
REMARK VINA RESULT:      -9.7      1.092      2.503
REMARK SMILES C#CC[N@H+](CC(=O)NCCCCNC(=O)c1ccc(-c2c3nc(c(-c4c(F)cccc4F)c4ccc([nH]4)c(-c4c(F)cccc4F)c4nc(c(-c5c(F)cccc5F)c5ccc2[nH]5)C=C4)C=C3)cc1)[C@H](C)C(=O)NCCC
REMARK SMILES IDX 9 1 8 2 6 3 7 4 5 6 4 7 3 9 2 10 1 11 70 12 71 13 72 14
REMARK SMILES IDX 73 15 74 16 75 18 76 19 77 20 10 21 11 22 12 23 13 24 14 25
REMARK SMILES IDX 15 27 16 28 17 29 69 30 18 31 68 32 19 33 20 34 21 35 62 36
REMARK SMILES IDX 22 37 67 38 61 39 63 40 23 41 66 42 60 43 59 44 24 46 50 47
REMARK SMILES IDX 33 48 49 49 34 50 37 51 48 52 64 53 35 54 36 55 47 57 65 58
REMARK SMILES IDX 38 59 25 60 26 61 31 62 27 63 28 64 30 65 32 66 29 67 51 68
REMARK SMILES IDX 52 69 57 70 53 71 54 72 56 73 58 74 55 75 39 76 40 77 45 78
REMARK SMILES IDX 41 79 42 80 44 81 46 82 43 83
REMARK H PARENT 8 5 4 8 74 17 13 26 63 45 37 56
REMARK Flexibility Score: inf
ROOT
ATOM      1  C   UNL A   1      36.455  23.215  25.573  1.00  0.00     0.116 C 
ENDROOT
BRANCH   1   2
ATOM      2  N   UNL A   1      35.600  22.494  26.502  1.00  0.00    -0.351 N 
ATOM      3  C   UNL A   1      34.312  22.759  26.907  1.00  0.00     0.275 C 
ATOM      4  O   UNL A   1      33.818  22.028  27.765  1.00  0.00    -0.269 OA
ATOM      5  H   UNL A   1      36.005  21.692  26.903  1.00  0.00     0.163 HD
BRANCH   3   6
ATOM      6  C   UNL A   1      33.532  23.924  26.269  1.00  0.00     0.364 C 
BRANCH   6   7
ATOM      7  N   UNL A   1      32.252  23.570  25.577  1.00  0.00    -0.307 N 
ATOM      8  H   UNL A   1      32.072  22.570  25.660  1.00  0.00     0.350 HD
BRANCH   7   9
ATOM      9  C   UNL A   1      31.097  24.128  26.257  1.00  0.00     0.355 C 
BRANCH   9  10
ATOM     10  C   UNL A   1      30.109  23.287  26.940  1.00  0.00    -0.047 C 
ATOM     11  C   UNL A   1      29.194  22.578  27.251  1.00  0.00     0.010 C 
ENDBRANCH   9  10
ENDBRANCH   7   9
BRANCH   7  12
ATOM     12  C   UNL A   1      32.362  23.739  24.090  1.00  0.00     0.272 C 
ATOM     13  C   UNL A   1      31.094  23.897  23.231  1.00  0.00     0.086 C 
BRANCH  12  14
ATOM     14  C   UNL A   1      33.362  22.818  23.354  1.00  0.00     0.278 C 
ATOM     15  O   UNL A   1      34.223  23.298  22.609  1.00  0.00    -0.268 OA
ATOM     16  N   UNL A   1      33.319  21.452  23.434  1.00  0.00    -0.351 N 
ATOM     17  H   UNL A   1      33.871  20.996  22.758  1.00  0.00     0.163 HD
BRANCH  16  18
ATOM     18  C   UNL A   1      32.614  20.548  24.327  1.00  0.00     0.116 C 
BRANCH  18  19
ATOM     19  C   UNL A   1      33.555  19.616  25.081  1.00  0.00     0.018 C 
ATOM     20  C   UNL A   1      33.952  18.402  24.251  1.00  0.00     0.006 C 
ENDBRANCH  18  19
ENDBRANCH  16  18
ENDBRANCH  12  14
ENDBRANCH   7  12
ENDBRANCH   6   7
ENDBRANCH   3   6
ENDBRANCH   1   2
BRANCH   1  21
ATOM     21  C   UNL A   1      37.106  22.281  24.542  1.00  0.00     0.023 C 
BRANCH  21  22
ATOM     22  C   UNL A   1      37.592  20.956  25.083  1.00  0.00     0.023 C 
BRANCH  22  23
ATOM     23  C   UNL A   1      38.941  21.051  25.751  1.00  0.00     0.116 C 
BRANCH  23  24
ATOM     24  N   UNL A   1      39.648  19.774  25.775  1.00  0.00    -0.352 N 
ATOM     25  C   UNL A   1      40.992  19.562  25.979  1.00  0.00     0.251 C 
ATOM     26  H   UNL A   1      39.098  18.970  25.629  1.00  0.00     0.163 HD
ATOM     27  O   UNL A   1      41.496  18.457  25.820  1.00  0.00    -0.269 OA
BRANCH  25  28
ATOM     28  C   UNL A   1      41.808  20.727  26.360  1.00  0.00     0.039 A 
ATOM     29  C   UNL A   1      42.245  21.612  25.375  1.00  0.00     0.014 A 
ATOM     30  C   UNL A   1      41.973  21.015  27.716  1.00  0.00     0.014 A 
ATOM     31  C   UNL A   1      42.778  22.842  25.760  1.00  0.00     0.010 A 
ATOM     32  C   UNL A   1      42.376  22.284  28.089  1.00  0.00     0.010 A 
ATOM     33  C   UNL A   1      42.799  23.205  27.117  1.00  0.00    -0.014 A 
BRANCH  33  34
ATOM     34  C   UNL A   1      43.299  24.521  27.581  1.00  0.00     0.031 A 
ATOM     35  C   UNL A   1      42.297  25.566  27.989  1.00  0.00     0.074 A 
ATOM     36  C   UNL A   1      44.613  24.811  27.538  1.00  0.00     0.049 A 
ATOM     37  N   UNL A   1      42.482  26.833  28.252  1.00  0.00    -0.248 NA
ATOM     38  C   UNL A   1      40.890  25.135  28.070  1.00  0.00     0.031 C 
ATOM     39  C   UNL A   1      45.678  23.891  27.135  1.00  0.00     0.029 A 
ATOM     40  N   UNL A   1      45.275  25.980  27.819  1.00  0.00    -0.354 N 
ATOM     41  C   UNL A   1      41.217  27.348  28.504  1.00  0.00     0.074 A 
ATOM     42  C   UNL A   1      40.268  26.280  28.290  1.00  0.00     0.031 C 
ATOM     43  C   UNL A   1      46.860  24.524  27.214  1.00  0.00     0.029 A 
ATOM     44  C   UNL A   1      46.632  25.909  27.615  1.00  0.00     0.049 A 
ATOM     45  H   UNL A   1      44.820  26.794  28.136  1.00  0.00     0.167 HD
ATOM     46  C   UNL A   1      40.879  28.594  28.907  1.00  0.00     0.037 A 
ATOM     47  C   UNL A   1      47.579  26.862  27.717  1.00  0.00     0.037 A 
ATOM     48  C   UNL A   1      41.833  29.644  29.137  1.00  0.00     0.049 A 
ATOM     49  C   UNL A   1      47.173  28.257  28.117  1.00  0.00     0.074 A 
ATOM     50  C   UNL A   1      41.602  30.931  29.585  1.00  0.00     0.029 A 
ATOM     51  N   UNL A   1      43.199  29.526  28.931  1.00  0.00    -0.354 N 
ATOM     52  N   UNL A   1      45.980  28.722  28.400  1.00  0.00    -0.248 NA
ATOM     53  C   UNL A   1      48.243  29.261  28.212  1.00  0.00     0.031 C 
ATOM     54  C   UNL A   1      42.820  31.612  29.589  1.00  0.00     0.029 A 
ATOM     55  C   UNL A   1      43.821  30.727  29.221  1.00  0.00     0.049 A 
ATOM     56  H   UNL A   1      43.658  28.710  28.627  1.00  0.00     0.167 HD
ATOM     57  C   UNL A   1      46.162  30.054  28.753  1.00  0.00     0.074 A 
ATOM     58  C   UNL A   1      47.580  30.324  28.646  1.00  0.00     0.031 C 
ATOM     59  C   UNL A   1      45.239  30.967  29.140  1.00  0.00     0.037 A 
BRANCH  46  60
ATOM     60  C   UNL A   1      39.422  28.883  29.118  1.00  0.00     0.057 A 
ATOM     61  C   UNL A   1      38.800  28.691  30.360  1.00  0.00     0.134 A 
ATOM     62  C   UNL A   1      38.635  29.380  28.072  1.00  0.00     0.134 A 
ATOM     63  F   UNL A   1      39.492  28.203  31.400  1.00  0.00    -0.206 F 
ATOM     64  C   UNL A   1      37.442  28.954  30.544  1.00  0.00     0.040 A 
ATOM     65  C   UNL A   1      37.284  29.681  28.255  1.00  0.00     0.040 A 
ATOM     66  F   UNL A   1      39.166  29.590  26.858  1.00  0.00    -0.206 F 
ATOM     67  C   UNL A   1      36.682  29.458  29.491  1.00  0.00     0.006 A 
ENDBRANCH  46  60
BRANCH  47  68
ATOM     68  C   UNL A   1      49.005  26.538  27.445  1.00  0.00     0.057 A 
ATOM     69  C   UNL A   1      49.880  26.205  28.486  1.00  0.00     0.134 A 
ATOM     70  C   UNL A   1      49.535  26.578  26.150  1.00  0.00     0.134 A 
ATOM     71  F   UNL A   1      49.439  26.165  29.752  1.00  0.00    -0.206 F 
ATOM     72  C   UNL A   1      51.234  25.954  28.255  1.00  0.00     0.040 A 
ATOM     73  C   UNL A   1      50.880  26.298  25.900  1.00  0.00     0.040 A 
ATOM     74  F   UNL A   1      48.750  26.880  25.105  1.00  0.00    -0.206 F 
ATOM     75  C   UNL A   1      51.736  25.997  26.956  1.00  0.00     0.006 A 
ENDBRANCH  47  68
BRANCH  59  76
ATOM     76  C   UNL A   1      45.726  32.326  29.553  1.00  0.00     0.057 A 
ATOM     77  C   UNL A   1      46.150  32.606  30.857  1.00  0.00     0.134 A 
ATOM     78  C   UNL A   1      45.863  33.341  28.595  1.00  0.00     0.134 A 
ATOM     79  F   UNL A   1      46.038  31.681  31.823  1.00  0.00    -0.206 F 
ATOM     80  C   UNL A   1      46.685  33.850  31.196  1.00  0.00     0.040 A 
ATOM     81  C   UNL A   1      46.426  34.576  28.914  1.00  0.00     0.040 A 
ATOM     82  F   UNL A   1      45.486  33.134  27.324  1.00  0.00    -0.206 F 
ATOM     83  C   UNL A   1      46.837  34.835  30.220  1.00  0.00     0.006 A 
ENDBRANCH  59  76
ENDBRANCH  33  34
ENDBRANCH  25  28
ENDBRANCH  23  24
ENDBRANCH  22  23
ENDBRANCH  21  22
ENDBRANCH   1  21
TORSDOF 18
ENDMDL
MODEL 3
REMARK VINA RESULT:      -9.6      4.820      9.188
REMARK SMILES C#CC[N@H+](CC(=O)NCCCCNC(=O)c1ccc(-c2c3nc(c(-c4c(F)cccc4F)c4ccc([nH]4)c(-c4c(F)cccc4F)c4nc(c(-c5c(F)cccc5F)c5ccc2[nH]5)C=C4)C=C3)cc1)[C@H](C)C(=O)NCCC
REMARK SMILES IDX 9 1 8 2 6 3 7 4 5 6 4 7 3 9 2 10 1 11 70 12 71 13 72 14
REMARK SMILES IDX 73 15 74 16 75 18 76 19 77 20 10 21 11 22 12 23 13 24 14 25
REMARK SMILES IDX 15 27 16 28 17 29 69 30 18 31 68 32 19 33 20 34 21 35 62 36
REMARK SMILES IDX 22 37 67 38 61 39 63 40 23 41 66 42 60 43 59 44 24 46 50 47
REMARK SMILES IDX 33 48 49 49 34 50 37 51 48 52 64 53 35 54 36 55 47 57 65 58
REMARK SMILES IDX 38 59 25 60 26 61 31 62 27 63 28 64 30 65 32 66 29 67 51 68
REMARK SMILES IDX 52 69 57 70 53 71 54 72 56 73 58 74 55 75 39 76 40 77 45 78
REMARK SMILES IDX 41 79 42 80 44 81 46 82 43 83
REMARK H PARENT 8 5 4 8 74 17 13 26 63 45 37 56
REMARK Flexibility Score: inf
ROOT
ATOM      1  C   UNL A   1      32.044  29.776  25.549  1.00  0.00     0.116 C 
ENDROOT
BRANCH   1   2
ATOM      2  N   UNL A   1      33.077  28.755  25.581  1.00  0.00    -0.351 N 
ATOM      3  C   UNL A   1      32.973  27.395  25.761  1.00  0.00     0.275 C 
ATOM      4  O   UNL A   1      34.014  26.741  25.815  1.00  0.00    -0.269 OA
ATOM      5  H   UNL A   1      33.995  29.088  25.454  1.00  0.00     0.163 HD
BRANCH   3   6
ATOM      6  C   UNL A   1      31.583  26.740  25.862  1.00  0.00     0.364 C 
BRANCH   6   7
ATOM      7  N   UNL A   1      31.064  26.079  24.623  1.00  0.00    -0.307 N 
ATOM      8  H   UNL A   1      31.824  25.929  23.961  1.00  0.00     0.350 HD
BRANCH   7   9
ATOM      9  C   UNL A   1      30.630  24.717  24.876  1.00  0.00     0.355 C 
BRANCH   9  10
ATOM     10  C   UNL A   1      31.562  23.586  24.882  1.00  0.00    -0.047 C 
ATOM     11  C   UNL A   1      32.145  22.553  24.713  1.00  0.00     0.010 C 
ENDBRANCH   9  10
ENDBRANCH   7   9
BRANCH   7  12
ATOM     12  C   UNL A   1      30.158  26.990  23.847  1.00  0.00     0.272 C 
ATOM     13  C   UNL A   1      28.648  26.701  23.770  1.00  0.00     0.086 C 
BRANCH  12  14
ATOM     14  C   UNL A   1      30.657  27.455  22.460  1.00  0.00     0.278 C 
ATOM     15  O   UNL A   1      31.189  26.652  21.684  1.00  0.00    -0.268 OA
ATOM     16  N   UNL A   1      30.596  28.756  22.040  1.00  0.00    -0.351 N 
ATOM     17  H   UNL A   1      31.133  28.941  21.237  1.00  0.00     0.163 HD
BRANCH  16  18
ATOM     18  C   UNL A   1      29.887  29.915  22.556  1.00  0.00     0.116 C 
BRANCH  18  19
ATOM     19  C   UNL A   1      28.448  29.993  22.057  1.00  0.00     0.018 C 
ATOM     20  C   UNL A   1      27.466  30.309  23.178  1.00  0.00     0.006 C 
ENDBRANCH  18  19
ENDBRANCH  16  18
ENDBRANCH  12  14
ENDBRANCH   7  12
ENDBRANCH   6   7
ENDBRANCH   3   6
ENDBRANCH   1   2
BRANCH   1  21
ATOM     21  C   UNL A   1      31.918  30.514  26.890  1.00  0.00     0.023 C 
BRANCH  21  22
ATOM     22  C   UNL A   1      31.712  32.009  26.790  1.00  0.00     0.023 C 
BRANCH  22  23
ATOM     23  C   UNL A   1      32.833  32.801  27.414  1.00  0.00     0.116 C 
BRANCH  23  24
ATOM     24  N   UNL A   1      32.471  34.195  27.656  1.00  0.00    -0.352 N 
ATOM     25  C   UNL A   1      32.997  35.048  28.599  1.00  0.00     0.251 C 
ATOM     26  H   UNL A   1      31.770  34.568  27.075  1.00  0.00     0.163 HD
ATOM     27  O   UNL A   1      32.503  36.148  28.811  1.00  0.00    -0.269 OA
BRANCH  25  28
ATOM     28  C   UNL A   1      34.156  34.568  29.370  1.00  0.00     0.039 A 
ATOM     29  C   UNL A   1      33.950  33.909  30.582  1.00  0.00     0.014 A 
ATOM     30  C   UNL A   1      35.422  34.625  28.783  1.00  0.00     0.014 A 
ATOM     31  C   UNL A   1      35.015  33.227  31.169  1.00  0.00     0.010 A 
ATOM     32  C   UNL A   1      36.436  33.839  29.297  1.00  0.00     0.010 A 
ATOM     33  C   UNL A   1      36.250  33.145  30.504  1.00  0.00    -0.014 A 
BRANCH  33  34
ATOM     34  C   UNL A   1      37.399  32.385  31.050  1.00  0.00     0.031 A 
ATOM     35  C   UNL A   1      38.080  32.902  32.286  1.00  0.00     0.074 A 
ATOM     36  C   UNL A   1      37.888  31.314  30.395  1.00  0.00     0.049 A 
ATOM     37  N   UNL A   1      39.202  32.518  32.838  1.00  0.00    -0.248 NA
ATOM     38  C   UNL A   1      37.433  34.036  32.970  1.00  0.00     0.031 C 
ATOM     39  C   UNL A   1      37.331  30.734  29.172  1.00  0.00     0.029 A 
ATOM     40  N   UNL A   1      38.987  30.536  30.661  1.00  0.00    -0.354 N 
ATOM     41  C   UNL A   1      39.400  33.375  33.911  1.00  0.00     0.074 A 
ATOM     42  C   UNL A   1      38.329  34.345  33.891  1.00  0.00     0.031 C 
ATOM     43  C   UNL A   1      38.079  29.679  28.806  1.00  0.00     0.029 A 
ATOM     44  C   UNL A   1      39.200  29.546  29.731  1.00  0.00     0.049 A 
ATOM     45  H   UNL A   1      39.568  30.673  31.443  1.00  0.00     0.167 HD
ATOM     46  C   UNL A   1      40.374  33.340  34.850  1.00  0.00     0.037 A 
ATOM     47  C   UNL A   1      40.201  28.649  29.628  1.00  0.00     0.037 A 
ATOM     48  C   UNL A   1      41.423  32.360  34.873  1.00  0.00     0.049 A 
ATOM     49  C   UNL A   1      41.304  28.662  30.655  1.00  0.00     0.074 A 
ATOM     50  C   UNL A   1      42.437  32.208  35.801  1.00  0.00     0.029 A 
ATOM     51  N   UNL A   1      41.595  31.366  33.921  1.00  0.00    -0.354 N 
ATOM     52  N   UNL A   1      41.457  29.446  31.695  1.00  0.00    -0.248 NA
ATOM     53  C   UNL A   1      42.374  27.666  30.496  1.00  0.00     0.031 C 
ATOM     54  C   UNL A   1      43.260  31.164  35.376  1.00  0.00     0.029 A 
ATOM     55  C   UNL A   1      42.714  30.613  34.227  1.00  0.00     0.049 A 
ATOM     56  H   UNL A   1      41.008  31.218  33.144  1.00  0.00     0.167 HD
ATOM     57  C   UNL A   1      42.608  29.008  32.338  1.00  0.00     0.074 A 
ATOM     58  C   UNL A   1      43.115  27.891  31.571  1.00  0.00     0.031 C 
ATOM     59  C   UNL A   1      43.186  29.483  33.468  1.00  0.00     0.037 A 
BRANCH  46  60
ATOM     60  C   UNL A   1      40.345  34.393  35.918  1.00  0.00     0.057 A 
ATOM     61  C   UNL A   1      39.665  34.204  37.130  1.00  0.00     0.134 A 
ATOM     62  C   UNL A   1      41.025  35.605  35.743  1.00  0.00     0.134 A 
ATOM     63  F   UNL A   1      38.980  33.072  37.356  1.00  0.00    -0.206 F 
ATOM     64  C   UNL A   1      39.636  35.193  38.113  1.00  0.00     0.040 A 
ATOM     65  C   UNL A   1      41.034  36.587  36.736  1.00  0.00     0.040 A 
ATOM     66  F   UNL A   1      41.699  35.852  34.610  1.00  0.00    -0.206 F 
ATOM     67  C   UNL A   1      40.330  36.385  37.921  1.00  0.00     0.006 A 
ENDBRANCH  46  60
BRANCH  47  68
ATOM     68  C   UNL A   1      40.212  27.660  28.518  1.00  0.00     0.057 A 
ATOM     69  C   UNL A   1      39.581  26.416  28.654  1.00  0.00     0.134 A 
ATOM     70  C   UNL A   1      40.871  27.915  27.309  1.00  0.00     0.134 A 
ATOM     71  F   UNL A   1      38.947  26.104  29.794  1.00  0.00    -0.206 F 
ATOM     72  C   UNL A   1      39.631  25.454  27.645  1.00  0.00     0.040 A 
ATOM     73  C   UNL A   1      40.901  26.973  26.279  1.00  0.00     0.040 A 
ATOM     74  F   UNL A   1      41.486  29.089  27.108  1.00  0.00    -0.206 F 
ATOM     75  C   UNL A   1      40.290  25.733  26.450  1.00  0.00     0.006 A 
ENDBRANCH  47  68
BRANCH  59  76
ATOM     76  C   UNL A   1      44.390  28.760  33.998  1.00  0.00     0.057 A 
ATOM     77  C   UNL A   1      44.284  27.648  34.842  1.00  0.00     0.134 A 
ATOM     78  C   UNL A   1      45.673  29.130  33.571  1.00  0.00     0.134 A 
ATOM     79  F   UNL A   1      43.087  27.247  35.294  1.00  0.00    -0.206 F 
ATOM     80  C   UNL A   1      45.414  26.935  35.248  1.00  0.00     0.040 A 
ATOM     81  C   UNL A   1      46.805  28.406  33.944  1.00  0.00     0.040 A 
ATOM     82  F   UNL A   1      45.842  30.180  32.752  1.00  0.00    -0.206 F 
ATOM     83  C   UNL A   1      46.677  27.305  34.788  1.00  0.00     0.006 A 
ENDBRANCH  59  76
ENDBRANCH  33  34
ENDBRANCH  25  28
ENDBRANCH  23  24
ENDBRANCH  22  23
ENDBRANCH  21  22
ENDBRANCH   1  21
TORSDOF 18
ENDMDL
