MODEL 1
REMARK VINA RESULT:     -11.5      0.000      0.000
REMARK SMILES CO[C@@H]1C[C@H](C(=O)NCCCCNC(=O)c2ccc(-c3c4nc(c(-c5c(F)cccc5F)c5ccc([nH]5)c(-c5c(F)cccc5F)c5nc(c(-c6c(F)cccc6F)c6ccc3[nH]6)C=C5)C=C4)cc2)N(C(=O)[C@H](CC(C)C)NC(N)=O)C1
REMARK SMILES IDX 9 1 8 2 6 3 7 4 5 6 3 7 4 8 82 9 70 10 2 11 1 12 71 13 72 14
REMARK SMILES IDX 73 15 78 16 79 17 80 19 81 20 74 23 75 24 76 25 77 26 10 27
REMARK SMILES IDX 11 28 12 29 13 30 14 31 15 33 16 34 17 35 69 36 18 37 68 38
REMARK SMILES IDX 19 39 20 40 21 41 62 42 22 43 67 44 61 45 63 46 23 47 66 48
REMARK SMILES IDX 60 49 59 50 24 52 50 53 33 54 49 55 34 56 37 57 48 58 64 59
REMARK SMILES IDX 35 60 36 61 47 63 65 64 38 65 25 66 26 67 31 68 27 69 28 70
REMARK SMILES IDX 30 71 32 72 29 73 51 74 52 75 57 76 53 77 54 78 56 79 58 80
REMARK SMILES IDX 55 81 39 82 40 83 45 84 41 85 42 86 44 87 46 88 43 89
REMARK H PARENT 8 5 78 18 80 21 80 22 13 32 63 51 37 62
REMARK Flexibility Score: inf
ROOT
ATOM      1  C   UNL A   1      33.108  29.758  26.242  1.00  0.00     0.116 C 
ENDROOT
BRANCH   1   2
ATOM      2  N   UNL A   1      33.349  29.704  24.808  1.00  0.00    -0.354 N 
ATOM      3  C   UNL A   1      33.005  28.827  23.831  1.00  0.00     0.242 C 
ATOM      4  O   UNL A   1      33.341  29.155  22.681  1.00  0.00    -0.273 OA
ATOM      5  H   UNL A   1      33.874  30.467  24.476  1.00  0.00     0.163 HD
BRANCH   3   6
ATOM      6  C   UNL A   1      32.299  27.451  24.002  1.00  0.00     0.177 C 
ATOM      7  C   UNL A   1      29.994  27.521  23.416  1.00  0.00     0.139 C 
ATOM      8  C   UNL A   1      30.912  27.433  24.622  1.00  0.00     0.069 C 
ATOM      9  C   UNL A   1      30.745  26.642  22.377  1.00  0.00     0.152 C 
ATOM     10  N   UNL A   1      32.152  26.631  22.823  1.00  0.00    -0.326 N 
BRANCH   7  11
ATOM     11  O   UNL A   1      29.832  28.862  22.963  1.00  0.00    -0.380 OA
ATOM     12  C   UNL A   1      28.476  29.263  22.748  1.00  0.00     0.195 C 
ENDBRANCH   7  11
BRANCH  10  13
ATOM     13  C   UNL A   1      33.048  25.670  22.375  1.00  0.00     0.246 C 
ATOM     14  O   UNL A   1      33.646  25.841  21.307  1.00  0.00    -0.272 OA
BRANCH  13  15
ATOM     15  C   UNL A   1      33.066  24.256  23.063  1.00  0.00     0.173 C 
BRANCH  15  16
ATOM     16  N   UNL A   1      32.565  23.150  22.235  1.00  0.00    -0.327 N 
ATOM     17  C   UNL A   1      32.164  21.950  22.731  1.00  0.00     0.312 C 
ATOM     18  H   UNL A   1      32.517  23.287  21.261  1.00  0.00     0.166 HD
ATOM     19  N   UNL A   1      31.779  21.099  21.744  1.00  0.00    -0.352 N 
ATOM     20  O   UNL A   1      32.146  21.629  23.902  1.00  0.00    -0.249 OA
ATOM     21  H   UNL A   1      31.806  21.391  20.804  1.00  0.00     0.161 HD
ATOM     22  H   UNL A   1      31.474  20.190  21.968  1.00  0.00     0.161 HD
ENDBRANCH  15  16
BRANCH  15  23
ATOM     23  C   UNL A   1      34.526  23.968  23.520  1.00  0.00     0.038 C 
BRANCH  23  24
ATOM     24  C   UNL A   1      34.864  24.450  24.941  1.00  0.00    -0.015 C 
ATOM     25  C   UNL A   1      33.624  24.468  25.831  1.00  0.00     0.007 C 
ATOM     26  C   UNL A   1      35.925  23.532  25.562  1.00  0.00     0.007 C 
ENDBRANCH  23  24
ENDBRANCH  15  23
ENDBRANCH  13  15
ENDBRANCH  10  13
ENDBRANCH   3   6
ENDBRANCH   1   2
BRANCH   1  27
ATOM     27  C   UNL A   1      31.722  30.314  26.579  1.00  0.00     0.023 C 
BRANCH  27  28
ATOM     28  C   UNL A   1      31.600  31.827  26.555  1.00  0.00     0.023 C 
BRANCH  28  29
ATOM     29  C   UNL A   1      32.740  32.541  27.247  1.00  0.00     0.116 C 
BRANCH  29  30
ATOM     30  N   UNL A   1      32.430  33.933  27.563  1.00  0.00    -0.352 N 
ATOM     31  C   UNL A   1      33.000  34.741  28.520  1.00  0.00     0.251 C 
ATOM     32  H   UNL A   1      31.722  34.347  27.021  1.00  0.00     0.163 HD
ATOM     33  O   UNL A   1      32.525  35.836  28.793  1.00  0.00    -0.269 OA
BRANCH  31  34
ATOM     34  C   UNL A   1      34.188  34.238  29.232  1.00  0.00     0.039 A 
ATOM     35  C   UNL A   1      34.029  33.463  30.381  1.00  0.00     0.014 A 
ATOM     36  C   UNL A   1      35.453  34.452  28.679  1.00  0.00     0.014 A 
ATOM     37  C   UNL A   1      35.145  32.836  30.934  1.00  0.00     0.010 A 
ATOM     38  C   UNL A   1      36.527  33.718  29.145  1.00  0.00     0.010 A 
ATOM     39  C   UNL A   1      36.392  32.923  30.292  1.00  0.00    -0.014 A 
BRANCH  39  40
ATOM     40  C   UNL A   1      37.592  32.233  30.820  1.00  0.00     0.031 A 
ATOM     41  C   UNL A   1      38.251  32.759  32.066  1.00  0.00     0.074 A 
ATOM     42  C   UNL A   1      38.123  31.196  30.145  1.00  0.00     0.049 A 
ATOM     43  N   UNL A   1      39.355  32.369  32.646  1.00  0.00    -0.248 NA
ATOM     44  C   UNL A   1      37.608  33.913  32.722  1.00  0.00     0.031 C 
ATOM     45  C   UNL A   1      37.608  30.642  28.890  1.00  0.00     0.029 A 
ATOM     46  N   UNL A   1      39.223  30.425  30.419  1.00  0.00    -0.354 N 
ATOM     47  C   UNL A   1      39.545  33.239  33.713  1.00  0.00     0.074 A 
ATOM     48  C   UNL A   1      38.494  34.227  33.652  1.00  0.00     0.031 C 
ATOM     49  C   UNL A   1      38.367  29.596  28.525  1.00  0.00     0.029 A 
ATOM     50  C   UNL A   1      39.445  29.432  29.495  1.00  0.00     0.049 A 
ATOM     51  H   UNL A   1      39.801  30.569  31.203  1.00  0.00     0.167 HD
ATOM     52  C   UNL A   1      40.487  33.194  34.682  1.00  0.00     0.037 A 
ATOM     53  C   UNL A   1      40.411  28.497  29.442  1.00  0.00     0.037 A 
ATOM     54  C   UNL A   1      41.502  32.181  34.756  1.00  0.00     0.049 A 
ATOM     55  C   UNL A   1      41.444  28.462  30.537  1.00  0.00     0.074 A 
ATOM     56  C   UNL A   1      42.469  31.999  35.728  1.00  0.00     0.029 A 
ATOM     57  N   UNL A   1      41.676  31.174  33.818  1.00  0.00    -0.354 N 
ATOM     58  N   UNL A   1      41.569  29.245  31.581  1.00  0.00    -0.248 NA
ATOM     59  C   UNL A   1      42.464  27.410  30.449  1.00  0.00     0.031 C 
ATOM     60  C   UNL A   1      43.259  30.907  35.353  1.00  0.00     0.029 A 
ATOM     61  C   UNL A   1      42.750  30.377  34.177  1.00  0.00     0.049 A 
ATOM     62  H   UNL A   1      41.120  31.044  33.017  1.00  0.00     0.167 HD
ATOM     63  C   UNL A   1      42.660  28.762  32.291  1.00  0.00     0.074 A 
ATOM     64  C   UNL A   1      43.151  27.608  31.565  1.00  0.00     0.031 C 
ATOM     65  C   UNL A   1      43.209  29.227  33.440  1.00  0.00     0.037 A 
BRANCH  52  66
ATOM     66  C   UNL A   1      40.446  34.262  35.736  1.00  0.00     0.057 A 
ATOM     67  C   UNL A   1      39.701  34.111  36.915  1.00  0.00     0.134 A 
ATOM     68  C   UNL A   1      41.169  35.450  35.581  1.00  0.00     0.134 A 
ATOM     69  F   UNL A   1      38.970  33.005  37.121  1.00  0.00    -0.206 F 
ATOM     70  C   UNL A   1      39.652  35.115  37.884  1.00  0.00     0.040 A 
ATOM     71  C   UNL A   1      41.155  36.447  36.557  1.00  0.00     0.040 A 
ATOM     72  F   UNL A   1      41.905  35.661  34.478  1.00  0.00    -0.206 F 
ATOM     73  C   UNL A   1      40.387  36.285  37.709  1.00  0.00     0.006 A 
ENDBRANCH  52  66
BRANCH  53  74
ATOM     74  C   UNL A   1      40.432  27.500  28.341  1.00  0.00     0.057 A 
ATOM     75  C   UNL A   1      39.743  26.287  28.452  1.00  0.00     0.134 A 
ATOM     76  C   UNL A   1      41.146  27.728  27.158  1.00  0.00     0.134 A 
ATOM     77  F   UNL A   1      39.052  26.003  29.565  1.00  0.00    -0.206 F 
ATOM     78  C   UNL A   1      39.785  25.325  27.441  1.00  0.00     0.040 A 
ATOM     79  C   UNL A   1      41.173  26.786  26.127  1.00  0.00     0.040 A 
ATOM     80  F   UNL A   1      41.818  28.875  26.982  1.00  0.00    -0.206 F 
ATOM     81  C   UNL A   1      40.499  25.576  26.272  1.00  0.00     0.006 A 
ENDBRANCH  53  74
BRANCH  65  82
ATOM     82  C   UNL A   1      44.374  28.466  34.000  1.00  0.00     0.057 A 
ATOM     83  C   UNL A   1      44.202  27.372  34.856  1.00  0.00     0.134 A 
ATOM     84  C   UNL A   1      45.684  28.809  33.640  1.00  0.00     0.134 A 
ATOM     85  F   UNL A   1      42.973  27.000  35.247  1.00  0.00    -0.206 F 
ATOM     86  C   UNL A   1      45.294  26.660  35.353  1.00  0.00     0.040 A 
ATOM     87  C   UNL A   1      46.781  28.085  34.106  1.00  0.00     0.040 A 
ATOM     88  F   UNL A   1      45.917  29.840  32.814  1.00  0.00    -0.206 F 
ATOM     89  C   UNL A   1      46.587  27.011  34.972  1.00  0.00     0.006 A 
ENDBRANCH  65  82
ENDBRANCH  39  40
ENDBRANCH  31  34
ENDBRANCH  29  30
ENDBRANCH  28  29
ENDBRANCH  27  28
ENDBRANCH   1  27
TORSDOF 17
ENDMDL
MODEL 2
REMARK VINA RESULT:     -11.3      1.048      1.755
REMARK SMILES CO[C@@H]1C[C@H](C(=O)NCCCCNC(=O)c2ccc(-c3c4nc(c(-c5c(F)cccc5F)c5ccc([nH]5)c(-c5c(F)cccc5F)c5nc(c(-c6c(F)cccc6F)c6ccc3[nH]6)C=C5)C=C4)cc2)N(C(=O)[C@H](CC(C)C)NC(N)=O)C1
REMARK SMILES IDX 9 1 8 2 6 3 7 4 5 6 3 7 4 8 82 9 70 10 2 11 1 12 71 13 72 14
REMARK SMILES IDX 73 15 78 16 79 17 80 19 81 20 74 23 75 24 76 25 77 26 10 27
REMARK SMILES IDX 11 28 12 29 13 30 14 31 15 33 16 34 17 35 69 36 18 37 68 38
REMARK SMILES IDX 19 39 20 40 21 41 62 42 22 43 67 44 61 45 63 46 23 47 66 48
REMARK SMILES IDX 60 49 59 50 24 52 50 53 33 54 49 55 34 56 37 57 48 58 64 59
REMARK SMILES IDX 35 60 36 61 47 63 65 64 38 65 25 66 26 67 31 68 27 69 28 70
REMARK SMILES IDX 30 71 32 72 29 73 51 74 52 75 57 76 53 77 54 78 56 79 58 80
REMARK SMILES IDX 55 81 39 82 40 83 45 84 41 85 42 86 44 87 46 88 43 89
REMARK H PARENT 8 5 78 18 80 21 80 22 13 32 63 51 37 62
REMARK Flexibility Score: inf
ROOT
ATOM      1  C   UNL A   1      33.137  29.914  26.245  1.00  0.00     0.116 C 
ENDROOT
BRANCH   1   2
ATOM      2  N   UNL A   1      33.428  29.697  24.835  1.00  0.00    -0.354 N 
ATOM      3  C   UNL A   1      32.993  28.799  23.915  1.00  0.00     0.242 C 
ATOM      4  O   UNL A   1      33.425  28.969  22.762  1.00  0.00    -0.273 OA
ATOM      5  H   UNL A   1      34.079  30.338  24.472  1.00  0.00     0.163 HD
BRANCH   3   6
ATOM      6  C   UNL A   1      32.075  27.567  24.157  1.00  0.00     0.177 C 
ATOM      7  C   UNL A   1      30.123  27.595  22.796  1.00  0.00     0.139 C 
ATOM      8  C   UNL A   1      30.574  27.800  24.231  1.00  0.00     0.069 C 
ATOM      9  C   UNL A   1      31.031  26.420  22.339  1.00  0.00     0.152 C 
ATOM     10  N   UNL A   1      32.198  26.458  23.241  1.00  0.00    -0.326 N 
BRANCH   7  11
ATOM     11  O   UNL A   1      30.317  28.762  22.002  1.00  0.00    -0.380 OA
ATOM     12  C   UNL A   1      29.544  29.896  22.402  1.00  0.00     0.195 C 
ENDBRANCH   7  11
BRANCH  10  13
ATOM     13  C   UNL A   1      33.039  25.363  23.388  1.00  0.00     0.246 C 
ATOM     14  O   UNL A   1      33.799  25.046  22.467  1.00  0.00    -0.272 OA
BRANCH  13  15
ATOM     15  C   UNL A   1      32.801  24.368  24.583  1.00  0.00     0.173 C 
BRANCH  15  16
ATOM     16  N   UNL A   1      31.410  24.261  25.042  1.00  0.00    -0.327 N 
ATOM     17  C   UNL A   1      31.038  24.264  26.350  1.00  0.00     0.312 C 
ATOM     18  H   UNL A   1      30.703  24.183  24.361  1.00  0.00     0.166 HD
ATOM     19  N   UNL A   1      29.694  24.119  26.493  1.00  0.00    -0.352 N 
ATOM     20  O   UNL A   1      31.779  24.368  27.305  1.00  0.00    -0.249 OA
ATOM     21  H   UNL A   1      29.120  24.037  25.696  1.00  0.00     0.161 HD
ATOM     22  H   UNL A   1      29.294  24.095  27.391  1.00  0.00     0.161 HD
ENDBRANCH  15  16
BRANCH  15  23
ATOM     23  C   UNL A   1      33.334  22.971  24.151  1.00  0.00     0.038 C 
BRANCH  23  24
ATOM     24  C   UNL A   1      34.410  22.376  25.076  1.00  0.00    -0.015 C 
ATOM     25  C   UNL A   1      35.109  23.465  25.886  1.00  0.00     0.007 C 
ATOM     26  C   UNL A   1      33.770  21.360  26.031  1.00  0.00     0.007 C 
ENDBRANCH  23  24
ENDBRANCH  15  23
ENDBRANCH  13  15
ENDBRANCH  10  13
ENDBRANCH   3   6
ENDBRANCH   1   2
BRANCH   1  27
ATOM     27  C   UNL A   1      31.728  30.468  26.469  1.00  0.00     0.023 C 
BRANCH  27  28
ATOM     28  C   UNL A   1      31.617  31.982  26.503  1.00  0.00     0.023 C 
BRANCH  28  29
ATOM     29  C   UNL A   1      32.725  32.657  27.283  1.00  0.00     0.116 C 
BRANCH  29  30
ATOM     30  N   UNL A   1      32.432  34.053  27.594  1.00  0.00    -0.352 N 
ATOM     31  C   UNL A   1      33.005  34.855  28.553  1.00  0.00     0.251 C 
ATOM     32  H   UNL A   1      31.733  34.476  27.045  1.00  0.00     0.163 HD
ATOM     33  O   UNL A   1      32.543  35.957  28.820  1.00  0.00    -0.269 OA
BRANCH  31  34
ATOM     34  C   UNL A   1      34.180  34.338  29.276  1.00  0.00     0.039 A 
ATOM     35  C   UNL A   1      34.001  33.540  30.406  1.00  0.00     0.014 A 
ATOM     36  C   UNL A   1      35.454  34.563  28.750  1.00  0.00     0.014 A 
ATOM     37  C   UNL A   1      35.107  32.901  30.965  1.00  0.00     0.010 A 
ATOM     38  C   UNL A   1      36.520  33.819  29.220  1.00  0.00     0.010 A 
ATOM     39  C   UNL A   1      36.365  33.001  30.348  1.00  0.00    -0.014 A 
BRANCH  39  40
ATOM     40  C   UNL A   1      37.555  32.300  30.883  1.00  0.00     0.031 A 
ATOM     41  C   UNL A   1      38.204  32.813  32.140  1.00  0.00     0.074 A 
ATOM     42  C   UNL A   1      38.087  31.265  30.206  1.00  0.00     0.049 A 
ATOM     43  N   UNL A   1      39.300  32.412  32.728  1.00  0.00    -0.248 NA
ATOM     44  C   UNL A   1      37.561  33.966  32.798  1.00  0.00     0.031 C 
ATOM     45  C   UNL A   1      37.583  30.724  28.941  1.00  0.00     0.029 A 
ATOM     46  N   UNL A   1      39.180  30.486  30.485  1.00  0.00    -0.354 N 
ATOM     47  C   UNL A   1      39.484  33.272  33.803  1.00  0.00     0.074 A 
ATOM     48  C   UNL A   1      38.439  34.267  33.739  1.00  0.00     0.031 C 
ATOM     49  C   UNL A   1      38.339  29.677  28.576  1.00  0.00     0.029 A 
ATOM     50  C   UNL A   1      39.406  29.499  29.556  1.00  0.00     0.049 A 
ATOM     51  H   UNL A   1      39.750  30.620  31.276  1.00  0.00     0.167 HD
ATOM     52  C   UNL A   1      40.415  33.215  34.782  1.00  0.00     0.037 A 
ATOM     53  C   UNL A   1      40.367  28.559  29.505  1.00  0.00     0.037 A 
ATOM     54  C   UNL A   1      41.424  32.195  34.859  1.00  0.00     0.049 A 
ATOM     55  C   UNL A   1      41.389  28.510  30.610  1.00  0.00     0.074 A 
ATOM     56  C   UNL A   1      42.379  32.000  35.839  1.00  0.00     0.029 A 
ATOM     57  N   UNL A   1      41.602  31.194  33.915  1.00  0.00    -0.354 N 
ATOM     58  N   UNL A   1      41.507  29.283  31.662  1.00  0.00    -0.248 NA
ATOM     59  C   UNL A   1      42.404  27.453  30.524  1.00  0.00     0.031 C 
ATOM     60  C   UNL A   1      43.168  30.907  35.464  1.00  0.00     0.029 A 
ATOM     61  C   UNL A   1      42.668  30.389  34.278  1.00  0.00     0.049 A 
ATOM     62  H   UNL A   1      41.053  31.074  33.107  1.00  0.00     0.167 HD
ATOM     63  C   UNL A   1      42.588  28.789  32.379  1.00  0.00     0.074 A 
ATOM     64  C   UNL A   1      43.080  27.638  31.649  1.00  0.00     0.031 C 
ATOM     65  C   UNL A   1      43.128  29.242  33.537  1.00  0.00     0.037 A 
BRANCH  52  66
ATOM     66  C   UNL A   1      40.370  34.274  35.844  1.00  0.00     0.057 A 
ATOM     67  C   UNL A   1      41.080  35.477  35.721  1.00  0.00     0.134 A 
ATOM     68  C   UNL A   1      39.597  34.100  36.998  1.00  0.00     0.134 A 
ATOM     69  F   UNL A   1      41.855  35.703  34.650  1.00  0.00    -0.206 F 
ATOM     70  C   UNL A   1      41.048  36.452  36.720  1.00  0.00     0.040 A 
ATOM     71  C   UNL A   1      39.531  35.080  37.989  1.00  0.00     0.040 A 
ATOM     72  F   UNL A   1      38.890  32.973  37.181  1.00  0.00    -0.206 F 
ATOM     73  C   UNL A   1      40.265  36.257  37.856  1.00  0.00     0.006 A 
ENDBRANCH  52  66
BRANCH  53  74
ATOM     74  C   UNL A   1      40.395  27.571  28.396  1.00  0.00     0.057 A 
ATOM     75  C   UNL A   1      41.146  27.805  27.238  1.00  0.00     0.134 A 
ATOM     76  C   UNL A   1      39.668  26.376  28.459  1.00  0.00     0.134 A 
ATOM     77  F   UNL A   1      41.853  28.938  27.110  1.00  0.00    -0.206 F 
ATOM     78  C   UNL A   1      41.152  26.903  26.172  1.00  0.00     0.040 A 
ATOM     79  C   UNL A   1      39.688  25.452  27.412  1.00  0.00     0.040 A 
ATOM     80  F   UNL A   1      38.938  26.083  29.545  1.00  0.00    -0.206 F 
ATOM     81  C   UNL A   1      40.424  25.720  26.260  1.00  0.00     0.006 A 
ENDBRANCH  53  74
BRANCH  65  82
ATOM     82  C   UNL A   1      44.283  28.470  34.104  1.00  0.00     0.057 A 
ATOM     83  C   UNL A   1      44.096  27.371  34.949  1.00  0.00     0.134 A 
ATOM     84  C   UNL A   1      45.599  28.808  33.759  1.00  0.00     0.134 A 
ATOM     85  F   UNL A   1      42.861  27.004  35.325  1.00  0.00    -0.206 F 
ATOM     86  C   UNL A   1      45.179  26.649  35.452  1.00  0.00     0.040 A 
ATOM     87  C   UNL A   1      46.687  28.074  34.230  1.00  0.00     0.040 A 
ATOM     88  F   UNL A   1      45.846  29.844  32.942  1.00  0.00    -0.206 F 
ATOM     89  C   UNL A   1      46.478  26.995  35.086  1.00  0.00     0.006 A 
ENDBRANCH  65  82
ENDBRANCH  39  40
ENDBRANCH  31  34
ENDBRANCH  29  30
ENDBRANCH  28  29
ENDBRANCH  27  28
ENDBRANCH   1  27
TORSDOF 17
ENDMDL
MODEL 3
REMARK VINA RESULT:     -11.3      0.845      6.238
REMARK SMILES CO[C@@H]1C[C@H](C(=O)NCCCCNC(=O)c2ccc(-c3c4nc(c(-c5c(F)cccc5F)c5ccc([nH]5)c(-c5c(F)cccc5F)c5nc(c(-c6c(F)cccc6F)c6ccc3[nH]6)C=C5)C=C4)cc2)N(C(=O)[C@H](CC(C)C)NC(N)=O)C1
REMARK SMILES IDX 9 1 8 2 6 3 7 4 5 6 3 7 4 8 82 9 70 10 2 11 1 12 71 13 72 14
REMARK SMILES IDX 73 15 78 16 79 17 80 19 81 20 74 23 75 24 76 25 77 26 10 27
REMARK SMILES IDX 11 28 12 29 13 30 14 31 15 33 16 34 17 35 69 36 18 37 68 38
REMARK SMILES IDX 19 39 20 40 21 41 62 42 22 43 67 44 61 45 63 46 23 47 66 48
REMARK SMILES IDX 60 49 59 50 24 52 50 53 33 54 49 55 34 56 37 57 48 58 64 59
REMARK SMILES IDX 35 60 36 61 47 63 65 64 38 65 25 66 26 67 31 68 27 69 28 70
REMARK SMILES IDX 30 71 32 72 29 73 51 74 52 75 57 76 53 77 54 78 56 79 58 80
REMARK SMILES IDX 55 81 39 82 40 83 45 84 41 85 42 86 44 87 46 88 43 89
REMARK H PARENT 8 5 78 18 80 21 80 22 13 32 63 51 37 62
REMARK Flexibility Score: inf
ROOT
ATOM      1  C   UNL A   1      32.612  30.038  25.934  1.00  0.00     0.116 C 
ENDROOT
BRANCH   1   2
ATOM      2  N   UNL A   1      33.238  29.696  24.666  1.00  0.00    -0.354 N 
ATOM      3  C   UNL A   1      33.266  28.571  23.907  1.00  0.00     0.242 C 
ATOM      4  O   UNL A   1      33.866  28.677  22.824  1.00  0.00    -0.273 OA
ATOM      5  H   UNL A   1      33.752  30.439  24.276  1.00  0.00     0.163 HD
BRANCH   3   6
ATOM      6  C   UNL A   1      32.687  27.173  24.267  1.00  0.00     0.177 C 
ATOM      7  C   UNL A   1      30.308  27.129  24.243  1.00  0.00     0.139 C 
ATOM      8  C   UNL A   1      31.488  27.116  25.199  1.00  0.00     0.069 C 
ATOM      9  C   UNL A   1      30.834  26.251  23.074  1.00  0.00     0.152 C 
ATOM     10  N   UNL A   1      32.304  26.312  23.173  1.00  0.00    -0.326 N 
BRANCH   7  11
ATOM     11  O   UNL A   1      29.980  28.448  23.815  1.00  0.00    -0.380 OA
ATOM     12  C   UNL A   1      29.799  28.594  22.404  1.00  0.00     0.195 C 
ENDBRANCH   7  11
BRANCH  10  13
ATOM     13  C   UNL A   1      33.115  25.377  22.544  1.00  0.00     0.246 C 
ATOM     14  O   UNL A   1      33.616  25.640  21.445  1.00  0.00    -0.272 OA
BRANCH  13  15
ATOM     15  C   UNL A   1      33.138  23.897  23.079  1.00  0.00     0.173 C 
BRANCH  15  16
ATOM     16  N   UNL A   1      32.592  22.890  22.160  1.00  0.00    -0.327 N 
ATOM     17  C   UNL A   1      32.166  21.659  22.548  1.00  0.00     0.312 C 
ATOM     18  H   UNL A   1      32.531  23.121  21.205  1.00  0.00     0.166 HD
ATOM     19  N   UNL A   1      31.739  20.917  21.492  1.00  0.00    -0.352 N 
ATOM     20  O   UNL A   1      32.159  21.227  23.682  1.00  0.00    -0.249 OA
ATOM     21  H   UNL A   1      31.758  21.297  20.584  1.00  0.00     0.161 HD
ATOM     22  H   UNL A   1      31.413  19.999  21.634  1.00  0.00     0.161 HD
ENDBRANCH  15  16
BRANCH  15  23
ATOM     23  C   UNL A   1      34.611  23.549  23.447  1.00  0.00     0.038 C 
BRANCH  23  24
ATOM     24  C   UNL A   1      35.130  24.218  24.731  1.00  0.00    -0.015 C 
ATOM     25  C   UNL A   1      34.218  23.923  25.919  1.00  0.00     0.007 C 
ATOM     26  C   UNL A   1      36.548  23.720  25.039  1.00  0.00     0.007 C 
ENDBRANCH  23  24
ENDBRANCH  15  23
ENDBRANCH  13  15
ENDBRANCH  10  13
ENDBRANCH   3   6
ENDBRANCH   1   2
BRANCH   1  27
ATOM     27  C   UNL A   1      31.285  30.778  25.746  1.00  0.00     0.023 C 
BRANCH  27  28
ATOM     28  C   UNL A   1      31.170  32.110  26.466  1.00  0.00     0.023 C 
BRANCH  28  29
ATOM     29  C   UNL A   1      32.421  32.505  27.220  1.00  0.00     0.116 C 
BRANCH  29  30
ATOM     30  N   UNL A   1      32.436  33.916  27.596  1.00  0.00    -0.352 N 
ATOM     31  C   UNL A   1      33.325  34.575  28.413  1.00  0.00     0.251 C 
ATOM     32  H   UNL A   1      31.716  34.468  27.215  1.00  0.00     0.163 HD
ATOM     33  O   UNL A   1      33.119  35.725  28.781  1.00  0.00    -0.269 OA
BRANCH  31  34
ATOM     34  C   UNL A   1      34.525  33.846  28.860  1.00  0.00     0.039 A 
ATOM     35  C   UNL A   1      35.773  34.467  28.800  1.00  0.00     0.014 A 
ATOM     36  C   UNL A   1      34.377  32.586  29.444  1.00  0.00     0.014 A 
ATOM     37  C   UNL A   1      36.867  33.845  29.400  1.00  0.00     0.010 A 
ATOM     38  C   UNL A   1      35.430  32.043  30.157  1.00  0.00     0.010 A 
ATOM     39  C   UNL A   1      36.692  32.652  30.121  1.00  0.00    -0.014 A 
BRANCH  39  40
ATOM     40  C   UNL A   1      37.819  31.986  30.814  1.00  0.00     0.031 A 
ATOM     41  C   UNL A   1      38.578  30.900  30.100  1.00  0.00     0.074 A 
ATOM     42  C   UNL A   1      38.104  32.299  32.092  1.00  0.00     0.049 A 
ATOM     43  N   UNL A   1      39.532  30.127  30.546  1.00  0.00    -0.248 NA
ATOM     44  C   UNL A   1      38.178  30.612  28.709  1.00  0.00     0.031 C 
ATOM     45  C   UNL A   1      37.391  33.287  32.906  1.00  0.00     0.029 A 
ATOM     46  N   UNL A   1      39.068  31.810  32.935  1.00  0.00    -0.354 N 
ATOM     47  C   UNL A   1      39.825  29.255  29.505  1.00  0.00     0.074 A 
ATOM     48  C   UNL A   1      38.895  29.536  28.437  1.00  0.00     0.031 C 
ATOM     49  C   UNL A   1      37.969  33.360  34.116  1.00  0.00     0.029 A 
ATOM     50  C   UNL A   1      39.062  32.396  34.178  1.00  0.00     0.049 A 
ATOM     51  H   UNL A   1      39.705  31.106  32.675  1.00  0.00     0.167 HD
ATOM     52  C   UNL A   1      40.809  28.331  29.428  1.00  0.00     0.037 A 
ATOM     53  C   UNL A   1      39.853  32.176  35.244  1.00  0.00     0.037 A 
ATOM     54  C   UNL A   1      41.756  28.089  30.481  1.00  0.00     0.049 A 
ATOM     55  C   UNL A   1      40.947  31.147  35.133  1.00  0.00     0.074 A 
ATOM     56  C   UNL A   1      42.834  27.224  30.490  1.00  0.00     0.029 A 
ATOM     57  N   UNL A   1      41.737  28.724  31.715  1.00  0.00    -0.354 N 
ATOM     58  N   UNL A   1      41.262  30.382  34.115  1.00  0.00    -0.248 NA
ATOM     59  C   UNL A   1      41.800  30.958  36.313  1.00  0.00     0.031 C 
ATOM     60  C   UNL A   1      43.440  27.300  31.748  1.00  0.00     0.029 A 
ATOM     61  C   UNL A   1      42.773  28.254  32.502  1.00  0.00     0.049 A 
ATOM     62  H   UNL A   1      41.084  29.407  31.989  1.00  0.00     0.167 HD
ATOM     63  C   UNL A   1      42.366  29.644  34.521  1.00  0.00     0.074 A 
ATOM     64  C   UNL A   1      42.675  30.067  35.871  1.00  0.00     0.031 C 
ATOM     65  C   UNL A   1      43.064  28.702  33.840  1.00  0.00     0.037 A 
BRANCH  52  66
ATOM     66  C   UNL A   1      40.911  27.531  28.162  1.00  0.00     0.057 A 
ATOM     67  C   UNL A   1      41.675  27.968  27.070  1.00  0.00     0.134 A 
ATOM     68  C   UNL A   1      40.250  26.304  28.034  1.00  0.00     0.134 A 
ATOM     69  F   UNL A   1      42.319  29.143  27.117  1.00  0.00    -0.206 F 
ATOM     70  C   UNL A   1      41.751  27.229  25.887  1.00  0.00     0.040 A 
ATOM     71  C   UNL A   1      40.344  25.541  26.869  1.00  0.00     0.040 A 
ATOM     72  F   UNL A   1      39.502  25.825  29.040  1.00  0.00    -0.206 F 
ATOM     73  C   UNL A   1      41.089  26.007  25.788  1.00  0.00     0.006 A 
ENDBRANCH  52  66
BRANCH  53  74
ATOM     74  C   UNL A   1      39.668  32.960  36.492  1.00  0.00     0.057 A 
ATOM     75  C   UNL A   1      40.409  34.124  36.731  1.00  0.00     0.134 A 
ATOM     76  C   UNL A   1      38.758  32.564  37.480  1.00  0.00     0.134 A 
ATOM     77  F   UNL A   1      41.307  34.548  35.830  1.00  0.00    -0.206 F 
ATOM     78  C   UNL A   1      40.272  34.850  37.915  1.00  0.00     0.040 A 
ATOM     79  C   UNL A   1      38.591  33.297  38.657  1.00  0.00     0.040 A 
ATOM     80  F   UNL A   1      38.008  31.466  37.309  1.00  0.00    -0.206 F 
ATOM     81  C   UNL A   1      39.357  34.438  38.881  1.00  0.00     0.006 A 
ENDBRANCH  53  74
BRANCH  65  82
ATOM     82  C   UNL A   1      44.250  28.096  34.530  1.00  0.00     0.057 A 
ATOM     83  C   UNL A   1      44.150  26.914  35.275  1.00  0.00     0.134 A 
ATOM     84  C   UNL A   1      45.517  28.680  34.407  1.00  0.00     0.134 A 
ATOM     85  F   UNL A   1      42.963  26.311  35.439  1.00  0.00    -0.206 F 
ATOM     86  C   UNL A   1      45.266  26.350  35.894  1.00  0.00     0.040 A 
ATOM     87  C   UNL A   1      46.644  28.108  34.996  1.00  0.00     0.040 A 
ATOM     88  F   UNL A   1      45.683  29.807  33.697  1.00  0.00    -0.206 F 
ATOM     89  C   UNL A   1      46.518  26.943  35.749  1.00  0.00     0.006 A 
ENDBRANCH  65  82
ENDBRANCH  39  40
ENDBRANCH  31  34
ENDBRANCH  29  30
ENDBRANCH  28  29
ENDBRANCH  27  28
ENDBRANCH   1  27
TORSDOF 17
ENDMDL
