MODEL 1
REMARK VINA RESULT:      -9.6      0.000      0.000
REMARK SMILES O=C(NCCCCNC(=O)[C@H]1Cc2cc(O)ccc2C[NH2+]1)c1ccc(-c2c3nc(c(-c4c(F)cccc4F)c4ccc([nH]4)c(-c4c(F)cccc4F)c4nc(c(-c5c(F)cccc5F)c5ccc2[nH]5)C=C4)C=C3)cc1
REMARK SMILES IDX 5 1 4 2 3 3 1 4 2 5 22 7 23 8 75 9 24 10 74 11 25 12 26 13
REMARK SMILES IDX 27 14 68 15 28 16 73 17 67 18 69 19 29 20 72 21 66 22 65 23
REMARK SMILES IDX 30 25 56 26 39 27 55 28 40 29 43 30 54 31 70 32 41 33 42 34
REMARK SMILES IDX 53 36 71 37 44 38 31 39 32 40 37 41 33 42 34 43 36 44 38 45
REMARK SMILES IDX 35 46 57 47 58 48 63 49 59 50 60 51 62 52 64 53 61 54 45 55
REMARK SMILES IDX 46 56 51 57 47 58 48 59 50 60 52 61 49 62 6 63 7 64 8 65
REMARK SMILES IDX 9 66 10 68 11 69 12 70 21 71 13 72 20 73 14 76 19 77 15 78
REMARK SMILES IDX 18 79 17 80 16 81
REMARK H PARENT 3 6 69 24 43 35 8 67 21 74 21 75 16 82
REMARK Flexibility Score: inf
ROOT
ATOM      1  C   UNL A   1      33.196  35.775  31.395  1.00  0.00     0.023 C 
ENDROOT
BRANCH   1   2
ATOM      2  C   UNL A   1      33.320  36.223  29.942  1.00  0.00     0.116 C 
BRANCH   2   3
ATOM      3  N   UNL A   1      32.600  35.354  29.028  1.00  0.00    -0.352 N 
ATOM      4  O   UNL A   1      32.312  33.722  27.509  1.00  0.00    -0.269 OA
ATOM      5  C   UNL A   1      33.031  34.234  28.366  1.00  0.00     0.251 C 
ATOM      6  H   UNL A   1      31.663  35.606  28.859  1.00  0.00     0.163 HD
BRANCH   5   7
ATOM      7  C   UNL A   1      34.350  33.634  28.664  1.00  0.00     0.039 A 
ATOM      8  C   UNL A   1      34.436  32.673  29.678  1.00  0.00     0.014 A 
ATOM      9  C   UNL A   1      35.510  34.064  28.012  1.00  0.00     0.014 A 
ATOM     10  C   UNL A   1      35.677  32.134  30.030  1.00  0.00     0.010 A 
ATOM     11  C   UNL A   1      36.738  33.484  28.322  1.00  0.00     0.010 A 
ATOM     12  C   UNL A   1      36.837  32.538  29.354  1.00  0.00    -0.014 A 
BRANCH  12  13
ATOM     13  C   UNL A   1      38.183  32.085  29.787  1.00  0.00     0.031 A 
ATOM     14  C   UNL A   1      38.703  30.764  29.283  1.00  0.00     0.074 A 
ATOM     15  C   UNL A   1      38.912  32.813  30.652  1.00  0.00     0.049 A 
ATOM     16  N   UNL A   1      39.772  30.100  29.642  1.00  0.00    -0.248 NA
ATOM     17  C   UNL A   1      37.894  30.090  28.255  1.00  0.00     0.031 C 
ATOM     18  C   UNL A   1      38.526  34.107  31.214  1.00  0.00     0.029 A 
ATOM     19  N   UNL A   1      40.133  32.553  31.222  1.00  0.00    -0.354 N 
ATOM     20  C   UNL A   1      39.742  28.918  28.913  1.00  0.00     0.074 A 
ATOM     21  C   UNL A   1      38.535  28.940  28.114  1.00  0.00     0.031 C 
ATOM     22  C   UNL A   1      39.494  34.531  32.043  1.00  0.00     0.029 A 
ATOM     23  C   UNL A   1      40.550  33.524  32.101  1.00  0.00     0.049 A 
ATOM     24  H   UNL A   1      40.661  31.746  31.021  1.00  0.00     0.167 HD
ATOM     25  C   UNL A   1      40.646  27.911  28.894  1.00  0.00     0.037 A 
ATOM     26  C   UNL A   1      41.651  33.580  32.874  1.00  0.00     0.037 A 
ATOM     27  C   UNL A   1      41.872  27.912  29.646  1.00  0.00     0.049 A 
ATOM     28  C   UNL A   1      42.639  32.446  32.837  1.00  0.00     0.074 A 
ATOM     29  C   UNL A   1      42.874  26.957  29.664  1.00  0.00     0.029 A 
ATOM     30  N   UNL A   1      42.268  28.927  30.501  1.00  0.00    -0.354 N 
ATOM     31  N   UNL A   1      42.607  31.342  32.130  1.00  0.00    -0.248 NA
ATOM     32  C   UNL A   1      43.817  32.564  33.711  1.00  0.00     0.031 C 
ATOM     33  C   UNL A   1      43.868  27.387  30.550  1.00  0.00     0.029 A 
ATOM     34  C   UNL A   1      43.497  28.622  31.056  1.00  0.00     0.049 A 
ATOM     35  H   UNL A   1      41.751  29.744  30.688  1.00  0.00     0.167 HD
ATOM     36  C   UNL A   1      43.774  30.656  32.445  1.00  0.00     0.074 A 
ATOM     37  C   UNL A   1      44.494  31.468  33.404  1.00  0.00     0.031 C 
ATOM     38  C   UNL A   1      44.211  29.460  31.982  1.00  0.00     0.037 A 
BRANCH  25  39
ATOM     39  C   UNL A   1      40.342  26.726  28.029  1.00  0.00     0.057 A 
ATOM     40  C   UNL A   1      39.502  25.704  28.488  1.00  0.00     0.134 A 
ATOM     41  C   UNL A   1      40.899  26.583  26.752  1.00  0.00     0.134 A 
ATOM     42  F   UNL A   1      38.939  25.779  29.704  1.00  0.00    -0.206 F 
ATOM     43  C   UNL A   1      39.227  24.581  27.707  1.00  0.00     0.040 A 
ATOM     44  C   UNL A   1      40.612  25.476  25.952  1.00  0.00     0.040 A 
ATOM     45  F   UNL A   1      41.697  27.536  26.248  1.00  0.00    -0.206 F 
ATOM     46  C   UNL A   1      39.778  24.467  26.432  1.00  0.00     0.006 A 
ENDBRANCH  25  39
BRANCH  26  47
ATOM     47  C   UNL A   1      41.894  34.752  33.752  1.00  0.00     0.057 A 
ATOM     48  C   UNL A   1      41.422  34.791  35.069  1.00  0.00     0.134 A 
ATOM     49  C   UNL A   1      42.650  35.842  33.303  1.00  0.00     0.134 A 
ATOM     50  F   UNL A   1      40.692  33.778  35.557  1.00  0.00    -0.206 F 
ATOM     51  C   UNL A   1      41.698  35.870  35.910  1.00  0.00     0.040 A 
ATOM     52  C   UNL A   1      42.951  36.917  34.140  1.00  0.00     0.040 A 
ATOM     53  F   UNL A   1      43.148  35.849  32.058  1.00  0.00    -0.206 F 
ATOM     54  C   UNL A   1      42.473  36.932  35.449  1.00  0.00     0.006 A 
ENDBRANCH  26  47
BRANCH  38  55
ATOM     55  C   UNL A   1      45.551  28.988  32.458  1.00  0.00     0.057 A 
ATOM     56  C   UNL A   1      46.714  29.333  31.755  1.00  0.00     0.134 A 
ATOM     57  C   UNL A   1      45.689  28.160  33.577  1.00  0.00     0.134 A 
ATOM     58  F   UNL A   1      46.646  30.118  30.671  1.00  0.00    -0.206 F 
ATOM     59  C   UNL A   1      47.967  28.864  32.147  1.00  0.00     0.040 A 
ATOM     60  C   UNL A   1      46.940  27.701  33.991  1.00  0.00     0.040 A 
ATOM     61  F   UNL A   1      44.614  27.806  34.297  1.00  0.00    -0.206 F 
ATOM     62  C   UNL A   1      48.083  28.048  33.272  1.00  0.00     0.006 A 
ENDBRANCH  38  55
ENDBRANCH  12  13
ENDBRANCH   5   7
ENDBRANCH   2   3
ENDBRANCH   1   2
BRANCH   1  63
ATOM     63  C   UNL A   1      34.425  36.038  32.269  1.00  0.00     0.023 C 
BRANCH  63  64
ATOM     64  C   UNL A   1      35.202  34.789  32.681  1.00  0.00     0.116 C 
BRANCH  64  65
ATOM     65  N   UNL A   1      35.278  34.649  34.124  1.00  0.00    -0.351 N 
ATOM     66  C   UNL A   1      36.022  33.778  34.880  1.00  0.00     0.278 C 
ATOM     67  H   UNL A   1      34.712  35.270  34.636  1.00  0.00     0.163 HD
ATOM     68  O   UNL A   1      35.973  33.896  36.104  1.00  0.00    -0.268 OA
BRANCH  66  69
ATOM     69  C   UNL A   1      36.886  32.730  34.160  1.00  0.00     0.277 C 
ATOM     70  C   UNL A   1      37.930  32.125  35.109  1.00  0.00     0.111 C 
ATOM     71  N   UNL A   1      36.027  31.642  33.637  1.00  0.00    -0.332 N 
ATOM     72  C   UNL A   1      38.706  31.026  34.421  1.00  0.00    -0.029 A 
ATOM     73  C   UNL A   1      36.807  30.783  32.743  1.00  0.00     0.298 C 
ATOM     74  H   UNL A   1      35.244  32.045  33.123  1.00  0.00     0.347 HD
ATOM     75  H   UNL A   1      35.675  31.086  34.417  1.00  0.00     0.347 HD
ATOM     76  C   UNL A   1      39.956  30.632  34.908  1.00  0.00     0.050 A 
ATOM     77  C   UNL A   1      38.144  30.363  33.310  1.00  0.00     0.010 A 
ATOM     78  C   UNL A   1      40.657  29.613  34.274  1.00  0.00     0.115 A 
ATOM     79  C   UNL A   1      38.872  29.342  32.681  1.00  0.00     0.013 A 
ATOM     80  C   UNL A   1      40.128  28.966  33.163  1.00  0.00     0.046 A 
BRANCH  78  81
ATOM     81  O   UNL A   1      41.877  29.272  34.778  1.00  0.00    -0.508 OA
ATOM     82  H   UNL A   1      41.937  28.671  35.495  1.00  0.00     0.293 HD
ENDBRANCH  78  81
ENDBRANCH  66  69
ENDBRANCH  64  65
ENDBRANCH  63  64
ENDBRANCH   1  63
TORSDOF 12
ENDMDL
MODEL 2
REMARK VINA RESULT:      -9.3      4.471      9.430
REMARK SMILES O=C(NCCCCNC(=O)[C@H]1Cc2cc(O)ccc2C[NH2+]1)c1ccc(-c2c3nc(c(-c4c(F)cccc4F)c4ccc([nH]4)c(-c4c(F)cccc4F)c4nc(c(-c5c(F)cccc5F)c5ccc2[nH]5)C=C4)C=C3)cc1
REMARK SMILES IDX 5 1 4 2 3 3 1 4 2 5 22 7 23 8 75 9 24 10 74 11 25 12 26 13
REMARK SMILES IDX 27 14 68 15 28 16 73 17 67 18 69 19 29 20 72 21 66 22 65 23
REMARK SMILES IDX 30 25 56 26 39 27 55 28 40 29 43 30 54 31 70 32 41 33 42 34
REMARK SMILES IDX 53 36 71 37 44 38 31 39 32 40 37 41 33 42 34 43 36 44 38 45
REMARK SMILES IDX 35 46 57 47 58 48 63 49 59 50 60 51 62 52 64 53 61 54 45 55
REMARK SMILES IDX 46 56 51 57 47 58 48 59 50 60 52 61 49 62 6 63 7 64 8 65
REMARK SMILES IDX 9 66 10 68 11 69 12 70 21 71 13 72 20 73 14 76 19 77 15 78
REMARK SMILES IDX 18 79 17 80 16 81
REMARK H PARENT 3 6 69 24 43 35 8 67 21 74 21 75 16 82
REMARK Flexibility Score: inf
ROOT
ATOM      1  C   UNL A   1      32.126  28.071  27.268  1.00  0.00     0.023 C 
ENDROOT
BRANCH   1   2
ATOM      2  C   UNL A   1      33.536  28.648  27.208  1.00  0.00     0.116 C 
BRANCH   2   3
ATOM      3  N   UNL A   1      33.589  30.037  27.630  1.00  0.00    -0.352 N 
ATOM      4  O   UNL A   1      34.407  31.867  28.645  1.00  0.00    -0.269 OA
ATOM      5  C   UNL A   1      34.613  30.732  28.219  1.00  0.00     0.251 C 
ATOM      6  H   UNL A   1      32.769  30.556  27.467  1.00  0.00     0.163 HD
BRANCH   5   7
ATOM      7  C   UNL A   1      35.960  30.135  28.354  1.00  0.00     0.039 A 
ATOM      8  C   UNL A   1      36.332  29.590  29.588  1.00  0.00     0.014 A 
ATOM      9  C   UNL A   1      36.882  30.177  27.304  1.00  0.00     0.014 A 
ATOM     10  C   UNL A   1      37.621  29.078  29.768  1.00  0.00     0.010 A 
ATOM     11  C   UNL A   1      38.145  29.613  27.465  1.00  0.00     0.010 A 
ATOM     12  C   UNL A   1      38.536  29.087  28.706  1.00  0.00    -0.014 A 
BRANCH  12  13
ATOM     13  C   UNL A   1      39.949  28.671  28.898  1.00  0.00     0.031 A 
ATOM     14  C   UNL A   1      40.930  29.665  29.462  1.00  0.00     0.074 A 
ATOM     15  C   UNL A   1      40.363  27.444  28.533  1.00  0.00     0.049 A 
ATOM     16  N   UNL A   1      42.231  29.577  29.572  1.00  0.00    -0.248 NA
ATOM     17  C   UNL A   1      40.371  30.940  29.939  1.00  0.00     0.031 C 
ATOM     18  C   UNL A   1      39.516  26.389  27.977  1.00  0.00     0.029 A 
ATOM     19  N   UNL A   1      41.616  26.885  28.564  1.00  0.00    -0.354 N 
ATOM     20  C   UNL A   1      42.646  30.795  30.096  1.00  0.00     0.074 A 
ATOM     21  C   UNL A   1      41.465  31.617  30.252  1.00  0.00     0.031 C 
ATOM     22  C   UNL A   1      40.272  25.308  27.726  1.00  0.00     0.029 A 
ATOM     23  C   UNL A   1      41.661  25.605  28.066  1.00  0.00     0.049 A 
ATOM     24  H   UNL A   1      42.408  27.356  28.910  1.00  0.00     0.167 HD
ATOM     25  C   UNL A   1      43.896  31.190  30.434  1.00  0.00     0.037 A 
ATOM     26  C   UNL A   1      42.709  24.778  27.891  1.00  0.00     0.037 A 
ATOM     27  C   UNL A   1      45.063  30.356  30.330  1.00  0.00     0.049 A 
ATOM     28  C   UNL A   1      44.089  25.243  28.272  1.00  0.00     0.074 A 
ATOM     29  C   UNL A   1      46.368  30.649  30.686  1.00  0.00     0.029 A 
ATOM     30  N   UNL A   1      45.059  29.057  29.848  1.00  0.00    -0.354 N 
ATOM     31  N   UNL A   1      44.466  26.390  28.782  1.00  0.00    -0.248 NA
ATOM     32  C   UNL A   1      45.192  24.295  28.049  1.00  0.00     0.031 C 
ATOM     33  C   UNL A   1      47.158  29.532  30.397  1.00  0.00     0.029 A 
ATOM     34  C   UNL A   1      46.339  28.536  29.892  1.00  0.00     0.049 A 
ATOM     35  H   UNL A   1      44.264  28.577  29.521  1.00  0.00     0.167 HD
ATOM     36  C   UNL A   1      45.837  26.288  28.975  1.00  0.00     0.074 A 
ATOM     37  C   UNL A   1      46.228  24.966  28.531  1.00  0.00     0.031 C 
ATOM     38  C   UNL A   1      46.699  27.207  29.476  1.00  0.00     0.037 A 
BRANCH  25  39
ATOM     39  C   UNL A   1      44.062  32.586  30.952  1.00  0.00     0.057 A 
ATOM     40  C   UNL A   1      44.306  33.649  30.074  1.00  0.00     0.134 A 
ATOM     41  C   UNL A   1      44.005  32.877  32.321  1.00  0.00     0.134 A 
ATOM     42  F   UNL A   1      44.376  33.437  28.751  1.00  0.00    -0.206 F 
ATOM     43  C   UNL A   1      44.489  34.952  30.539  1.00  0.00     0.040 A 
ATOM     44  C   UNL A   1      44.162  34.179  32.797  1.00  0.00     0.040 A 
ATOM     45  F   UNL A   1      43.757  31.905  33.212  1.00  0.00    -0.206 F 
ATOM     46  C   UNL A   1      44.412  35.221  31.904  1.00  0.00     0.006 A 
ENDBRANCH  25  39
BRANCH  26  47
ATOM     47  C   UNL A   1      42.509  23.418  27.333  1.00  0.00     0.057 A 
ATOM     48  C   UNL A   1      42.231  22.321  28.157  1.00  0.00     0.134 A 
ATOM     49  C   UNL A   1      42.544  23.195  25.951  1.00  0.00     0.134 A 
ATOM     50  F   UNL A   1      42.185  22.469  29.489  1.00  0.00    -0.206 F 
ATOM     51  C   UNL A   1      41.990  21.053  27.626  1.00  0.00     0.040 A 
ATOM     52  C   UNL A   1      42.284  21.938  25.406  1.00  0.00     0.040 A 
ATOM     53  F   UNL A   1      42.782  24.213  25.111  1.00  0.00    -0.206 F 
ATOM     54  C   UNL A   1      42.006  20.861  26.246  1.00  0.00     0.006 A 
ENDBRANCH  26  47
BRANCH  38  55
ATOM     55  C   UNL A   1      48.132  26.795  29.625  1.00  0.00     0.057 A 
ATOM     56  C   UNL A   1      48.554  26.103  30.768  1.00  0.00     0.134 A 
ATOM     57  C   UNL A   1      49.098  27.118  28.667  1.00  0.00     0.134 A 
ATOM     58  F   UNL A   1      47.676  25.770  31.726  1.00  0.00    -0.206 F 
ATOM     59  C   UNL A   1      49.891  25.754  30.955  1.00  0.00     0.040 A 
ATOM     60  C   UNL A   1      50.436  26.756  28.833  1.00  0.00     0.040 A 
ATOM     61  F   UNL A   1      48.753  27.768  27.545  1.00  0.00    -0.206 F 
ATOM     62  C   UNL A   1      50.836  26.077  29.984  1.00  0.00     0.006 A 
ENDBRANCH  38  55
ENDBRANCH  12  13
ENDBRANCH   5   7
ENDBRANCH   2   3
ENDBRANCH   1   2
BRANCH   1  63
ATOM     63  C   UNL A   1      31.653  27.360  25.997  1.00  0.00     0.023 C 
BRANCH  63  64
ATOM     64  C   UNL A   1      32.126  25.915  25.853  1.00  0.00     0.116 C 
BRANCH  64  65
ATOM     65  N   UNL A   1      31.317  24.999  26.636  1.00  0.00    -0.351 N 
ATOM     66  C   UNL A   1      31.486  23.656  26.860  1.00  0.00     0.278 C 
ATOM     67  H   UNL A   1      30.530  25.400  27.070  1.00  0.00     0.163 HD
ATOM     68  O   UNL A   1      30.699  23.099  27.626  1.00  0.00    -0.268 OA
BRANCH  66  69
ATOM     69  C   UNL A   1      32.655  22.934  26.169  1.00  0.00     0.277 C 
ATOM     70  C   UNL A   1      34.005  23.391  26.740  1.00  0.00     0.111 C 
ATOM     71  N   UNL A   1      32.525  21.471  26.358  1.00  0.00    -0.332 N 
ATOM     72  C   UNL A   1      35.139  22.604  26.126  1.00  0.00    -0.029 A 
ATOM     73  C   UNL A   1      33.484  20.775  25.497  1.00  0.00     0.298 C 
ATOM     74  H   UNL A   1      31.579  21.180  26.116  1.00  0.00     0.347 HD
ATOM     75  H   UNL A   1      32.716  21.239  27.333  1.00  0.00     0.347 HD
ATOM     76  C   UNL A   1      36.443  23.108  26.152  1.00  0.00     0.050 A 
ATOM     77  C   UNL A   1      34.887  21.336  25.565  1.00  0.00     0.010 A 
ATOM     78  C   UNL A   1      37.481  22.371  25.594  1.00  0.00     0.115 A 
ATOM     79  C   UNL A   1      35.949  20.612  25.001  1.00  0.00     0.013 A 
ATOM     80  C   UNL A   1      37.246  21.129  25.015  1.00  0.00     0.046 A 
BRANCH  78  81
ATOM     81  O   UNL A   1      38.734  22.909  25.632  1.00  0.00    -0.508 OA
ATOM     82  H   UNL A   1      39.381  22.636  25.012  1.00  0.00     0.293 HD
ENDBRANCH  78  81
ENDBRANCH  66  69
ENDBRANCH  64  65
ENDBRANCH  63  64
ENDBRANCH   1  63
TORSDOF 12
ENDMDL
MODEL 3
REMARK VINA RESULT:      -9.3      4.435      9.382
REMARK SMILES O=C(NCCCCNC(=O)[C@H]1Cc2cc(O)ccc2C[NH2+]1)c1ccc(-c2c3nc(c(-c4c(F)cccc4F)c4ccc([nH]4)c(-c4c(F)cccc4F)c4nc(c(-c5c(F)cccc5F)c5ccc2[nH]5)C=C4)C=C3)cc1
REMARK SMILES IDX 5 1 4 2 3 3 1 4 2 5 22 7 23 8 75 9 24 10 74 11 25 12 26 13
REMARK SMILES IDX 27 14 68 15 28 16 73 17 67 18 69 19 29 20 72 21 66 22 65 23
REMARK SMILES IDX 30 25 56 26 39 27 55 28 40 29 43 30 54 31 70 32 41 33 42 34
REMARK SMILES IDX 53 36 71 37 44 38 31 39 32 40 37 41 33 42 34 43 36 44 38 45
REMARK SMILES IDX 35 46 57 47 58 48 63 49 59 50 60 51 62 52 64 53 61 54 45 55
REMARK SMILES IDX 46 56 51 57 47 58 48 59 50 60 52 61 49 62 6 63 7 64 8 65
REMARK SMILES IDX 9 66 10 68 11 69 12 70 21 71 13 72 20 73 14 76 19 77 15 78
REMARK SMILES IDX 18 79 17 80 16 81
REMARK H PARENT 3 6 69 24 43 35 8 67 21 74 21 75 16 82
REMARK Flexibility Score: inf
ROOT
ATOM      1  C   UNL A   1      32.812  28.160  27.355  1.00  0.00     0.023 C 
ENDROOT
BRANCH   1   2
ATOM      2  C   UNL A   1      33.791  29.193  26.809  1.00  0.00     0.116 C 
BRANCH   2   3
ATOM      3  N   UNL A   1      33.796  30.422  27.585  1.00  0.00    -0.352 N 
ATOM      4  O   UNL A   1      34.504  31.905  29.117  1.00  0.00    -0.269 OA
ATOM      5  C   UNL A   1      34.755  30.917  28.429  1.00  0.00     0.251 C 
ATOM      6  H   UNL A   1      32.992  30.981  27.489  1.00  0.00     0.163 HD
BRANCH   5   7
ATOM      7  C   UNL A   1      36.087  30.280  28.526  1.00  0.00     0.039 A 
ATOM      8  C   UNL A   1      36.462  29.690  29.739  1.00  0.00     0.014 A 
ATOM      9  C   UNL A   1      36.995  30.326  27.464  1.00  0.00     0.014 A 
ATOM     10  C   UNL A   1      37.738  29.138  29.885  1.00  0.00     0.010 A 
ATOM     11  C   UNL A   1      38.244  29.723  27.590  1.00  0.00     0.010 A 
ATOM     12  C   UNL A   1      38.638  29.152  28.810  1.00  0.00    -0.014 A 
BRANCH  12  13
ATOM     13  C   UNL A   1      40.041  28.692  28.969  1.00  0.00     0.031 A 
ATOM     14  C   UNL A   1      41.063  29.651  29.520  1.00  0.00     0.074 A 
ATOM     15  C   UNL A   1      40.410  27.457  28.584  1.00  0.00     0.049 A 
ATOM     16  N   UNL A   1      42.363  29.523  29.603  1.00  0.00    -0.248 NA
ATOM     17  C   UNL A   1      40.553  30.938  30.020  1.00  0.00     0.031 C 
ATOM     18  C   UNL A   1      39.521  26.433  28.036  1.00  0.00     0.029 A 
ATOM     19  N   UNL A   1      41.646  26.860  28.584  1.00  0.00    -0.354 N 
ATOM     20  C   UNL A   1      42.825  30.723  30.129  1.00  0.00     0.074 A 
ATOM     21  C   UNL A   1      41.674  31.578  30.316  1.00  0.00     0.031 C 
ATOM     22  C   UNL A   1      40.239  25.332  27.760  1.00  0.00     0.029 A 
ATOM     23  C   UNL A   1      41.643  25.584  28.074  1.00  0.00     0.049 A 
ATOM     24  H   UNL A   1      42.460  27.304  28.917  1.00  0.00     0.167 HD
ATOM     25  C   UNL A   1      44.093  31.077  30.444  1.00  0.00     0.037 A 
ATOM     26  C   UNL A   1      42.661  24.728  27.870  1.00  0.00     0.037 A 
ATOM     27  C   UNL A   1      45.232  30.209  30.309  1.00  0.00     0.049 A 
ATOM     28  C   UNL A   1      44.062  25.147  28.226  1.00  0.00     0.074 A 
ATOM     29  C   UNL A   1      46.552  30.460  30.639  1.00  0.00     0.029 A 
ATOM     30  N   UNL A   1      45.179  28.916  29.815  1.00  0.00    -0.354 N 
ATOM     31  N   UNL A   1      44.484  26.278  28.738  1.00  0.00    -0.248 NA
ATOM     32  C   UNL A   1      45.131  24.169  27.972  1.00  0.00     0.031 C 
ATOM     33  C   UNL A   1      47.303  29.322  30.324  1.00  0.00     0.029 A 
ATOM     34  C   UNL A   1      46.443  28.356  29.828  1.00  0.00     0.049 A 
ATOM     35  H   UNL A   1      44.363  28.463  29.500  1.00  0.00     0.167 HD
ATOM     36  C   UNL A   1      45.855  26.133  28.902  1.00  0.00     0.074 A 
ATOM     37  C   UNL A   1      46.197  24.804  28.438  1.00  0.00     0.031 C 
ATOM     38  C   UNL A   1      46.755  27.020  29.392  1.00  0.00     0.037 A 
BRANCH  25  39
ATOM     39  C   UNL A   1      44.312  32.462  30.971  1.00  0.00     0.057 A 
ATOM     40  C   UNL A   1      44.234  32.725  32.344  1.00  0.00     0.134 A 
ATOM     41  C   UNL A   1      44.577  33.542  30.118  1.00  0.00     0.134 A 
ATOM     42  F   UNL A   1      43.981  31.735  33.213  1.00  0.00    -0.206 F 
ATOM     43  C   UNL A   1      44.410  34.014  32.850  1.00  0.00     0.040 A 
ATOM     44  C   UNL A   1      44.778  34.830  30.615  1.00  0.00     0.040 A 
ATOM     45  F   UNL A   1      44.681  33.352  28.794  1.00  0.00    -0.206 F 
ATOM     46  C   UNL A   1      44.688  35.070  31.985  1.00  0.00     0.006 A 
ENDBRANCH  25  39
BRANCH  26  47
ATOM     47  C   UNL A   1      42.409  23.379  27.304  1.00  0.00     0.057 A 
ATOM     48  C   UNL A   1      42.489  23.136  25.928  1.00  0.00     0.134 A 
ATOM     49  C   UNL A   1      42.128  22.291  28.138  1.00  0.00     0.134 A 
ATOM     50  F   UNL A   1      42.753  24.138  25.076  1.00  0.00    -0.206 F 
ATOM     51  C   UNL A   1      42.304  21.856  25.402  1.00  0.00     0.040 A 
ATOM     52  C   UNL A   1      41.963  21.002  27.628  1.00  0.00     0.040 A 
ATOM     53  F   UNL A   1      42.063  22.459  29.466  1.00  0.00    -0.206 F 
ATOM     54  C   UNL A   1      42.050  20.783  26.254  1.00  0.00     0.006 A 
ENDBRANCH  26  47
BRANCH  38  55
ATOM     55  C   UNL A   1      48.177  26.564  29.508  1.00  0.00     0.057 A 
ATOM     56  C   UNL A   1      48.623  25.925  30.672  1.00  0.00     0.134 A 
ATOM     57  C   UNL A   1      49.113  26.795  28.494  1.00  0.00     0.134 A 
ATOM     58  F   UNL A   1      47.775  25.681  31.682  1.00  0.00    -0.206 F 
ATOM     59  C   UNL A   1      49.953  25.537  30.826  1.00  0.00     0.040 A 
ATOM     60  C   UNL A   1      50.442  26.393  28.627  1.00  0.00     0.040 A 
ATOM     61  F   UNL A   1      48.743  27.391  27.351  1.00  0.00    -0.206 F 
ATOM     62  C   UNL A   1      50.867  25.767  29.799  1.00  0.00     0.006 A 
ENDBRANCH  38  55
ENDBRANCH  12  13
ENDBRANCH   5   7
ENDBRANCH   2   3
ENDBRANCH   1   2
BRANCH   1  63
ATOM     63  C   UNL A   1      31.405  28.207  26.753  1.00  0.00     0.023 C 
BRANCH  63  64
ATOM     64  C   UNL A   1      31.074  27.062  25.797  1.00  0.00     0.116 C 
BRANCH  64  65
ATOM     65  N   UNL A   1      30.701  25.853  26.508  1.00  0.00    -0.351 N 
ATOM     66  C   UNL A   1      31.300  24.619  26.507  1.00  0.00     0.278 C 
ATOM     67  H   UNL A   1      29.899  25.929  27.074  1.00  0.00     0.163 HD
ATOM     68  O   UNL A   1      30.836  23.756  27.254  1.00  0.00    -0.268 OA
BRANCH  66  69
ATOM     69  C   UNL A   1      32.521  24.392  25.602  1.00  0.00     0.277 C 
ATOM     70  C   UNL A   1      33.714  23.854  26.404  1.00  0.00     0.111 C 
ATOM     71  N   UNL A   1      32.184  23.421  24.535  1.00  0.00    -0.332 N 
ATOM     72  C   UNL A   1      34.876  23.539  25.489  1.00  0.00    -0.029 A 
ATOM     73  C   UNL A   1      33.252  23.397  23.533  1.00  0.00     0.298 C 
ATOM     74  H   UNL A   1      31.309  23.696  24.091  1.00  0.00     0.347 HD
ATOM     75  H   UNL A   1      32.083  22.492  24.945  1.00  0.00     0.347 HD
ATOM     76  C   UNL A   1      36.174  23.454  26.001  1.00  0.00     0.050 A 
ATOM     77  C   UNL A   1      34.641  23.286  24.122  1.00  0.00     0.010 A 
ATOM     78  C   UNL A   1      37.234  23.154  25.153  1.00  0.00     0.115 A 
ATOM     79  C   UNL A   1      35.726  22.991  23.283  1.00  0.00     0.013 A 
ATOM     80  C   UNL A   1      37.023  22.924  23.798  1.00  0.00     0.046 A 
BRANCH  78  81
ATOM     81  O   UNL A   1      38.484  23.093  25.695  1.00  0.00    -0.508 OA
ATOM     82  H   UNL A   1      39.164  23.649  25.370  1.00  0.00     0.293 HD
ENDBRANCH  78  81
ENDBRANCH  66  69
ENDBRANCH  64  65
ENDBRANCH  63  64
ENDBRANCH   1  63
TORSDOF 12
ENDMDL
