MODEL 1
REMARK VINA RESULT:     -13.4      0.000      0.000
REMARK SMILES C[C@@H](NC1=[NH+]C(=O)/C(=C\c2ccccc2-n2cccn2)S1)C(=O)NCCCCNC(=O)c1ccc(-c2c3nc(c(-c4c(F)cccc4F)c4ccc([nH]4)c(-c4c(F)cccc4F)c4nc(c(-c5c(F)cccc5F)c5ccc2[nH]5)C=C4)C=C3)cc1
REMARK SMILES IDX 26 1 25 2 24 3 22 4 23 5 2 7 1 8 3 9 4 10 5 12 21 13 6 14
REMARK SMILES IDX 8 16 7 17 9 18 10 19 11 20 15 21 12 22 14 23 13 24 16 25
REMARK SMILES IDX 17 26 20 27 18 28 19 29 27 30 28 31 29 32 30 33 31 35 32 36
REMARK SMILES IDX 33 37 85 38 34 39 84 40 35 41 36 42 37 43 78 44 38 45 83 46
REMARK SMILES IDX 77 47 79 48 39 49 82 50 76 51 75 52 40 54 66 55 49 56 65 57
REMARK SMILES IDX 50 58 53 59 64 60 80 61 51 62 52 63 63 65 81 66 54 67 41 68
REMARK SMILES IDX 42 69 47 70 43 71 44 72 46 73 48 74 45 75 67 76 68 77 73 78
REMARK SMILES IDX 69 79 70 80 72 81 74 82 71 83 55 84 56 85 61 86 57 87 58 88
REMARK SMILES IDX 60 89 62 90 59 91
REMARK H PARENT 24 6 3 11 5 15 29 34 79 53 53 64
REMARK Flexibility Score: inf
ROOT
ATOM      1  C   UNL A   1      32.343  28.653  25.539  1.00  0.00     0.023 C 
ENDROOT
BRANCH   1   2
ATOM      2  C   UNL A   1      31.336  29.715  25.055  1.00  0.00     0.116 C 
BRANCH   2   3
ATOM      3  N   UNL A   1      30.944  29.651  23.659  1.00  0.00    -0.352 N 
ATOM      4  C   UNL A   1      30.179  28.711  23.016  1.00  0.00     0.264 C 
ATOM      5  O   UNL A   1      29.757  29.005  21.891  1.00  0.00    -0.270 OA
ATOM      6  H   UNL A   1      31.274  30.387  23.093  1.00  0.00     0.163 HD
BRANCH   4   7
ATOM      7  C   UNL A   1      29.878  27.321  23.619  1.00  0.00     0.259 C 
ATOM      8  C   UNL A   1      28.369  27.086  23.695  1.00  0.00     0.069 C 
BRANCH   7   9
ATOM      9  N   UNL A   1      30.491  26.225  22.898  1.00  0.00    -0.257 N 
ATOM     10  C   UNL A   1      31.229  25.183  23.335  1.00  0.00     0.317 C 
ATOM     11  H   UNL A   1      30.343  26.243  21.925  1.00  0.00     0.306 HD
ATOM     12  N   UNL A   1      31.945  24.540  22.472  1.00  0.00    -0.200 N 
ATOM     13  S   UNL A   1      31.309  24.624  24.984  1.00  0.00     0.006 SA
ATOM     14  C   UNL A   1      32.682  23.538  23.031  1.00  0.00     0.346 C 
ATOM     15  H   UNL A   1      31.957  24.752  21.510  1.00  0.00     0.316 HD
ATOM     16  C   UNL A   1      32.549  23.507  24.529  1.00  0.00     0.110 C 
ATOM     17  O   UNL A   1      33.347  22.749  22.360  1.00  0.00    -0.240 OA
ATOM     18  C   UNL A   1      33.350  22.849  25.388  1.00  0.00     0.034 C 
BRANCH  18  19
ATOM     19  C   UNL A   1      34.580  22.208  24.878  1.00  0.00     0.002 A 
ATOM     20  C   UNL A   1      35.748  22.968  24.825  1.00  0.00     0.010 A 
ATOM     21  C   UNL A   1      34.696  20.806  24.819  1.00  0.00     0.072 A 
ATOM     22  C   UNL A   1      37.000  22.341  24.823  1.00  0.00     0.001 A 
ATOM     23  C   UNL A   1      35.948  20.181  24.905  1.00  0.00     0.029 A 
ATOM     24  C   UNL A   1      37.101  20.952  24.904  1.00  0.00     0.002 A 
BRANCH  21  25
ATOM     25  N   UNL A   1      33.562  19.985  24.889  1.00  0.00    -0.240 N 
ATOM     26  C   UNL A   1      33.161  19.140  25.904  1.00  0.00     0.115 A 
ATOM     27  N   UNL A   1      32.890  19.731  23.751  1.00  0.00    -0.177 NA
ATOM     28  C   UNL A   1      32.577  18.072  25.274  1.00  0.00     0.042 A 
ATOM     29  C   UNL A   1      32.474  18.488  23.928  1.00  0.00     0.135 A 
ENDBRANCH  21  25
ENDBRANCH  18  19
ENDBRANCH   7   9
ENDBRANCH   4   7
ENDBRANCH   2   3
ENDBRANCH   1   2
BRANCH   1  30
ATOM     30  C   UNL A   1      33.713  29.038  26.136  1.00  0.00     0.023 C 
BRANCH  30  31
ATOM     31  C   UNL A   1      33.819  29.975  27.351  1.00  0.00     0.116 C 
BRANCH  31  32
ATOM     32  N   UNL A   1      34.398  31.313  27.230  1.00  0.00    -0.352 N 
ATOM     33  C   UNL A   1      35.546  31.890  27.811  1.00  0.00     0.251 C 
ATOM     34  H   UNL A   1      33.896  31.919  26.638  1.00  0.00     0.163 HD
ATOM     35  O   UNL A   1      35.677  33.112  27.709  1.00  0.00    -0.269 OA
BRANCH  33  36
ATOM     36  C   UNL A   1      36.661  31.110  28.469  1.00  0.00     0.039 A 
ATOM     37  C   UNL A   1      37.809  31.713  29.042  1.00  0.00     0.014 A 
ATOM     38  C   UNL A   1      36.653  29.741  28.465  1.00  0.00     0.014 A 
ATOM     39  C   UNL A   1      38.983  30.957  29.377  1.00  0.00     0.010 A 
ATOM     40  C   UNL A   1      37.829  29.039  28.658  1.00  0.00     0.010 A 
ATOM     41  C   UNL A   1      39.040  29.601  29.070  1.00  0.00    -0.014 A 
BRANCH  41  42
ATOM     42  C   UNL A   1      40.071  28.549  29.328  1.00  0.00     0.031 A 
ATOM     43  C   UNL A   1      40.299  28.358  30.778  1.00  0.00     0.074 A 
ATOM     44  C   UNL A   1      40.637  27.643  28.491  1.00  0.00     0.049 A 
ATOM     45  N   UNL A   1      41.199  29.019  31.436  1.00  0.00    -0.248 NA
ATOM     46  C   UNL A   1      39.369  27.605  31.633  1.00  0.00     0.031 C 
ATOM     47  C   UNL A   1      40.876  27.789  27.066  1.00  0.00     0.029 A 
ATOM     48  N   UNL A   1      41.171  26.383  28.749  1.00  0.00    -0.354 N 
ATOM     49  C   UNL A   1      41.095  28.553  32.731  1.00  0.00     0.074 A 
ATOM     50  C   UNL A   1      39.764  28.032  32.835  1.00  0.00     0.031 C 
ATOM     51  C   UNL A   1      41.418  26.651  26.572  1.00  0.00     0.029 A 
ATOM     52  C   UNL A   1      41.469  25.621  27.607  1.00  0.00     0.049 A 
ATOM     53  H   UNL A   1      41.328  26.052  29.663  1.00  0.00     0.167 HD
ATOM     54  C   UNL A   1      42.214  28.233  33.437  1.00  0.00     0.037 A 
ATOM     55  C   UNL A   1      42.289  24.541  27.436  1.00  0.00     0.037 A 
ATOM     56  C   UNL A   1      43.398  28.648  32.707  1.00  0.00     0.049 A 
ATOM     57  C   UNL A   1      43.405  24.742  28.369  1.00  0.00     0.074 A 
ATOM     58  C   UNL A   1      43.988  29.836  32.327  1.00  0.00     0.029 A 
ATOM     59  N   UNL A   1      43.926  27.667  31.906  1.00  0.00    -0.354 N 
ATOM     60  N   UNL A   1      44.312  25.655  28.189  1.00  0.00    -0.248 NA
ATOM     61  C   UNL A   1      43.305  24.195  29.714  1.00  0.00     0.031 C 
ATOM     62  C   UNL A   1      44.724  29.557  31.136  1.00  0.00     0.029 A 
ATOM     63  C   UNL A   1      44.598  28.203  30.844  1.00  0.00     0.049 A 
ATOM     64  H   UNL A   1      43.834  26.701  32.075  1.00  0.00     0.167 HD
ATOM     65  C   UNL A   1      44.542  26.136  29.463  1.00  0.00     0.074 A 
ATOM     66  C   UNL A   1      44.033  25.107  30.364  1.00  0.00     0.031 C 
ATOM     67  C   UNL A   1      44.856  27.448  29.648  1.00  0.00     0.037 A 
BRANCH  54  68
ATOM     68  C   UNL A   1      42.309  27.132  34.482  1.00  0.00     0.057 A 
ATOM     69  C   UNL A   1      41.879  27.430  35.790  1.00  0.00     0.134 A 
ATOM     70  C   UNL A   1      43.012  25.915  34.364  1.00  0.00     0.134 A 
ATOM     71  F   UNL A   1      41.182  28.547  36.050  1.00  0.00    -0.206 F 
ATOM     72  C   UNL A   1      42.209  26.636  36.896  1.00  0.00     0.040 A 
ATOM     73  C   UNL A   1      43.308  25.092  35.455  1.00  0.00     0.040 A 
ATOM     74  F   UNL A   1      43.542  25.473  33.221  1.00  0.00    -0.206 F 
ATOM     75  C   UNL A   1      42.937  25.468  36.732  1.00  0.00     0.006 A 
ENDBRANCH  54  68
BRANCH  55  76
ATOM     76  C   UNL A   1      41.927  23.167  26.976  1.00  0.00     0.057 A 
ATOM     77  C   UNL A   1      42.901  22.295  26.453  1.00  0.00     0.134 A 
ATOM     78  C   UNL A   1      40.657  22.607  27.163  1.00  0.00     0.134 A 
ATOM     79  F   UNL A   1      44.163  22.713  26.286  1.00  0.00    -0.206 F 
ATOM     80  C   UNL A   1      42.620  20.959  26.115  1.00  0.00     0.040 A 
ATOM     81  C   UNL A   1      40.354  21.280  26.810  1.00  0.00     0.040 A 
ATOM     82  F   UNL A   1      39.687  23.315  27.757  1.00  0.00    -0.206 F 
ATOM     83  C   UNL A   1      41.338  20.448  26.287  1.00  0.00     0.006 A 
ENDBRANCH  55  76
BRANCH  67  84
ATOM     84  C   UNL A   1      45.346  28.174  28.435  1.00  0.00     0.057 A 
ATOM     85  C   UNL A   1      44.557  29.051  27.687  1.00  0.00     0.134 A 
ATOM     86  C   UNL A   1      46.673  28.015  28.040  1.00  0.00     0.134 A 
ATOM     87  F   UNL A   1      43.335  29.390  28.104  1.00  0.00    -0.206 F 
ATOM     88  C   UNL A   1      45.034  29.670  26.527  1.00  0.00     0.040 A 
ATOM     89  C   UNL A   1      47.184  28.672  26.919  1.00  0.00     0.040 A 
ATOM     90  F   UNL A   1      47.506  27.253  28.767  1.00  0.00    -0.206 F 
ATOM     91  C   UNL A   1      46.356  29.480  26.141  1.00  0.00     0.006 A 
ENDBRANCH  67  84
ENDBRANCH  41  42
ENDBRANCH  33  36
ENDBRANCH  31  32
ENDBRANCH  30  31
ENDBRANCH   1  30
TORSDOF 14
ENDMDL
MODEL 2
REMARK VINA RESULT:     -12.6      2.794      8.461
REMARK SMILES C[C@@H](NC1=[NH+]C(=O)/C(=C\c2ccccc2-n2cccn2)S1)C(=O)NCCCCNC(=O)c1ccc(-c2c3nc(c(-c4c(F)cccc4F)c4ccc([nH]4)c(-c4c(F)cccc4F)c4nc(c(-c5c(F)cccc5F)c5ccc2[nH]5)C=C4)C=C3)cc1
REMARK SMILES IDX 26 1 25 2 24 3 22 4 23 5 2 7 1 8 3 9 4 10 5 12 21 13 6 14
REMARK SMILES IDX 8 16 7 17 9 18 10 19 11 20 15 21 12 22 14 23 13 24 16 25
REMARK SMILES IDX 17 26 20 27 18 28 19 29 27 30 28 31 29 32 30 33 31 35 32 36
REMARK SMILES IDX 33 37 85 38 34 39 84 40 35 41 36 42 37 43 78 44 38 45 83 46
REMARK SMILES IDX 77 47 79 48 39 49 82 50 76 51 75 52 40 54 66 55 49 56 65 57
REMARK SMILES IDX 50 58 53 59 64 60 80 61 51 62 52 63 63 65 81 66 54 67 41 68
REMARK SMILES IDX 42 69 47 70 43 71 44 72 46 73 48 74 45 75 67 76 68 77 73 78
REMARK SMILES IDX 69 79 70 80 72 81 74 82 71 83 55 84 56 85 61 86 57 87 58 88
REMARK SMILES IDX 60 89 62 90 59 91
REMARK H PARENT 24 6 3 11 5 15 29 34 79 53 53 64
REMARK Flexibility Score: inf
ROOT
ATOM      1  C   UNL A   1      37.600  23.487  26.064  1.00  0.00     0.023 C 
ENDROOT
BRANCH   1   2
ATOM      2  C   UNL A   1      36.807  22.213  25.713  1.00  0.00     0.116 C 
BRANCH   2   3
ATOM      3  N   UNL A   1      35.615  21.952  26.499  1.00  0.00    -0.352 N 
ATOM      4  C   UNL A   1      34.395  21.473  26.092  1.00  0.00     0.264 C 
ATOM      5  O   UNL A   1      33.623  21.082  26.975  1.00  0.00    -0.270 OA
ATOM      6  H   UNL A   1      35.693  22.146  27.461  1.00  0.00     0.163 HD
BRANCH   4   7
ATOM      7  C   UNL A   1      33.955  21.455  24.611  1.00  0.00     0.259 C 
ATOM      8  C   UNL A   1      32.483  21.055  24.496  1.00  0.00     0.069 C 
BRANCH   7   9
ATOM      9  N   UNL A   1      34.157  22.714  23.925  1.00  0.00    -0.257 N 
ATOM     10  C   UNL A   1      33.584  23.922  24.110  1.00  0.00     0.317 C 
ATOM     11  H   UNL A   1      34.826  22.684  23.204  1.00  0.00     0.306 HD
ATOM     12  N   UNL A   1      33.676  24.791  23.157  1.00  0.00    -0.200 N 
ATOM     13  S   UNL A   1      32.714  24.419  25.536  1.00  0.00     0.006 SA
ATOM     14  C   UNL A   1      33.025  25.956  23.435  1.00  0.00     0.346 C 
ATOM     15  H   UNL A   1      34.166  24.628  22.319  1.00  0.00     0.316 HD
ATOM     16  C   UNL A   1      32.278  25.891  24.738  1.00  0.00     0.110 C 
ATOM     17  O   UNL A   1      33.082  26.941  22.697  1.00  0.00    -0.240 OA
ATOM     18  C   UNL A   1      31.321  26.741  25.154  1.00  0.00     0.034 C 
BRANCH  18  19
ATOM     19  C   UNL A   1      30.808  27.761  24.216  1.00  0.00     0.002 A 
ATOM     20  C   UNL A   1      29.756  27.412  23.370  1.00  0.00     0.010 A 
ATOM     21  C   UNL A   1      31.073  29.130  24.417  1.00  0.00     0.072 A 
ATOM     22  C   UNL A   1      28.926  28.400  22.828  1.00  0.00     0.001 A 
ATOM     23  C   UNL A   1      30.190  30.112  23.946  1.00  0.00     0.029 A 
ATOM     24  C   UNL A   1      29.117  29.745  23.148  1.00  0.00     0.002 A 
BRANCH  21  25
ATOM     25  N   UNL A   1      32.103  29.546  25.271  1.00  0.00    -0.240 N 
ATOM     26  C   UNL A   1      33.463  29.333  25.162  1.00  0.00     0.115 A 
ATOM     27  N   UNL A   1      31.775  29.966  26.506  1.00  0.00    -0.177 NA
ATOM     28  C   UNL A   1      33.908  29.181  26.449  1.00  0.00     0.042 A 
ATOM     29  C   UNL A   1      32.796  29.552  27.237  1.00  0.00     0.135 A 
ENDBRANCH  21  25
ENDBRANCH  18  19
ENDBRANCH   7   9
ENDBRANCH   4   7
ENDBRANCH   2   3
ENDBRANCH   1   2
BRANCH   1  30
ATOM     30  C   UNL A   1      39.069  23.431  26.535  1.00  0.00     0.023 C 
BRANCH  30  31
ATOM     31  C   UNL A   1      39.867  22.116  26.505  1.00  0.00     0.116 C 
BRANCH  31  32
ATOM     32  N   UNL A   1      41.122  22.007  25.761  1.00  0.00    -0.352 N 
ATOM     33  C   UNL A   1      42.167  22.931  25.551  1.00  0.00     0.251 C 
ATOM     34  H   UNL A   1      41.261  21.134  25.328  1.00  0.00     0.163 HD
ATOM     35  O   UNL A   1      43.007  22.648  24.694  1.00  0.00    -0.269 OA
BRANCH  33  36
ATOM     36  C   UNL A   1      42.373  24.193  26.358  1.00  0.00     0.039 A 
ATOM     37  C   UNL A   1      42.902  24.203  27.674  1.00  0.00     0.014 A 
ATOM     38  C   UNL A   1      41.967  25.406  25.874  1.00  0.00     0.014 A 
ATOM     39  C   UNL A   1      42.802  25.354  28.528  1.00  0.00     0.010 A 
ATOM     40  C   UNL A   1      41.749  26.462  26.741  1.00  0.00     0.010 A 
ATOM     41  C   UNL A   1      42.104  26.476  28.093  1.00  0.00    -0.014 A 
BRANCH  41  42
ATOM     42  C   UNL A   1      41.867  27.819  28.706  1.00  0.00     0.031 A 
ATOM     43  C   UNL A   1      42.877  28.805  28.257  1.00  0.00     0.074 A 
ATOM     44  C   UNL A   1      40.803  28.300  29.398  1.00  0.00     0.049 A 
ATOM     45  N   UNL A   1      43.986  29.008  28.897  1.00  0.00    -0.248 NA
ATOM     46  C   UNL A   1      42.828  29.441  26.932  1.00  0.00     0.031 C 
ATOM     47  C   UNL A   1      39.890  27.549  30.241  1.00  0.00     0.029 A 
ATOM     48  N   UNL A   1      40.323  29.600  29.533  1.00  0.00    -0.354 N 
ATOM     49  C   UNL A   1      44.632  29.987  28.170  1.00  0.00     0.074 A 
ATOM     50  C   UNL A   1      44.080  29.898  26.850  1.00  0.00     0.031 C 
ATOM     51  C   UNL A   1      38.929  28.372  30.725  1.00  0.00     0.029 A 
ATOM     52  C   UNL A   1      39.063  29.706  30.143  1.00  0.00     0.049 A 
ATOM     53  H   UNL A   1      40.830  30.385  29.224  1.00  0.00     0.167 HD
ATOM     54  C   UNL A   1      45.209  31.044  28.804  1.00  0.00     0.037 A 
ATOM     55  C   UNL A   1      38.442  30.764  30.746  1.00  0.00     0.037 A 
ATOM     56  C   UNL A   1      45.195  30.830  30.239  1.00  0.00     0.049 A 
ATOM     57  C   UNL A   1      39.515  31.543  31.376  1.00  0.00     0.074 A 
ATOM     58  C   UNL A   1      45.795  29.973  31.140  1.00  0.00     0.029 A 
ATOM     59  N   UNL A   1      44.103  31.370  30.869  1.00  0.00    -0.354 N 
ATOM     60  N   UNL A   1      40.161  31.125  32.423  1.00  0.00    -0.248 NA
ATOM     61  C   UNL A   1      40.149  32.611  30.617  1.00  0.00     0.031 C 
ATOM     62  C   UNL A   1      44.900  29.865  32.248  1.00  0.00     0.029 A 
ATOM     63  C   UNL A   1      43.803  30.687  32.014  1.00  0.00     0.049 A 
ATOM     64  H   UNL A   1      43.600  32.150  30.539  1.00  0.00     0.167 HD
ATOM     65  C   UNL A   1      41.463  31.513  32.173  1.00  0.00     0.074 A 
ATOM     66  C   UNL A   1      41.370  32.551  31.152  1.00  0.00     0.031 C 
ATOM     67  C   UNL A   1      42.498  30.744  32.613  1.00  0.00     0.037 A 
BRANCH  54  68
ATOM     68  C   UNL A   1      45.315  32.454  28.243  1.00  0.00     0.057 A 
ATOM     69  C   UNL A   1      46.604  32.976  28.019  1.00  0.00     0.134 A 
ATOM     70  C   UNL A   1      44.278  33.406  28.154  1.00  0.00     0.134 A 
ATOM     71  F   UNL A   1      47.686  32.183  28.055  1.00  0.00    -0.206 F 
ATOM     72  C   UNL A   1      46.845  34.342  27.823  1.00  0.00     0.040 A 
ATOM     73  C   UNL A   1      44.504  34.764  27.913  1.00  0.00     0.040 A 
ATOM     74  F   UNL A   1      42.992  33.124  28.377  1.00  0.00    -0.206 F 
ATOM     75  C   UNL A   1      45.793  35.243  27.782  1.00  0.00     0.006 A 
ENDBRANCH  54  68
BRANCH  55  76
ATOM     76  C   UNL A   1      37.153  31.418  30.370  1.00  0.00     0.057 A 
ATOM     77  C   UNL A   1      36.772  31.557  29.022  1.00  0.00     0.134 A 
ATOM     78  C   UNL A   1      36.186  31.799  31.310  1.00  0.00     0.134 A 
ATOM     79  F   UNL A   1      37.602  31.170  28.043  1.00  0.00    -0.206 F 
ATOM     80  C   UNL A   1      35.520  32.065  28.635  1.00  0.00     0.040 A 
ATOM     81  C   UNL A   1      34.937  32.329  30.941  1.00  0.00     0.040 A 
ATOM     82  F   UNL A   1      36.401  31.605  32.618  1.00  0.00    -0.206 F 
ATOM     83  C   UNL A   1      34.598  32.462  29.598  1.00  0.00     0.006 A 
ENDBRANCH  55  76
BRANCH  67  84
ATOM     84  C   UNL A   1      42.164  29.766  33.694  1.00  0.00     0.057 A 
ATOM     85  C   UNL A   1      41.954  28.402  33.468  1.00  0.00     0.134 A 
ATOM     86  C   UNL A   1      42.098  30.210  35.014  1.00  0.00     0.134 A 
ATOM     87  F   UNL A   1      42.173  27.872  32.263  1.00  0.00    -0.206 F 
ATOM     88  C   UNL A   1      41.591  27.529  34.497  1.00  0.00     0.040 A 
ATOM     89  C   UNL A   1      41.795  29.340  36.063  1.00  0.00     0.040 A 
ATOM     90  F   UNL A   1      42.373  31.491  35.307  1.00  0.00    -0.206 F 
ATOM     91  C   UNL A   1      41.511  28.000  35.803  1.00  0.00     0.006 A 
ENDBRANCH  67  84
ENDBRANCH  41  42
ENDBRANCH  33  36
ENDBRANCH  31  32
ENDBRANCH  30  31
ENDBRANCH   1  30
TORSDOF 14
ENDMDL
MODEL 3
REMARK VINA RESULT:     -12.5      1.908      6.129
REMARK SMILES C[C@@H](NC1=[NH+]C(=O)/C(=C\c2ccccc2-n2cccn2)S1)C(=O)NCCCCNC(=O)c1ccc(-c2c3nc(c(-c4c(F)cccc4F)c4ccc([nH]4)c(-c4c(F)cccc4F)c4nc(c(-c5c(F)cccc5F)c5ccc2[nH]5)C=C4)C=C3)cc1
REMARK SMILES IDX 26 1 25 2 24 3 22 4 23 5 2 7 1 8 3 9 4 10 5 12 21 13 6 14
REMARK SMILES IDX 8 16 7 17 9 18 10 19 11 20 15 21 12 22 14 23 13 24 16 25
REMARK SMILES IDX 17 26 20 27 18 28 19 29 27 30 28 31 29 32 30 33 31 35 32 36
REMARK SMILES IDX 33 37 85 38 34 39 84 40 35 41 36 42 37 43 78 44 38 45 83 46
REMARK SMILES IDX 77 47 79 48 39 49 82 50 76 51 75 52 40 54 66 55 49 56 65 57
REMARK SMILES IDX 50 58 53 59 64 60 80 61 51 62 52 63 63 65 81 66 54 67 41 68
REMARK SMILES IDX 42 69 47 70 43 71 44 72 46 73 48 74 45 75 67 76 68 77 73 78
REMARK SMILES IDX 69 79 70 80 72 81 74 82 71 83 55 84 56 85 61 86 57 87 58 88
REMARK SMILES IDX 60 89 62 90 59 91
REMARK H PARENT 24 6 3 11 5 15 29 34 79 53 53 64
REMARK Flexibility Score: inf
ROOT
ATOM      1  C   UNL A   1      33.017  28.940  25.517  1.00  0.00     0.023 C 
ENDROOT
BRANCH   1   2
ATOM      2  C   UNL A   1      32.862  28.679  24.005  1.00  0.00     0.116 C 
BRANCH   2   3
ATOM      3  N   UNL A   1      31.744  29.328  23.345  1.00  0.00    -0.352 N 
ATOM      4  C   UNL A   1      30.425  28.952  23.303  1.00  0.00     0.264 C 
ATOM      5  O   UNL A   1      29.613  29.797  22.908  1.00  0.00    -0.270 OA
ATOM      6  H   UNL A   1      31.964  30.154  22.856  1.00  0.00     0.163 HD
BRANCH   4   7
ATOM      7  C   UNL A   1      29.946  27.532  23.681  1.00  0.00     0.259 C 
ATOM      8  C   UNL A   1      28.432  27.413  23.502  1.00  0.00     0.069 C 
BRANCH   7   9
ATOM      9  N   UNL A   1      30.595  26.478  22.930  1.00  0.00    -0.257 N 
ATOM     10  C   UNL A   1      31.297  25.402  23.346  1.00  0.00     0.317 C 
ATOM     11  H   UNL A   1      30.507  26.558  21.953  1.00  0.00     0.306 HD
ATOM     12  N   UNL A   1      32.061  24.807  22.488  1.00  0.00    -0.200 N 
ATOM     13  S   UNL A   1      31.272  24.740  24.958  1.00  0.00     0.006 SA
ATOM     14  C   UNL A   1      32.755  23.764  23.027  1.00  0.00     0.346 C 
ATOM     15  H   UNL A   1      32.134  25.079  21.545  1.00  0.00     0.316 HD
ATOM     16  C   UNL A   1      32.530  23.641  24.509  1.00  0.00     0.110 C 
ATOM     17  O   UNL A   1      33.455  23.012  22.349  1.00  0.00    -0.240 OA
ATOM     18  C   UNL A   1      33.271  22.921  25.372  1.00  0.00     0.034 C 
BRANCH  18  19
ATOM     19  C   UNL A   1      34.526  22.300  24.899  1.00  0.00     0.002 A 
ATOM     20  C   UNL A   1      35.692  23.065  24.923  1.00  0.00     0.010 A 
ATOM     21  C   UNL A   1      34.650  20.901  24.801  1.00  0.00     0.072 A 
ATOM     22  C   UNL A   1      36.945  22.442  24.958  1.00  0.00     0.001 A 
ATOM     23  C   UNL A   1      35.900  20.277  24.924  1.00  0.00     0.029 A 
ATOM     24  C   UNL A   1      37.049  21.051  25.000  1.00  0.00     0.002 A 
BRANCH  21  25
ATOM     25  N   UNL A   1      33.518  20.075  24.792  1.00  0.00    -0.240 N 
ATOM     26  C   UNL A   1      33.078  19.192  25.759  1.00  0.00     0.115 A 
ATOM     27  N   UNL A   1      32.895  19.862  23.619  1.00  0.00    -0.177 NA
ATOM     28  C   UNL A   1      32.526  18.147  25.065  1.00  0.00     0.042 A 
ATOM     29  C   UNL A   1      32.477  18.613  23.733  1.00  0.00     0.135 A 
ENDBRANCH  21  25
ENDBRANCH  18  19
ENDBRANCH   7   9
ENDBRANCH   4   7
ENDBRANCH   2   3
ENDBRANCH   1   2
BRANCH   1  30
ATOM     30  C   UNL A   1      34.373  29.324  26.144  1.00  0.00     0.023 C 
BRANCH  30  31
ATOM     31  C   UNL A   1      34.685  29.022  27.620  1.00  0.00     0.116 C 
BRANCH  31  32
ATOM     32  N   UNL A   1      35.152  30.071  28.527  1.00  0.00    -0.352 N 
ATOM     33  C   UNL A   1      36.335  30.189  29.287  1.00  0.00     0.251 C 
ATOM     34  H   UNL A   1      34.530  30.828  28.625  1.00  0.00     0.163 HD
ATOM     35  O   UNL A   1      36.370  31.079  30.140  1.00  0.00    -0.269 OA
BRANCH  33  36
ATOM     36  C   UNL A   1      37.582  29.364  29.070  1.00  0.00     0.039 A 
ATOM     37  C   UNL A   1      37.887  28.194  29.811  1.00  0.00     0.014 A 
ATOM     38  C   UNL A   1      38.542  29.768  28.182  1.00  0.00     0.014 A 
ATOM     39  C   UNL A   1      39.199  27.609  29.810  1.00  0.00     0.010 A 
ATOM     40  C   UNL A   1      39.834  29.286  28.289  1.00  0.00     0.010 A 
ATOM     41  C   UNL A   1      40.233  28.237  29.123  1.00  0.00    -0.014 A 
BRANCH  41  42
ATOM     42  C   UNL A   1      41.662  27.867  28.888  1.00  0.00     0.031 A 
ATOM     43  C   UNL A   1      41.780  26.717  27.963  1.00  0.00     0.074 A 
ATOM     44  C   UNL A   1      42.808  28.523  29.203  1.00  0.00     0.049 A 
ATOM     45  N   UNL A   1      41.811  25.489  28.377  1.00  0.00    -0.248 NA
ATOM     46  C   UNL A   1      41.613  26.850  26.509  1.00  0.00     0.031 C 
ATOM     47  C   UNL A   1      43.031  29.417  30.325  1.00  0.00     0.029 A 
ATOM     48  N   UNL A   1      44.061  28.499  28.596  1.00  0.00    -0.354 N 
ATOM     49  C   UNL A   1      41.928  24.736  27.226  1.00  0.00     0.074 A 
ATOM     50  C   UNL A   1      41.416  25.571  26.180  1.00  0.00     0.031 C 
ATOM     51  C   UNL A   1      44.290  29.912  30.275  1.00  0.00     0.029 A 
ATOM     52  C   UNL A   1      44.959  29.478  29.050  1.00  0.00     0.049 A 
ATOM     53  H   UNL A   1      44.299  27.843  27.900  1.00  0.00     0.167 HD
ATOM     54  C   UNL A   1      42.823  23.712  27.165  1.00  0.00     0.037 A 
ATOM     55  C   UNL A   1      46.321  29.557  28.968  1.00  0.00     0.037 A 
ATOM     56  C   UNL A   1      43.391  23.470  28.478  1.00  0.00     0.049 A 
ATOM     57  C   UNL A   1      46.801  28.172  29.055  1.00  0.00     0.074 A 
ATOM     58  C   UNL A   1      42.952  23.002  29.700  1.00  0.00     0.029 A 
ATOM     59  N   UNL A   1      44.563  24.146  28.707  1.00  0.00    -0.354 N 
ATOM     60  N   UNL A   1      46.751  27.482  30.155  1.00  0.00    -0.248 NA
ATOM     61  C   UNL A   1      46.975  27.409  27.828  1.00  0.00     0.031 C 
ATOM     62  C   UNL A   1      43.791  23.605  30.686  1.00  0.00     0.029 A 
ATOM     63  C   UNL A   1      44.742  24.388  30.040  1.00  0.00     0.049 A 
ATOM     64  H   UNL A   1      45.193  24.422  28.003  1.00  0.00     0.167 HD
ATOM     65  C   UNL A   1      46.396  26.218  29.726  1.00  0.00     0.074 A 
ATOM     66  C   UNL A   1      46.708  26.189  28.301  1.00  0.00     0.031 C 
ATOM     67  C   UNL A   1      45.615  25.428  30.513  1.00  0.00     0.037 A 
BRANCH  54  68
ATOM     68  C   UNL A   1      43.571  23.273  25.916  1.00  0.00     0.057 A 
ATOM     69  C   UNL A   1      43.523  21.909  25.567  1.00  0.00     0.134 A 
ATOM     70  C   UNL A   1      44.523  24.024  25.195  1.00  0.00     0.134 A 
ATOM     71  F   UNL A   1      42.653  21.076  26.158  1.00  0.00    -0.206 F 
ATOM     72  C   UNL A   1      44.412  21.328  24.654  1.00  0.00     0.040 A 
ATOM     73  C   UNL A   1      45.385  23.463  24.249  1.00  0.00     0.040 A 
ATOM     74  F   UNL A   1      44.757  25.322  25.406  1.00  0.00    -0.206 F 
ATOM     75  C   UNL A   1      45.356  22.104  24.001  1.00  0.00     0.006 A 
ENDBRANCH  54  68
BRANCH  55  76
ATOM     76  C   UNL A   1      47.150  30.603  28.299  1.00  0.00     0.057 A 
ATOM     77  C   UNL A   1      46.729  31.208  27.100  1.00  0.00     0.134 A 
ATOM     78  C   UNL A   1      48.302  31.151  28.876  1.00  0.00     0.134 A 
ATOM     79  F   UNL A   1      45.607  30.797  26.493  1.00  0.00    -0.206 F 
ATOM     80  C   UNL A   1      47.426  32.273  26.501  1.00  0.00     0.040 A 
ATOM     81  C   UNL A   1      49.023  32.201  28.280  1.00  0.00     0.040 A 
ATOM     82  F   UNL A   1      48.727  30.726  30.074  1.00  0.00    -0.206 F 
ATOM     83  C   UNL A   1      48.584  32.769  27.089  1.00  0.00     0.006 A 
ENDBRANCH  55  76
BRANCH  67  84
ATOM     84  C   UNL A   1      45.551  25.813  31.957  1.00  0.00     0.057 A 
ATOM     85  C   UNL A   1      46.606  25.627  32.856  1.00  0.00     0.134 A 
ATOM     86  C   UNL A   1      44.403  26.435  32.443  1.00  0.00     0.134 A 
ATOM     87  F   UNL A   1      47.797  25.202  32.427  1.00  0.00    -0.206 F 
ATOM     88  C   UNL A   1      46.490  25.950  34.211  1.00  0.00     0.040 A 
ATOM     89  C   UNL A   1      44.292  26.820  33.781  1.00  0.00     0.040 A 
ATOM     90  F   UNL A   1      43.388  26.720  31.612  1.00  0.00    -0.206 F 
ATOM     91  C   UNL A   1      45.326  26.551  34.677  1.00  0.00     0.006 A 
ENDBRANCH  67  84
ENDBRANCH  41  42
ENDBRANCH  33  36
ENDBRANCH  31  32
ENDBRANCH  30  31
ENDBRANCH   1  30
TORSDOF 14
ENDMDL
